MODEL        1
REMARK 921   NORMALIZED FREE ENERGY PREDICTED BY IDOCK:   -7.98 KCAL/MOL
REMARK 922        TOTAL FREE ENERGY PREDICTED BY IDOCK:  -10.26 KCAL/MOL
REMARK 923 INTER-LIGAND FREE ENERGY PREDICTED BY IDOCK:   -9.84 KCAL/MOL
REMARK 924 INTRA-LIGAND FREE ENERGY PREDICTED BY IDOCK:   -0.41 KCAL/MOL
REMARK 927      BINDING AFFINITY PREDICTED BY RF-SCORE:    0.00 PKD
ROOT
HETATM    1  C   UNL     1     -10.453   5.464  70.531  1.00  0.00    -0.265 C  
HETATM    2  N   UNL     1     -11.383   6.505  70.096  1.00  0.00    -0.373 NA 
HETATM    3  C   UNL     1     -12.076   7.106  71.255  1.00  0.00    -0.348 C  
HETATM    4  C   UNL     1     -11.192   8.051  72.100  1.00  0.00    -0.319 C  
HETATM    5  N   UNL     1     -10.556   9.137  71.326  1.00  0.00    -0.302 NA 
HETATM    6  C   UNL     1      -9.831   8.535  70.182  1.00  0.00    -0.178 C  
HETATM    7  C   UNL     1     -10.679   7.557  69.330  1.00  0.00    -0.193 C  
ENDROOT
BRANCH   5   8
HETATM    8  C   UNL     1     -11.522  10.135  70.836  1.00  0.00    -0.360 C  
BRANCH   8   9
HETATM    9  C   UNL     1     -11.012  10.967  69.660  1.00  0.00    -0.311 C  
BRANCH   9  10
HETATM   10  C   UNL     1     -12.118  11.485  68.728  1.00  0.00    -0.170 C  
BRANCH  10  11
HETATM   11  N   UNL     1     -11.868  12.864  68.225  1.00  0.00    -0.342 NA 
HETATM   12  C   UNL     1     -11.385  12.940  66.877  1.00  0.00    -0.312 A  
HETATM   13  C   UNL     1     -11.504  11.855  65.972  1.00  0.00    -0.344 A  
HETATM   14  C   UNL     1     -10.917  11.856  64.704  1.00  0.00    -0.370 A  
HETATM   15  C   UNL     1     -10.238  12.975  64.262  1.00  0.00    -0.316 A  
HETATM   16  C   UNL     1     -10.172  14.092  65.088  1.00  0.00    -0.411 A  
HETATM   17  C   UNL     1     -10.740  14.085  66.378  1.00  0.00    -0.278 A  
HETATM   18  S   UNL     1     -10.549  15.591  67.293  1.00  0.00    -0.302 SA 
HETATM   19  C   UNL     1     -11.287  15.192  68.857  1.00  0.00    -0.301 A  
HETATM   20  C   UNL     1     -11.838  13.931  69.174  1.00  0.00    -0.358 A  
HETATM   21  C   UNL     1     -12.367  13.815  70.484  1.00  0.00    -0.429 A  
HETATM   22  C   UNL     1     -12.326  14.851  71.441  1.00  0.00    -0.397 A  
HETATM   23  C   UNL     1     -12.867  14.654  72.836  1.00  0.00    -0.461 C  
HETATM   24  C   UNL     1     -11.767  16.074  71.083  1.00  0.00    -0.487 A  
HETATM   25  F   UNL     1     -11.920  14.856  73.795  1.00  0.00    -0.498 F  
HETATM   26  F   UNL     1     -13.879  15.518  73.128  1.00  0.00    -0.548 F  
HETATM   27  F   UNL     1     -13.366  13.407  73.065  1.00  0.00    -0.554 F  
HETATM   28  C   UNL     1     -11.258  16.241  69.800  1.00  0.00    -0.314 A  
ENDBRANCH  10  11
ENDBRANCH   9  10
ENDBRANCH   8   9
ENDBRANCH   5   8
TORSDOF 4
ENDMDL
MODEL        2
REMARK 921   NORMALIZED FREE ENERGY PREDICTED BY IDOCK:   -7.87 KCAL/MOL
REMARK 922        TOTAL FREE ENERGY PREDICTED BY IDOCK:  -10.13 KCAL/MOL
REMARK 923 INTER-LIGAND FREE ENERGY PREDICTED BY IDOCK:   -9.58 KCAL/MOL
REMARK 924 INTRA-LIGAND FREE ENERGY PREDICTED BY IDOCK:   -0.55 KCAL/MOL
REMARK 927      BINDING AFFINITY PREDICTED BY RF-SCORE:    0.00 PKD
ROOT
HETATM    1  C   UNL     1      -7.156  19.716  65.757  1.00  0.00    -0.303 C  
HETATM    2  N   UNL     1      -8.500  19.155  65.882  1.00  0.00    -0.433 NA 
HETATM    3  C   UNL     1      -8.439  17.715  66.212  1.00  0.00    -0.202 C  
HETATM    4  C   UNL     1      -8.026  17.418  67.671  1.00  0.00    -0.193 C  
HETATM    5  N   UNL     1      -8.864  18.090  68.685  1.00  0.00    -0.291 NA 
HETATM    6  C   UNL     1      -8.899  19.540  68.378  1.00  0.00    -0.342 C  
HETATM    7  C   UNL     1      -9.280  19.874  66.913  1.00  0.00    -0.370 C  
ENDROOT
BRANCH   5   8
HETATM    8  C   UNL     1     -10.236  17.558  68.743  1.00  0.00    -0.373 C  
BRANCH   8   9
HETATM    9  C   UNL     1     -10.309  16.032  68.746  1.00  0.00    -0.237 C  
BRANCH   9  10
HETATM   10  C   UNL     1     -11.637  15.464  68.220  1.00  0.00    -0.348 C  
BRANCH  10  11
HETATM   11  N   UNL     1     -12.012  14.166  68.846  1.00  0.00    -0.347 NA 
HETATM   12  C   UNL     1     -12.504  14.259  70.190  1.00  0.00    -0.335 A  
HETATM   13  C   UNL     1     -12.964  15.482  70.740  1.00  0.00    -0.490 A  
HETATM   14  C   UNL     1     -13.312  15.627  72.086  1.00  0.00    -0.548 A  
HETATM   15  C   UNL     1     -13.277  14.530  72.926  1.00  0.00    -0.612 A  
HETATM   16  C   UNL     1     -12.912  13.293  72.404  1.00  0.00    -0.334 A  
HETATM   17  C   UNL     1     -12.534  13.150  71.053  1.00  0.00    -0.318 A  
HETATM   18  S   UNL     1     -12.091  11.505  70.566  1.00  0.00    -0.331 SA 
HETATM   19  C   UNL     1     -11.599  11.719  68.874  1.00  0.00    -0.309 A  
HETATM   20  C   UNL     1     -11.589  12.962  68.204  1.00  0.00    -0.336 A  
HETATM   21  C   UNL     1     -11.150  12.918  66.857  1.00  0.00    -0.312 A  
HETATM   22  C   UNL     1     -10.708  11.743  66.214  1.00  0.00    -0.312 A  
HETATM   23  C   UNL     1     -10.209  11.767  64.790  1.00  0.00    -0.282 C  
HETATM   24  C   UNL     1     -10.730  10.543  66.918  1.00  0.00    -0.281 A  
HETATM   25  F   UNL     1      -8.927  11.317  64.679  1.00  0.00    -0.170 F  
HETATM   26  F   UNL     1     -10.951  10.975  63.966  1.00  0.00    -0.437 F  
HETATM   27  F   UNL     1     -10.218  13.004  64.220  1.00  0.00    -0.376 F  
HETATM   28  C   UNL     1     -11.177  10.535  68.234  1.00  0.00    -0.354 A  
ENDBRANCH  10  11
ENDBRANCH   9  10
ENDBRANCH   8   9
ENDBRANCH   5   8
TORSDOF 4
ENDMDL
MODEL        3
REMARK 921   NORMALIZED FREE ENERGY PREDICTED BY IDOCK:   -7.67 KCAL/MOL
REMARK 922        TOTAL FREE ENERGY PREDICTED BY IDOCK:   -9.88 KCAL/MOL
REMARK 923 INTER-LIGAND FREE ENERGY PREDICTED BY IDOCK:   -9.47 KCAL/MOL
REMARK 924 INTRA-LIGAND FREE ENERGY PREDICTED BY IDOCK:   -0.41 KCAL/MOL
REMARK 927      BINDING AFFINITY PREDICTED BY RF-SCORE:    0.00 PKD
ROOT
HETATM    1  C   UNL     1      -7.428  20.528  67.741  1.00  0.00    -0.241 C  
HETATM    2  N   UNL     1      -8.032  19.368  68.396  1.00  0.00    -0.330 NA 
HETATM    3  C   UNL     1      -9.476  19.585  68.622  1.00  0.00    -0.397 C  
HETATM    4  C   UNL     1     -10.338  19.490  67.342  1.00  0.00    -0.450 C  
HETATM    5  N   UNL     1     -10.171  18.227  66.595  1.00  0.00    -0.365 NA 
HETATM    6  C   UNL     1      -8.726  18.022  66.336  1.00  0.00    -0.227 C  
HETATM    7  C   UNL     1      -7.828  18.142  67.593  1.00  0.00    -0.224 C  
ENDROOT
BRANCH   5   8
HETATM    8  C   UNL     1     -10.722  17.061  67.306  1.00  0.00    -0.206 C  
BRANCH   8   9
HETATM    9  C   UNL     1     -10.425  15.724  66.628  1.00  0.00    -0.302 C  
BRANCH   9  10
HETATM   10  C   UNL     1     -11.582  14.715  66.692  1.00  0.00    -0.350 C  
BRANCH  10  11
HETATM   11  N   UNL     1     -11.170  13.376  67.197  1.00  0.00    -0.293 NA 
HETATM   12  C   UNL     1     -10.639  12.489  66.203  1.00  0.00    -0.253 A  
HETATM   13  C   UNL     1     -10.182  12.955  64.945  1.00  0.00    -0.296 A  
HETATM   14  C   UNL     1      -9.796  12.098  63.911  1.00  0.00    -0.240 A  
HETATM   15  C   UNL     1      -9.790  10.731  64.118  1.00  0.00    -0.384 A  
HETATM   16  C   UNL     1     -10.151  10.239  65.367  1.00  0.00    -0.354 A  
HETATM   17  C   UNL     1     -10.567  11.099  66.404  1.00  0.00    -0.261 A  
HETATM   18  S   UNL     1     -11.000  10.295  67.922  1.00  0.00    -0.269 SA 
HETATM   19  C   UNL     1     -11.545  11.646  68.936  1.00  0.00    -0.314 A  
HETATM   20  C   UNL     1     -11.593  12.990  68.506  1.00  0.00    -0.328 A  
HETATM   21  C   UNL     1     -12.072  13.915  69.467  1.00  0.00    -0.393 A  
HETATM   22  C   UNL     1     -12.516  13.549  70.756  1.00  0.00    -0.428 A  
HETATM   23  C   UNL     1     -13.056  14.575  71.721  1.00  0.00    -0.346 C  
HETATM   24  C   UNL     1     -12.454  12.210  71.131  1.00  0.00    -0.337 A  
HETATM   25  F   UNL     1     -14.334  14.301  72.109  1.00  0.00    -0.505 F  
HETATM   26  F   UNL     1     -12.328  14.642  72.870  1.00  0.00    -0.395 F  
HETATM   27  F   UNL     1     -13.083  15.843  71.225  1.00  0.00    -0.512 F  
HETATM   28  C   UNL     1     -11.968  11.271  70.229  1.00  0.00    -0.466 A  
ENDBRANCH  10  11
ENDBRANCH   9  10
ENDBRANCH   8   9
ENDBRANCH   5   8
TORSDOF 4
ENDMDL
MODEL        4
REMARK 921   NORMALIZED FREE ENERGY PREDICTED BY IDOCK:   -7.63 KCAL/MOL
REMARK 922        TOTAL FREE ENERGY PREDICTED BY IDOCK:   -9.83 KCAL/MOL
REMARK 923 INTER-LIGAND FREE ENERGY PREDICTED BY IDOCK:   -9.33 KCAL/MOL
REMARK 924 INTRA-LIGAND FREE ENERGY PREDICTED BY IDOCK:   -0.50 KCAL/MOL
REMARK 927      BINDING AFFINITY PREDICTED BY RF-SCORE:    0.00 PKD
ROOT
HETATM    1  C   UNL     1      -7.555  20.740  67.453  1.00  0.00    -0.300 C  
HETATM    2  N   UNL     1      -8.700  20.168  66.745  1.00  0.00    -0.321 NA 
HETATM    3  C   UNL     1      -8.407  18.788  66.305  1.00  0.00    -0.246 C  
HETATM    4  C   UNL     1      -8.411  17.745  67.446  1.00  0.00    -0.226 C  
HETATM    5  N   UNL     1      -9.656  17.724  68.240  1.00  0.00    -0.299 NA 
HETATM    6  C   UNL     1      -9.934  19.101  68.713  1.00  0.00    -0.427 C  
HETATM    7  C   UNL     1      -9.908  20.177  67.599  1.00  0.00    -0.429 C  
ENDROOT
BRANCH   5   8
HETATM    8  C   UNL     1     -10.812  17.212  67.485  1.00  0.00    -0.203 C  
BRANCH   8   9
HETATM    9  C   UNL     1     -11.263  15.816  67.911  1.00  0.00    -0.313 C  
BRANCH   9  10
HETATM   10  C   UNL     1     -10.226  15.046  68.744  1.00  0.00    -0.235 C  
BRANCH  10  11
HETATM   11  N   UNL     1     -10.703  13.707  69.188  1.00  0.00    -0.163 NA 
HETATM   12  C   UNL     1     -10.442  12.635  68.271  1.00  0.00    -0.239 A  
HETATM   13  C   UNL     1      -9.486  12.750  67.231  1.00  0.00    -0.204 A  
HETATM   14  C   UNL     1      -9.318  11.776  66.243  1.00  0.00    -0.235 A  
HETATM   15  C   UNL     1     -10.060  10.611  66.293  1.00  0.00    -0.291 A  
HETATM   16  C   UNL     1     -10.948  10.424  67.346  1.00  0.00    -0.335 A  
HETATM   17  C   UNL     1     -11.140  11.416  68.330  1.00  0.00    -0.244 A  
HETATM   18  S   UNL     1     -12.318  11.010  69.589  1.00  0.00    -0.129 SA 
HETATM   19  C   UNL     1     -12.363  12.487  70.571  1.00  0.00    -0.262 A  
HETATM   20  C   UNL     1     -11.605  13.646  70.293  1.00  0.00    -0.092 A  
HETATM   21  C   UNL     1     -11.795  14.722  71.196  1.00  0.00    -0.387 A  
HETATM   22  C   UNL     1     -12.698  14.688  72.280  1.00  0.00    -0.413 A  
HETATM   23  C   UNL     1     -12.888  15.883  73.181  1.00  0.00    -0.537 C  
HETATM   24  C   UNL     1     -13.426  13.525  72.509  1.00  0.00    -0.660 A  
HETATM   25  F   UNL     1     -14.179  16.322  73.197  1.00  0.00    -0.670 F  
HETATM   26  F   UNL     1     -12.576  15.610  74.479  1.00  0.00    -0.623 F  
HETATM   27  F   UNL     1     -12.134  16.963  72.837  1.00  0.00    -0.479 F  
HETATM   28  C   UNL     1     -13.254  12.435  71.664  1.00  0.00    -0.367 A  
ENDBRANCH  10  11
ENDBRANCH   9  10
ENDBRANCH   8   9
ENDBRANCH   5   8
TORSDOF 4
ENDMDL
MODEL        5
REMARK 921   NORMALIZED FREE ENERGY PREDICTED BY IDOCK:   -7.61 KCAL/MOL
REMARK 922        TOTAL FREE ENERGY PREDICTED BY IDOCK:   -9.80 KCAL/MOL
REMARK 923 INTER-LIGAND FREE ENERGY PREDICTED BY IDOCK:   -9.34 KCAL/MOL
REMARK 924 INTRA-LIGAND FREE ENERGY PREDICTED BY IDOCK:   -0.47 KCAL/MOL
REMARK 927      BINDING AFFINITY PREDICTED BY RF-SCORE:    0.00 PKD
ROOT
HETATM    1  C   UNL     1     -11.050   5.083  73.424  1.00  0.00    -0.335 C  
HETATM    2  N   UNL     1     -10.222   6.113  72.799  1.00  0.00    -0.181 NA 
HETATM    3  C   UNL     1     -10.196   5.945  71.331  1.00  0.00    -0.211 C  
HETATM    4  C   UNL     1     -11.504   6.365  70.622  1.00  0.00    -0.362 C  
HETATM    5  N   UNL     1     -11.937   7.745  70.922  1.00  0.00    -0.256 NA 
HETATM    6  C   UNL     1     -11.998   7.907  72.394  1.00  0.00    -0.320 C  
HETATM    7  C   UNL     1     -10.713   7.466  73.140  1.00  0.00    -0.387 C  
ENDROOT
BRANCH   5   8
HETATM    8  C   UNL     1     -11.048   8.766  70.343  1.00  0.00    -0.236 C  
BRANCH   8   9
HETATM    9  C   UNL     1     -11.345  10.188  70.815  1.00  0.00    -0.436 C  
BRANCH   9  10
HETATM   10  C   UNL     1     -12.339  10.952  69.926  1.00  0.00    -0.285 C  
BRANCH  10  11
HETATM   11  N   UNL     1     -11.895  12.335  69.600  1.00  0.00    -0.328 NA 
HETATM   12  C   UNL     1     -12.342  13.348  70.513  1.00  0.00    -0.329 A  
HETATM   13  C   UNL     1     -12.824  13.033  71.809  1.00  0.00    -0.351 A  
HETATM   14  C   UNL     1     -13.395  13.984  72.659  1.00  0.00    -0.643 A  
HETATM   15  C   UNL     1     -13.449  15.309  72.269  1.00  0.00    -0.552 A  
HETATM   16  C   UNL     1     -12.909  15.671  71.040  1.00  0.00    -0.521 A  
HETATM   17  C   UNL     1     -12.357  14.710  70.169  1.00  0.00    -0.336 A  
HETATM   18  S   UNL     1     -11.728  15.352  68.642  1.00  0.00    -0.317 SA 
HETATM   19  C   UNL     1     -11.210  13.885  67.787  1.00  0.00    -0.293 A  
HETATM   20  C   UNL     1     -11.344  12.578  68.305  1.00  0.00    -0.286 A  
HETATM   21  C   UNL     1     -10.878  11.542  67.457  1.00  0.00    -0.285 A  
HETATM   22  C   UNL     1     -10.351  11.761  66.166  1.00  0.00    -0.266 A  
HETATM   23  C   UNL     1      -9.911  10.613  65.292  1.00  0.00    -0.294 C  
HETATM   24  C   UNL     1     -10.245  13.067  65.699  1.00  0.00    -0.296 A  
HETATM   25  F   UNL     1     -10.584  10.574  64.107  1.00  0.00    -0.419 F  
HETATM   26  F   UNL     1      -8.591  10.684  64.965  1.00  0.00    -0.175 F  
HETATM   27  F   UNL     1     -10.087   9.386  65.858  1.00  0.00    -0.351 F  
HETATM   28  C   UNL     1     -10.666  14.117  66.506  1.00  0.00    -0.289 A  
ENDBRANCH  10  11
ENDBRANCH   9  10
ENDBRANCH   8   9
ENDBRANCH   5   8
TORSDOF 4
ENDMDL
MODEL        6
REMARK 921   NORMALIZED FREE ENERGY PREDICTED BY IDOCK:   -7.61 KCAL/MOL
REMARK 922        TOTAL FREE ENERGY PREDICTED BY IDOCK:   -9.80 KCAL/MOL
REMARK 923 INTER-LIGAND FREE ENERGY PREDICTED BY IDOCK:   -9.28 KCAL/MOL
REMARK 924 INTRA-LIGAND FREE ENERGY PREDICTED BY IDOCK:   -0.52 KCAL/MOL
REMARK 927      BINDING AFFINITY PREDICTED BY RF-SCORE:    0.00 PKD
ROOT
HETATM    1  C   UNL     1     -11.617  15.681  64.503  1.00  0.00    -0.262 C  
HETATM    2  N   UNL     1     -10.731  14.522  64.601  1.00  0.00    -0.374 NA 
HETATM    3  C   UNL     1     -10.331  14.284  66.003  1.00  0.00    -0.309 C  
HETATM    4  C   UNL     1     -11.448  13.682  66.886  1.00  0.00    -0.345 C  
HETATM    5  N   UNL     1     -12.033  12.435  66.354  1.00  0.00    -0.607 NA 
HETATM    6  C   UNL     1     -12.468  12.680  64.958  1.00  0.00    -0.487 C  
HETATM    7  C   UNL     1     -11.381  13.312  64.051  1.00  0.00    -0.363 C  
ENDROOT
BRANCH   5   8
HETATM    8  C   UNL     1     -11.099  11.298  66.394  1.00  0.00    -0.193 C  
BRANCH   8   9
HETATM    9  C   UNL     1     -11.284  10.386  67.606  1.00  0.00    -0.287 C  
BRANCH   9  10
HETATM   10  C   UNL     1     -10.551  10.863  68.870  1.00  0.00    -0.210 C  
BRANCH  10  11
HETATM   11  N   UNL     1     -11.240  10.475  70.132  1.00  0.00    -0.301 NA 
HETATM   12  C   UNL     1     -11.274   9.065  70.397  1.00  0.00    -0.241 A  
HETATM   13  C   UNL     1     -10.408   8.155  69.742  1.00  0.00    -0.216 A  
HETATM   14  C   UNL     1     -10.519   6.769  69.878  1.00  0.00    -0.242 A  
HETATM   15  C   UNL     1     -11.467   6.236  70.731  1.00  0.00    -0.383 A  
HETATM   16  C   UNL     1     -12.280   7.100  71.457  1.00  0.00    -0.396 A  
HETATM   17  C   UNL     1     -12.189   8.498  71.302  1.00  0.00    -0.277 A  
HETATM   18  S   UNL     1     -13.310   9.441  72.298  1.00  0.00    -0.431 SA 
HETATM   19  C   UNL     1     -12.980  11.108  71.785  1.00  0.00    -0.421 A  
HETATM   20  C   UNL     1     -12.037  11.458  70.793  1.00  0.00    -0.332 A  
HETATM   21  C   UNL     1     -11.934  12.846  70.522  1.00  0.00    -0.282 A  
HETATM   22  C   UNL     1     -12.729  13.829  71.149  1.00  0.00    -0.438 A  
HETATM   23  C   UNL     1     -12.604  15.288  70.787  1.00  0.00    -0.417 C  
HETATM   24  C   UNL     1     -13.648  13.432  72.116  1.00  0.00    -0.660 A  
HETATM   25  F   UNL     1     -13.778  15.815  70.335  1.00  0.00    -0.207 F  
HETATM   26  F   UNL     1     -12.239  16.058  71.850  1.00  0.00    -0.420 F  
HETATM   27  F   UNL     1     -11.685  15.541  69.814  1.00  0.00    -0.263 F  
HETATM   28  C   UNL     1     -13.766  12.084  72.432  1.00  0.00     0.081 A  
ENDBRANCH  10  11
ENDBRANCH   9  10
ENDBRANCH   8   9
ENDBRANCH   5   8
TORSDOF 4
ENDMDL
MODEL        7
REMARK 921   NORMALIZED FREE ENERGY PREDICTED BY IDOCK:   -7.61 KCAL/MOL
REMARK 922        TOTAL FREE ENERGY PREDICTED BY IDOCK:   -9.80 KCAL/MOL
REMARK 923 INTER-LIGAND FREE ENERGY PREDICTED BY IDOCK:   -9.22 KCAL/MOL
REMARK 924 INTRA-LIGAND FREE ENERGY PREDICTED BY IDOCK:   -0.58 KCAL/MOL
REMARK 927      BINDING AFFINITY PREDICTED BY RF-SCORE:    0.00 PKD
ROOT
HETATM    1  C   UNL     1      -6.924  20.621  67.678  1.00  0.00    -0.330 C  
HETATM    2  N   UNL     1      -6.876  19.163  67.581  1.00  0.00    -0.214 NA 
HETATM    3  C   UNL     1      -7.511  18.538  68.760  1.00  0.00    -0.286 C  
HETATM    4  C   UNL     1      -9.054  18.627  68.770  1.00  0.00    -0.266 C  
HETATM    5  N   UNL     1      -9.698  18.087  67.556  1.00  0.00    -0.282 NA 
HETATM    6  C   UNL     1      -9.088  18.737  66.372  1.00  0.00    -0.300 C  
HETATM    7  C   UNL     1      -7.539  18.692  66.345  1.00  0.00    -0.259 C  
ENDROOT
BRANCH   5   8
HETATM    8  C   UNL     1      -9.574  16.624  67.442  1.00  0.00    -0.242 C  
BRANCH   8   9
HETATM    9  C   UNL     1     -10.277  15.853  68.558  1.00  0.00    -0.226 C  
BRANCH   9  10
HETATM   10  C   UNL     1     -11.710  15.415  68.214  1.00  0.00    -0.297 C  
BRANCH  10  11
HETATM   11  N   UNL     1     -12.094  14.116  68.833  1.00  0.00    -0.336 NA 
HETATM   12  C   UNL     1     -12.610  14.207  70.168  1.00  0.00    -0.268 A  
HETATM   13  C   UNL     1     -13.081  15.429  70.711  1.00  0.00    -0.479 A  
HETATM   14  C   UNL     1     -13.454  15.573  72.050  1.00  0.00    -0.578 A  
HETATM   15  C   UNL     1     -13.430  14.475  72.890  1.00  0.00    -0.525 A  
HETATM   16  C   UNL     1     -13.055  13.240  72.374  1.00  0.00    -0.443 A  
HETATM   17  C   UNL     1     -12.652  13.098  71.030  1.00  0.00    -0.312 A  
HETATM   18  S   UNL     1     -12.197  11.454  70.551  1.00  0.00    -0.370 SA 
HETATM   19  C   UNL     1     -11.676  11.670  68.868  1.00  0.00    -0.334 A  
HETATM   20  C   UNL     1     -11.657  12.913  68.198  1.00  0.00    -0.336 A  
HETATM   21  C   UNL     1     -11.194  12.871  66.859  1.00  0.00    -0.331 A  
HETATM   22  C   UNL     1     -10.738  11.696  66.223  1.00  0.00    -0.317 A  
HETATM   23  C   UNL     1     -10.215  11.722  64.808  1.00  0.00    -0.282 C  
HETATM   24  C   UNL     1     -10.771  10.497  66.927  1.00  0.00    -0.281 A  
HETATM   25  F   UNL     1      -8.930  11.275  64.720  1.00  0.00    -0.177 F  
HETATM   26  F   UNL     1     -10.940  10.929  63.971  1.00  0.00    -0.438 F  
HETATM   27  F   UNL     1     -10.216  12.959  64.239  1.00  0.00    -0.354 F  
HETATM   28  C   UNL     1     -11.241  10.487  68.235  1.00  0.00    -0.354 A  
ENDBRANCH  10  11
ENDBRANCH   9  10
ENDBRANCH   8   9
ENDBRANCH   5   8
TORSDOF 4
ENDMDL
MODEL        8
REMARK 921   NORMALIZED FREE ENERGY PREDICTED BY IDOCK:   -7.60 KCAL/MOL
REMARK 922        TOTAL FREE ENERGY PREDICTED BY IDOCK:   -9.79 KCAL/MOL
REMARK 923 INTER-LIGAND FREE ENERGY PREDICTED BY IDOCK:   -9.39 KCAL/MOL
REMARK 924 INTRA-LIGAND FREE ENERGY PREDICTED BY IDOCK:   -0.41 KCAL/MOL
REMARK 927      BINDING AFFINITY PREDICTED BY RF-SCORE:    0.00 PKD
ROOT
HETATM    1  C   UNL     1      -9.537   5.156  73.144  1.00  0.00    -0.141 C  
HETATM    2  N   UNL     1     -10.767   5.896  73.424  1.00  0.00    -0.262 NA 
HETATM    3  C   UNL     1     -10.480   7.329  73.640  1.00  0.00    -0.344 C  
HETATM    4  C   UNL     1     -10.137   8.108  72.349  1.00  0.00    -0.285 C  
HETATM    5  N   UNL     1     -11.157   7.996  71.287  1.00  0.00    -0.242 NA 
HETATM    6  C   UNL     1     -11.423   6.558  71.043  1.00  0.00    -0.336 C  
HETATM    7  C   UNL     1     -11.740   5.740  72.320  1.00  0.00    -0.205 C  
ENDROOT
BRANCH   5   8
HETATM    8  C   UNL     1     -12.414   8.687  71.621  1.00  0.00    -0.335 C  
BRANCH   8   9
HETATM    9  C   UNL     1     -12.636   9.982  70.843  1.00  0.00    -0.424 C  
BRANCH   9  10
HETATM   10  C   UNL     1     -11.340  10.699  70.431  1.00  0.00    -0.304 C  
BRANCH  10  11
HETATM   11  N   UNL     1     -11.519  11.626  69.279  1.00  0.00    -0.274 NA 
HETATM   12  C   UNL     1     -11.083  11.112  68.013  1.00  0.00    -0.276 A  
HETATM   13  C   UNL     1     -10.868   9.728  67.796  1.00  0.00    -0.306 A  
HETATM   14  C   UNL     1     -10.309   9.221  66.620  1.00  0.00    -0.292 A  
HETATM   15  C   UNL     1     -10.001  10.079  65.581  1.00  0.00    -0.355 A  
HETATM   16  C   UNL     1     -10.277  11.434  65.723  1.00  0.00    -0.295 A  
HETATM   17  C   UNL     1     -10.815  11.952  66.919  1.00  0.00    -0.263 A  
HETATM   18  S   UNL     1     -11.089  13.703  66.924  1.00  0.00    -0.311 SA 
HETATM   19  C   UNL     1     -11.670  14.000  68.575  1.00  0.00    -0.352 A  
HETATM   20  C   UNL     1     -11.813  12.996  69.557  1.00  0.00    -0.323 A  
HETATM   21  C   UNL     1     -12.282  13.446  70.817  1.00  0.00    -0.409 A  
HETATM   22  C   UNL     1     -12.556  14.797  71.115  1.00  0.00    -0.407 A  
HETATM   23  C   UNL     1     -13.011  15.221  72.490  1.00  0.00    -0.393 C  
HETATM   24  C   UNL     1     -12.394  15.751  70.115  1.00  0.00    -0.309 A  
HETATM   25  F   UNL     1     -12.169  16.130  73.060  1.00  0.00    -0.469 F  
HETATM   26  F   UNL     1     -14.237  15.815  72.472  1.00  0.00    -0.603 F  
HETATM   27  F   UNL     1     -13.109  14.197  73.382  1.00  0.00    -0.575 F  
HETATM   28  C   UNL     1     -11.961  15.352  68.856  1.00  0.00    -0.298 A  
ENDBRANCH  10  11
ENDBRANCH   9  10
ENDBRANCH   8   9
ENDBRANCH   5   8
TORSDOF 4
ENDMDL
MODEL        9
REMARK 921   NORMALIZED FREE ENERGY PREDICTED BY IDOCK:   -7.33 KCAL/MOL
REMARK 922        TOTAL FREE ENERGY PREDICTED BY IDOCK:   -9.45 KCAL/MOL
REMARK 923 INTER-LIGAND FREE ENERGY PREDICTED BY IDOCK:   -8.87 KCAL/MOL
REMARK 924 INTRA-LIGAND FREE ENERGY PREDICTED BY IDOCK:   -0.58 KCAL/MOL
REMARK 927      BINDING AFFINITY PREDICTED BY RF-SCORE:    0.00 PKD
ROOT
HETATM    1  C   UNL     1     -12.675  15.589  74.055  1.00  0.00    -0.543 C  
HETATM    2  N   UNL     1     -13.111  15.873  72.688  1.00  0.00    -0.473 NA 
HETATM    3  C   UNL     1     -11.956  16.203  71.827  1.00  0.00    -0.489 C  
HETATM    4  C   UNL     1     -11.082  14.986  71.447  1.00  0.00    -0.101 C  
HETATM    5  N   UNL     1     -11.830  13.880  70.815  1.00  0.00    -0.247 NA 
HETATM    6  C   UNL     1     -12.969  13.522  71.693  1.00  0.00    -0.359 C  
HETATM    7  C   UNL     1     -13.850  14.724  72.119  1.00  0.00    -0.475 C  
ENDROOT
BRANCH   5   8
HETATM    8  C   UNL     1     -12.322  14.214  69.468  1.00  0.00    -0.231 C  
BRANCH   8   9
HETATM    9  C   UNL     1     -11.502  13.596  68.336  1.00  0.00    -0.346 C  
BRANCH   9  10
HETATM   10  C   UNL     1     -12.144  12.353  67.699  1.00  0.00    -0.006 C  
BRANCH  10  11
HETATM   11  N   UNL     1     -11.154  11.310  67.315  1.00  0.00    -0.291 NA 
HETATM   12  C   UNL     1     -10.653  11.412  65.974  1.00  0.00    -0.266 A  
HETATM   13  C   UNL     1     -10.777  12.602  65.213  1.00  0.00    -0.318 A  
HETATM   14  C   UNL     1     -10.426  12.680  63.863  1.00  0.00    -0.441 A  
HETATM   15  C   UNL     1      -9.873  11.581  63.232  1.00  0.00    -0.431 A  
HETATM   16  C   UNL     1      -9.657  10.421  63.968  1.00  0.00    -0.376 A  
HETATM   17  C   UNL     1     -10.035  10.331  65.323  1.00  0.00    -0.317 A  
HETATM   18  S   UNL     1      -9.694   8.774  66.097  1.00  0.00    -0.209 SA 
HETATM   19  C   UNL     1     -10.368   8.992  67.725  1.00  0.00    -0.246 A  
HETATM   20  C   UNL     1     -11.015  10.169  68.162  1.00  0.00    -0.259 A  
HETATM   21  C   UNL     1     -11.493  10.135  69.496  1.00  0.00    -0.227 A  
HETATM   22  C   UNL     1     -11.384   9.009  70.340  1.00  0.00    -0.242 A  
HETATM   23  C   UNL     1     -11.951   9.018  71.738  1.00  0.00    -0.368 C  
HETATM   24  C   UNL     1     -10.743   7.871  69.861  1.00  0.00    -0.244 A  
HETATM   25  F   UNL     1     -12.877   8.036  71.930  1.00  0.00    -0.302 F  
HETATM   26  F   UNL     1     -10.996   8.816  72.688  1.00  0.00    -0.384 F  
HETATM   27  F   UNL     1     -12.571  10.182  72.078  1.00  0.00    -0.457 F  
HETATM   28  C   UNL     1     -10.236   7.868  68.567  1.00  0.00    -0.229 A  
ENDBRANCH  10  11
ENDBRANCH   9  10
ENDBRANCH   8   9
ENDBRANCH   5   8
TORSDOF 4
ENDMDL
MODEL       10
REMARK 921   NORMALIZED FREE ENERGY PREDICTED BY IDOCK:   -7.31 KCAL/MOL
REMARK 922        TOTAL FREE ENERGY PREDICTED BY IDOCK:   -9.44 KCAL/MOL
REMARK 923 INTER-LIGAND FREE ENERGY PREDICTED BY IDOCK:   -9.03 KCAL/MOL
REMARK 924 INTRA-LIGAND FREE ENERGY PREDICTED BY IDOCK:   -0.41 KCAL/MOL
REMARK 927      BINDING AFFINITY PREDICTED BY RF-SCORE:    0.00 PKD
ROOT
HETATM    1  C   UNL     1      -9.831   4.321  70.450  1.00  0.00    -0.198 C  
HETATM    2  N   UNL     1      -9.858   5.553  69.662  1.00  0.00    -0.176 NA 
HETATM    3  C   UNL     1     -11.229   6.101  69.591  1.00  0.00    -0.418 C  
HETATM    4  C   UNL     1     -11.715   6.761  70.902  1.00  0.00    -0.372 C  
HETATM    5  N   UNL     1     -10.820   7.818  71.413  1.00  0.00    -0.227 NA 
HETATM    6  C   UNL     1      -9.450   7.262  71.519  1.00  0.00    -0.152 C  
HETATM    7  C   UNL     1      -8.942   6.565  70.231  1.00  0.00    -0.155 C  
ENDROOT
BRANCH   5   8
HETATM    8  C   UNL     1     -10.807   9.022  70.565  1.00  0.00    -0.251 C  
BRANCH   8   9
HETATM    9  C   UNL     1     -11.704  10.149  71.073  1.00  0.00    -0.470 C  
BRANCH   9  10
HETATM   10  C   UNL     1     -12.507  10.860  69.972  1.00  0.00    -0.263 C  
BRANCH  10  11
HETATM   11  N   UNL     1     -12.015  12.234  69.677  1.00  0.00    -0.301 NA 
HETATM   12  C   UNL     1     -12.485  13.253  70.570  1.00  0.00    -0.260 A  
HETATM   13  C   UNL     1     -13.041  12.945  71.837  1.00  0.00    -0.474 A  
HETATM   14  C   UNL     1     -13.634  13.906  72.661  1.00  0.00    -0.626 A  
HETATM   15  C   UNL     1     -13.636  15.233  72.275  1.00  0.00    -0.586 A  
HETATM   16  C   UNL     1     -13.025  15.587  71.077  1.00  0.00    -0.550 A  
HETATM   17  C   UNL     1     -12.450  14.617  70.232  1.00  0.00    -0.346 A  
HETATM   18  S   UNL     1     -11.727  15.249  68.743  1.00  0.00    -0.333 SA 
HETATM   19  C   UNL     1     -11.199  13.773  67.909  1.00  0.00    -0.274 A  
HETATM   20  C   UNL     1     -11.391  12.468  68.413  1.00  0.00    -0.291 A  
HETATM   21  C   UNL     1     -10.906  11.424  67.586  1.00  0.00    -0.286 A  
HETATM   22  C   UNL     1     -10.307  11.635  66.326  1.00  0.00    -0.273 A  
HETATM   23  C   UNL     1      -9.849  10.480  65.471  1.00  0.00    -0.265 C  
HETATM   24  C   UNL     1     -10.146  12.940  65.870  1.00  0.00    -0.295 A  
HETATM   25  F   UNL     1     -10.459  10.461  64.252  1.00  0.00    -0.413 F  
HETATM   26  F   UNL     1      -8.512  10.521  65.214  1.00  0.00    -0.156 F  
HETATM   27  F   UNL     1     -10.082   9.256  66.021  1.00  0.00    -0.346 F  
HETATM   28  C   UNL     1     -10.584  13.997  66.660  1.00  0.00    -0.274 A  
ENDBRANCH  10  11
ENDBRANCH   9  10
ENDBRANCH   8   9
ENDBRANCH   5   8
TORSDOF 4
ENDMDL
MODEL       11
REMARK 921   NORMALIZED FREE ENERGY PREDICTED BY IDOCK:   -7.27 KCAL/MOL
REMARK 922        TOTAL FREE ENERGY PREDICTED BY IDOCK:   -9.39 KCAL/MOL
REMARK 923 INTER-LIGAND FREE ENERGY PREDICTED BY IDOCK:   -8.88 KCAL/MOL
REMARK 924 INTRA-LIGAND FREE ENERGY PREDICTED BY IDOCK:   -0.51 KCAL/MOL
REMARK 927      BINDING AFFINITY PREDICTED BY RF-SCORE:    0.00 PKD
ROOT
HETATM    1  C   UNL     1     -12.280  14.894  64.224  1.00  0.00    -0.344 C  
HETATM    2  N   UNL     1     -12.802  13.886  65.147  1.00  0.00    -0.748 NA 
HETATM    3  C   UNL     1     -12.633  12.528  64.590  1.00  0.00    -0.426 C  
HETATM    4  C   UNL     1     -11.178  12.007  64.622  1.00  0.00    -0.326 C  
HETATM    5  N   UNL     1     -10.553  12.041  65.960  1.00  0.00    -0.258 NA 
HETATM    6  C   UNL     1     -10.690  13.411  66.507  1.00  0.00    -0.286 C  
HETATM    7  C   UNL     1     -12.132  13.977  66.463  1.00  0.00    -0.459 C  
ENDROOT
BRANCH   5   8
HETATM    8  C   UNL     1     -11.144  11.068  66.895  1.00  0.00    -0.213 C  
BRANCH   8   9
HETATM    9  C   UNL     1     -10.114  10.231  67.652  1.00  0.00    -0.229 C  
BRANCH   9  10
HETATM   10  C   UNL     1      -9.987  10.586  69.142  1.00  0.00    -0.220 C  
BRANCH  10  11
HETATM   11  N   UNL     1     -11.162  10.160  69.951  1.00  0.00    -0.270 NA 
HETATM   12  C   UNL     1     -11.937  11.232  70.506  1.00  0.00    -0.371 A  
HETATM   13  C   UNL     1     -11.840  12.561  70.021  1.00  0.00    -0.363 A  
HETATM   14  C   UNL     1     -12.476  13.643  70.636  1.00  0.00    -0.417 A  
HETATM   15  C   UNL     1     -13.292  13.427  71.731  1.00  0.00    -0.479 A  
HETATM   16  C   UNL     1     -13.479  12.127  72.185  1.00  0.00    -0.383 A  
HETATM   17  C   UNL     1     -12.818  11.037  71.584  1.00  0.00    -0.435 A  
HETATM   18  S   UNL     1     -13.168   9.455  72.301  1.00  0.00    -0.416 SA 
HETATM   19  C   UNL     1     -12.120   8.365  71.372  1.00  0.00    -0.301 A  
HETATM   20  C   UNL     1     -11.248   8.790  70.346  1.00  0.00    -0.223 A  
HETATM   21  C   UNL     1     -10.487   7.762  69.735  1.00  0.00    -0.233 A  
HETATM   22  C   UNL     1     -10.543   6.407  70.126  1.00  0.00    -0.294 A  
HETATM   23  C   UNL     1      -9.676   5.363  69.466  1.00  0.00    -0.176 C  
HETATM   24  C   UNL     1     -11.414   6.039  71.147  1.00  0.00    -0.246 A  
HETATM   25  F   UNL     1      -8.862   4.725  70.355  1.00  0.00    -0.101 F  
HETATM   26  F   UNL     1     -10.407   4.383  68.867  1.00  0.00    -0.161 F  
HETATM   27  F   UNL     1      -8.853   5.856  68.499  1.00  0.00    -0.112 F  
HETATM   28  C   UNL     1     -12.198   7.010  71.757  1.00  0.00    -0.387 A  
ENDBRANCH  10  11
ENDBRANCH   9  10
ENDBRANCH   8   9
ENDBRANCH   5   8
TORSDOF 4
ENDMDL
MODEL       12
REMARK 921   NORMALIZED FREE ENERGY PREDICTED BY IDOCK:   -7.26 KCAL/MOL
REMARK 922        TOTAL FREE ENERGY PREDICTED BY IDOCK:   -9.37 KCAL/MOL
REMARK 923 INTER-LIGAND FREE ENERGY PREDICTED BY IDOCK:   -8.62 KCAL/MOL
REMARK 924 INTRA-LIGAND FREE ENERGY PREDICTED BY IDOCK:   -0.75 KCAL/MOL
REMARK 927      BINDING AFFINITY PREDICTED BY RF-SCORE:    0.00 PKD
ROOT
HETATM    1  C   UNL     1      -7.773   7.123  66.007  1.00  0.00    -0.099 C  
HETATM    2  N   UNL     1      -9.175   7.455  66.258  1.00  0.00    -0.161 NA 
HETATM    3  C   UNL     1      -9.587   7.008  67.605  1.00  0.00    -0.131 C  
HETATM    4  C   UNL     1      -9.028   7.873  68.758  1.00  0.00    -0.141 C  
HETATM    5  N   UNL     1      -9.333   9.313  68.635  1.00  0.00    -0.138 NA 
HETATM    6  C   UNL     1      -8.889   9.774  67.298  1.00  0.00    -0.132 C  
HETATM    7  C   UNL     1      -9.407   8.910  66.120  1.00  0.00    -0.239 C  
ENDROOT
BRANCH   5   8
HETATM    8  C   UNL     1     -10.762   9.616  68.820  1.00  0.00    -0.206 C  
BRANCH   8   9
HETATM    9  C   UNL     1     -11.029  10.963  69.489  1.00  0.00    -0.306 C  
BRANCH   9  10
HETATM   10  C   UNL     1     -12.249  11.713  68.930  1.00  0.00    -0.050 C  
BRANCH  10  11
HETATM   11  N   UNL     1     -11.931  13.092  68.467  1.00  0.00    -0.331 NA 
HETATM   12  C   UNL     1     -11.446  13.184  67.120  1.00  0.00    -0.334 A  
HETATM   13  C   UNL     1     -11.618  12.133  66.185  1.00  0.00    -0.418 A  
HETATM   14  C   UNL     1     -11.032  12.142  64.916  1.00  0.00    -0.355 A  
HETATM   15  C   UNL     1     -10.298  13.239  64.506  1.00  0.00    -0.394 A  
HETATM   16  C   UNL     1     -10.178  14.327  65.364  1.00  0.00    -0.395 A  
HETATM   17  C   UNL     1     -10.745  14.310  66.655  1.00  0.00    -0.290 A  
HETATM   18  S   UNL     1     -10.481  15.777  67.612  1.00  0.00    -0.288 SA 
HETATM   19  C   UNL     1     -11.237  15.370  69.166  1.00  0.00    -0.287 A  
HETATM   20  C   UNL     1     -11.849  14.129  69.447  1.00  0.00    -0.330 A  
HETATM   21  C   UNL     1     -12.383  14.001  70.753  1.00  0.00    -0.443 A  
HETATM   22  C   UNL     1     -12.291  15.006  71.740  1.00  0.00    -0.412 A  
HETATM   23  C   UNL     1     -12.841  14.794  73.129  1.00  0.00    -0.508 C  
HETATM   24  C   UNL     1     -11.673  16.210  71.416  1.00  0.00    -0.506 A  
HETATM   25  F   UNL     1     -11.885  14.922  74.093  1.00  0.00    -0.589 F  
HETATM   26  F   UNL     1     -13.809  15.698  73.448  1.00  0.00    -0.502 F  
HETATM   27  F   UNL     1     -13.401  13.568  73.323  1.00  0.00    -0.355 F  
HETATM   28  C   UNL     1     -11.157  16.388  70.138  1.00  0.00    -0.285 A  
ENDBRANCH  10  11
ENDBRANCH   9  10
ENDBRANCH   8   9
ENDBRANCH   5   8
TORSDOF 4
ENDMDL
MODEL       13
REMARK 921   NORMALIZED FREE ENERGY PREDICTED BY IDOCK:   -7.17 KCAL/MOL
REMARK 922        TOTAL FREE ENERGY PREDICTED BY IDOCK:   -9.26 KCAL/MOL
REMARK 923 INTER-LIGAND FREE ENERGY PREDICTED BY IDOCK:   -8.43 KCAL/MOL
REMARK 924 INTRA-LIGAND FREE ENERGY PREDICTED BY IDOCK:   -0.83 KCAL/MOL
REMARK 927      BINDING AFFINITY PREDICTED BY RF-SCORE:    0.00 PKD
ROOT
HETATM    1  C   UNL     1      -8.434   5.742  71.431  1.00  0.00    -0.128 C  
HETATM    2  N   UNL     1      -9.425   6.479  70.648  1.00  0.00    -0.165 NA 
HETATM    3  C   UNL     1     -10.758   5.854  70.768  1.00  0.00    -0.277 C  
HETATM    4  C   UNL     1     -11.449   6.093  72.130  1.00  0.00    -0.311 C  
HETATM    5  N   UNL     1     -11.569   7.517  72.504  1.00  0.00    -0.315 NA 
HETATM    6  C   UNL     1     -10.227   8.139  72.419  1.00  0.00    -0.298 C  
HETATM    7  C   UNL     1      -9.492   7.893  71.076  1.00  0.00    -0.156 C  
ENDROOT
BRANCH   5   8
HETATM    8  C   UNL     1     -12.519   8.256  71.656  1.00  0.00    -0.320 C  
BRANCH   8   9
HETATM    9  C   UNL     1     -12.544   9.761  71.919  1.00  0.00    -0.479 C  
BRANCH   9  10
HETATM   10  C   UNL     1     -13.139  10.591  70.770  1.00  0.00    -0.257 C  
BRANCH  10  11
HETATM   11  N   UNL     1     -12.273  11.730  70.356  1.00  0.00    -0.348 NA 
HETATM   12  C   UNL     1     -12.627  12.999  70.923  1.00  0.00    -0.280 A  
HETATM   13  C   UNL     1     -13.462  13.108  72.063  1.00  0.00    -0.598 A  
HETATM   14  C   UNL     1     -13.934  14.332  72.546  1.00  0.00    -0.519 A  
HETATM   15  C   UNL     1     -13.534  15.508  71.941  1.00  0.00    -0.576 A  
HETATM   16  C   UNL     1     -12.647  15.448  70.872  1.00  0.00    -0.496 A  
HETATM   17  C   UNL     1     -12.191  14.214  70.365  1.00  0.00    -0.356 A  
HETATM   18  S   UNL     1     -11.076  14.329  68.993  1.00  0.00    -0.267 SA 
HETATM   19  C   UNL     1     -10.793  12.626  68.578  1.00  0.00    -0.252 A  
HETATM   20  C   UNL     1     -11.393  11.538  69.248  1.00  0.00    -0.288 A  
HETATM   21  C   UNL     1     -11.043  10.257  68.752  1.00  0.00    -0.276 A  
HETATM   22  C   UNL     1     -10.193  10.049  67.645  1.00  0.00    -0.249 A  
HETATM   23  C   UNL     1      -9.892   8.661  67.136  1.00  0.00    -0.207 C  
HETATM   24  C   UNL     1      -9.630  11.155  67.015  1.00  0.00    -0.201 A  
HETATM   25  F   UNL     1     -10.256   8.494  65.833  1.00  0.00    -0.266 F  
HETATM   26  F   UNL     1      -8.563   8.365  67.188  1.00  0.00    -0.117 F  
HETATM   27  F   UNL     1     -10.520   7.669  67.826  1.00  0.00    -0.230 F  
HETATM   28  C   UNL     1      -9.926  12.429  67.483  1.00  0.00    -0.196 A  
ENDBRANCH  10  11
ENDBRANCH   9  10
ENDBRANCH   8   9
ENDBRANCH   5   8
TORSDOF 4
ENDMDL
MODEL       14
REMARK 921   NORMALIZED FREE ENERGY PREDICTED BY IDOCK:   -7.13 KCAL/MOL
REMARK 922        TOTAL FREE ENERGY PREDICTED BY IDOCK:   -9.22 KCAL/MOL
REMARK 923 INTER-LIGAND FREE ENERGY PREDICTED BY IDOCK:   -8.49 KCAL/MOL
REMARK 924 INTRA-LIGAND FREE ENERGY PREDICTED BY IDOCK:   -0.73 KCAL/MOL
REMARK 927      BINDING AFFINITY PREDICTED BY RF-SCORE:    0.00 PKD
ROOT
HETATM    1  C   UNL     1      -5.362  15.429  68.819  1.00  0.00    -0.094 C  
HETATM    2  N   UNL     1      -6.017  15.228  67.527  1.00  0.00    -0.322 NA 
HETATM    3  C   UNL     1      -6.968  14.099  67.591  1.00  0.00    -0.184 C  
HETATM    4  C   UNL     1      -8.270  14.411  68.362  1.00  0.00    -0.145 C  
HETATM    5  N   UNL     1      -8.995  15.600  67.868  1.00  0.00    -0.179 NA 
HETATM    6  C   UNL     1      -8.053  16.744  67.835  1.00  0.00    -0.185 C  
HETATM    7  C   UNL     1      -6.722  16.455  67.095  1.00  0.00    -0.203 C  
ENDROOT
BRANCH   5   8
HETATM    8  C   UNL     1      -9.585  15.400  66.533  1.00  0.00    -0.275 C  
BRANCH   8   9
HETATM    9  C   UNL     1     -11.094  15.634  66.480  1.00  0.00    -0.135 C  
BRANCH   9  10
HETATM   10  C   UNL     1     -11.918  14.368  66.198  1.00  0.00    -0.369 C  
BRANCH  10  11
HETATM   11  N   UNL     1     -11.308  13.131  66.759  1.00  0.00    -0.303 NA 
HETATM   12  C   UNL     1     -10.717  12.252  65.791  1.00  0.00    -0.263 A  
HETATM   13  C   UNL     1     -10.391  12.686  64.481  1.00  0.00    -0.369 A  
HETATM   14  C   UNL     1      -9.949  11.815  63.481  1.00  0.00    -0.430 A  
HETATM   15  C   UNL     1      -9.754  10.478  63.771  1.00  0.00    -0.385 A  
HETATM   16  C   UNL     1      -9.982  10.031  65.067  1.00  0.00    -0.320 A  
HETATM   17  C   UNL     1     -10.454  10.900  66.072  1.00  0.00    -0.225 A  
HETATM   18  S   UNL     1     -10.699  10.154  67.660  1.00  0.00    -0.290 SA 
HETATM   19  C   UNL     1     -11.364  11.490  68.620  1.00  0.00    -0.269 A  
HETATM   20  C   UNL     1     -11.610  12.784  68.111  1.00  0.00    -0.336 A  
HETATM   21  C   UNL     1     -12.155  13.705  69.041  1.00  0.00    -0.348 A  
HETATM   22  C   UNL     1     -12.480  13.375  70.374  1.00  0.00    -0.322 A  
HETATM   23  C   UNL     1     -13.100  14.387  71.305  1.00  0.00    -0.351 C  
HETATM   24  C   UNL     1     -12.224  12.084  70.826  1.00  0.00    -0.382 A  
HETATM   25  F   UNL     1     -14.310  13.981  71.785  1.00  0.00    -0.471 F  
HETATM   26  F   UNL     1     -12.329  14.625  72.402  1.00  0.00    -0.378 F  
HETATM   27  F   UNL     1     -13.319  15.605  70.734  1.00  0.00    -0.518 F  
HETATM   28  C   UNL     1     -11.666  11.155  69.956  1.00  0.00    -0.438 A  
ENDBRANCH  10  11
ENDBRANCH   9  10
ENDBRANCH   8   9
ENDBRANCH   5   8
TORSDOF 4
ENDMDL
MODEL       15
REMARK 921   NORMALIZED FREE ENERGY PREDICTED BY IDOCK:   -7.13 KCAL/MOL
REMARK 922        TOTAL FREE ENERGY PREDICTED BY IDOCK:   -9.21 KCAL/MOL
REMARK 923 INTER-LIGAND FREE ENERGY PREDICTED BY IDOCK:   -8.61 KCAL/MOL
REMARK 924 INTRA-LIGAND FREE ENERGY PREDICTED BY IDOCK:   -0.61 KCAL/MOL
REMARK 927      BINDING AFFINITY PREDICTED BY RF-SCORE:    0.00 PKD
ROOT
HETATM    1  C   UNL     1     -12.735  15.357  73.918  1.00  0.00    -0.554 C  
HETATM    2  N   UNL     1     -13.071  15.954  72.627  1.00  0.00    -0.473 NA 
HETATM    3  C   UNL     1     -11.848  16.340  71.893  1.00  0.00    -0.462 C  
HETATM    4  C   UNL     1     -11.065  15.148  71.297  1.00  0.00    -0.203 C  
HETATM    5  N   UNL     1     -11.871  14.272  70.424  1.00  0.00    -0.304 NA 
HETATM    6  C   UNL     1     -13.083  13.854  71.169  1.00  0.00    -0.281 C  
HETATM    7  C   UNL     1     -13.876  15.023  71.807  1.00  0.00    -0.479 C  
ENDROOT
BRANCH   5   8
HETATM    8  C   UNL     1     -12.261  14.919  69.160  1.00  0.00    -0.159 C  
BRANCH   8   9
HETATM    9  C   UNL     1     -12.004  14.064  67.920  1.00  0.00    -0.387 C  
BRANCH   9  10
HETATM   10  C   UNL     1     -11.236  14.789  66.803  1.00  0.00    -0.344 C  
BRANCH  10  11
HETATM   11  N   UNL     1      -9.768  14.859  67.047  1.00  0.00    -0.230 NA 
HETATM   12  C   UNL     1      -9.086  13.598  67.010  1.00  0.00    -0.248 A  
HETATM   13  C   UNL     1      -9.663  12.447  66.416  1.00  0.00    -0.246 A  
HETATM   14  C   UNL     1      -9.080  11.179  66.494  1.00  0.00    -0.193 A  
HETATM   15  C   UNL     1      -7.857  11.023  67.118  1.00  0.00    -0.135 A  
HETATM   16  C   UNL     1      -7.219  12.143  67.639  1.00  0.00    -0.123 A  
HETATM   17  C   UNL     1      -7.816  13.419  67.586  1.00  0.00    -0.173 A  
HETATM   18  S   UNL     1      -6.864  14.726  68.309  1.00  0.00    -0.128 SA 
HETATM   19  C   UNL     1      -7.940  16.128  68.144  1.00  0.00    -0.148 A  
HETATM   20  C   UNL     1      -9.230  16.073  67.573  1.00  0.00    -0.211 A  
HETATM   21  C   UNL     1      -9.932  17.304  67.547  1.00  0.00    -0.296 A  
HETATM   22  C   UNL     1      -9.425  18.508  68.082  1.00  0.00    -0.341 A  
HETATM   23  C   UNL     1     -10.239  19.779  68.064  1.00  0.00    -0.451 C  
HETATM   24  C   UNL     1      -8.151  18.510  68.639  1.00  0.00    -0.336 A  
HETATM   25  F   UNL     1     -10.447  20.281  69.314  1.00  0.00    -0.486 F  
HETATM   26  F   UNL     1      -9.630  20.776  67.363  1.00  0.00    -0.551 F  
HETATM   27  F   UNL     1     -11.475  19.638  67.511  1.00  0.00    -0.413 F  
HETATM   28  C   UNL     1      -7.416  17.331  68.664  1.00  0.00    -0.251 A  
ENDBRANCH  10  11
ENDBRANCH   9  10
ENDBRANCH   8   9
ENDBRANCH   5   8
TORSDOF 4
ENDMDL
MODEL       16
REMARK 921   NORMALIZED FREE ENERGY PREDICTED BY IDOCK:   -7.10 KCAL/MOL
REMARK 922        TOTAL FREE ENERGY PREDICTED BY IDOCK:   -9.17 KCAL/MOL
REMARK 923 INTER-LIGAND FREE ENERGY PREDICTED BY IDOCK:   -8.46 KCAL/MOL
REMARK 924 INTRA-LIGAND FREE ENERGY PREDICTED BY IDOCK:   -0.71 KCAL/MOL
REMARK 927      BINDING AFFINITY PREDICTED BY RF-SCORE:    0.00 PKD
ROOT
HETATM    1  C   UNL     1     -11.905  15.024  64.330  1.00  0.00    -0.339 C  
HETATM    2  N   UNL     1     -12.549  13.959  65.099  1.00  0.00    -0.617 NA 
HETATM    3  C   UNL     1     -12.336  12.645  64.456  1.00  0.00    -0.464 C  
HETATM    4  C   UNL     1     -10.903  12.088  64.615  1.00  0.00    -0.309 C  
HETATM    5  N   UNL     1     -10.442  11.998  66.016  1.00  0.00    -0.241 NA 
HETATM    6  C   UNL     1     -10.621  13.323  66.654  1.00  0.00    -0.281 C  
HETATM    7  C   UNL     1     -12.039  13.927  66.488  1.00  0.00    -0.449 C  
ENDROOT
BRANCH   5   8
HETATM    8  C   UNL     1     -11.155  10.969  66.791  1.00  0.00    -0.172 C  
BRANCH   8   9
HETATM    9  C   UNL     1     -10.282   9.783  67.199  1.00  0.00    -0.288 C  
BRANCH   9  10
HETATM   10  C   UNL     1      -9.550   9.971  68.538  1.00  0.00    -0.151 C  
BRANCH  10  11
HETATM   11  N   UNL     1     -10.236   9.307  69.681  1.00  0.00    -0.198 NA 
HETATM   12  C   UNL     1     -10.049   7.887  69.760  1.00  0.00    -0.199 A  
HETATM   13  C   UNL     1      -9.007   7.225  69.064  1.00  0.00    -0.134 A  
HETATM   14  C   UNL     1      -8.893   5.833  69.012  1.00  0.00    -0.111 A  
HETATM   15  C   UNL     1      -9.786   5.044  69.712  1.00  0.00    -0.266 A  
HETATM   16  C   UNL     1     -10.771   5.659  70.476  1.00  0.00    -0.344 A  
HETATM   17  C   UNL     1     -10.906   7.062  70.509  1.00  0.00    -0.251 A  
HETATM   18  S   UNL     1     -12.224   7.668  71.526  1.00  0.00    -0.335 SA 
HETATM   19  C   UNL     1     -12.148   9.421  71.258  1.00  0.00    -0.345 A  
HETATM   20  C   UNL     1     -11.223  10.051  70.398  1.00  0.00    -0.323 A  
HETATM   21  C   UNL     1     -11.338  11.461  70.315  1.00  0.00    -0.116 A  
HETATM   22  C   UNL     1     -12.320  12.210  70.998  1.00  0.00    -0.331 A  
HETATM   23  C   UNL     1     -12.420  13.707  70.837  1.00  0.00    -0.371 C  
HETATM   24  C   UNL     1     -13.213  11.542  71.831  1.00  0.00    -0.479 A  
HETATM   25  F   UNL     1     -13.637  14.099  70.365  1.00  0.00    -0.144 F  
HETATM   26  F   UNL     1     -12.250  14.369  72.015  1.00  0.00    -0.372 F  
HETATM   27  F   UNL     1     -11.503  14.234  69.979  1.00  0.00    -0.284 F  
HETATM   28  C   UNL     1     -13.122  10.162  71.961  1.00  0.00    -0.538 A  
ENDBRANCH  10  11
ENDBRANCH   9  10
ENDBRANCH   8   9
ENDBRANCH   5   8
TORSDOF 4
ENDMDL
MODEL       17
REMARK 921   NORMALIZED FREE ENERGY PREDICTED BY IDOCK:   -7.08 KCAL/MOL
REMARK 922        TOTAL FREE ENERGY PREDICTED BY IDOCK:   -9.15 KCAL/MOL
REMARK 923 INTER-LIGAND FREE ENERGY PREDICTED BY IDOCK:   -8.26 KCAL/MOL
REMARK 924 INTRA-LIGAND FREE ENERGY PREDICTED BY IDOCK:   -0.89 KCAL/MOL
REMARK 927      BINDING AFFINITY PREDICTED BY RF-SCORE:    0.00 PKD
ROOT
HETATM    1  C   UNL     1      -5.760  10.834  66.275  1.00  0.00    -0.113 C  
HETATM    2  N   UNL     1      -7.201  10.666  66.096  1.00  0.00    -0.135 NA 
HETATM    3  C   UNL     1      -7.629   9.316  66.518  1.00  0.00    -0.093 C  
HETATM    4  C   UNL     1      -7.653   9.110  68.050  1.00  0.00    -0.085 C  
HETATM    5  N   UNL     1      -8.466  10.103  68.780  1.00  0.00    -0.124 NA 
HETATM    6  C   UNL     1      -8.017  11.459  68.385  1.00  0.00    -0.142 C  
HETATM    7  C   UNL     1      -7.952  11.691  66.854  1.00  0.00    -0.161 C  
ENDROOT
BRANCH   5   8
HETATM    8  C   UNL     1      -9.910   9.962  68.528  1.00  0.00    -0.156 C  
BRANCH   8   9
HETATM    9  C   UNL     1     -10.780  10.914  69.347  1.00  0.00    -0.265 C  
BRANCH   9  10
HETATM   10  C   UNL     1     -12.022  11.430  68.603  1.00  0.00    -0.249 C  
BRANCH  10  11
HETATM   11  N   UNL     1     -11.861  12.813  68.075  1.00  0.00    -0.352 NA 
HETATM   12  C   UNL     1     -11.452  12.895  66.703  1.00  0.00    -0.343 A  
HETATM   13  C   UNL     1     -11.568  11.795  65.816  1.00  0.00    -0.194 A  
HETATM   14  C   UNL     1     -11.049  11.807  64.518  1.00  0.00    -0.376 A  
HETATM   15  C   UNL     1     -10.444  12.951  64.032  1.00  0.00    -0.395 A  
HETATM   16  C   UNL     1     -10.386  14.079  64.843  1.00  0.00    -0.434 A  
HETATM   17  C   UNL     1     -10.886  14.062  66.161  1.00  0.00    -0.291 A  
HETATM   18  S   UNL     1     -10.717  15.585  67.050  1.00  0.00    -0.313 SA 
HETATM   19  C   UNL     1     -11.353  15.172  68.655  1.00  0.00    -0.310 A  
HETATM   20  C   UNL     1     -11.830  13.891  69.011  1.00  0.00    -0.358 A  
HETATM   21  C   UNL     1     -12.284  13.767  70.348  1.00  0.00    -0.433 A  
HETATM   22  C   UNL     1     -12.241  14.815  71.292  1.00  0.00    -0.394 A  
HETATM   23  C   UNL     1     -12.700  14.609  72.715  1.00  0.00    -0.393 C  
HETATM   24  C   UNL     1     -11.757  16.057  70.894  1.00  0.00    -0.438 A  
HETATM   25  F   UNL     1     -11.714  14.865  73.622  1.00  0.00    -0.435 F  
HETATM   26  F   UNL     1     -13.733  15.431  73.052  1.00  0.00    -0.527 F  
HETATM   27  F   UNL     1     -13.129  13.345  72.982  1.00  0.00    -0.489 F  
HETATM   28  C   UNL     1     -11.324  16.232  69.585  1.00  0.00    -0.266 A  
ENDBRANCH  10  11
ENDBRANCH   9  10
ENDBRANCH   8   9
ENDBRANCH   5   8
TORSDOF 4
ENDMDL
MODEL       18
REMARK 921   NORMALIZED FREE ENERGY PREDICTED BY IDOCK:   -6.94 KCAL/MOL
REMARK 922        TOTAL FREE ENERGY PREDICTED BY IDOCK:   -8.97 KCAL/MOL
REMARK 923 INTER-LIGAND FREE ENERGY PREDICTED BY IDOCK:   -8.28 KCAL/MOL
REMARK 924 INTRA-LIGAND FREE ENERGY PREDICTED BY IDOCK:   -0.69 KCAL/MOL
REMARK 927      BINDING AFFINITY PREDICTED BY RF-SCORE:    0.00 PKD
ROOT
HETATM    1  C   UNL     1      -9.979  18.775  66.738  1.00  0.00    -0.358 C  
HETATM    2  N   UNL     1      -9.168  17.646  66.283  1.00  0.00    -0.435 NA 
HETATM    3  C   UNL     1      -8.339  17.117  67.386  1.00  0.00    -0.190 C  
HETATM    4  C   UNL     1      -9.129  16.307  68.439  1.00  0.00    -0.203 C  
HETATM    5  N   UNL     1      -9.917  15.192  67.877  1.00  0.00    -0.220 NA 
HETATM    6  C   UNL     1     -10.776  15.725  66.792  1.00  0.00    -0.293 C  
HETATM    7  C   UNL     1     -10.021  16.569  65.734  1.00  0.00    -0.274 C  
ENDROOT
BRANCH   5   8
HETATM    8  C   UNL     1      -9.078  14.098  67.358  1.00  0.00    -0.198 C  
BRANCH   8   9
HETATM    9  C   UNL     1      -9.171  12.807  68.169  1.00  0.00    -0.212 C  
BRANCH   9  10
HETATM   10  C   UNL     1     -10.518  12.078  68.039  1.00  0.00    -0.207 C  
BRANCH  10  11
HETATM   11  N   UNL     1     -10.879  11.288  69.249  1.00  0.00    -0.227 NA 
HETATM   12  C   UNL     1     -10.603   9.883  69.162  1.00  0.00    -0.220 A  
HETATM   13  C   UNL     1      -9.720   9.348  68.191  1.00  0.00    -0.164 A  
HETATM   14  C   UNL     1      -9.547   7.975  67.996  1.00  0.00    -0.170 A  
HETATM   15  C   UNL     1     -10.206   7.077  68.813  1.00  0.00    -0.181 A  
HETATM   16  C   UNL     1     -11.016   7.564  69.833  1.00  0.00    -0.223 A  
HETATM   17  C   UNL     1     -11.215   8.948  70.015  1.00  0.00    -0.110 A  
HETATM   18  S   UNL     1     -12.287   9.384  71.356  1.00  0.00    -0.377 SA 
HETATM   19  C   UNL     1     -12.370  11.153  71.228  1.00  0.00    -0.297 A  
HETATM   20  C   UNL     1     -11.708  11.907  70.234  1.00  0.00    -0.205 A  
HETATM   21  C   UNL     1     -11.915  13.307  70.301  1.00  0.00    -0.372 A  
HETATM   22  C   UNL     1     -12.748  13.933  71.253  1.00  0.00    -0.444 A  
HETATM   23  C   UNL     1     -12.963  15.427  71.247  1.00  0.00    -0.473 C  
HETATM   24  C   UNL     1     -13.383  13.147  72.209  1.00  0.00    -0.621 A  
HETATM   25  F   UNL     1     -14.276  15.763  71.102  1.00  0.00    -0.463 F  
HETATM   26  F   UNL     1     -12.557  16.015  72.406  1.00  0.00    -0.436 F  
HETATM   27  F   UNL     1     -12.302  16.078  70.249  1.00  0.00    -0.364 F  
HETATM   28  C   UNL     1     -13.190  11.770  72.196  1.00  0.00    -0.342 A  
ENDBRANCH  10  11
ENDBRANCH   9  10
ENDBRANCH   8   9
ENDBRANCH   5   8
TORSDOF 4
ENDMDL
MODEL       19
REMARK 921   NORMALIZED FREE ENERGY PREDICTED BY IDOCK:   -6.89 KCAL/MOL
REMARK 922        TOTAL FREE ENERGY PREDICTED BY IDOCK:   -8.92 KCAL/MOL
REMARK 923 INTER-LIGAND FREE ENERGY PREDICTED BY IDOCK:   -8.26 KCAL/MOL
REMARK 924 INTRA-LIGAND FREE ENERGY PREDICTED BY IDOCK:   -0.66 KCAL/MOL
REMARK 927      BINDING AFFINITY PREDICTED BY RF-SCORE:    0.00 PKD
ROOT
HETATM    1  C   UNL     1     -14.256  14.491  71.845  1.00  0.00    -0.538 C  
HETATM    2  N   UNL     1     -12.835  14.170  71.978  1.00  0.00    -0.339 NA 
HETATM    3  C   UNL     1     -12.373  13.356  70.834  1.00  0.00    -0.353 C  
HETATM    4  C   UNL     1     -12.215  14.148  69.516  1.00  0.00    -0.305 C  
HETATM    5  N   UNL     1     -11.341  15.334  69.625  1.00  0.00    -0.268 NA 
HETATM    6  C   UNL     1     -11.823  16.171  70.750  1.00  0.00    -0.250 C  
HETATM    7  C   UNL     1     -12.022  15.401  72.080  1.00  0.00    -0.429 C  
ENDROOT
BRANCH   5   8
HETATM    8  C   UNL     1      -9.925  14.988  69.831  1.00  0.00    -0.005 C  
BRANCH   8   9
HETATM    9  C   UNL     1      -9.367  14.014  68.795  1.00  0.00    -0.059 C  
BRANCH   9  10
HETATM   10  C   UNL     1      -8.295  14.621  67.874  1.00  0.00    -0.152 C  
BRANCH  10  11
HETATM   11  N   UNL     1      -8.792  15.771  67.069  1.00  0.00    -0.201 NA 
HETATM   12  C   UNL     1      -8.388  17.063  67.542  1.00  0.00    -0.188 A  
HETATM   13  C   UNL     1      -7.307  17.230  68.444  1.00  0.00    -0.224 A  
HETATM   14  C   UNL     1      -6.987  18.459  69.027  1.00  0.00    -0.272 A  
HETATM   15  C   UNL     1      -7.700  19.591  68.679  1.00  0.00    -0.390 A  
HETATM   16  C   UNL     1      -8.713  19.483  67.733  1.00  0.00    -0.364 A  
HETATM   17  C   UNL     1      -9.056  18.240  67.163  1.00  0.00    -0.264 A  
HETATM   18  S   UNL     1     -10.379  18.291  65.985  1.00  0.00    -0.272 SA 
HETATM   19  C   UNL     1     -10.588  16.581  65.560  1.00  0.00    -0.295 A  
HETATM   20  C   UNL     1      -9.830  15.528  66.118  1.00  0.00    -0.316 A  
HETATM   21  C   UNL     1     -10.162  14.231  65.652  1.00  0.00    -0.366 A  
HETATM   22  C   UNL     1     -11.198  13.971  64.729  1.00  0.00    -0.375 A  
HETATM   23  C   UNL     1     -11.534  12.563  64.303  1.00  0.00    -0.362 C  
HETATM   24  C   UNL     1     -11.921  15.042  64.212  1.00  0.00    -0.310 A  
HETATM   25  F   UNL     1     -12.827  12.230  64.583  1.00  0.00    -0.537 F  
HETATM   26  F   UNL     1     -11.387  12.376  62.962  1.00  0.00    -0.454 F  
HETATM   27  F   UNL     1     -10.768  11.606  64.897  1.00  0.00    -0.303 F  
HETATM   28  C   UNL     1     -11.612  16.333  64.622  1.00  0.00    -0.067 A  
ENDBRANCH  10  11
ENDBRANCH   9  10
ENDBRANCH   8   9
ENDBRANCH   5   8
TORSDOF 4
ENDMDL
MODEL       20
REMARK 921   NORMALIZED FREE ENERGY PREDICTED BY IDOCK:   -6.88 KCAL/MOL
REMARK 922        TOTAL FREE ENERGY PREDICTED BY IDOCK:   -8.90 KCAL/MOL
REMARK 923 INTER-LIGAND FREE ENERGY PREDICTED BY IDOCK:   -8.31 KCAL/MOL
REMARK 924 INTRA-LIGAND FREE ENERGY PREDICTED BY IDOCK:   -0.59 KCAL/MOL
REMARK 927      BINDING AFFINITY PREDICTED BY RF-SCORE:    0.00 PKD
ROOT
HETATM    1  C   UNL     1      -8.468   5.719  68.559  1.00  0.00    -0.110 C  
HETATM    2  N   UNL     1      -8.200   6.745  67.553  1.00  0.00    -0.121 NA 
HETATM    3  C   UNL     1      -9.266   6.768  66.530  1.00  0.00    -0.162 C  
HETATM    4  C   UNL     1     -10.596   7.389  67.015  1.00  0.00    -0.344 C  
HETATM    5  N   UNL     1     -10.458   8.751  67.570  1.00  0.00    -0.272 NA 
HETATM    6  C   UNL     1      -9.414   8.725  68.622  1.00  0.00    -0.141 C  
HETATM    7  C   UNL     1      -8.076   8.080  68.179  1.00  0.00    -0.129 C  
ENDROOT
BRANCH   5   8
HETATM    8  C   UNL     1     -10.117   9.757  66.551  1.00  0.00    -0.239 C  
BRANCH   8   9
HETATM    9  C   UNL     1     -10.790  11.111  66.765  1.00  0.00    -0.322 C  
BRANCH   9  10
HETATM   10  C   UNL     1     -10.046  12.037  67.741  1.00  0.00    -0.193 C  
BRANCH  10  11
HETATM   11  N   UNL     1     -10.928  13.056  68.374  1.00  0.00    -0.251 NA 
HETATM   12  C   UNL     1     -10.714  14.404  67.930  1.00  0.00    -0.244 A  
HETATM   13  C   UNL     1     -10.016  14.700  66.733  1.00  0.00    -0.265 A  
HETATM   14  C   UNL     1      -9.673  16.001  66.355  1.00  0.00    -0.307 A  
HETATM   15  C   UNL     1     -10.074  17.070  67.134  1.00  0.00    -0.292 A  
HETATM   16  C   UNL     1     -10.834  16.826  68.273  1.00  0.00    -0.366 A  
HETATM   17  C   UNL     1     -11.159  15.513  68.671  1.00  0.00    -0.297 A  
HETATM   18  S   UNL     1     -12.123  15.392  70.152  1.00  0.00    -0.381 SA 
HETATM   19  C   UNL     1     -12.258  13.638  70.387  1.00  0.00    -0.363 A  
HETATM   20  C   UNL     1     -11.671  12.678  69.534  1.00  0.00    -0.308 A  
HETATM   21  C   UNL     1     -11.888  11.327  69.905  1.00  0.00    -0.436 A  
HETATM   22  C   UNL     1     -12.599  10.935  71.059  1.00  0.00    -0.517 A  
HETATM   23  C   UNL     1     -12.760   9.481  71.426  1.00  0.00    -0.358 C  
HETATM   24  C   UNL     1     -13.155  11.919  71.871  1.00  0.00    -0.474 A  
HETATM   25  F   UNL     1     -12.247   9.195  72.657  1.00  0.00    -0.367 F  
HETATM   26  F   UNL     1     -14.067   9.098  71.473  1.00  0.00    -0.413 F  
HETATM   27  F   UNL     1     -12.153   8.620  70.563  1.00  0.00    -0.211 F  
HETATM   28  C   UNL     1     -12.988  13.257  71.532  1.00  0.00    -0.426 A  
ENDBRANCH  10  11
ENDBRANCH   9  10
ENDBRANCH   8   9
ENDBRANCH   5   8
TORSDOF 4
ENDMDL
MODEL       21
REMARK 921   NORMALIZED FREE ENERGY PREDICTED BY IDOCK:   -6.85 KCAL/MOL
REMARK 922        TOTAL FREE ENERGY PREDICTED BY IDOCK:   -8.87 KCAL/MOL
REMARK 923 INTER-LIGAND FREE ENERGY PREDICTED BY IDOCK:   -8.40 KCAL/MOL
REMARK 924 INTRA-LIGAND FREE ENERGY PREDICTED BY IDOCK:   -0.47 KCAL/MOL
REMARK 927      BINDING AFFINITY PREDICTED BY RF-SCORE:    0.00 PKD
ROOT
HETATM    1  C   UNL     1      -7.970  18.107  66.556  1.00  0.00    -0.262 C  
HETATM    2  N   UNL     1      -8.875  17.091  66.020  1.00  0.00    -0.523 NA 
HETATM    3  C   UNL     1      -8.556  15.759  66.578  1.00  0.00    -0.308 C  
HETATM    4  C   UNL     1      -8.988  15.571  68.050  1.00  0.00    -0.174 C  
HETATM    5  N   UNL     1     -10.416  15.849  68.302  1.00  0.00    -0.249 NA 
HETATM    6  C   UNL     1     -10.731  17.198  67.775  1.00  0.00    -0.329 C  
HETATM    7  C   UNL     1     -10.284  17.432  66.309  1.00  0.00    -0.341 C  
ENDROOT
BRANCH   5   8
HETATM    8  C   UNL     1     -11.313  14.852  67.691  1.00  0.00    -0.337 C  
BRANCH   8   9
HETATM    9  C   UNL     1     -11.371  13.525  68.447  1.00  0.00    -0.327 C  
BRANCH   9  10
HETATM   10  C   UNL     1     -12.028  12.381  67.659  1.00  0.00    -0.180 C  
BRANCH  10  11
HETATM   11  N   UNL     1     -11.078  11.291  67.300  1.00  0.00    -0.291 NA 
HETATM   12  C   UNL     1     -10.555  11.356  65.966  1.00  0.00    -0.266 A  
HETATM   13  C   UNL     1     -10.617  12.541  65.190  1.00  0.00    -0.322 A  
HETATM   14  C   UNL     1     -10.245  12.588  63.844  1.00  0.00    -0.386 A  
HETATM   15  C   UNL     1      -9.731  11.459  63.234  1.00  0.00    -0.413 A  
HETATM   16  C   UNL     1      -9.575  10.300  63.986  1.00  0.00    -0.365 A  
HETATM   17  C   UNL     1      -9.974  10.242  65.336  1.00  0.00    -0.302 A  
HETATM   18  S   UNL     1      -9.711   8.681  66.133  1.00  0.00    -0.167 SA 
HETATM   19  C   UNL     1     -10.397   8.947  67.748  1.00  0.00    -0.242 A  
HETATM   20  C   UNL     1     -10.999  10.155  68.163  1.00  0.00    -0.259 A  
HETATM   21  C   UNL     1     -11.497  10.158  69.490  1.00  0.00    -0.227 A  
HETATM   22  C   UNL     1     -11.447   9.038  70.348  1.00  0.00    -0.202 A  
HETATM   23  C   UNL     1     -12.033   9.088  71.738  1.00  0.00    -0.368 C  
HETATM   24  C   UNL     1     -10.849   7.868  69.891  1.00  0.00    -0.221 A  
HETATM   25  F   UNL     1     -13.003   8.149  71.928  1.00  0.00    -0.307 F  
HETATM   26  F   UNL     1     -11.101   8.857  72.704  1.00  0.00    -0.341 F  
HETATM   27  F   UNL     1     -12.608  10.282  72.055  1.00  0.00    -0.470 F  
HETATM   28  C   UNL     1     -10.325   7.829  68.604  1.00  0.00    -0.221 A  
ENDBRANCH  10  11
ENDBRANCH   9  10
ENDBRANCH   8   9
ENDBRANCH   5   8
TORSDOF 4
ENDMDL
MODEL       22
REMARK 921   NORMALIZED FREE ENERGY PREDICTED BY IDOCK:   -6.80 KCAL/MOL
REMARK 922        TOTAL FREE ENERGY PREDICTED BY IDOCK:   -8.80 KCAL/MOL
REMARK 923 INTER-LIGAND FREE ENERGY PREDICTED BY IDOCK:   -8.39 KCAL/MOL
REMARK 924 INTRA-LIGAND FREE ENERGY PREDICTED BY IDOCK:   -0.41 KCAL/MOL
REMARK 927      BINDING AFFINITY PREDICTED BY RF-SCORE:    0.00 PKD
ROOT
HETATM    1  C   UNL     1     -10.171  19.707  68.260  1.00  0.00    -0.452 C  
HETATM    2  N   UNL     1     -10.886  18.637  67.567  1.00  0.00    -0.396 NA 
HETATM    3  C   UNL     1     -10.448  18.540  66.158  1.00  0.00    -0.413 C  
HETATM    4  C   UNL     1      -9.047  17.916  65.973  1.00  0.00     0.009 C  
HETATM    5  N   UNL     1      -8.890  16.587  66.600  1.00  0.00    -0.232 NA 
HETATM    6  C   UNL     1      -9.295  16.688  68.022  1.00  0.00    -0.227 C  
HETATM    7  C   UNL     1     -10.684  17.339  68.246  1.00  0.00    -0.349 C  
ENDROOT
BRANCH   5   8
HETATM    8  C   UNL     1      -9.677  15.538  65.929  1.00  0.00    -0.357 C  
BRANCH   8   9
HETATM    9  C   UNL     1      -9.547  14.159  66.572  1.00  0.00    -0.310 C  
BRANCH   9  10
HETATM   10  C   UNL     1     -10.884  13.423  66.759  1.00  0.00    -0.282 C  
BRANCH  10  11
HETATM   11  N   UNL     1     -10.819  12.330  67.767  1.00  0.00    -0.213 NA 
HETATM   12  C   UNL     1     -10.420  11.052  67.253  1.00  0.00    -0.231 A  
HETATM   13  C   UNL     1      -9.772  10.914  66.000  1.00  0.00    -0.268 A  
HETATM   14  C   UNL     1      -9.502   9.673  65.416  1.00  0.00    -0.343 A  
HETATM   15  C   UNL     1      -9.815   8.512  66.096  1.00  0.00    -0.227 A  
HETATM   16  C   UNL     1     -10.375   8.605  67.366  1.00  0.00    -0.353 A  
HETATM   17  C   UNL     1     -10.672   9.855  67.946  1.00  0.00    -0.265 A  
HETATM   18  S   UNL     1     -11.392   9.782  69.563  1.00  0.00    -0.011 SA 
HETATM   19  C   UNL     1     -11.706  11.491  69.928  1.00  0.00    -0.343 A  
HETATM   20  C   UNL     1     -11.421  12.554  69.043  1.00  0.00    -0.304 A  
HETATM   21  C   UNL     1     -11.759  13.845  69.522  1.00  0.00    -0.369 A  
HETATM   22  C   UNL     1     -12.375  14.083  70.769  1.00  0.00    -0.443 A  
HETATM   23  C   UNL     1     -12.751  15.477  71.205  1.00  0.00    -0.462 C  
HETATM   24  C   UNL     1     -12.640  13.001  71.603  1.00  0.00    -0.222 A  
HETATM   25  F   UNL     1     -14.085  15.601  71.460  1.00  0.00    -0.534 F  
HETATM   26  F   UNL     1     -12.121  15.850  72.354  1.00  0.00    -0.406 F  
HETATM   27  F   UNL     1     -12.457  16.443  70.291  1.00  0.00    -0.060 F  
HETATM   28  C   UNL     1     -12.303  11.719  71.185  1.00  0.00    -0.329 A  
ENDBRANCH  10  11
ENDBRANCH   9  10
ENDBRANCH   8   9
ENDBRANCH   5   8
TORSDOF 4
ENDMDL
MODEL       23
REMARK 921   NORMALIZED FREE ENERGY PREDICTED BY IDOCK:   -6.79 KCAL/MOL
REMARK 922        TOTAL FREE ENERGY PREDICTED BY IDOCK:   -8.80 KCAL/MOL
REMARK 923 INTER-LIGAND FREE ENERGY PREDICTED BY IDOCK:   -8.08 KCAL/MOL
REMARK 924 INTRA-LIGAND FREE ENERGY PREDICTED BY IDOCK:   -0.72 KCAL/MOL
REMARK 927      BINDING AFFINITY PREDICTED BY RF-SCORE:    0.00 PKD
ROOT
HETATM    1  C   UNL     1      -9.492   4.238  68.357  1.00  0.00    -0.155 C  
HETATM    2  N   UNL     1      -9.064   5.166  67.311  1.00  0.00    -0.112 NA 
HETATM    3  C   UNL     1     -10.218   5.614  66.503  1.00  0.00    -0.211 C  
HETATM    4  C   UNL     1     -11.140   6.625  67.221  1.00  0.00    -0.345 C  
HETATM    5  N   UNL     1     -10.441   7.822  67.733  1.00  0.00    -0.219 NA 
HETATM    6  C   UNL     1      -9.303   7.377  68.573  1.00  0.00    -0.141 C  
HETATM    7  C   UNL     1      -8.375   6.338  67.894  1.00  0.00    -0.118 C  
ENDROOT
BRANCH   5   8
HETATM    8  C   UNL     1      -9.955   8.706  66.660  1.00  0.00    -0.287 C  
BRANCH   8   9
HETATM    9  C   UNL     1     -10.492  10.134  66.742  1.00  0.00    -0.270 C  
BRANCH   9  10
HETATM   10  C   UNL     1      -9.851  10.986  67.850  1.00  0.00    -0.171 C  
BRANCH  10  11
HETATM   11  N   UNL     1     -10.769  12.019  68.404  1.00  0.00    -0.220 NA 
HETATM   12  C   UNL     1     -10.564  13.347  67.900  1.00  0.00    -0.245 A  
HETATM   13  C   UNL     1      -9.834  13.596  66.711  1.00  0.00    -0.271 A  
HETATM   14  C   UNL     1      -9.501  14.883  66.279  1.00  0.00    -0.339 A  
HETATM   15  C   UNL     1      -9.944  15.981  66.991  1.00  0.00    -0.257 A  
HETATM   16  C   UNL     1     -10.734  15.780  68.117  1.00  0.00    -0.285 A  
HETATM   17  C   UNL     1     -11.049  14.483  68.570  1.00  0.00    -0.256 A  
HETATM   18  S   UNL     1     -12.057  14.418  70.026  1.00  0.00    -0.360 SA 
HETATM   19  C   UNL     1     -12.170  12.675  70.344  1.00  0.00    -0.288 A  
HETATM   20  C   UNL     1     -11.540  11.685  69.559  1.00  0.00    -0.331 A  
HETATM   21  C   UNL     1     -11.746  10.351  69.991  1.00  0.00    -0.366 A  
HETATM   22  C   UNL     1     -12.486  10.004  71.141  1.00  0.00    -0.480 A  
HETATM   23  C   UNL     1     -12.634   8.566  71.575  1.00  0.00    -0.316 C  
HETATM   24  C   UNL     1     -13.083  11.016  71.886  1.00  0.00    -0.525 A  
HETATM   25  F   UNL     1     -12.154   8.350  72.833  1.00  0.00    -0.455 F  
HETATM   26  F   UNL     1     -13.935   8.162  71.602  1.00  0.00    -0.365 F  
HETATM   27  F   UNL     1     -11.986   7.675  70.774  1.00  0.00    -0.303 F  
HETATM   28  C   UNL     1     -12.928  12.338  71.485  1.00  0.00    -0.390 A  
ENDBRANCH  10  11
ENDBRANCH   9  10
ENDBRANCH   8   9
ENDBRANCH   5   8
TORSDOF 4
ENDMDL
MODEL       24
REMARK 921   NORMALIZED FREE ENERGY PREDICTED BY IDOCK:   -6.79 KCAL/MOL
REMARK 922        TOTAL FREE ENERGY PREDICTED BY IDOCK:   -8.80 KCAL/MOL
REMARK 923 INTER-LIGAND FREE ENERGY PREDICTED BY IDOCK:   -8.25 KCAL/MOL
REMARK 924 INTRA-LIGAND FREE ENERGY PREDICTED BY IDOCK:   -0.54 KCAL/MOL
REMARK 927      BINDING AFFINITY PREDICTED BY RF-SCORE:    0.00 PKD
ROOT
HETATM    1  C   UNL     1      -6.894   8.126  64.156  1.00  0.00    -0.066 C  
HETATM    2  N   UNL     1      -7.060   9.485  64.668  1.00  0.00    -0.101 NA 
HETATM    3  C   UNL     1      -7.723  10.346  63.665  1.00  0.00    -0.050 C  
HETATM    4  C   UNL     1      -9.235  10.073  63.498  1.00  0.00    -0.277 C  
HETATM    5  N   UNL     1     -10.005  10.149  64.756  1.00  0.00    -0.321 NA 
HETATM    6  C   UNL     1      -9.364   9.260  65.753  1.00  0.00    -0.244 C  
HETATM    7  C   UNL     1      -7.840   9.486  65.924  1.00  0.00    -0.100 C  
ENDROOT
BRANCH   5   8
HETATM    8  C   UNL     1     -10.098  11.517  65.292  1.00  0.00    -0.269 C  
BRANCH   8   9
HETATM    9  C   UNL     1     -10.974  11.638  66.538  1.00  0.00    -0.349 C  
BRANCH   9  10
HETATM   10  C   UNL     1     -10.269  12.280  67.743  1.00  0.00    -0.202 C  
BRANCH  10  11
HETATM   11  N   UNL     1     -11.119  13.266  68.467  1.00  0.00    -0.252 NA 
HETATM   12  C   UNL     1     -10.917  14.635  68.089  1.00  0.00    -0.261 A  
HETATM   13  C   UNL     1     -10.267  14.994  66.882  1.00  0.00    -0.258 A  
HETATM   14  C   UNL     1      -9.934  16.314  66.562  1.00  0.00    -0.290 A  
HETATM   15  C   UNL     1     -10.298  17.339  67.414  1.00  0.00    -0.338 A  
HETATM   16  C   UNL     1     -11.012  17.035  68.568  1.00  0.00    -0.247 A  
HETATM   17  C   UNL     1     -11.326  15.703  68.906  1.00  0.00    -0.339 A  
HETATM   18  S   UNL     1     -12.229  15.504  70.417  1.00  0.00    -0.404 SA 
HETATM   19  C   UNL     1     -12.363  13.739  70.561  1.00  0.00    -0.359 A  
HETATM   20  C   UNL     1     -11.815  12.826  69.634  1.00  0.00    -0.317 A  
HETATM   21  C   UNL     1     -12.023  11.457  69.940  1.00  0.00    -0.434 A  
HETATM   22  C   UNL     1     -12.689  11.005  71.099  1.00  0.00    -0.521 A  
HETATM   23  C   UNL     1     -12.841   9.533  71.392  1.00  0.00    -0.358 C  
HETATM   24  C   UNL     1     -13.206  11.944  71.985  1.00  0.00    -0.461 A  
HETATM   25  F   UNL     1     -12.280   9.178  72.583  1.00  0.00    -0.367 F  
HETATM   26  F   UNL     1     -14.146   9.151  71.471  1.00  0.00    -0.413 F  
HETATM   27  F   UNL     1     -12.274   8.719  70.458  1.00  0.00    -0.184 F  
HETATM   28  C   UNL     1     -13.047  13.298  71.713  1.00  0.00    -0.472 A  
ENDBRANCH  10  11
ENDBRANCH   9  10
ENDBRANCH   8   9
ENDBRANCH   5   8
TORSDOF 4
ENDMDL
MODEL       25
REMARK 921   NORMALIZED FREE ENERGY PREDICTED BY IDOCK:   -6.77 KCAL/MOL
REMARK 922        TOTAL FREE ENERGY PREDICTED BY IDOCK:   -8.76 KCAL/MOL
REMARK 923 INTER-LIGAND FREE ENERGY PREDICTED BY IDOCK:   -7.94 KCAL/MOL
REMARK 924 INTRA-LIGAND FREE ENERGY PREDICTED BY IDOCK:   -0.82 KCAL/MOL
REMARK 927      BINDING AFFINITY PREDICTED BY RF-SCORE:    0.00 PKD
ROOT
HETATM    1  C   UNL     1      -9.151  17.273  67.051  1.00  0.00    -0.236 C  
HETATM    2  N   UNL     1     -10.479  16.670  67.155  1.00  0.00    -0.314 NA 
HETATM    3  C   UNL     1     -10.451  15.259  66.716  1.00  0.00    -0.293 C  
HETATM    4  C   UNL     1      -9.781  14.297  67.723  1.00  0.00    -0.222 C  
HETATM    5  N   UNL     1     -10.358  14.348  69.082  1.00  0.00    -0.197 NA 
HETATM    6  C   UNL     1     -10.355  15.758  69.540  1.00  0.00    -0.272 C  
HETATM    7  C   UNL     1     -10.992  16.756  68.539  1.00  0.00    -0.312 C  
ENDROOT
BRANCH   5   8
HETATM    8  C   UNL     1     -11.724  13.803  69.149  1.00  0.00    -0.334 C  
BRANCH   8   9
HETATM    9  C   UNL     1     -11.868  12.599  70.078  1.00  0.00    -0.358 C  
BRANCH   9  10
HETATM   10  C   UNL     1     -12.313  11.308  69.373  1.00  0.00    -0.149 C  
BRANCH  10  11
HETATM   11  N   UNL     1     -11.176  10.501  68.850  1.00  0.00    -0.258 NA 
HETATM   12  C   UNL     1     -10.472   9.733  69.837  1.00  0.00    -0.261 A  
HETATM   13  C   UNL     1     -11.029   9.453  71.110  1.00  0.00    -0.430 A  
HETATM   14  C   UNL     1     -10.308   8.832  72.135  1.00  0.00    -0.378 A  
HETATM   15  C   UNL     1      -9.014   8.407  71.903  1.00  0.00    -0.280 A  
HETATM   16  C   UNL     1      -8.462   8.587  70.639  1.00  0.00    -0.158 A  
HETATM   17  C   UNL     1      -9.176   9.237  69.612  1.00  0.00    -0.175 A  
HETATM   18  S   UNL     1      -8.312   9.389  68.073  1.00  0.00    -0.119 SA 
HETATM   19  C   UNL     1      -9.453  10.312  67.075  1.00  0.00    -0.163 A  
HETATM   20  C   UNL     1     -10.708  10.773  67.529  1.00  0.00    -0.264 A  
HETATM   21  C   UNL     1     -11.463  11.503  66.577  1.00  0.00    -0.178 A  
HETATM   22  C   UNL     1     -11.007  11.801  65.275  1.00  0.00    -0.350 A  
HETATM   23  C   UNL     1     -11.839  12.621  64.320  1.00  0.00    -0.393 C  
HETATM   24  C   UNL     1      -9.760  11.329  64.877  1.00  0.00    -0.297 A  
HETATM   25  F   UNL     1     -11.196  13.750  63.907  1.00  0.00    -0.339 F  
HETATM   26  F   UNL     1     -12.151  11.937  63.184  1.00  0.00    -0.531 F  
HETATM   27  F   UNL     1     -13.027  13.040  64.838  1.00  0.00    -0.480 F  
HETATM   28  C   UNL     1      -8.996  10.587  65.769  1.00  0.00    -0.199 A  
ENDBRANCH  10  11
ENDBRANCH   9  10
ENDBRANCH   8   9
ENDBRANCH   5   8
TORSDOF 4
ENDMDL
MODEL       26
REMARK 921   NORMALIZED FREE ENERGY PREDICTED BY IDOCK:   -6.76 KCAL/MOL
REMARK 922        TOTAL FREE ENERGY PREDICTED BY IDOCK:   -8.75 KCAL/MOL
REMARK 923 INTER-LIGAND FREE ENERGY PREDICTED BY IDOCK:   -7.89 KCAL/MOL
REMARK 924 INTRA-LIGAND FREE ENERGY PREDICTED BY IDOCK:   -0.86 KCAL/MOL
REMARK 927      BINDING AFFINITY PREDICTED BY RF-SCORE:    0.00 PKD
ROOT
HETATM    1  C   UNL     1     -12.419  15.466  64.142  1.00  0.00     0.131 C  
HETATM    2  N   UNL     1     -11.587  15.026  65.261  1.00  0.00    -0.302 NA 
HETATM    3  C   UNL     1     -12.334  14.098  66.136  1.00  0.00    -0.436 C  
HETATM    4  C   UNL     1     -12.529  12.685  65.540  1.00  0.00    -0.276 C  
HETATM    5  N   UNL     1     -11.274  12.024  65.129  1.00  0.00    -0.318 NA 
HETATM    6  C   UNL     1     -10.538  12.938  64.223  1.00  0.00    -0.408 C  
HETATM    7  C   UNL     1     -10.351  14.374  64.776  1.00  0.00    -0.320 C  
ENDROOT
BRANCH   5   8
HETATM    8  C   UNL     1     -10.418  11.654  66.269  1.00  0.00    -0.246 C  
BRANCH   8   9
HETATM    9  C   UNL     1     -11.187  11.109  67.471  1.00  0.00    -0.369 C  
BRANCH   9  10
HETATM   10  C   UNL     1     -10.388  11.113  68.784  1.00  0.00    -0.205 C  
BRANCH  10  11
HETATM   11  N   UNL     1     -11.187  11.560  69.959  1.00  0.00    -0.122 NA 
HETATM   12  C   UNL     1     -11.804  10.505  70.710  1.00  0.00    -0.365 A  
HETATM   13  C   UNL     1     -11.387   9.156  70.595  1.00  0.00    -0.323 A  
HETATM   14  C   UNL     1     -12.063   8.096  71.206  1.00  0.00    -0.313 A  
HETATM   15  C   UNL     1     -13.154   8.353  72.014  1.00  0.00    -0.379 A  
HETATM   16  C   UNL     1     -13.543   9.672  72.220  1.00  0.00    -0.449 A  
HETATM   17  C   UNL     1     -12.880  10.741  71.584  1.00  0.00    -0.457 A  
HETATM   18  S   UNL     1     -13.520  12.351  71.953  1.00  0.00    -0.114 SA 
HETATM   19  C   UNL     1     -12.524  13.409  70.933  1.00  0.00    -0.359 A  
HETATM   20  C   UNL     1     -11.512  12.947  70.064  1.00  0.00    -0.008 A  
HETATM   21  C   UNL     1     -10.842  13.955  69.327  1.00  0.00    -0.170 A  
HETATM   22  C   UNL     1     -11.164  15.327  69.402  1.00  0.00    -0.291 A  
HETATM   23  C   UNL     1     -10.443  16.350  68.559  1.00  0.00    -0.291 C  
HETATM   24  C   UNL     1     -12.173  15.733  70.270  1.00  0.00    -0.367 A  
HETATM   25  F   UNL     1     -11.289  17.046  67.748  1.00  0.00    -0.249 F  
HETATM   26  F   UNL     1      -9.801  17.286  69.314  1.00  0.00    -0.258 F  
HETATM   27  F   UNL     1      -9.493  15.822  67.738  1.00  0.00    -0.206 F  
HETATM   28  C   UNL     1     -12.841  14.781  71.030  1.00  0.00    -0.415 A  
ENDBRANCH  10  11
ENDBRANCH   9  10
ENDBRANCH   8   9
ENDBRANCH   5   8
TORSDOF 4
ENDMDL
MODEL       27
REMARK 921   NORMALIZED FREE ENERGY PREDICTED BY IDOCK:   -6.73 KCAL/MOL
REMARK 922        TOTAL FREE ENERGY PREDICTED BY IDOCK:   -8.71 KCAL/MOL
REMARK 923 INTER-LIGAND FREE ENERGY PREDICTED BY IDOCK:   -8.16 KCAL/MOL
REMARK 924 INTRA-LIGAND FREE ENERGY PREDICTED BY IDOCK:   -0.56 KCAL/MOL
REMARK 927      BINDING AFFINITY PREDICTED BY RF-SCORE:    0.00 PKD
ROOT
HETATM    1  C   UNL     1      -7.947  19.535  67.394  1.00  0.00    -0.270 C  
HETATM    2  N   UNL     1      -8.928  18.859  66.546  1.00  0.00    -0.317 NA 
HETATM    3  C   UNL     1      -8.405  17.559  66.074  1.00  0.00    -0.080 C  
HETATM    4  C   UNL     1      -8.374  16.459  67.159  1.00  0.00    -0.187 C  
HETATM    5  N   UNL     1      -9.674  16.223  67.819  1.00  0.00    -0.232 NA 
HETATM    6  C   UNL     1     -10.186  17.519  68.324  1.00  0.00    -0.365 C  
HETATM    7  C   UNL     1     -10.202  18.655  67.270  1.00  0.00    -0.376 C  
ENDROOT
BRANCH   5   8
HETATM    8  C   UNL     1     -10.670  15.608  66.925  1.00  0.00    -0.307 C  
BRANCH   8   9
HETATM    9  C   UNL     1     -11.168  14.243  67.397  1.00  0.00    -0.330 C  
BRANCH   9  10
HETATM   10  C   UNL     1     -10.552  13.772  68.724  1.00  0.00    -0.239 C  
BRANCH  10  11
HETATM   11  N   UNL     1     -11.438  12.853  69.491  1.00  0.00    -0.254 NA 
HETATM   12  C   UNL     1     -12.254  13.485  70.487  1.00  0.00    -0.361 A  
HETATM   13  C   UNL     1     -12.495  14.882  70.486  1.00  0.00    -0.419 A  
HETATM   14  C   UNL     1     -13.166  15.538  71.523  1.00  0.00    -0.589 A  
HETATM   15  C   UNL     1     -13.681  14.808  72.577  1.00  0.00    -0.572 A  
HETATM   16  C   UNL     1     -13.539  13.425  72.571  1.00  0.00    -0.659 A  
HETATM   17  C   UNL     1     -12.840  12.763  71.541  1.00  0.00    -0.270 A  
HETATM   18  S   UNL     1     -12.748  11.001  71.705  1.00  0.00    -0.316 SA 
HETATM   19  C   UNL     1     -11.746  10.533  70.316  1.00  0.00    -0.332 A  
HETATM   20  C   UNL     1     -11.198  11.448  69.391  1.00  0.00    -0.268 A  
HETATM   21  C   UNL     1     -10.415  10.869  68.360  1.00  0.00    -0.206 A  
HETATM   22  C   UNL     1     -10.150   9.487  68.259  1.00  0.00    -0.210 A  
HETATM   23  C   UNL     1      -9.273   8.935  67.163  1.00  0.00    -0.139 C  
HETATM   24  C   UNL     1     -10.708   8.626  69.199  1.00  0.00    -0.136 A  
HETATM   25  F   UNL     1      -8.191   8.263  67.650  1.00  0.00    -0.119 F  
HETATM   26  F   UNL     1      -9.931   8.046  66.368  1.00  0.00    -0.297 F  
HETATM   27  F   UNL     1      -8.772   9.883  66.323  1.00  0.00    -0.133 F  
HETATM   28  C   UNL     1     -11.503   9.147  70.213  1.00  0.00    -0.174 A  
ENDBRANCH  10  11
ENDBRANCH   9  10
ENDBRANCH   8   9
ENDBRANCH   5   8
TORSDOF 4
ENDMDL
MODEL       28
REMARK 921   NORMALIZED FREE ENERGY PREDICTED BY IDOCK:   -6.69 KCAL/MOL
REMARK 922        TOTAL FREE ENERGY PREDICTED BY IDOCK:   -8.67 KCAL/MOL
REMARK 923 INTER-LIGAND FREE ENERGY PREDICTED BY IDOCK:   -8.16 KCAL/MOL
REMARK 924 INTRA-LIGAND FREE ENERGY PREDICTED BY IDOCK:   -0.51 KCAL/MOL
REMARK 927      BINDING AFFINITY PREDICTED BY RF-SCORE:    0.00 PKD
ROOT
HETATM    1  C   UNL     1      -5.312  13.405  68.526  1.00  0.00    -0.081 C  
HETATM    2  N   UNL     1      -6.682  13.664  68.965  1.00  0.00    -0.108 NA 
HETATM    3  C   UNL     1      -6.715  14.743  69.974  1.00  0.00    -0.148 C  
HETATM    4  C   UNL     1      -6.483  16.158  69.395  1.00  0.00    -0.185 C  
HETATM    5  N   UNL     1      -7.404  16.520  68.299  1.00  0.00    -0.163 NA 
HETATM    6  C   UNL     1      -7.348  15.457  67.268  1.00  0.00    -0.204 C  
HETATM    7  C   UNL     1      -7.546  14.021  67.818  1.00  0.00    -0.170 C  
ENDROOT
BRANCH   5   8
HETATM    8  C   UNL     1      -8.793  16.705  68.752  1.00  0.00    -0.264 C  
BRANCH   8   9
HETATM    9  C   UNL     1      -9.804  16.844  67.615  1.00  0.00    -0.259 C  
BRANCH   9  10
HETATM   10  C   UNL     1     -11.202  16.298  67.945  1.00  0.00    -0.213 C  
BRANCH  10  11
HETATM   11  N   UNL     1     -11.221  14.828  68.178  1.00  0.00    -0.281 NA 
HETATM   12  C   UNL     1     -11.040  14.024  67.003  1.00  0.00    -0.304 A  
HETATM   13  C   UNL     1     -10.505  14.556  65.803  1.00  0.00    -0.335 A  
HETATM   14  C   UNL     1     -10.452  13.832  64.609  1.00  0.00    -0.433 A  
HETATM   15  C   UNL     1     -10.876  12.517  64.584  1.00  0.00    -0.343 A  
HETATM   16  C   UNL     1     -11.329  11.933  65.761  1.00  0.00    -0.354 A  
HETATM   17  C   UNL     1     -11.409  12.669  66.962  1.00  0.00    -0.323 A  
HETATM   18  S   UNL     1     -12.020  11.766  68.358  1.00  0.00    -0.045 SA 
HETATM   19  C   UNL     1     -12.066  13.002  69.631  1.00  0.00    -0.241 A  
HETATM   20  C   UNL     1     -11.698  14.352  69.437  1.00  0.00    -0.317 A  
HETATM   21  C   UNL     1     -11.819  15.181  70.581  1.00  0.00    -0.371 A  
HETATM   22  C   UNL     1     -12.308  14.733  71.826  1.00  0.00    -0.414 A  
HETATM   23  C   UNL     1     -12.456  15.674  72.996  1.00  0.00    -0.457 C  
HETATM   24  C   UNL     1     -12.664  13.395  71.966  1.00  0.00    -0.238 A  
HETATM   25  F   UNL     1     -13.738  15.740  73.453  1.00  0.00    -0.571 F  
HETATM   26  F   UNL     1     -11.702  15.296  74.066  1.00  0.00    -0.546 F  
HETATM   27  F   UNL     1     -12.093  16.959  72.724  1.00  0.00    -0.463 F  
HETATM   28  C   UNL     1     -12.538  12.540  70.877  1.00  0.00    -0.331 A  
ENDBRANCH  10  11
ENDBRANCH   9  10
ENDBRANCH   8   9
ENDBRANCH   5   8
TORSDOF 4
ENDMDL
MODEL       29
REMARK 921   NORMALIZED FREE ENERGY PREDICTED BY IDOCK:   -6.69 KCAL/MOL
REMARK 922        TOTAL FREE ENERGY PREDICTED BY IDOCK:   -8.67 KCAL/MOL
REMARK 923 INTER-LIGAND FREE ENERGY PREDICTED BY IDOCK:   -8.13 KCAL/MOL
REMARK 924 INTRA-LIGAND FREE ENERGY PREDICTED BY IDOCK:   -0.54 KCAL/MOL
REMARK 927      BINDING AFFINITY PREDICTED BY RF-SCORE:    0.00 PKD
ROOT
HETATM    1  C   UNL     1      -8.322   6.552  67.452  1.00  0.00    -0.120 C  
HETATM    2  N   UNL     1      -8.057   7.987  67.560  1.00  0.00    -0.122 NA 
HETATM    3  C   UNL     1      -7.662   8.547  66.251  1.00  0.00    -0.094 C  
HETATM    4  C   UNL     1      -8.829   8.695  65.248  1.00  0.00    -0.135 C  
HETATM    5  N   UNL     1      -9.971   9.477  65.761  1.00  0.00    -0.295 NA 
HETATM    6  C   UNL     1     -10.393   8.896  67.058  1.00  0.00    -0.269 C  
HETATM    7  C   UNL     1      -9.242   8.705  68.078  1.00  0.00    -0.140 C  
ENDROOT
BRANCH   5   8
HETATM    8  C   UNL     1      -9.660  10.907  65.931  1.00  0.00    -0.216 C  
BRANCH   8   9
HETATM    9  C   UNL     1     -10.679  11.667  66.779  1.00  0.00    -0.299 C  
BRANCH   9  10
HETATM   10  C   UNL     1     -10.092  12.302  68.050  1.00  0.00    -0.206 C  
BRANCH  10  11
HETATM   11  N   UNL     1     -11.018  13.264  68.709  1.00  0.00    -0.255 NA 
HETATM   12  C   UNL     1     -10.821  14.639  68.351  1.00  0.00    -0.245 A  
HETATM   13  C   UNL     1     -10.090  15.019  67.197  1.00  0.00    -0.239 A  
HETATM   14  C   UNL     1      -9.766  16.347  66.907  1.00  0.00    -0.260 A  
HETATM   15  C   UNL     1     -10.217  17.360  67.731  1.00  0.00    -0.345 A  
HETATM   16  C   UNL     1     -11.008  17.034  68.827  1.00  0.00    -0.180 A  
HETATM   17  C   UNL     1     -11.315  15.694  69.138  1.00  0.00    -0.338 A  
HETATM   18  S   UNL     1     -12.325  15.467  70.576  1.00  0.00    -0.424 SA 
HETATM   19  C   UNL     1     -12.426  13.699  70.705  1.00  0.00    -0.359 A  
HETATM   20  C   UNL     1     -11.789  12.803  69.819  1.00  0.00    -0.310 A  
HETATM   21  C   UNL     1     -11.986  11.429  70.105  1.00  0.00    -0.460 A  
HETATM   22  C   UNL     1     -12.726  10.955  71.210  1.00  0.00    -0.542 A  
HETATM   23  C   UNL     1     -12.865   9.479  71.487  1.00  0.00    -0.377 C  
HETATM   24  C   UNL     1     -13.331  11.878  72.057  1.00  0.00    -0.425 A  
HETATM   25  F   UNL     1     -12.386   9.133  72.716  1.00  0.00    -0.343 F  
HETATM   26  F   UNL     1     -14.162   9.066  71.467  1.00  0.00    -0.411 F  
HETATM   27  F   UNL     1     -12.209   8.683  70.597  1.00  0.00    -0.230 F  
HETATM   28  C   UNL     1     -13.184  13.236  71.801  1.00  0.00    -0.495 A  
ENDBRANCH  10  11
ENDBRANCH   9  10
ENDBRANCH   8   9
ENDBRANCH   5   8
TORSDOF 4
ENDMDL
MODEL       30
REMARK 921   NORMALIZED FREE ENERGY PREDICTED BY IDOCK:   -6.66 KCAL/MOL
REMARK 922        TOTAL FREE ENERGY PREDICTED BY IDOCK:   -8.63 KCAL/MOL
REMARK 923 INTER-LIGAND FREE ENERGY PREDICTED BY IDOCK:   -8.07 KCAL/MOL
REMARK 924 INTRA-LIGAND FREE ENERGY PREDICTED BY IDOCK:   -0.56 KCAL/MOL
REMARK 927      BINDING AFFINITY PREDICTED BY RF-SCORE:    0.00 PKD
ROOT
HETATM    1  C   UNL     1      -7.989  10.926  62.330  1.00  0.00    -0.148 C  
HETATM    2  N   UNL     1      -9.128  10.218  62.913  1.00  0.00    -0.248 NA 
HETATM    3  C   UNL     1      -8.691   9.341  64.019  1.00  0.00    -0.171 C  
HETATM    4  C   UNL     1      -8.317  10.096  65.315  1.00  0.00    -0.159 C  
HETATM    5  N   UNL     1      -9.379  10.987  65.823  1.00  0.00    -0.204 NA 
HETATM    6  C   UNL     1      -9.796  11.892  64.726  1.00  0.00    -0.191 C  
HETATM    7  C   UNL     1     -10.149  11.170  63.400  1.00  0.00    -0.390 C  
ENDROOT
BRANCH   5   8
HETATM    8  C   UNL     1     -10.548  10.254  66.338  1.00  0.00    -0.107 C  
BRANCH   8   9
HETATM    9  C   UNL     1     -11.244  10.941  67.511  1.00  0.00    -0.364 C  
BRANCH   9  10
HETATM   10  C   UNL     1     -10.393  11.020  68.789  1.00  0.00    -0.199 C  
BRANCH  10  11
HETATM   11  N   UNL     1     -11.109  10.540  70.004  1.00  0.00    -0.297 NA 
HETATM   12  C   UNL     1     -11.125   9.116  70.177  1.00  0.00    -0.222 A  
HETATM   13  C   UNL     1     -10.225   8.265  69.490  1.00  0.00    -0.210 A  
HETATM   14  C   UNL     1     -10.314   6.870  69.533  1.00  0.00    -0.224 A  
HETATM   15  C   UNL     1     -11.275   6.269  70.323  1.00  0.00    -0.455 A  
HETATM   16  C   UNL     1     -12.124   7.070  71.080  1.00  0.00    -0.413 A  
HETATM   17  C   UNL     1     -12.053   8.477  71.017  1.00  0.00    -0.205 A  
HETATM   18  S   UNL     1     -13.218   9.335  72.039  1.00  0.00    -0.479 SA 
HETATM   19  C   UNL     1     -12.904  11.037  71.643  1.00  0.00    -0.435 A  
HETATM   20  C   UNL     1     -11.942  11.466  70.704  1.00  0.00    -0.314 A  
HETATM   21  C   UNL     1     -11.857  12.870  70.525  1.00  0.00    -0.152 A  
HETATM   22  C   UNL     1     -12.686  13.797  71.191  1.00  0.00    -0.438 A  
HETATM   23  C   UNL     1     -12.578  15.279  70.926  1.00  0.00    -0.412 C  
HETATM   24  C   UNL     1     -13.624  13.324  72.104  1.00  0.00    -0.655 A  
HETATM   25  F   UNL     1     -13.748  15.814  70.475  1.00  0.00    -0.316 F  
HETATM   26  F   UNL     1     -12.256  15.985  72.046  1.00  0.00    -0.424 F  
HETATM   27  F   UNL     1     -11.638  15.609  69.997  1.00  0.00    -0.258 F  
HETATM   28  C   UNL     1     -13.725  11.957  72.329  1.00  0.00     0.024 A  
ENDBRANCH  10  11
ENDBRANCH   9  10
ENDBRANCH   8   9
ENDBRANCH   5   8
TORSDOF 4
ENDMDL
MODEL       31
REMARK 921   NORMALIZED FREE ENERGY PREDICTED BY IDOCK:   -6.64 KCAL/MOL
REMARK 922        TOTAL FREE ENERGY PREDICTED BY IDOCK:   -8.61 KCAL/MOL
REMARK 923 INTER-LIGAND FREE ENERGY PREDICTED BY IDOCK:   -8.15 KCAL/MOL
REMARK 924 INTRA-LIGAND FREE ENERGY PREDICTED BY IDOCK:   -0.46 KCAL/MOL
REMARK 927      BINDING AFFINITY PREDICTED BY RF-SCORE:    0.00 PKD
ROOT
HETATM    1  C   UNL     1      -7.210  10.186  62.367  1.00  0.00    -0.129 C  
HETATM    2  N   UNL     1      -8.216   9.431  63.114  1.00  0.00    -0.154 NA 
HETATM    3  C   UNL     1      -7.750   9.153  64.488  1.00  0.00    -0.114 C  
HETATM    4  C   UNL     1      -7.773  10.382  65.425  1.00  0.00    -0.136 C  
HETATM    5  N   UNL     1      -9.085  11.054  65.508  1.00  0.00    -0.207 NA 
HETATM    6  C   UNL     1      -9.541  11.366  64.132  1.00  0.00    -0.191 C  
HETATM    7  C   UNL     1      -9.501  10.162  63.157  1.00  0.00    -0.255 C  
ENDROOT
BRANCH   5   8
HETATM    8  C   UNL     1     -10.103  10.245  66.200  1.00  0.00    -0.242 C  
BRANCH   8   9
HETATM    9  C   UNL     1     -11.026  11.054  67.109  1.00  0.00    -0.344 C  
BRANCH   9  10
HETATM   10  C   UNL     1     -10.290  11.975  68.095  1.00  0.00    -0.198 C  
BRANCH  10  11
HETATM   11  N   UNL     1     -11.175  12.996  68.720  1.00  0.00    -0.266 NA 
HETATM   12  C   UNL     1     -10.951  14.344  68.283  1.00  0.00    -0.247 A  
HETATM   13  C   UNL     1     -10.238  14.640  67.094  1.00  0.00    -0.256 A  
HETATM   14  C   UNL     1      -9.886  15.941  66.724  1.00  0.00    -0.254 A  
HETATM   15  C   UNL     1     -10.291  17.010  67.500  1.00  0.00    -0.329 A  
HETATM   16  C   UNL     1     -11.065  16.766  68.629  1.00  0.00    -0.247 A  
HETATM   17  C   UNL     1     -11.400  15.453  69.020  1.00  0.00    -0.316 A  
HETATM   18  S   UNL     1     -12.381  15.332  70.490  1.00  0.00    -0.413 SA 
HETATM   19  C   UNL     1     -12.526  13.578  70.719  1.00  0.00    -0.353 A  
HETATM   20  C   UNL     1     -11.932  12.618  69.871  1.00  0.00    -0.295 A  
HETATM   21  C   UNL     1     -12.159  11.267  70.237  1.00  0.00    -0.459 A  
HETATM   22  C   UNL     1     -12.885  10.875  71.381  1.00  0.00    -0.554 A  
HETATM   23  C   UNL     1     -13.056   9.420  71.743  1.00  0.00    -0.409 C  
HETATM   24  C   UNL     1     -13.446  11.859  72.189  1.00  0.00    -0.300 A  
HETATM   25  F   UNL     1     -12.558   9.129  72.978  1.00  0.00    -0.289 F  
HETATM   26  F   UNL     1     -14.364   9.042  71.774  1.00  0.00    -0.398 F  
HETATM   27  F   UNL     1     -12.442   8.560  70.884  1.00  0.00    -0.269 F  
HETATM   28  C   UNL     1     -13.270  13.197  71.855  1.00  0.00    -0.526 A  
ENDBRANCH  10  11
ENDBRANCH   9  10
ENDBRANCH   8   9
ENDBRANCH   5   8
TORSDOF 4
ENDMDL
MODEL       32
REMARK 921   NORMALIZED FREE ENERGY PREDICTED BY IDOCK:   -6.62 KCAL/MOL
REMARK 922        TOTAL FREE ENERGY PREDICTED BY IDOCK:   -8.58 KCAL/MOL
REMARK 923 INTER-LIGAND FREE ENERGY PREDICTED BY IDOCK:   -8.13 KCAL/MOL
REMARK 924 INTRA-LIGAND FREE ENERGY PREDICTED BY IDOCK:   -0.45 KCAL/MOL
REMARK 927      BINDING AFFINITY PREDICTED BY RF-SCORE:    0.00 PKD
ROOT
HETATM    1  C   UNL     1     -10.086   5.891  74.185  1.00  0.00    -0.267 C  
HETATM    2  N   UNL     1     -10.291   5.982  72.740  1.00  0.00    -0.192 NA 
HETATM    3  C   UNL     1     -11.651   6.470  72.432  1.00  0.00    -0.255 C  
HETATM    4  C   UNL     1     -11.859   7.978  72.699  1.00  0.00    -0.321 C  
HETATM    5  N   UNL     1     -10.887   8.852  72.011  1.00  0.00    -0.358 NA 
HETATM    6  C   UNL     1      -9.520   8.388  72.345  1.00  0.00    -0.295 C  
HETATM    7  C   UNL     1      -9.286   6.873  72.119  1.00  0.00    -0.135 C  
ENDROOT
BRANCH   5   8
HETATM    8  C   UNL     1     -11.065   8.872  70.549  1.00  0.00    -0.251 C  
BRANCH   8   9
HETATM    9  C   UNL     1     -11.538  10.217  70.000  1.00  0.00    -0.349 C  
BRANCH   9  10
HETATM   10  C   UNL     1     -10.413  11.092  69.423  1.00  0.00    -0.095 C  
BRANCH  10  11
HETATM   11  N   UNL     1     -10.857  11.951  68.290  1.00  0.00    -0.212 NA 
HETATM   12  C   UNL     1     -10.560  11.435  66.985  1.00  0.00    -0.248 A  
HETATM   13  C   UNL     1     -10.235  10.072  66.771  1.00  0.00    -0.295 A  
HETATM   14  C   UNL     1      -9.806   9.578  65.535  1.00  0.00    -0.304 A  
HETATM   15  C   UNL     1      -9.746  10.422  64.442  1.00  0.00    -0.396 A  
HETATM   16  C   UNL     1     -10.139  11.748  64.593  1.00  0.00    -0.310 A  
HETATM   17  C   UNL     1     -10.546  12.255  65.844  1.00  0.00    -0.256 A  
HETATM   18  S   UNL     1     -11.000  13.968  65.850  1.00  0.00    -0.291 SA 
HETATM   19  C   UNL     1     -11.359  14.269  67.562  1.00  0.00    -0.326 A  
HETATM   20  C   UNL     1     -11.249  13.294  68.577  1.00  0.00    -0.271 A  
HETATM   21  C   UNL     1     -11.572  13.742  69.883  1.00  0.00    -0.298 A  
HETATM   22  C   UNL     1     -11.940  15.070  70.187  1.00  0.00    -0.366 A  
HETATM   23  C   UNL     1     -12.230  15.499  71.605  1.00  0.00    -0.399 C  
HETATM   24  C   UNL     1     -12.029  15.996  69.152  1.00  0.00    -0.187 A  
HETATM   25  F   UNL     1     -11.414  16.509  72.020  1.00  0.00    -0.475 F  
HETATM   26  F   UNL     1     -13.501  15.965  71.757  1.00  0.00    -0.523 F  
HETATM   27  F   UNL     1     -12.087  14.505  72.525  1.00  0.00    -0.357 F  
HETATM   28  C   UNL     1     -11.746  15.594  67.853  1.00  0.00    -0.097 A  
ENDBRANCH  10  11
ENDBRANCH   9  10
ENDBRANCH   8   9
ENDBRANCH   5   8
TORSDOF 4
ENDMDL
MODEL       33
REMARK 921   NORMALIZED FREE ENERGY PREDICTED BY IDOCK:   -6.60 KCAL/MOL
REMARK 922        TOTAL FREE ENERGY PREDICTED BY IDOCK:   -8.56 KCAL/MOL
REMARK 923 INTER-LIGAND FREE ENERGY PREDICTED BY IDOCK:   -7.81 KCAL/MOL
REMARK 924 INTRA-LIGAND FREE ENERGY PREDICTED BY IDOCK:   -0.75 KCAL/MOL
REMARK 927      BINDING AFFINITY PREDICTED BY RF-SCORE:    0.00 PKD
ROOT
HETATM    1  C   UNL     1     -12.395  15.226  74.419  1.00  0.00    -0.561 C  
HETATM    2  N   UNL     1     -12.980  15.837  73.226  1.00  0.00    -0.516 NA 
HETATM    3  C   UNL     1     -11.925  16.357  72.332  1.00  0.00    -0.468 C  
HETATM    4  C   UNL     1     -11.150  15.263  71.564  1.00  0.00    -0.210 C  
HETATM    5  N   UNL     1     -12.009  14.349  70.784  1.00  0.00    -0.316 NA 
HETATM    6  C   UNL     1     -13.047  13.797  71.686  1.00  0.00    -0.375 C  
HETATM    7  C   UNL     1     -13.824  14.866  72.496  1.00  0.00    -0.462 C  
ENDROOT
BRANCH   5   8
HETATM    8  C   UNL     1     -12.646  15.004  69.629  1.00  0.00    -0.064 C  
BRANCH   8   9
HETATM    9  C   UNL     1     -11.656  15.602  68.630  1.00  0.00    -0.391 C  
BRANCH   9  10
HETATM   10  C   UNL     1     -11.391  14.720  67.400  1.00  0.00    -0.351 C  
BRANCH  10  11
HETATM   11  N   UNL     1     -10.083  14.011  67.455  1.00  0.00    -0.242 NA 
HETATM   12  C   UNL     1     -10.145  12.656  67.921  1.00  0.00    -0.222 A  
HETATM   13  C   UNL     1     -11.360  11.927  67.956  1.00  0.00    -0.352 A  
HETATM   14  C   UNL     1     -11.470  10.660  68.537  1.00  0.00    -0.333 A  
HETATM   15  C   UNL     1     -10.346  10.042  69.052  1.00  0.00    -0.223 A  
HETATM   16  C   UNL     1      -9.119  10.690  68.961  1.00  0.00    -0.174 A  
HETATM   17  C   UNL     1      -9.010  11.978  68.400  1.00  0.00    -0.153 A  
HETATM   18  S   UNL     1      -7.372  12.653  68.377  1.00  0.00    -0.123 SA 
HETATM   19  C   UNL     1      -7.628  14.275  67.703  1.00  0.00    -0.176 A  
HETATM   20  C   UNL     1      -8.890  14.789  67.335  1.00  0.00    -0.193 A  
HETATM   21  C   UNL     1      -8.879  16.112  66.827  1.00  0.00    -0.275 A  
HETATM   22  C   UNL     1      -7.715  16.902  66.723  1.00  0.00    -0.283 A  
HETATM   23  C   UNL     1      -7.772  18.322  66.215  1.00  0.00    -0.248 C  
HETATM   24  C   UNL     1      -6.495  16.353  67.104  1.00  0.00    -0.227 A  
HETATM   25  F   UNL     1      -7.298  19.220  67.124  1.00  0.00    -0.212 F  
HETATM   26  F   UNL     1      -7.023  18.503  65.092  1.00  0.00    -0.233 F  
HETATM   27  F   UNL     1      -9.027  18.746  65.896  1.00  0.00    -0.252 F  
HETATM   28  C   UNL     1      -6.455  15.049  67.584  1.00  0.00    -0.175 A  
ENDBRANCH  10  11
ENDBRANCH   9  10
ENDBRANCH   8   9
ENDBRANCH   5   8
TORSDOF 4
ENDMDL
MODEL       34
REMARK 921   NORMALIZED FREE ENERGY PREDICTED BY IDOCK:   -6.54 KCAL/MOL
REMARK 922        TOTAL FREE ENERGY PREDICTED BY IDOCK:   -8.48 KCAL/MOL
REMARK 923 INTER-LIGAND FREE ENERGY PREDICTED BY IDOCK:   -8.08 KCAL/MOL
REMARK 924 INTRA-LIGAND FREE ENERGY PREDICTED BY IDOCK:   -0.40 KCAL/MOL
REMARK 927      BINDING AFFINITY PREDICTED BY RF-SCORE:    0.00 PKD
ROOT
HETATM    1  C   UNL     1     -10.885  11.887  62.982  1.00  0.00    -0.046 C  
HETATM    2  N   UNL     1     -11.180  11.769  64.410  1.00  0.00    -0.326 NA 
HETATM    3  C   UNL     1     -10.190  12.516  65.213  1.00  0.00    -0.282 C  
HETATM    4  C   UNL     1     -10.360  14.051  65.161  1.00  0.00    -0.400 C  
HETATM    5  N   UNL     1     -11.709  14.522  65.534  1.00  0.00    -0.350 NA 
HETATM    6  C   UNL     1     -12.704  13.801  64.705  1.00  0.00    -0.215 C  
HETATM    7  C   UNL     1     -12.543  12.259  64.710  1.00  0.00    -0.224 C  
ENDROOT
BRANCH   5   8
HETATM    8  C   UNL     1     -12.012  14.327  66.962  1.00  0.00    -0.433 C  
BRANCH   8   9
HETATM    9  C   UNL     1     -11.057  15.056  67.905  1.00  0.00    -0.310 C  
BRANCH   9  10
HETATM   10  C   UNL     1     -10.379  14.146  68.942  1.00  0.00    -0.199 C  
BRANCH  10  11
HETATM   11  N   UNL     1     -11.311  13.163  69.561  1.00  0.00    -0.204 NA 
HETATM   12  C   UNL     1     -12.256  13.721  70.485  1.00  0.00    -0.369 A  
HETATM   13  C   UNL     1     -12.547  15.107  70.519  1.00  0.00    -0.429 A  
HETATM   14  C   UNL     1     -13.354  15.691  71.500  1.00  0.00    -0.535 A  
HETATM   15  C   UNL     1     -13.958  14.895  72.455  1.00  0.00    -0.582 A  
HETATM   16  C   UNL     1     -13.764  13.518  72.404  1.00  0.00    -0.704 A  
HETATM   17  C   UNL     1     -12.930  12.930  71.432  1.00  0.00    -0.270 A  
HETATM   18  S   UNL     1     -12.792  11.166  71.526  1.00  0.00    -0.392 SA 
HETATM   19  C   UNL     1     -11.624  10.798  70.242  1.00  0.00    -0.338 A  
HETATM   20  C   UNL     1     -11.009  11.773  69.427  1.00  0.00    -0.125 A  
HETATM   21  C   UNL     1     -10.095  11.270  68.467  1.00  0.00    -0.210 A  
HETATM   22  C   UNL     1      -9.769   9.904  68.336  1.00  0.00    -0.161 A  
HETATM   23  C   UNL     1      -8.754   9.433  67.323  1.00  0.00    -0.128 C  
HETATM   24  C   UNL     1     -10.397   8.981  69.166  1.00  0.00    -0.229 A  
HETATM   25  F   UNL     1      -7.710   8.773  67.900  1.00  0.00    -0.096 F  
HETATM   26  F   UNL     1      -9.286   8.564  66.419  1.00  0.00    -0.188 F  
HETATM   27  F   UNL     1      -8.197  10.436  66.588  1.00  0.00    -0.119 F  
HETATM   28  C   UNL     1     -11.319   9.427  70.105  1.00  0.00    -0.220 A  
ENDBRANCH  10  11
ENDBRANCH   9  10
ENDBRANCH   8   9
ENDBRANCH   5   8
TORSDOF 4
ENDMDL
MODEL       35
REMARK 921   NORMALIZED FREE ENERGY PREDICTED BY IDOCK:   -6.53 KCAL/MOL
REMARK 922        TOTAL FREE ENERGY PREDICTED BY IDOCK:   -8.47 KCAL/MOL
REMARK 923 INTER-LIGAND FREE ENERGY PREDICTED BY IDOCK:   -8.08 KCAL/MOL
REMARK 924 INTRA-LIGAND FREE ENERGY PREDICTED BY IDOCK:   -0.39 KCAL/MOL
REMARK 927      BINDING AFFINITY PREDICTED BY RF-SCORE:    0.00 PKD
ROOT
HETATM    1  C   UNL     1      -9.589   6.109  73.207  1.00  0.00    -0.147 C  
HETATM    2  N   UNL     1     -10.121   7.467  73.307  1.00  0.00    -0.302 NA 
HETATM    3  C   UNL     1      -9.354   8.395  72.449  1.00  0.00    -0.285 C  
HETATM    4  C   UNL     1      -9.640   8.243  70.938  1.00  0.00    -0.165 C  
HETATM    5  N   UNL     1     -11.068   8.354  70.579  1.00  0.00    -0.254 NA 
HETATM    6  C   UNL     1     -11.837   7.400  71.412  1.00  0.00    -0.300 C  
HETATM    7  C   UNL     1     -11.552   7.504  72.932  1.00  0.00    -0.188 C  
ENDROOT
BRANCH   5   8
HETATM    8  C   UNL     1     -11.602   9.716  70.757  1.00  0.00    -0.321 C  
BRANCH   8   9
HETATM    9  C   UNL     1     -11.891  10.445  69.446  1.00  0.00    -0.189 C  
BRANCH   9  10
HETATM   10  C   UNL     1     -10.654  11.084  68.795  1.00  0.00    -0.202 C  
BRANCH  10  11
HETATM   11  N   UNL     1     -10.991  12.134  67.794  1.00  0.00    -0.222 NA 
HETATM   12  C   UNL     1     -10.664  11.806  66.436  1.00  0.00    -0.266 A  
HETATM   13  C   UNL     1     -10.411  10.473  66.024  1.00  0.00    -0.279 A  
HETATM   14  C   UNL     1      -9.953  10.148  64.744  1.00  0.00    -0.334 A  
HETATM   15  C   UNL     1      -9.791  11.143  63.800  1.00  0.00    -0.374 A  
HETATM   16  C   UNL     1     -10.110  12.453  64.140  1.00  0.00    -0.322 A  
HETATM   17  C   UNL     1     -10.546  12.788  65.438  1.00  0.00    -0.287 A  
HETATM   18  S   UNL     1     -10.896  14.506  65.694  1.00  0.00    -0.345 SA 
HETATM   19  C   UNL     1     -11.319  14.565  67.417  1.00  0.00    -0.356 A  
HETATM   20  C   UNL     1     -11.316  13.440  68.272  1.00  0.00    -0.295 A  
HETATM   21  C   UNL     1     -11.673  13.704  69.618  1.00  0.00    -0.383 A  
HETATM   22  C   UNL     1     -11.975  14.991  70.112  1.00  0.00    -0.366 A  
HETATM   23  C   UNL     1     -12.306  15.215  71.567  1.00  0.00    -0.344 C  
HETATM   24  C   UNL     1     -11.959  16.068  69.231  1.00  0.00    -0.188 A  
HETATM   25  F   UNL     1     -11.452  16.093  72.165  1.00  0.00    -0.470 F  
HETATM   26  F   UNL     1     -13.553  15.736  71.742  1.00  0.00    -0.517 F  
HETATM   27  F   UNL     1     -12.267  14.085  72.325  1.00  0.00    -0.268 F  
HETATM   28  C   UNL     1     -11.639  15.852  67.896  1.00  0.00    -0.109 A  
ENDBRANCH  10  11
ENDBRANCH   9  10
ENDBRANCH   8   9
ENDBRANCH   5   8
TORSDOF 4
ENDMDL
MODEL       36
REMARK 921   NORMALIZED FREE ENERGY PREDICTED BY IDOCK:   -6.48 KCAL/MOL
REMARK 922        TOTAL FREE ENERGY PREDICTED BY IDOCK:   -8.42 KCAL/MOL
REMARK 923 INTER-LIGAND FREE ENERGY PREDICTED BY IDOCK:   -7.92 KCAL/MOL
REMARK 924 INTRA-LIGAND FREE ENERGY PREDICTED BY IDOCK:   -0.50 KCAL/MOL
REMARK 927      BINDING AFFINITY PREDICTED BY RF-SCORE:    0.00 PKD
ROOT
HETATM    1  C   UNL     1      -7.832   7.816  62.703  1.00  0.00    -0.135 C  
HETATM    2  N   UNL     1      -7.400   8.892  63.595  1.00  0.00    -0.100 NA 
HETATM    3  C   UNL     1      -7.922  10.196  63.134  1.00  0.00    -0.154 C  
HETATM    4  C   UNL     1      -9.433  10.399  63.390  1.00  0.00    -0.315 C  
HETATM    5  N   UNL     1      -9.838  10.209  64.797  1.00  0.00    -0.330 NA 
HETATM    6  C   UNL     1      -9.347   8.887  65.253  1.00  0.00    -0.025 C  
HETATM    7  C   UNL     1      -7.841   8.637  64.984  1.00  0.00    -0.116 C  
ENDROOT
BRANCH   5   8
HETATM    8  C   UNL     1      -9.331  11.265  65.690  1.00  0.00    -0.224 C  
BRANCH   8   9
HETATM    9  C   UNL     1      -9.698  11.065  67.159  1.00  0.00    -0.198 C  
BRANCH   9  10
HETATM   10  C   UNL     1     -11.172  11.353  67.485  1.00  0.00    -0.292 C  
BRANCH  10  11
HETATM   11  N   UNL     1     -11.351  12.260  68.653  1.00  0.00    -0.266 NA 
HETATM   12  C   UNL     1     -11.871  11.633  69.834  1.00  0.00    -0.358 A  
HETATM   13  C   UNL     1     -11.851  10.227  70.011  1.00  0.00    -0.305 A  
HETATM   14  C   UNL     1     -12.477   9.587  71.084  1.00  0.00    -0.399 A  
HETATM   15  C   UNL     1     -13.098  10.338  72.064  1.00  0.00    -0.529 A  
HETATM   16  C   UNL     1     -13.066  11.725  71.970  1.00  0.00    -0.436 A  
HETATM   17  C   UNL     1     -12.458  12.373  70.875  1.00  0.00    -0.274 A  
HETATM   18  S   UNL     1     -12.523  14.143  70.917  1.00  0.00    -0.385 SA 
HETATM   19  C   UNL     1     -11.762  14.597  69.379  1.00  0.00    -0.316 A  
HETATM   20  C   UNL     1     -11.282  13.669  68.429  1.00  0.00    -0.276 A  
HETATM   21  C   UNL     1     -10.719  14.238  67.259  1.00  0.00    -0.277 A  
HETATM   22  C   UNL     1     -10.663  15.626  67.011  1.00  0.00    -0.314 A  
HETATM   23  C   UNL     1     -10.091  16.172  65.726  1.00  0.00    -0.363 C  
HETATM   24  C   UNL     1     -11.155  16.500  67.976  1.00  0.00    -0.275 A  
HETATM   25  F   UNL     1     -10.992  16.925  65.033  1.00  0.00    -0.398 F  
HETATM   26  F   UNL     1      -9.017  16.983  65.938  1.00  0.00    -0.279 F  
HETATM   27  F   UNL     1      -9.664  15.213  64.858  1.00  0.00    -0.270 F  
HETATM   28  C   UNL     1     -11.693  15.987  69.149  1.00  0.00    -0.310 A  
ENDBRANCH  10  11
ENDBRANCH   9  10
ENDBRANCH   8   9
ENDBRANCH   5   8
TORSDOF 4
ENDMDL
MODEL       37
REMARK 921   NORMALIZED FREE ENERGY PREDICTED BY IDOCK:   -6.48 KCAL/MOL
REMARK 922        TOTAL FREE ENERGY PREDICTED BY IDOCK:   -8.41 KCAL/MOL
REMARK 923 INTER-LIGAND FREE ENERGY PREDICTED BY IDOCK:   -7.97 KCAL/MOL
REMARK 924 INTRA-LIGAND FREE ENERGY PREDICTED BY IDOCK:   -0.44 KCAL/MOL
REMARK 927      BINDING AFFINITY PREDICTED BY RF-SCORE:    0.00 PKD
ROOT
HETATM    1  C   UNL     1     -12.277  15.113  64.226  1.00  0.00    -0.240 C  
HETATM    2  N   UNL     1     -12.803  13.907  64.863  1.00  0.00    -0.715 NA 
HETATM    3  C   UNL     1     -12.254  12.693  64.222  1.00  0.00    -0.445 C  
HETATM    4  C   UNL     1     -10.777  12.405  64.572  1.00  0.00    -0.321 C  
HETATM    5  N   UNL     1     -10.504  12.326  66.022  1.00  0.00    -0.247 NA 
HETATM    6  C   UNL     1     -11.021  13.558  66.664  1.00  0.00    -0.288 C  
HETATM    7  C   UNL     1     -12.492  13.894  66.310  1.00  0.00    -0.409 C  
ENDROOT
BRANCH   5   8
HETATM    8  C   UNL     1     -11.104  11.141  66.657  1.00  0.00    -0.189 C  
BRANCH   8   9
HETATM    9  C   UNL     1     -10.092  10.224  67.341  1.00  0.00    -0.246 C  
BRANCH   9  10
HETATM   10  C   UNL     1      -9.941  10.470  68.851  1.00  0.00    -0.204 C  
BRANCH  10  11
HETATM   11  N   UNL     1     -10.967   9.764  69.668  1.00  0.00    -0.240 NA 
HETATM   12  C   UNL     1     -11.842  10.619  70.417  1.00  0.00    -0.349 A  
HETATM   13  C   UNL     1     -11.985  11.997  70.116  1.00  0.00    -0.401 A  
HETATM   14  C   UNL     1     -12.719  12.877  70.916  1.00  0.00    -0.291 A  
HETATM   15  C   UNL     1     -13.396  12.398  72.021  1.00  0.00    -0.511 A  
HETATM   16  C   UNL     1     -13.349  11.036  72.301  1.00  0.00    -0.097 A  
HETATM   17  C   UNL     1     -12.588  10.151  71.512  1.00  0.00    -0.434 A  
HETATM   18  S   UNL     1     -12.636   8.455  72.023  1.00  0.00    -0.368 SA 
HETATM   19  C   UNL     1     -11.522   7.673  70.884  1.00  0.00    -0.282 A  
HETATM   20  C   UNL     1     -10.814   8.358  69.873  1.00  0.00    -0.207 A  
HETATM   21  C   UNL     1      -9.965   7.550  69.076  1.00  0.00    -0.175 A  
HETATM   22  C   UNL     1      -9.785   6.165  69.278  1.00  0.00    -0.163 A  
HETATM   23  C   UNL     1      -8.832   5.364  68.424  1.00  0.00    -0.100 C  
HETATM   24  C   UNL     1     -10.501   5.536  70.292  1.00  0.00    -0.365 A  
HETATM   25  F   UNL     1      -7.860   4.755  69.160  1.00  0.00    -0.068 F  
HETATM   26  F   UNL     1      -9.459   4.365  67.743  1.00  0.00    -0.145 F  
HETATM   27  F   UNL     1      -8.178   6.101  67.483  1.00  0.00    -0.107 F  
HETATM   28  C   UNL     1     -11.364   6.285  71.082  1.00  0.00    -0.364 A  
ENDBRANCH  10  11
ENDBRANCH   9  10
ENDBRANCH   8   9
ENDBRANCH   5   8
TORSDOF 4
ENDMDL
MODEL       38
REMARK 921   NORMALIZED FREE ENERGY PREDICTED BY IDOCK:   -6.46 KCAL/MOL
REMARK 922        TOTAL FREE ENERGY PREDICTED BY IDOCK:   -8.38 KCAL/MOL
REMARK 923 INTER-LIGAND FREE ENERGY PREDICTED BY IDOCK:   -8.04 KCAL/MOL
REMARK 924 INTRA-LIGAND FREE ENERGY PREDICTED BY IDOCK:   -0.34 KCAL/MOL
REMARK 927      BINDING AFFINITY PREDICTED BY RF-SCORE:    0.00 PKD
ROOT
HETATM    1  C   UNL     1      -5.281  12.980  68.615  1.00  0.00    -0.067 C  
HETATM    2  N   UNL     1      -6.638  13.067  69.154  1.00  0.00    -0.106 NA 
HETATM    3  C   UNL     1      -6.769  14.230  70.057  1.00  0.00    -0.039 C  
HETATM    4  C   UNL     1      -6.819  15.593  69.330  1.00  0.00    -0.186 C  
HETATM    5  N   UNL     1      -7.869  15.688  68.296  1.00  0.00    -0.126 NA 
HETATM    6  C   UNL     1      -7.719  14.543  67.368  1.00  0.00    -0.192 C  
HETATM    7  C   UNL     1      -7.635  13.161  68.065  1.00  0.00    -0.144 C  
ENDROOT
BRANCH   5   8
HETATM    8  C   UNL     1      -9.231  15.701  68.858  1.00  0.00    -0.226 C  
BRANCH   8   9
HETATM    9  C   UNL     1     -10.337  15.630  67.807  1.00  0.00    -0.266 C  
BRANCH   9  10
HETATM   10  C   UNL     1     -11.759  15.615  68.390  1.00  0.00    -0.290 C  
BRANCH  10  11
HETATM   11  N   UNL     1     -12.153  14.291  68.947  1.00  0.00    -0.314 NA 
HETATM   12  C   UNL     1     -12.654  14.323  70.291  1.00  0.00    -0.319 A  
HETATM   13  C   UNL     1     -13.104  15.522  70.898  1.00  0.00    -0.508 A  
HETATM   14  C   UNL     1     -13.462  15.603  72.247  1.00  0.00    -0.586 A  
HETATM   15  C   UNL     1     -13.444  14.465  73.031  1.00  0.00    -0.376 A  
HETATM   16  C   UNL     1     -13.090  13.253  72.450  1.00  0.00    -0.443 A  
HETATM   17  C   UNL     1     -12.702  13.172  71.097  1.00  0.00    -0.300 A  
HETATM   18  S   UNL     1     -12.273  11.549  70.532  1.00  0.00    -0.347 SA 
HETATM   19  C   UNL     1     -11.765  11.842  68.857  1.00  0.00    -0.323 A  
HETATM   20  C   UNL     1     -11.738  13.116  68.249  1.00  0.00    -0.349 A  
HETATM   21  C   UNL     1     -11.288  13.134  66.905  1.00  0.00    -0.355 A  
HETATM   22  C   UNL     1     -10.854  11.987  66.207  1.00  0.00    -0.316 A  
HETATM   23  C   UNL     1     -10.344  12.077  64.790  1.00  0.00    -0.280 C  
HETATM   24  C   UNL     1     -10.895  10.755  66.851  1.00  0.00    -0.288 A  
HETATM   25  F   UNL     1      -9.066  11.619  64.666  1.00  0.00    -0.108 F  
HETATM   26  F   UNL     1     -11.088  11.335  63.922  1.00  0.00    -0.427 F  
HETATM   27  F   UNL     1     -10.335  13.341  64.282  1.00  0.00    -0.403 F  
HETATM   28  C   UNL     1     -11.352  10.686  68.162  1.00  0.00    -0.354 A  
ENDBRANCH  10  11
ENDBRANCH   9  10
ENDBRANCH   8   9
ENDBRANCH   5   8
TORSDOF 4
ENDMDL
MODEL       39
REMARK 921   NORMALIZED FREE ENERGY PREDICTED BY IDOCK:   -6.41 KCAL/MOL
REMARK 922        TOTAL FREE ENERGY PREDICTED BY IDOCK:   -8.32 KCAL/MOL
REMARK 923 INTER-LIGAND FREE ENERGY PREDICTED BY IDOCK:   -7.59 KCAL/MOL
REMARK 924 INTRA-LIGAND FREE ENERGY PREDICTED BY IDOCK:   -0.73 KCAL/MOL
REMARK 927      BINDING AFFINITY PREDICTED BY RF-SCORE:    0.00 PKD
ROOT
HETATM    1  C   UNL     1     -14.073  14.975  71.775  1.00  0.00    -0.527 C  
HETATM    2  N   UNL     1     -12.727  14.412  71.877  1.00  0.00    -0.339 NA 
HETATM    3  C   UNL     1     -12.437  13.536  70.722  1.00  0.00    -0.353 C  
HETATM    4  C   UNL     1     -12.171  14.296  69.403  1.00  0.00    -0.278 C  
HETATM    5  N   UNL     1     -11.103  15.311  69.495  1.00  0.00    -0.263 NA 
HETATM    6  C   UNL     1     -11.409  16.213  70.631  1.00  0.00    -0.370 C  
HETATM    7  C   UNL     1     -11.710  15.482  71.964  1.00  0.00    -0.455 C  
ENDROOT
BRANCH   5   8
HETATM    8  C   UNL     1      -9.764  14.723  69.670  1.00  0.00     0.125 C  
BRANCH   8   9
HETATM    9  C   UNL     1      -8.624  15.622  69.196  1.00  0.00    -0.251 C  
BRANCH   9  10
HETATM   10  C   UNL     1      -8.069  15.258  67.809  1.00  0.00    -0.146 C  
BRANCH  10  11
HETATM   11  N   UNL     1      -9.004  15.584  66.697  1.00  0.00    -0.263 NA 
HETATM   12  C   UNL     1      -9.247  16.984  66.499  1.00  0.00    -0.271 A  
HETATM   13  C   UNL     1      -8.393  17.979  67.037  1.00  0.00    -0.248 A  
HETATM   14  C   UNL     1      -8.686  19.345  66.978  1.00  0.00    -0.328 A  
HETATM   15  C   UNL     1      -9.821  19.775  66.317  1.00  0.00    -0.557 A  
HETATM   16  C   UNL     1     -10.641  18.834  65.703  1.00  0.00    -0.202 A  
HETATM   17  C   UNL     1     -10.362  17.455  65.784  1.00  0.00    -0.216 A  
HETATM   18  S   UNL     1     -11.520  16.403  64.952  1.00  0.00     0.199 SA 
HETATM   19  C   UNL     1     -10.915  14.779  65.334  1.00  0.00    -0.359 A  
HETATM   20  C   UNL     1      -9.783  14.525  66.139  1.00  0.00    -0.316 A  
HETATM   21  C   UNL     1      -9.475  13.155  66.333  1.00  0.00    -0.226 A  
HETATM   22  C   UNL     1     -10.245  12.095  65.808  1.00  0.00    -0.282 A  
HETATM   23  C   UNL     1      -9.891  10.655  66.085  1.00  0.00    -0.217 C  
HETATM   24  C   UNL     1     -11.355  12.397  65.025  1.00  0.00    -0.363 A  
HETATM   25  F   UNL     1     -10.901   9.981  66.705  1.00  0.00    -0.263 F  
HETATM   26  F   UNL     1      -9.626   9.957  64.946  1.00  0.00    -0.290 F  
HETATM   27  F   UNL     1      -8.797  10.496  66.880  1.00  0.00    -0.134 F  
HETATM   28  C   UNL     1     -11.681  13.727  64.789  1.00  0.00    -0.399 A  
ENDBRANCH  10  11
ENDBRANCH   9  10
ENDBRANCH   8   9
ENDBRANCH   5   8
TORSDOF 4
ENDMDL
MODEL       40
REMARK 921   NORMALIZED FREE ENERGY PREDICTED BY IDOCK:   -6.36 KCAL/MOL
REMARK 922        TOTAL FREE ENERGY PREDICTED BY IDOCK:   -8.26 KCAL/MOL
REMARK 923 INTER-LIGAND FREE ENERGY PREDICTED BY IDOCK:   -7.69 KCAL/MOL
REMARK 924 INTRA-LIGAND FREE ENERGY PREDICTED BY IDOCK:   -0.57 KCAL/MOL
REMARK 927      BINDING AFFINITY PREDICTED BY RF-SCORE:    0.00 PKD
ROOT
HETATM    1  C   UNL     1      -7.729  18.597  67.473  1.00  0.00    -0.229 C  
HETATM    2  N   UNL     1      -8.589  17.923  68.446  1.00  0.00    -0.288 NA 
HETATM    3  C   UNL     1     -10.003  17.970  68.017  1.00  0.00    -0.343 C  
HETATM    4  C   UNL     1     -10.341  17.018  66.846  1.00  0.00    -0.303 C  
HETATM    5  N   UNL     1      -9.977  15.608  67.090  1.00  0.00    -0.237 NA 
HETATM    6  C   UNL     1      -8.550  15.553  67.487  1.00  0.00    -0.170 C  
HETATM    7  C   UNL     1      -8.169  16.518  68.639  1.00  0.00    -0.234 C  
ENDROOT
BRANCH   5   8
HETATM    8  C   UNL     1     -10.809  14.970  68.125  1.00  0.00    -0.263 C  
BRANCH   8   9
HETATM    9  C   UNL     1     -10.571  13.468  68.274  1.00  0.00    -0.259 C  
BRANCH   9  10
HETATM   10  C   UNL     1     -11.700  12.593  67.707  1.00  0.00    -0.356 C  
BRANCH  10  11
HETATM   11  N   UNL     1     -11.487  11.137  67.935  1.00  0.00    -0.456 NA 
HETATM   12  C   UNL     1     -11.845  10.667  69.242  1.00  0.00    -0.237 A  
HETATM   13  C   UNL     1     -12.681  11.416  70.108  1.00  0.00    -0.073 A  
HETATM   14  C   UNL     1     -12.926  11.048  71.434  1.00  0.00    -0.517 A  
HETATM   15  C   UNL     1     -12.392   9.874  71.930  1.00  0.00    -0.390 A  
HETATM   16  C   UNL     1     -11.635   9.069  71.086  1.00  0.00    -0.372 A  
HETATM   17  C   UNL     1     -11.364   9.451  69.756  1.00  0.00    -0.042 A  
HETATM   18  S   UNL     1     -10.374   8.308  68.832  1.00  0.00    -0.195 SA 
HETATM   19  C   UNL     1     -10.168   9.140  67.278  1.00  0.00    -0.254 A  
HETATM   20  C   UNL     1     -10.700  10.415  66.986  1.00  0.00    -0.235 A  
HETATM   21  C   UNL     1     -10.410  10.908  65.689  1.00  0.00    -0.305 A  
HETATM   22  C   UNL     1      -9.616  10.219  64.747  1.00  0.00    -0.369 A  
HETATM   23  C   UNL     1      -9.306  10.815  63.396  1.00  0.00    -0.286 C  
HETATM   24  C   UNL     1      -9.110   8.968  65.084  1.00  0.00    -0.203 A  
HETATM   25  F   UNL     1      -7.967  10.955  63.184  1.00  0.00    -0.111 F  
HETATM   26  F   UNL     1      -9.764  10.045  62.370  1.00  0.00    -0.301 F  
HETATM   27  F   UNL     1      -9.843  12.052  63.199  1.00  0.00    -0.392 F  
HETATM   28  C   UNL     1      -9.390   8.434  66.336  1.00  0.00    -0.274 A  
ENDBRANCH  10  11
ENDBRANCH   9  10
ENDBRANCH   8   9
ENDBRANCH   5   8
TORSDOF 4
ENDMDL
MODEL       41
REMARK 921   NORMALIZED FREE ENERGY PREDICTED BY IDOCK:   -6.31 KCAL/MOL
REMARK 922        TOTAL FREE ENERGY PREDICTED BY IDOCK:   -8.20 KCAL/MOL
REMARK 923 INTER-LIGAND FREE ENERGY PREDICTED BY IDOCK:   -7.57 KCAL/MOL
REMARK 924 INTRA-LIGAND FREE ENERGY PREDICTED BY IDOCK:   -0.62 KCAL/MOL
REMARK 927      BINDING AFFINITY PREDICTED BY RF-SCORE:    0.00 PKD
ROOT
HETATM    1  C   UNL     1      -9.588   3.145  72.634  1.00  0.00    -0.123 C  
HETATM    2  N   UNL     1      -8.736   4.240  72.171  1.00  0.00    -0.107 NA 
HETATM    3  C   UNL     1      -9.212   4.762  70.873  1.00  0.00    -0.140 C  
HETATM    4  C   UNL     1     -10.498   5.615  70.968  1.00  0.00    -0.250 C  
HETATM    5  N   UNL     1     -10.405   6.744  71.916  1.00  0.00    -0.197 NA 
HETATM    6  C   UNL     1      -9.961   6.219  73.229  1.00  0.00    -0.180 C  
HETATM    7  C   UNL     1      -8.691   5.333  73.166  1.00  0.00    -0.120 C  
ENDROOT
BRANCH   5   8
HETATM    8  C   UNL     1      -9.486   7.801  71.463  1.00  0.00    -0.144 C  
BRANCH   8   9
HETATM    9  C   UNL     1     -10.158   9.155  71.241  1.00  0.00    -0.388 C  
BRANCH   9  10
HETATM   10  C   UNL     1     -11.400   9.101  70.339  1.00  0.00    -0.224 C  
BRANCH  10  11
HETATM   11  N   UNL     1     -11.303   9.991  69.148  1.00  0.00    -0.148 NA 
HETATM   12  C   UNL     1     -10.651   9.412  68.009  1.00  0.00    -0.226 A  
HETATM   13  C   UNL     1     -10.465   8.013  67.879  1.00  0.00    -0.259 A  
HETATM   14  C   UNL     1      -9.711   7.438  66.852  1.00  0.00    -0.265 A  
HETATM   15  C   UNL     1      -9.162   8.243  65.871  1.00  0.00    -0.185 A  
HETATM   16  C   UNL     1      -9.393   9.613  65.917  1.00  0.00    -0.275 A  
HETATM   17  C   UNL     1     -10.131  10.198  66.967  1.00  0.00    -0.223 A  
HETATM   18  S   UNL     1     -10.315  11.958  66.868  1.00  0.00    -0.215 SA 
HETATM   19  C   UNL     1     -11.195  12.341  68.361  1.00  0.00    -0.266 A  
HETATM   20  C   UNL     1     -11.579  11.381  69.323  1.00  0.00    -0.317 A  
HETATM   21  C   UNL     1     -12.264  11.897  70.451  1.00  0.00    -0.399 A  
HETATM   22  C   UNL     1     -12.525  13.270  70.650  1.00  0.00    -0.373 A  
HETATM   23  C   UNL     1     -13.222  13.764  71.894  1.00  0.00    -0.403 C  
HETATM   24  C   UNL     1     -12.123  14.178  69.676  1.00  0.00    -0.400 A  
HETATM   25  F   UNL     1     -12.466  14.656  72.594  1.00  0.00    -0.383 F  
HETATM   26  F   UNL     1     -14.390  14.408  71.615  1.00  0.00    -0.453 F  
HETATM   27  F   UNL     1     -13.545  12.778  72.777  1.00  0.00    -0.563 F  
HETATM   28  C   UNL     1     -11.469  13.714  68.541  1.00  0.00    -0.347 A  
ENDBRANCH  10  11
ENDBRANCH   9  10
ENDBRANCH   8   9
ENDBRANCH   5   8
TORSDOF 4
ENDMDL
MODEL       42
REMARK 921   NORMALIZED FREE ENERGY PREDICTED BY IDOCK:   -6.27 KCAL/MOL
REMARK 922        TOTAL FREE ENERGY PREDICTED BY IDOCK:   -8.15 KCAL/MOL
REMARK 923 INTER-LIGAND FREE ENERGY PREDICTED BY IDOCK:   -7.66 KCAL/MOL
REMARK 924 INTRA-LIGAND FREE ENERGY PREDICTED BY IDOCK:   -0.49 KCAL/MOL
REMARK 927      BINDING AFFINITY PREDICTED BY RF-SCORE:    0.00 PKD
ROOT
HETATM    1  C   UNL     1     -12.385  15.141  64.239  1.00  0.00    -0.178 C  
HETATM    2  N   UNL     1     -12.727  13.750  64.533  1.00  0.00    -0.660 NA 
HETATM    3  C   UNL     1     -12.088  12.836  63.563  1.00  0.00    -0.559 C  
HETATM    4  C   UNL     1     -10.567  12.655  63.771  1.00  0.00    -0.397 C  
HETATM    5  N   UNL     1     -10.191  12.222  65.132  1.00  0.00    -0.276 NA 
HETATM    6  C   UNL     1     -10.801  13.157  66.107  1.00  0.00    -0.279 C  
HETATM    7  C   UNL     1     -12.321  13.385  65.908  1.00  0.00    -0.437 C  
ENDROOT
BRANCH   5   8
HETATM    8  C   UNL     1     -10.609  10.842  65.432  1.00  0.00    -0.173 C  
BRANCH   8   9
HETATM    9  C   UNL     1     -10.619  10.508  66.923  1.00  0.00    -0.303 C  
BRANCH   9  10
HETATM   10  C   UNL     1      -9.284   9.963  67.456  1.00  0.00    -0.134 C  
BRANCH  10  11
HETATM   11  N   UNL     1      -9.249   8.478  67.550  1.00  0.00    -0.133 NA 
HETATM   12  C   UNL     1      -8.669   7.810  66.420  1.00  0.00    -0.150 A  
HETATM   13  C   UNL     1      -7.853   8.491  65.482  1.00  0.00    -0.104 A  
HETATM   14  C   UNL     1      -7.396   7.898  64.302  1.00  0.00    -0.088 A  
HETATM   15  C   UNL     1      -7.686   6.571  64.043  1.00  0.00    -0.105 A  
HETATM   16  C   UNL     1      -8.412   5.846  64.981  1.00  0.00    -0.111 A  
HETATM   17  C   UNL     1      -8.898   6.448  66.159  1.00  0.00    -0.150 A  
HETATM   18  S   UNL     1      -9.813   5.375  67.232  1.00  0.00    -0.171 SA 
HETATM   19  C   UNL     1     -10.328   6.469  68.531  1.00  0.00    -0.192 A  
HETATM   20  C   UNL     1     -10.031   7.849  68.568  1.00  0.00    -0.187 A  
HETATM   21  C   UNL     1     -10.547   8.549  69.687  1.00  0.00    -0.221 A  
HETATM   22  C   UNL     1     -11.339   7.949  70.690  1.00  0.00    -0.267 A  
HETATM   23  C   UNL     1     -11.897   8.756  71.836  1.00  0.00    -0.367 C  
HETATM   24  C   UNL     1     -11.609   6.587  70.606  1.00  0.00    -0.442 A  
HETATM   25  F   UNL     1     -13.258   8.705  71.895  1.00  0.00    -0.310 F  
HETATM   26  F   UNL     1     -11.459   8.310  73.047  1.00  0.00    -0.435 F  
HETATM   27  F   UNL     1     -11.577  10.079  71.791  1.00  0.00    -0.425 F  
HETATM   28  C   UNL     1     -11.102   5.856  69.538  1.00  0.00    -0.403 A  
ENDBRANCH  10  11
ENDBRANCH   9  10
ENDBRANCH   8   9
ENDBRANCH   5   8
TORSDOF 4
ENDMDL
MODEL       43
REMARK 921   NORMALIZED FREE ENERGY PREDICTED BY IDOCK:   -6.24 KCAL/MOL
REMARK 922        TOTAL FREE ENERGY PREDICTED BY IDOCK:   -8.11 KCAL/MOL
REMARK 923 INTER-LIGAND FREE ENERGY PREDICTED BY IDOCK:   -7.82 KCAL/MOL
REMARK 924 INTRA-LIGAND FREE ENERGY PREDICTED BY IDOCK:   -0.29 KCAL/MOL
REMARK 927      BINDING AFFINITY PREDICTED BY RF-SCORE:    0.00 PKD
ROOT
HETATM    1  C   UNL     1     -12.510  15.474  74.372  1.00  0.00    -0.612 C  
HETATM    2  N   UNL     1     -13.086  15.886  73.093  1.00  0.00    -0.536 NA 
HETATM    3  C   UNL     1     -12.029  16.325  72.158  1.00  0.00    -0.494 C  
HETATM    4  C   UNL     1     -11.187  15.170  71.568  1.00  0.00    -0.262 C  
HETATM    5  N   UNL     1     -11.985  14.119  70.905  1.00  0.00    -0.323 NA 
HETATM    6  C   UNL     1     -13.025  13.652  71.852  1.00  0.00    -0.341 C  
HETATM    7  C   UNL     1     -13.868  14.787  72.487  1.00  0.00    -0.458 C  
ENDROOT
BRANCH   5   8
HETATM    8  C   UNL     1     -12.615  14.577  69.656  1.00  0.00    -0.070 C  
BRANCH   8   9
HETATM    9  C   UNL     1     -11.940  15.797  69.031  1.00  0.00    -0.294 C  
BRANCH   9  10
HETATM   10  C   UNL     1     -11.222  15.507  67.703  1.00  0.00    -0.291 C  
BRANCH  10  11
HETATM   11  N   UNL     1      -9.807  15.971  67.685  1.00  0.00    -0.233 NA 
HETATM   12  C   UNL     1      -9.620  17.335  67.281  1.00  0.00    -0.254 A  
HETATM   13  C   UNL     1     -10.685  18.271  67.278  1.00  0.00    -0.366 A  
HETATM   14  C   UNL     1     -10.559  19.562  66.756  1.00  0.00    -0.597 A  
HETATM   15  C   UNL     1      -9.338  19.991  66.273  1.00  0.00    -0.456 A  
HETATM   16  C   UNL     1      -8.248  19.130  66.337  1.00  0.00    -0.323 A  
HETATM   17  C   UNL     1      -8.377  17.819  66.838  1.00  0.00    -0.238 A  
HETATM   18  S   UNL     1      -6.887  16.861  66.833  1.00  0.00    -0.234 SA 
HETATM   19  C   UNL     1      -7.437  15.282  67.430  1.00  0.00    -0.209 A  
HETATM   20  C   UNL     1      -8.775  14.987  67.771  1.00  0.00    -0.164 A  
HETATM   21  C   UNL     1      -9.007  13.662  68.216  1.00  0.00    -0.187 A  
HETATM   22  C   UNL     1      -8.005  12.671  68.287  1.00  0.00    -0.153 A  
HETATM   23  C   UNL     1      -8.322  11.263  68.728  1.00  0.00    -0.120 C  
HETATM   24  C   UNL     1      -6.702  13.009  67.935  1.00  0.00    -0.129 A  
HETATM   25  F   UNL     1      -8.006  10.337  67.779  1.00  0.00    -0.100 F  
HETATM   26  F   UNL     1      -7.629  10.900  69.843  1.00  0.00    -0.121 F  
HETATM   27  F   UNL     1      -9.635  11.057  69.024  1.00  0.00    -0.192 F  
HETATM   28  C   UNL     1      -6.423  14.305  67.516  1.00  0.00    -0.064 A  
ENDBRANCH  10  11
ENDBRANCH   9  10
ENDBRANCH   8   9
ENDBRANCH   5   8
TORSDOF 4
ENDMDL
MODEL       44
REMARK 921   NORMALIZED FREE ENERGY PREDICTED BY IDOCK:   -6.23 KCAL/MOL
REMARK 922        TOTAL FREE ENERGY PREDICTED BY IDOCK:   -8.10 KCAL/MOL
REMARK 923 INTER-LIGAND FREE ENERGY PREDICTED BY IDOCK:   -7.39 KCAL/MOL
REMARK 924 INTRA-LIGAND FREE ENERGY PREDICTED BY IDOCK:   -0.71 KCAL/MOL
REMARK 927      BINDING AFFINITY PREDICTED BY RF-SCORE:    0.00 PKD
ROOT
HETATM    1  C   UNL     1      -6.281   6.280  70.861  1.00  0.00    -0.039 C  
HETATM    2  N   UNL     1      -6.748   6.461  69.487  1.00  0.00    -0.051 NA 
HETATM    3  C   UNL     1      -8.127   5.952  69.331  1.00  0.00    -0.109 C  
HETATM    4  C   UNL     1      -9.210   6.851  69.968  1.00  0.00    -0.155 C  
HETATM    5  N   UNL     1      -9.179   8.253  69.505  1.00  0.00    -0.157 NA 
HETATM    6  C   UNL     1      -7.806   8.780  69.693  1.00  0.00    -0.090 C  
HETATM    7  C   UNL     1      -6.692   7.886  69.092  1.00  0.00    -0.048 C  
ENDROOT
BRANCH   5   8
HETATM    8  C   UNL     1      -9.584   8.404  68.097  1.00  0.00    -0.143 C  
BRANCH   8   9
HETATM    9  C   UNL     1      -9.680   9.855  67.631  1.00  0.00    -0.183 C  
BRANCH   9  10
HETATM   10  C   UNL     1     -11.065  10.256  67.099  1.00  0.00    -0.091 C  
BRANCH  10  11
HETATM   11  N   UNL     1     -11.587  11.513  67.702  1.00  0.00    -0.515 NA 
HETATM   12  C   UNL     1     -11.308  12.706  66.956  1.00  0.00    -0.323 A  
HETATM   13  C   UNL     1     -10.923  12.668  65.592  1.00  0.00    -0.313 A  
HETATM   14  C   UNL     1     -10.510  13.802  64.887  1.00  0.00    -0.437 A  
HETATM   15  C   UNL     1     -10.528  15.038  65.505  1.00  0.00    -0.385 A  
HETATM   16  C   UNL     1     -10.980  15.129  66.817  1.00  0.00    -0.321 A  
HETATM   17  C   UNL     1     -11.371  13.984  67.539  1.00  0.00    -0.321 A  
HETATM   18  S   UNL     1     -11.908  14.288  69.200  1.00  0.00    -0.334 SA 
HETATM   19  C   UNL     1     -12.226  12.652  69.812  1.00  0.00    -0.143 A  
HETATM   20  C   UNL     1     -12.036  11.474  69.058  1.00  0.00    -0.311 A  
HETATM   21  C   UNL     1     -12.337  10.267  69.737  1.00  0.00    -0.030 A  
HETATM   22  C   UNL     1     -12.760  10.208  71.082  1.00  0.00    -0.494 A  
HETATM   23  C   UNL     1     -13.025   8.889  71.764  1.00  0.00    -0.367 C  
HETATM   24  C   UNL     1     -12.928  11.397  71.785  1.00  0.00    -0.519 A  
HETATM   25  F   UNL     1     -12.246   8.709  72.869  1.00  0.00    -0.425 F  
HETATM   26  F   UNL     1     -14.311   8.776  72.198  1.00  0.00    -0.444 F  
HETATM   27  F   UNL     1     -12.804   7.801  70.974  1.00  0.00    -0.298 F  
HETATM   28  C   UNL     1     -12.668  12.606  71.151  1.00  0.00    -0.347 A  
ENDBRANCH  10  11
ENDBRANCH   9  10
ENDBRANCH   8   9
ENDBRANCH   5   8
TORSDOF 4
ENDMDL
MODEL       45
REMARK 921   NORMALIZED FREE ENERGY PREDICTED BY IDOCK:   -6.21 KCAL/MOL
REMARK 922        TOTAL FREE ENERGY PREDICTED BY IDOCK:   -8.07 KCAL/MOL
REMARK 923 INTER-LIGAND FREE ENERGY PREDICTED BY IDOCK:   -7.52 KCAL/MOL
REMARK 924 INTRA-LIGAND FREE ENERGY PREDICTED BY IDOCK:   -0.55 KCAL/MOL
REMARK 927      BINDING AFFINITY PREDICTED BY RF-SCORE:    0.00 PKD
ROOT
HETATM    1  C   UNL     1     -10.394  17.556  68.803  1.00  0.00    -0.358 C  
HETATM    2  N   UNL     1     -10.076  16.394  69.631  1.00  0.00    -0.200 NA 
HETATM    3  C   UNL     1     -11.199  16.072  70.536  1.00  0.00    -0.378 C  
HETATM    4  C   UNL     1     -12.410  15.417  69.834  1.00  0.00    -0.293 C  
HETATM    5  N   UNL     1     -12.076  14.204  69.060  1.00  0.00    -0.339 NA 
HETATM    6  C   UNL     1     -10.973  14.532  68.126  1.00  0.00    -0.251 C  
HETATM    7  C   UNL     1      -9.754  15.219  68.792  1.00  0.00    -0.212 C  
ENDROOT
BRANCH   5   8
HETATM    8  C   UNL     1     -11.688  13.067  69.912  1.00  0.00    -0.256 C  
BRANCH   8   9
HETATM    9  C   UNL     1     -10.862  12.004  69.189  1.00  0.00    -0.175 C  
BRANCH   9  10
HETATM   10  C   UNL     1     -11.691  10.840  68.623  1.00  0.00    -0.219 C  
BRANCH  10  11
HETATM   11  N   UNL     1     -10.989  10.085  67.548  1.00  0.00    -0.269 NA 
HETATM   12  C   UNL     1     -10.360   8.867  67.973  1.00  0.00    -0.219 A  
HETATM   13  C   UNL     1     -10.695   8.234  69.196  1.00  0.00    -0.117 A  
HETATM   14  C   UNL     1      -9.999   7.130  69.695  1.00  0.00    -0.176 A  
HETATM   15  C   UNL     1      -8.974   6.573  68.955  1.00  0.00    -0.129 A  
HETATM   16  C   UNL     1      -8.671   7.114  67.711  1.00  0.00    -0.125 A  
HETATM   17  C   UNL     1      -9.353   8.244  67.216  1.00  0.00    -0.147 A  
HETATM   18  S   UNL     1      -8.826   8.802  65.619  1.00  0.00    -0.194 SA 
HETATM   19  C   UNL     1      -9.816  10.254  65.368  1.00  0.00    -0.296 A  
HETATM   20  C   UNL     1     -10.747  10.749  66.306  1.00  0.00    -0.138 A  
HETATM   21  C   UNL     1     -11.427  11.930  65.917  1.00  0.00    -0.340 A  
HETATM   22  C   UNL     1     -11.186  12.611  64.705  1.00  0.00    -0.348 A  
HETATM   23  C   UNL     1     -11.911  13.890  64.365  1.00  0.00    -0.450 C  
HETATM   24  C   UNL     1     -10.254  12.087  63.815  1.00  0.00    -0.447 A  
HETATM   25  F   UNL     1     -11.058  14.933  64.158  1.00  0.00    -0.208 F  
HETATM   26  F   UNL     1     -12.647  13.783  63.223  1.00  0.00    -0.469 F  
HETATM   27  F   UNL     1     -12.780  14.307  65.327  1.00  0.00    -0.444 F  
HETATM   28  C   UNL     1      -9.581  10.916  64.145  1.00  0.00    -0.321 A  
ENDBRANCH  10  11
ENDBRANCH   9  10
ENDBRANCH   8   9
ENDBRANCH   5   8
TORSDOF 4
ENDMDL
MODEL       46
REMARK 921   NORMALIZED FREE ENERGY PREDICTED BY IDOCK:   -6.20 KCAL/MOL
REMARK 922        TOTAL FREE ENERGY PREDICTED BY IDOCK:   -8.07 KCAL/MOL
REMARK 923 INTER-LIGAND FREE ENERGY PREDICTED BY IDOCK:   -7.45 KCAL/MOL
REMARK 924 INTRA-LIGAND FREE ENERGY PREDICTED BY IDOCK:   -0.62 KCAL/MOL
REMARK 927      BINDING AFFINITY PREDICTED BY RF-SCORE:    0.00 PKD
ROOT
HETATM    1  C   UNL     1      -7.680   7.095  64.184  1.00  0.00    -0.120 C  
HETATM    2  N   UNL     1      -7.357   8.264  65.001  1.00  0.00    -0.083 NA 
HETATM    3  C   UNL     1      -7.602   9.512  64.249  1.00  0.00    -0.122 C  
HETATM    4  C   UNL     1      -9.097   9.867  64.080  1.00  0.00    -0.259 C  
HETATM    5  N   UNL     1      -9.849   9.935  65.349  1.00  0.00    -0.311 NA 
HETATM    6  C   UNL     1      -9.634   8.670  66.091  1.00  0.00    -0.235 C  
HETATM    7  C   UNL     1      -8.146   8.268  66.252  1.00  0.00    -0.109 C  
ENDROOT
BRANCH   5   8
HETATM    8  C   UNL     1      -9.457  11.080  66.189  1.00  0.00    -0.203 C  
BRANCH   8   9
HETATM    9  C   UNL     1     -10.578  11.607  67.082  1.00  0.00    -0.269 C  
BRANCH   9  10
HETATM   10  C   UNL     1     -10.166  11.827  68.547  1.00  0.00    -0.210 C  
BRANCH  10  11
HETATM   11  N   UNL     1     -11.308  11.740  69.499  1.00  0.00    -0.263 NA 
HETATM   12  C   UNL     1     -11.877  13.000  69.883  1.00  0.00    -0.307 A  
HETATM   13  C   UNL     1     -11.647  14.186  69.141  1.00  0.00    -0.349 A  
HETATM   14  C   UNL     1     -12.071  15.446  69.573  1.00  0.00    -0.332 A  
HETATM   15  C   UNL     1     -12.803  15.561  70.740  1.00  0.00    -0.513 A  
HETATM   16  C   UNL     1     -13.121  14.410  71.451  1.00  0.00    -0.416 A  
HETATM   17  C   UNL     1     -12.672  13.141  71.033  1.00  0.00    -0.277 A  
HETATM   18  S   UNL     1     -13.163  11.789  72.068  1.00  0.00    -0.141 SA 
HETATM   19  C   UNL     1     -12.363  10.402  71.303  1.00  0.00    -0.401 A  
HETATM   20  C   UNL     1     -11.540  10.494  70.159  1.00  0.00    -0.326 A  
HETATM   21  C   UNL     1     -10.986   9.269  69.713  1.00  0.00    -0.213 A  
HETATM   22  C   UNL     1     -11.187   8.033  70.365  1.00  0.00    -0.230 A  
HETATM   23  C   UNL     1     -10.533   6.768  69.868  1.00  0.00    -0.211 C  
HETATM   24  C   UNL     1     -12.001   7.995  71.493  1.00  0.00    -0.331 A  
HETATM   25  F   UNL     1      -9.734   6.190  70.809  1.00  0.00    -0.178 F  
HETATM   26  F   UNL     1     -11.443   5.815  69.521  1.00  0.00    -0.442 F  
HETATM   27  F   UNL     1      -9.745   6.944  68.771  1.00  0.00    -0.138 F  
HETATM   28  C   UNL     1     -12.586   9.169  71.951  1.00  0.00    -0.463 A  
ENDBRANCH  10  11
ENDBRANCH   9  10
ENDBRANCH   8   9
ENDBRANCH   5   8
TORSDOF 4
ENDMDL
MODEL       47
REMARK 921   NORMALIZED FREE ENERGY PREDICTED BY IDOCK:   -6.18 KCAL/MOL
REMARK 922        TOTAL FREE ENERGY PREDICTED BY IDOCK:   -8.04 KCAL/MOL
REMARK 923 INTER-LIGAND FREE ENERGY PREDICTED BY IDOCK:   -7.25 KCAL/MOL
REMARK 924 INTRA-LIGAND FREE ENERGY PREDICTED BY IDOCK:   -0.80 KCAL/MOL
REMARK 927      BINDING AFFINITY PREDICTED BY RF-SCORE:    0.00 PKD
ROOT
HETATM    1  C   UNL     1     -12.360  14.458  64.096  1.00  0.00    -0.307 C  
HETATM    2  N   UNL     1     -12.655  13.155  64.692  1.00  0.00    -0.648 NA 
HETATM    3  C   UNL     1     -12.182  12.060  63.820  1.00  0.00    -0.498 C  
HETATM    4  C   UNL     1     -10.648  11.870  63.819  1.00  0.00    -0.422 C  
HETATM    5  N   UNL     1     -10.062  11.679  65.161  1.00  0.00    -0.252 NA 
HETATM    6  C   UNL     1     -10.506  12.795  66.029  1.00  0.00    -0.274 C  
HETATM    7  C   UNL     1     -12.037  13.034  66.031  1.00  0.00    -0.432 C  
ENDROOT
BRANCH   5   8
HETATM    8  C   UNL     1     -10.432  10.392  65.773  1.00  0.00    -0.117 C  
BRANCH   8   9
HETATM    9  C   UNL     1      -9.237   9.549  66.216  1.00  0.00    -0.219 C  
BRANCH   9  10
HETATM   10  C   UNL     1      -8.706   9.898  67.616  1.00  0.00    -0.121 C  
BRANCH  10  11
HETATM   11  N   UNL     1      -9.450   9.221  68.714  1.00  0.00    -0.148 NA 
HETATM   12  C   UNL     1      -9.273   7.799  68.780  1.00  0.00    -0.139 A  
HETATM   13  C   UNL     1      -8.200   7.142  68.126  1.00  0.00    -0.124 A  
HETATM   14  C   UNL     1      -8.089   5.751  68.059  1.00  0.00    -0.104 A  
HETATM   15  C   UNL     1      -9.019   4.956  68.702  1.00  0.00    -0.130 A  
HETATM   16  C   UNL     1     -10.039   5.564  69.426  1.00  0.00    -0.306 A  
HETATM   17  C   UNL     1     -10.169   6.967  69.473  1.00  0.00    -0.186 A  
HETATM   18  S   UNL     1     -11.534   7.564  70.433  1.00  0.00    -0.140 SA 
HETATM   19  C   UNL     1     -11.438   9.320  70.196  1.00  0.00    -0.108 A  
HETATM   20  C   UNL     1     -10.468   9.958  69.392  1.00  0.00    -0.231 A  
HETATM   21  C   UNL     1     -10.573  11.370  69.325  1.00  0.00    -0.148 A  
HETATM   22  C   UNL     1     -11.585  12.113  69.970  1.00  0.00    -0.251 A  
HETATM   23  C   UNL     1     -11.671  13.613  69.827  1.00  0.00    -0.297 C  
HETATM   24  C   UNL     1     -12.521  11.438  70.747  1.00  0.00    -0.460 A  
HETATM   25  F   UNL     1     -12.861  14.018  69.301  1.00  0.00    -0.179 F  
HETATM   26  F   UNL     1     -11.557  14.257  71.022  1.00  0.00    -0.339 F  
HETATM   27  F   UNL     1     -10.710  14.149  69.024  1.00  0.00    -0.232 F  
HETATM   28  C   UNL     1     -12.442  10.055  70.861  1.00  0.00    -0.431 A  
ENDBRANCH  10  11
ENDBRANCH   9  10
ENDBRANCH   8   9
ENDBRANCH   5   8
TORSDOF 4
ENDMDL
MODEL       48
REMARK 921   NORMALIZED FREE ENERGY PREDICTED BY IDOCK:   -6.18 KCAL/MOL
REMARK 922        TOTAL FREE ENERGY PREDICTED BY IDOCK:   -8.04 KCAL/MOL
REMARK 923 INTER-LIGAND FREE ENERGY PREDICTED BY IDOCK:   -7.82 KCAL/MOL
REMARK 924 INTRA-LIGAND FREE ENERGY PREDICTED BY IDOCK:   -0.22 KCAL/MOL
REMARK 927      BINDING AFFINITY PREDICTED BY RF-SCORE:    0.00 PKD
ROOT
HETATM    1  C   UNL     1     -13.465  16.176  73.462  1.00  0.00    -0.214 C  
HETATM    2  N   UNL     1     -12.606  15.015  73.234  1.00  0.00    -0.455 NA 
HETATM    3  C   UNL     1     -13.373  13.907  72.627  1.00  0.00    -0.538 C  
HETATM    4  C   UNL     1     -13.720  14.120  71.136  1.00  0.00    -0.144 C  
HETATM    5  N   UNL     1     -12.552  14.400  70.277  1.00  0.00    -0.348 NA 
HETATM    6  C   UNL     1     -11.799  15.534  70.864  1.00  0.00    -0.371 C  
HETATM    7  C   UNL     1     -11.460  15.367  72.368  1.00  0.00    -0.378 C  
ENDROOT
BRANCH   5   8
HETATM    8  C   UNL     1     -11.661  13.237  70.120  1.00  0.00    -0.184 C  
BRANCH   8   9
HETATM    9  C   UNL     1     -11.917  12.427  68.850  1.00  0.00    -0.289 C  
BRANCH   9  10
HETATM   10  C   UNL     1     -11.902  10.905  69.061  1.00  0.00    -0.299 C  
BRANCH  10  11
HETATM   11  N   UNL     1     -10.667  10.251  68.545  1.00  0.00    -0.214 NA 
HETATM   12  C   UNL     1      -9.851   9.622  69.543  1.00  0.00    -0.206 A  
HETATM   13  C   UNL     1     -10.348   9.305  70.832  1.00  0.00    -0.367 A  
HETATM   14  C   UNL     1      -9.536   8.824  71.863  1.00  0.00    -0.362 A  
HETATM   15  C   UNL     1      -8.197   8.580  71.624  1.00  0.00    -0.209 A  
HETATM   16  C   UNL     1      -7.689   8.798  70.348  1.00  0.00    -0.091 A  
HETATM   17  C   UNL     1      -8.500   9.308  69.313  1.00  0.00    -0.137 A  
HETATM   18  S   UNL     1      -7.682   9.533  67.758  1.00  0.00    -0.087 SA 
HETATM   19  C   UNL     1      -8.953  10.254  66.750  1.00  0.00    -0.132 A  
HETATM   20  C   UNL     1     -10.256  10.547  67.209  1.00  0.00    -0.215 A  
HETATM   21  C   UNL     1     -11.118  11.132  66.248  1.00  0.00    -0.176 A  
HETATM   22  C   UNL     1     -10.723  11.452  64.931  1.00  0.00    -0.350 A  
HETATM   23  C   UNL     1     -11.673  12.115  63.966  1.00  0.00    -0.430 C  
HETATM   24  C   UNL     1      -9.426  11.149  64.528  1.00  0.00    -0.254 A  
HETATM   25  F   UNL     1     -11.202  13.311  63.510  1.00  0.00    -0.378 F  
HETATM   26  F   UNL     1     -11.897  11.360  62.854  1.00  0.00    -0.263 F  
HETATM   27  F   UNL     1     -12.903  12.377  64.489  1.00  0.00    -0.538 F  
HETATM   28  C   UNL     1      -8.554  10.551  65.431  1.00  0.00    -0.188 A  
ENDBRANCH  10  11
ENDBRANCH   9  10
ENDBRANCH   8   9
ENDBRANCH   5   8
TORSDOF 4
ENDMDL
MODEL       49
REMARK 921   NORMALIZED FREE ENERGY PREDICTED BY IDOCK:   -6.18 KCAL/MOL
REMARK 922        TOTAL FREE ENERGY PREDICTED BY IDOCK:   -8.03 KCAL/MOL
REMARK 923 INTER-LIGAND FREE ENERGY PREDICTED BY IDOCK:   -7.45 KCAL/MOL
REMARK 924 INTRA-LIGAND FREE ENERGY PREDICTED BY IDOCK:   -0.59 KCAL/MOL
REMARK 927      BINDING AFFINITY PREDICTED BY RF-SCORE:    0.00 PKD
ROOT
HETATM    1  C   UNL     1      -7.263   2.259  66.242  1.00  0.00    -0.061 C  
HETATM    2  N   UNL     1      -8.704   2.509  66.245  1.00  0.00    -0.121 NA 
HETATM    3  C   UNL     1      -9.158   2.947  67.581  1.00  0.00    -0.183 C  
HETATM    4  C   UNL     1      -8.762   4.398  67.940  1.00  0.00    -0.105 C  
HETATM    5  N   UNL     1      -9.197   5.404  66.950  1.00  0.00    -0.119 NA 
HETATM    6  C   UNL     1      -8.713   4.986  65.613  1.00  0.00    -0.139 C  
HETATM    7  C   UNL     1      -9.066   3.526  65.233  1.00  0.00    -0.144 C  
ENDROOT
BRANCH   5   8
HETATM    8  C   UNL     1     -10.658   5.587  66.919  1.00  0.00    -0.278 C  
BRANCH   8   9
HETATM    9  C   UNL     1     -11.104   7.043  67.041  1.00  0.00    -0.247 C  
BRANCH   9  10
HETATM   10  C   UNL     1      -9.953   8.038  67.261  1.00  0.00    -0.217 C  
BRANCH  10  11
HETATM   11  N   UNL     1     -10.318   9.173  68.153  1.00  0.00    -0.207 NA 
HETATM   12  C   UNL     1     -10.423   8.841  69.545  1.00  0.00    -0.220 A  
HETATM   13  C   UNL     1      -9.860   7.656  70.081  1.00  0.00    -0.184 A  
HETATM   14  C   UNL     1     -10.071   7.243  71.400  1.00  0.00    -0.196 A  
HETATM   15  C   UNL     1     -10.807   8.038  72.258  1.00  0.00    -0.369 A  
HETATM   16  C   UNL     1     -11.306   9.249  71.793  1.00  0.00    -0.437 A  
HETATM   17  C   UNL     1     -11.117   9.656  70.456  1.00  0.00    -0.308 A  
HETATM   18  S   UNL     1     -11.832  11.222  70.038  1.00  0.00    -0.391 SA 
HETATM   19  C   UNL     1     -11.482  11.359  68.303  1.00  0.00    -0.299 A  
HETATM   20  C   UNL     1     -10.806  10.372  67.552  1.00  0.00    -0.301 A  
HETATM   21  C   UNL     1     -10.639  10.671  66.176  1.00  0.00    -0.211 A  
HETATM   22  C   UNL     1     -11.134  11.840  65.561  1.00  0.00    -0.336 A  
HETATM   23  C   UNL     1     -10.962  12.081  64.081  1.00  0.00    -0.360 C  
HETATM   24  C   UNL     1     -11.798  12.780  66.343  1.00  0.00    -0.472 A  
HETATM   25  F   UNL     1     -12.154  12.236  63.437  1.00  0.00    -0.508 F  
HETATM   26  F   UNL     1     -10.252  13.214  63.818  1.00  0.00    -0.393 F  
HETATM   27  F   UNL     1     -10.315  11.077  63.427  1.00  0.00    -0.356 F  
HETATM   28  C   UNL     1     -11.964  12.540  67.702  1.00  0.00    -0.287 A  
ENDBRANCH  10  11
ENDBRANCH   9  10
ENDBRANCH   8   9
ENDBRANCH   5   8
TORSDOF 4
ENDMDL
MODEL       50
REMARK 921   NORMALIZED FREE ENERGY PREDICTED BY IDOCK:   -6.14 KCAL/MOL
REMARK 922        TOTAL FREE ENERGY PREDICTED BY IDOCK:   -7.99 KCAL/MOL
REMARK 923 INTER-LIGAND FREE ENERGY PREDICTED BY IDOCK:   -7.39 KCAL/MOL
REMARK 924 INTRA-LIGAND FREE ENERGY PREDICTED BY IDOCK:   -0.61 KCAL/MOL
REMARK 927      BINDING AFFINITY PREDICTED BY RF-SCORE:    0.00 PKD
ROOT
HETATM    1  C   UNL     1     -11.033   5.671  72.326  1.00  0.00    -0.258 C  
HETATM    2  N   UNL     1     -11.787   6.757  71.700  1.00  0.00    -0.309 NA 
HETATM    3  C   UNL     1     -11.595   8.022  72.438  1.00  0.00    -0.390 C  
HETATM    4  C   UNL     1     -10.210   8.674  72.226  1.00  0.00    -0.301 C  
HETATM    5  N   UNL     1      -9.861   8.906  70.810  1.00  0.00    -0.204 NA 
HETATM    6  C   UNL     1     -10.019   7.630  70.073  1.00  0.00    -0.190 C  
HETATM    7  C   UNL     1     -11.387   6.933  70.287  1.00  0.00    -0.324 C  
ENDROOT
BRANCH   5   8
HETATM    8  C   UNL     1     -10.683   9.953  70.179  1.00  0.00    -0.308 C  
BRANCH   8   9
HETATM    9  C   UNL     1     -10.118  10.474  68.859  1.00  0.00    -0.215 C  
BRANCH   9  10
HETATM   10  C   UNL     1     -11.026  10.226  67.643  1.00  0.00    -0.294 C  
BRANCH  10  11
HETATM   11  N   UNL     1     -10.406  10.633  66.352  1.00  0.00    -0.237 NA 
HETATM   12  C   UNL     1     -10.956  11.819  65.761  1.00  0.00    -0.301 A  
HETATM   13  C   UNL     1     -11.736  12.738  66.507  1.00  0.00    -0.463 A  
HETATM   14  C   UNL     1     -12.398  13.822  65.922  1.00  0.00    -0.516 A  
HETATM   15  C   UNL     1     -12.252  14.066  64.570  1.00  0.00    -0.463 A  
HETATM   16  C   UNL     1     -11.427  13.236  63.820  1.00  0.00    -0.363 A  
HETATM   17  C   UNL     1     -10.779  12.126  64.401  1.00  0.00    -0.323 A  
HETATM   18  S   UNL     1      -9.777  11.174  63.293  1.00  0.00    -0.399 SA 
HETATM   19  C   UNL     1      -9.209   9.846  64.326  1.00  0.00    -0.265 A  
HETATM   20  C   UNL     1      -9.564   9.692  65.684  1.00  0.00    -0.271 A  
HETATM   21  C   UNL     1      -9.012   8.556  66.327  1.00  0.00    -0.207 A  
HETATM   22  C   UNL     1      -8.197   7.605  65.676  1.00  0.00    -0.136 A  
HETATM   23  C   UNL     1      -7.674   6.391  66.404  1.00  0.00    -0.099 C  
HETATM   24  C   UNL     1      -7.880   7.798  64.336  1.00  0.00    -0.138 A  
HETATM   25  F   UNL     1      -8.069   5.224  65.820  1.00  0.00    -0.102 F  
HETATM   26  F   UNL     1      -6.313   6.348  66.431  1.00  0.00    -0.036 F  
HETATM   27  F   UNL     1      -8.073   6.308  67.703  1.00  0.00    -0.111 F  
HETATM   28  C   UNL     1      -8.379   8.912  63.671  1.00  0.00    -0.164 A  
ENDBRANCH  10  11
ENDBRANCH   9  10
ENDBRANCH   8   9
ENDBRANCH   5   8
TORSDOF 4
ENDMDL
MODEL       51
REMARK 921   NORMALIZED FREE ENERGY PREDICTED BY IDOCK:   -6.12 KCAL/MOL
REMARK 922        TOTAL FREE ENERGY PREDICTED BY IDOCK:   -7.96 KCAL/MOL
REMARK 923 INTER-LIGAND FREE ENERGY PREDICTED BY IDOCK:   -7.29 KCAL/MOL
REMARK 924 INTRA-LIGAND FREE ENERGY PREDICTED BY IDOCK:   -0.67 KCAL/MOL
REMARK 927      BINDING AFFINITY PREDICTED BY RF-SCORE:    0.00 PKD
ROOT
HETATM    1  C   UNL     1      -5.755   5.201  70.562  1.00  0.00    -0.016 C  
HETATM    2  N   UNL     1      -7.217   5.231  70.545  1.00  0.00    -0.063 NA 
HETATM    3  C   UNL     1      -7.747   5.704  71.840  1.00  0.00    -0.105 C  
HETATM    4  C   UNL     1      -7.578   7.223  72.076  1.00  0.00    -0.088 C  
HETATM    5  N   UNL     1      -8.147   8.067  71.006  1.00  0.00    -0.093 NA 
HETATM    6  C   UNL     1      -7.591   7.618  69.708  1.00  0.00    -0.093 C  
HETATM    7  C   UNL     1      -7.715   6.094  69.452  1.00  0.00    -0.099 C  
ENDROOT
BRANCH   5   8
HETATM    8  C   UNL     1      -9.619   8.024  70.961  1.00  0.00    -0.160 C  
BRANCH   8   9
HETATM    9  C   UNL     1     -10.280   9.402  70.957  1.00  0.00    -0.369 C  
BRANCH   9  10
HETATM   10  C   UNL     1     -11.482   9.521  70.006  1.00  0.00    -0.109 C  
BRANCH  10  11
HETATM   11  N   UNL     1     -11.312  10.578  68.971  1.00  0.00    -0.260 NA 
HETATM   12  C   UNL     1     -10.638  10.156  67.777  1.00  0.00    -0.256 A  
HETATM   13  C   UNL     1     -10.493   8.787  67.438  1.00  0.00    -0.349 A  
HETATM   14  C   UNL     1      -9.721   8.349  66.358  1.00  0.00    -0.312 A  
HETATM   15  C   UNL     1      -9.111   9.273  65.531  1.00  0.00    -0.275 A  
HETATM   16  C   UNL     1      -9.298  10.628  65.781  1.00  0.00    -0.223 A  
HETATM   17  C   UNL     1     -10.054  11.073  66.885  1.00  0.00    -0.210 A  
HETATM   18  S   UNL     1     -10.177  12.832  67.054  1.00  0.00    -0.244 SA 
HETATM   19  C   UNL     1     -11.098  13.016  68.559  1.00  0.00    -0.266 A  
HETATM   20  C   UNL     1     -11.548  11.935  69.349  1.00  0.00    -0.325 A  
HETATM   21  C   UNL     1     -12.257  12.297  70.522  1.00  0.00    -0.387 A  
HETATM   22  C   UNL     1     -12.480  13.632  70.923  1.00  0.00    -0.448 A  
HETATM   23  C   UNL     1     -13.205  13.955  72.206  1.00  0.00    -0.473 C  
HETATM   24  C   UNL     1     -12.013  14.662  70.113  1.00  0.00    -0.372 A  
HETATM   25  F   UNL     1     -12.446  14.701  73.059  1.00  0.00    -0.416 F  
HETATM   26  F   UNL     1     -14.340  14.679  71.994  1.00  0.00    -0.474 F  
HETATM   27  F   UNL     1     -13.592  12.859  72.916  1.00  0.00    -0.507 F  
HETATM   28  C   UNL     1     -11.333  14.353  68.941  1.00  0.00    -0.300 A  
ENDBRANCH  10  11
ENDBRANCH   9  10
ENDBRANCH   8   9
ENDBRANCH   5   8
TORSDOF 4
ENDMDL
MODEL       52
REMARK 921   NORMALIZED FREE ENERGY PREDICTED BY IDOCK:   -6.12 KCAL/MOL
REMARK 922        TOTAL FREE ENERGY PREDICTED BY IDOCK:   -7.96 KCAL/MOL
REMARK 923 INTER-LIGAND FREE ENERGY PREDICTED BY IDOCK:   -7.36 KCAL/MOL
REMARK 924 INTRA-LIGAND FREE ENERGY PREDICTED BY IDOCK:   -0.60 KCAL/MOL
REMARK 927      BINDING AFFINITY PREDICTED BY RF-SCORE:    0.00 PKD
ROOT
HETATM    1  C   UNL     1      -8.075  11.215  62.350  1.00  0.00    -0.097 C  
HETATM    2  N   UNL     1      -9.274  10.589  62.906  1.00  0.00    -0.270 NA 
HETATM    3  C   UNL     1      -8.914   9.474  63.807  1.00  0.00    -0.175 C  
HETATM    4  C   UNL     1      -8.344   9.923  65.172  1.00  0.00    -0.148 C  
HETATM    5  N   UNL     1      -9.217  10.855  65.914  1.00  0.00    -0.184 NA 
HETATM    6  C   UNL     1      -9.552  11.992  65.025  1.00  0.00    -0.046 C  
HETATM    7  C   UNL     1     -10.098  11.578  63.635  1.00  0.00    -0.388 C  
ENDROOT
BRANCH   5   8
HETATM    8  C   UNL     1     -10.453  10.221  66.402  1.00  0.00    -0.163 C  
BRANCH   8   9
HETATM    9  C   UNL     1     -11.184  11.028  67.473  1.00  0.00    -0.372 C  
BRANCH   9  10
HETATM   10  C   UNL     1     -10.343  11.319  68.726  1.00  0.00    -0.205 C  
BRANCH  10  11
HETATM   11  N   UNL     1     -11.162  11.715  69.906  1.00  0.00    -0.138 NA 
HETATM   12  C   UNL     1     -11.731  10.625  70.644  1.00  0.00    -0.356 A  
HETATM   13  C   UNL     1     -11.253   9.297  70.513  1.00  0.00    -0.315 A  
HETATM   14  C   UNL     1     -11.882   8.201  71.111  1.00  0.00    -0.303 A  
HETATM   15  C   UNL     1     -12.983   8.399  71.922  1.00  0.00    -0.381 A  
HETATM   16  C   UNL     1     -13.431   9.697  72.143  1.00  0.00    -0.516 A  
HETATM   17  C   UNL     1     -12.816  10.802  71.520  1.00  0.00    -0.462 A  
HETATM   18  S   UNL     1     -13.527  12.378  71.909  1.00  0.00    -0.114 SA 
HETATM   19  C   UNL     1     -12.580  13.491  70.902  1.00  0.00    -0.337 A  
HETATM   20  C   UNL     1     -11.548  13.085  70.028  1.00  0.00    -0.124 A  
HETATM   21  C   UNL     1     -10.923  14.131  69.304  1.00  0.00    -0.252 A  
HETATM   22  C   UNL     1     -11.307  15.486  69.395  1.00  0.00    -0.321 A  
HETATM   23  C   UNL     1     -10.632  16.551  68.565  1.00  0.00    -0.318 C  
HETATM   24  C   UNL     1     -12.333  15.836  70.267  1.00  0.00    -0.341 A  
HETATM   25  F   UNL     1     -11.508  17.218  67.762  1.00  0.00    -0.137 F  
HETATM   26  F   UNL     1     -10.033  17.505  69.331  1.00  0.00    -0.242 F  
HETATM   27  F   UNL     1      -9.660  16.076  67.738  1.00  0.00    -0.213 F  
HETATM   28  C   UNL     1     -12.958  14.846  71.016  1.00  0.00    -0.437 A  
ENDBRANCH  10  11
ENDBRANCH   9  10
ENDBRANCH   8   9
ENDBRANCH   5   8
TORSDOF 4
ENDMDL
MODEL       53
REMARK 921   NORMALIZED FREE ENERGY PREDICTED BY IDOCK:   -6.11 KCAL/MOL
REMARK 922        TOTAL FREE ENERGY PREDICTED BY IDOCK:   -7.95 KCAL/MOL
REMARK 923 INTER-LIGAND FREE ENERGY PREDICTED BY IDOCK:   -7.50 KCAL/MOL
REMARK 924 INTRA-LIGAND FREE ENERGY PREDICTED BY IDOCK:   -0.45 KCAL/MOL
REMARK 927      BINDING AFFINITY PREDICTED BY RF-SCORE:    0.00 PKD
ROOT
HETATM    1  C   UNL     1      -7.737   7.000  71.612  1.00  0.00    -0.093 C  
HETATM    2  N   UNL     1      -8.983   7.565  71.097  1.00  0.00    -0.142 NA 
HETATM    3  C   UNL     1      -8.776   8.950  70.626  1.00  0.00    -0.197 C  
HETATM    4  C   UNL     1      -8.010   9.056  69.288  1.00  0.00    -0.096 C  
HETATM    5  N   UNL     1      -8.609   8.277  68.185  1.00  0.00    -0.132 NA 
HETATM    6  C   UNL     1      -8.786   6.878  68.642  1.00  0.00    -0.124 C  
HETATM    7  C   UNL     1      -9.525   6.736  69.998  1.00  0.00    -0.157 C  
ENDROOT
BRANCH   5   8
HETATM    8  C   UNL     1      -9.900   8.821  67.731  1.00  0.00    -0.174 C  
BRANCH   8   9
HETATM    9  C   UNL     1      -9.905  10.339  67.553  1.00  0.00    -0.204 C  
BRANCH   9  10
HETATM   10  C   UNL     1     -11.305  10.973  67.592  1.00  0.00    -0.281 C  
BRANCH  10  11
HETATM   11  N   UNL     1     -11.480  11.944  68.708  1.00  0.00    -0.263 NA 
HETATM   12  C   UNL     1     -12.019  11.389  69.916  1.00  0.00    -0.359 A  
HETATM   13  C   UNL     1     -12.021   9.995  70.169  1.00  0.00    -0.204 A  
HETATM   14  C   UNL     1     -12.665   9.423  71.270  1.00  0.00    -0.391 A  
HETATM   15  C   UNL     1     -13.284  10.235  72.201  1.00  0.00    -0.443 A  
HETATM   16  C   UNL     1     -13.231  11.614  72.033  1.00  0.00    -0.443 A  
HETATM   17  C   UNL     1     -12.605  12.193  70.910  1.00  0.00    -0.247 A  
HETATM   18  S   UNL     1     -12.645  13.963  70.855  1.00  0.00    -0.354 SA 
HETATM   19  C   UNL     1     -11.865  14.322  69.302  1.00  0.00    -0.330 A  
HETATM   20  C   UNL     1     -11.390  13.337  68.408  1.00  0.00    -0.291 A  
HETATM   21  C   UNL     1     -10.809  13.834  67.214  1.00  0.00    -0.292 A  
HETATM   22  C   UNL     1     -10.732  15.206  66.892  1.00  0.00    -0.308 A  
HETATM   23  C   UNL     1     -10.141  15.673  65.584  1.00  0.00    -0.365 C  
HETATM   24  C   UNL     1     -11.219  16.138  67.803  1.00  0.00    -0.199 A  
HETATM   25  F   UNL     1     -11.025  16.399  64.843  1.00  0.00    -0.417 F  
HETATM   26  F   UNL     1      -9.058  16.480  65.762  1.00  0.00    -0.325 F  
HETATM   27  F   UNL     1      -9.721  14.662  64.773  1.00  0.00    -0.261 F  
HETATM   28  C   UNL     1     -11.774  15.697  68.998  1.00  0.00    -0.408 A  
ENDBRANCH  10  11
ENDBRANCH   9  10
ENDBRANCH   8   9
ENDBRANCH   5   8
TORSDOF 4
ENDMDL
MODEL       54
REMARK 921   NORMALIZED FREE ENERGY PREDICTED BY IDOCK:   -6.10 KCAL/MOL
REMARK 922        TOTAL FREE ENERGY PREDICTED BY IDOCK:   -7.95 KCAL/MOL
REMARK 923 INTER-LIGAND FREE ENERGY PREDICTED BY IDOCK:   -7.30 KCAL/MOL
REMARK 924 INTRA-LIGAND FREE ENERGY PREDICTED BY IDOCK:   -0.64 KCAL/MOL
REMARK 927      BINDING AFFINITY PREDICTED BY RF-SCORE:    0.00 PKD
ROOT
HETATM    1  C   UNL     1     -11.823  15.576  69.026  1.00  0.00    -0.354 C  
HETATM    2  N   UNL     1     -10.826  14.885  68.210  1.00  0.00    -0.250 NA 
HETATM    3  C   UNL     1     -10.610  13.508  68.700  1.00  0.00    -0.244 C  
HETATM    4  C   UNL     1     -11.762  12.531  68.370  1.00  0.00    -0.328 C  
HETATM    5  N   UNL     1     -12.105  12.464  66.935  1.00  0.00    -0.547 NA 
HETATM    6  C   UNL     1     -12.356  13.842  66.448  1.00  0.00    -0.412 C  
HETATM    7  C   UNL     1     -11.234  14.855  66.789  1.00  0.00    -0.338 C  
ENDROOT
BRANCH   5   8
HETATM    8  C   UNL     1     -11.054  11.830  66.121  1.00  0.00    -0.307 C  
BRANCH   8   9
HETATM    9  C   UNL     1     -10.894  10.332  66.373  1.00  0.00    -0.025 C  
BRANCH   9  10
HETATM   10  C   UNL     1      -9.636   9.959  67.175  1.00  0.00    -0.162 C  
BRANCH  10  11
HETATM   11  N   UNL     1      -9.473   8.491  67.366  1.00  0.00    -0.146 NA 
HETATM   12  C   UNL     1      -8.882   7.796  66.260  1.00  0.00    -0.160 A  
HETATM   13  C   UNL     1      -8.161   8.473  65.244  1.00  0.00    -0.149 A  
HETATM   14  C   UNL     1      -7.700   7.838  64.087  1.00  0.00    -0.125 A  
HETATM   15  C   UNL     1      -7.887   6.478  63.930  1.00  0.00    -0.109 A  
HETATM   16  C   UNL     1      -8.514   5.763  64.945  1.00  0.00    -0.103 A  
HETATM   17  C   UNL     1      -9.005   6.405  66.100  1.00  0.00    -0.150 A  
HETATM   18  S   UNL     1      -9.785   5.339  67.280  1.00  0.00    -0.162 SA 
HETATM   19  C   UNL     1     -10.342   6.476  68.524  1.00  0.00    -0.192 A  
HETATM   20  C   UNL     1     -10.161   7.874  68.456  1.00  0.00    -0.197 A  
HETATM   21  C   UNL     1     -10.692   8.606  69.548  1.00  0.00    -0.189 A  
HETATM   22  C   UNL     1     -11.393   8.016  70.621  1.00  0.00    -0.256 A  
HETATM   23  C   UNL     1     -11.974   8.852  71.734  1.00  0.00    -0.359 C  
HETATM   24  C   UNL     1     -11.551   6.633  70.640  1.00  0.00    -0.439 A  
HETATM   25  F   UNL     1     -13.323   8.695  71.854  1.00  0.00    -0.313 F  
HETATM   26  F   UNL     1     -11.455   8.530  72.952  1.00  0.00    -0.409 F  
HETATM   27  F   UNL     1     -11.768  10.191  71.587  1.00  0.00    -0.431 F  
HETATM   28  C   UNL     1     -11.024   5.874  69.602  1.00  0.00    -0.447 A  
ENDBRANCH  10  11
ENDBRANCH   9  10
ENDBRANCH   8   9
ENDBRANCH   5   8
TORSDOF 4
ENDMDL
MODEL       55
REMARK 921   NORMALIZED FREE ENERGY PREDICTED BY IDOCK:   -6.09 KCAL/MOL
REMARK 922        TOTAL FREE ENERGY PREDICTED BY IDOCK:   -7.93 KCAL/MOL
REMARK 923 INTER-LIGAND FREE ENERGY PREDICTED BY IDOCK:   -7.49 KCAL/MOL
REMARK 924 INTRA-LIGAND FREE ENERGY PREDICTED BY IDOCK:   -0.44 KCAL/MOL
REMARK 927      BINDING AFFINITY PREDICTED BY RF-SCORE:    0.00 PKD
ROOT
HETATM    1  C   UNL     1     -11.335   5.635  72.717  1.00  0.00    -0.299 C  
HETATM    2  N   UNL     1     -11.971   6.722  71.974  1.00  0.00    -0.319 NA 
HETATM    3  C   UNL     1     -11.436   8.032  72.402  1.00  0.00    -0.389 C  
HETATM    4  C   UNL     1     -10.007   8.329  71.891  1.00  0.00    -0.231 C  
HETATM    5  N   UNL     1      -9.855   8.222  70.426  1.00  0.00    -0.185 NA 
HETATM    6  C   UNL     1     -10.359   6.896  69.997  1.00  0.00    -0.200 C  
HETATM    7  C   UNL     1     -11.778   6.552  70.518  1.00  0.00    -0.375 C  
ENDROOT
BRANCH   5   8
HETATM    8  C   UNL     1     -10.564   9.286  69.695  1.00  0.00    -0.229 C  
BRANCH   8   9
HETATM    9  C   UNL     1     -10.568   9.101  68.179  1.00  0.00    -0.235 C  
BRANCH   9  10
HETATM   10  C   UNL     1      -9.308   9.631  67.476  1.00  0.00    -0.130 C  
BRANCH  10  11
HETATM   11  N   UNL     1      -9.398   9.585  65.990  1.00  0.00    -0.197 NA 
HETATM   12  C   UNL     1      -8.633   8.544  65.367  1.00  0.00    -0.176 A  
HETATM   13  C   UNL     1      -8.151   7.426  66.094  1.00  0.00    -0.117 A  
HETATM   14  C   UNL     1      -7.287   6.476  65.542  1.00  0.00    -0.076 A  
HETATM   15  C   UNL     1      -6.919   6.573  64.214  1.00  0.00    -0.051 A  
HETATM   16  C   UNL     1      -7.438   7.608  63.445  1.00  0.00    -0.108 A  
HETATM   17  C   UNL     1      -8.289   8.583  64.005  1.00  0.00    -0.093 A  
HETATM   18  S   UNL     1      -8.845   9.834  62.880  1.00  0.00    -0.262 SA 
HETATM   19  C   UNL     1      -9.793  10.907  63.928  1.00  0.00    -0.331 A  
HETATM   20  C   UNL     1      -9.966  10.708  65.315  1.00  0.00    -0.294 A  
HETATM   21  C   UNL     1     -10.751  11.689  65.973  1.00  0.00    -0.328 A  
HETATM   22  C   UNL     1     -11.301  12.816  65.326  1.00  0.00    -0.338 A  
HETATM   23  C   UNL     1     -12.092  13.850  66.089  1.00  0.00    -0.448 C  
HETATM   24  C   UNL     1     -11.098  12.971  63.958  1.00  0.00    -0.433 A  
HETATM   25  F   UNL     1     -11.548  15.096  65.994  1.00  0.00    -0.326 F  
HETATM   26  F   UNL     1     -13.369  13.970  65.630  1.00  0.00    -0.522 F  
HETATM   27  F   UNL     1     -12.200  13.593  67.422  1.00  0.00    -0.399 F  
HETATM   28  C   UNL     1     -10.355  12.020  63.268  1.00  0.00    -0.398 A  
ENDBRANCH  10  11
ENDBRANCH   9  10
ENDBRANCH   8   9
ENDBRANCH   5   8
TORSDOF 4
ENDMDL
MODEL       56
REMARK 921   NORMALIZED FREE ENERGY PREDICTED BY IDOCK:   -6.09 KCAL/MOL
REMARK 922        TOTAL FREE ENERGY PREDICTED BY IDOCK:   -7.93 KCAL/MOL
REMARK 923 INTER-LIGAND FREE ENERGY PREDICTED BY IDOCK:   -7.34 KCAL/MOL
REMARK 924 INTRA-LIGAND FREE ENERGY PREDICTED BY IDOCK:   -0.59 KCAL/MOL
REMARK 927      BINDING AFFINITY PREDICTED BY RF-SCORE:    0.00 PKD
ROOT
HETATM    1  C   UNL     1      -5.208  14.056  68.063  1.00  0.00    -0.098 C  
HETATM    2  N   UNL     1      -6.519  13.821  68.667  1.00  0.00    -0.086 NA 
HETATM    3  C   UNL     1      -7.557  13.667  67.626  1.00  0.00    -0.179 C  
HETATM    4  C   UNL     1      -7.504  12.318  66.874  1.00  0.00     0.017 C  
HETATM    5  N   UNL     1      -7.554  11.133  67.755  1.00  0.00    -0.097 NA 
HETATM    6  C   UNL     1      -6.491  11.267  68.780  1.00  0.00    -0.058 C  
HETATM    7  C   UNL     1      -6.495  12.622  69.533  1.00  0.00    -0.078 C  
ENDROOT
BRANCH   5   8
HETATM    8  C   UNL     1      -8.861  10.958  68.410  1.00  0.00    -0.147 C  
BRANCH   8   9
HETATM    9  C   UNL     1      -9.676   9.786  67.865  1.00  0.00    -0.168 C  
BRANCH   9  10
HETATM   10  C   UNL     1     -11.030  10.188  67.259  1.00  0.00    -0.183 C  
BRANCH  10  11
HETATM   11  N   UNL     1     -11.564  11.466  67.807  1.00  0.00    -0.520 NA 
HETATM   12  C   UNL     1     -11.286  12.630  67.016  1.00  0.00    -0.300 A  
HETATM   13  C   UNL     1     -10.890  12.539  65.658  1.00  0.00    -0.311 A  
HETATM   14  C   UNL     1     -10.478  13.646  64.911  1.00  0.00    -0.426 A  
HETATM   15  C   UNL     1     -10.507  14.906  65.479  1.00  0.00    -0.380 A  
HETATM   16  C   UNL     1     -10.971  15.047  66.782  1.00  0.00    -0.323 A  
HETATM   17  C   UNL     1     -11.362  13.929  67.547  1.00  0.00    -0.318 A  
HETATM   18  S   UNL     1     -11.913  14.296  69.190  1.00  0.00    -0.317 SA 
HETATM   19  C   UNL     1     -12.227  12.685  69.864  1.00  0.00    -0.168 A  
HETATM   20  C   UNL     1     -12.024  11.478  69.160  1.00  0.00    -0.320 A  
HETATM   21  C   UNL     1     -12.324  10.298  69.884  1.00  0.00    -0.090 A  
HETATM   22  C   UNL     1     -12.758  10.290  71.227  1.00  0.00    -0.523 A  
HETATM   23  C   UNL     1     -13.020   8.998  71.960  1.00  0.00    -0.407 C  
HETATM   24  C   UNL     1     -12.938  11.505  71.881  1.00  0.00    -0.453 A  
HETATM   25  F   UNL     1     -12.249   8.867  73.078  1.00  0.00    -0.269 F  
HETATM   26  F   UNL     1     -14.309   8.895  72.388  1.00  0.00    -0.472 F  
HETATM   27  F   UNL     1     -12.786   7.881  71.217  1.00  0.00    -0.316 F  
HETATM   28  C   UNL     1     -12.679  12.689  71.201  1.00  0.00    -0.347 A  
ENDBRANCH  10  11
ENDBRANCH   9  10
ENDBRANCH   8   9
ENDBRANCH   5   8
TORSDOF 4
ENDMDL
MODEL       57
REMARK 921   NORMALIZED FREE ENERGY PREDICTED BY IDOCK:   -6.09 KCAL/MOL
REMARK 922        TOTAL FREE ENERGY PREDICTED BY IDOCK:   -7.92 KCAL/MOL
REMARK 923 INTER-LIGAND FREE ENERGY PREDICTED BY IDOCK:   -7.17 KCAL/MOL
REMARK 924 INTRA-LIGAND FREE ENERGY PREDICTED BY IDOCK:   -0.76 KCAL/MOL
REMARK 927      BINDING AFFINITY PREDICTED BY RF-SCORE:    0.00 PKD
ROOT
HETATM    1  C   UNL     1      -5.306  12.910  68.113  1.00  0.00    -0.085 C  
HETATM    2  N   UNL     1      -6.397  12.123  68.685  1.00  0.00    -0.059 NA 
HETATM    3  C   UNL     1      -7.536  12.046  67.747  1.00  0.00    -0.130 C  
HETATM    4  C   UNL     1      -7.301  11.106  66.542  1.00  0.00    -0.129 C  
HETATM    5  N   UNL     1      -6.915   9.731  66.916  1.00  0.00    -0.087 NA 
HETATM    6  C   UNL     1      -5.750   9.802  67.830  1.00  0.00    -0.040 C  
HETATM    7  C   UNL     1      -5.940  10.760  69.033  1.00  0.00    -0.040 C  
ENDROOT
BRANCH   5   8
HETATM    8  C   UNL     1      -8.008   8.980  67.556  1.00  0.00    -0.101 C  
BRANCH   8   9
HETATM    9  C   UNL     1      -9.061   8.460  66.579  1.00  0.00    -0.217 C  
BRANCH   9  10
HETATM   10  C   UNL     1     -10.485   8.409  67.155  1.00  0.00    -0.310 C  
BRANCH  10  11
HETATM   11  N   UNL     1     -10.743   9.458  68.180  1.00  0.00    -0.209 NA 
HETATM   12  C   UNL     1     -10.910   8.970  69.519  1.00  0.00    -0.166 A  
HETATM   13  C   UNL     1     -10.484   7.675  69.906  1.00  0.00    -0.231 A  
HETATM   14  C   UNL     1     -10.763   7.127  71.162  1.00  0.00    -0.252 A  
HETATM   15  C   UNL     1     -11.426   7.884  72.109  1.00  0.00    -0.377 A  
HETATM   16  C   UNL     1     -11.785   9.191  71.796  1.00  0.00    -0.456 A  
HETATM   17  C   UNL     1     -11.530   9.736  70.521  1.00  0.00    -0.300 A  
HETATM   18  S   UNL     1     -12.067  11.410  70.297  1.00  0.00    -0.370 SA 
HETATM   19  C   UNL     1     -11.672  11.721  68.595  1.00  0.00    -0.330 A  
HETATM   20  C   UNL     1     -11.091  10.768  67.730  1.00  0.00    -0.318 A  
HETATM   21  C   UNL     1     -10.868  11.213  66.403  1.00  0.00    -0.284 A  
HETATM   22  C   UNL     1     -11.225  12.496  65.935  1.00  0.00    -0.356 A  
HETATM   23  C   UNL     1     -11.001  12.898  64.498  1.00  0.00    -0.351 C  
HETATM   24  C   UNL     1     -11.800  13.398  66.825  1.00  0.00    -0.452 A  
HETATM   25  F   UNL     1     -12.157  13.258  63.872  1.00  0.00    -0.432 F  
HETATM   26  F   UNL     1     -10.170  13.971  64.382  1.00  0.00    -0.457 F  
HETATM   27  F   UNL     1     -10.451  11.919  63.728  1.00  0.00    -0.304 F  
HETATM   28  C   UNL     1     -12.016  13.012  68.143  1.00  0.00    -0.322 A  
ENDBRANCH  10  11
ENDBRANCH   9  10
ENDBRANCH   8   9
ENDBRANCH   5   8
TORSDOF 4
ENDMDL
MODEL       58
REMARK 921   NORMALIZED FREE ENERGY PREDICTED BY IDOCK:   -6.08 KCAL/MOL
REMARK 922        TOTAL FREE ENERGY PREDICTED BY IDOCK:   -7.92 KCAL/MOL
REMARK 923 INTER-LIGAND FREE ENERGY PREDICTED BY IDOCK:   -7.55 KCAL/MOL
REMARK 924 INTRA-LIGAND FREE ENERGY PREDICTED BY IDOCK:   -0.37 KCAL/MOL
REMARK 927      BINDING AFFINITY PREDICTED BY RF-SCORE:    0.00 PKD
ROOT
HETATM    1  C   UNL     1     -13.874  15.268  71.978  1.00  0.00    -0.522 C  
HETATM    2  N   UNL     1     -12.529  14.692  71.959  1.00  0.00    -0.334 NA 
HETATM    3  C   UNL     1     -12.433  13.619  70.947  1.00  0.00    -0.371 C  
HETATM    4  C   UNL     1     -12.390  14.127  69.488  1.00  0.00    -0.231 C  
HETATM    5  N   UNL     1     -11.322  15.111  69.222  1.00  0.00    -0.281 NA 
HETATM    6  C   UNL     1     -11.436  16.207  70.213  1.00  0.00    -0.308 C  
HETATM    7  C   UNL     1     -11.513  15.732  71.686  1.00  0.00    -0.415 C  
ENDROOT
BRANCH   5   8
HETATM    8  C   UNL     1      -9.972  14.525  69.279  1.00  0.00    -0.038 C  
BRANCH   8   9
HETATM    9  C   UNL     1      -9.653  13.586  68.117  1.00  0.00    -0.215 C  
BRANCH   9  10
HETATM   10  C   UNL     1      -9.931  12.103  68.411  1.00  0.00    -0.206 C  
BRANCH  10  11
HETATM   11  N   UNL     1      -9.161  11.175  67.537  1.00  0.00    -0.145 NA 
HETATM   12  C   UNL     1      -7.972  10.630  68.127  1.00  0.00    -0.113 A  
HETATM   13  C   UNL     1      -7.750  10.651  69.527  1.00  0.00    -0.113 A  
HETATM   14  C   UNL     1      -6.542  10.257  70.110  1.00  0.00    -0.138 A  
HETATM   15  C   UNL     1      -5.525   9.762  69.316  1.00  0.00    -0.035 A  
HETATM   16  C   UNL     1      -5.736   9.647  67.946  1.00  0.00    -0.040 A  
HETATM   17  C   UNL     1      -6.943  10.069  67.352  1.00  0.00    -0.083 A  
HETATM   18  S   UNL     1      -7.031   9.857  65.595  1.00  0.00    -0.114 SA 
HETATM   19  C   UNL     1      -8.611  10.561  65.196  1.00  0.00    -0.180 A  
HETATM   20  C   UNL     1      -9.482  11.139  66.145  1.00  0.00    -0.204 A  
HETATM   21  C   UNL     1     -10.692  11.656  65.618  1.00  0.00    -0.330 A  
HETATM   22  C   UNL     1     -11.016  11.649  64.245  1.00  0.00    -0.418 A  
HETATM   23  C   UNL     1     -12.302  12.254  63.738  1.00  0.00    -0.538 C  
HETATM   24  C   UNL     1     -10.122  11.073  63.348  1.00  0.00    -0.424 A  
HETATM   25  F   UNL     1     -12.086  13.250  62.832  1.00  0.00    -0.585 F  
HETATM   26  F   UNL     1     -13.091  11.343  63.104  1.00  0.00    -0.467 F  
HETATM   27  F   UNL     1     -13.078  12.803  64.714  1.00  0.00    -0.478 F  
HETATM   28  C   UNL     1      -8.934  10.531  63.823  1.00  0.00    -0.229 A  
ENDBRANCH  10  11
ENDBRANCH   9  10
ENDBRANCH   8   9
ENDBRANCH   5   8
TORSDOF 4
ENDMDL
MODEL       59
REMARK 921   NORMALIZED FREE ENERGY PREDICTED BY IDOCK:   -6.05 KCAL/MOL
REMARK 922        TOTAL FREE ENERGY PREDICTED BY IDOCK:   -7.88 KCAL/MOL
REMARK 923 INTER-LIGAND FREE ENERGY PREDICTED BY IDOCK:   -7.23 KCAL/MOL
REMARK 924 INTRA-LIGAND FREE ENERGY PREDICTED BY IDOCK:   -0.65 KCAL/MOL
REMARK 927      BINDING AFFINITY PREDICTED BY RF-SCORE:    0.00 PKD
ROOT
HETATM    1  C   UNL     1     -13.732  15.621  72.799  1.00  0.00    -0.578 C  
HETATM    2  N   UNL     1     -12.623  14.692  72.587  1.00  0.00    -0.345 NA 
HETATM    3  C   UNL     1     -12.973  13.681  71.568  1.00  0.00    -0.360 C  
HETATM    4  C   UNL     1     -12.985  14.219  70.119  1.00  0.00     0.061 C  
HETATM    5  N   UNL     1     -11.727  14.874  69.708  1.00  0.00    -0.287 NA 
HETATM    6  C   UNL     1     -11.391  15.914  70.709  1.00  0.00    -0.395 C  
HETATM    7  C   UNL     1     -11.399  15.415  72.176  1.00  0.00    -0.356 C  
ENDROOT
BRANCH   5   8
HETATM    8  C   UNL     1     -10.605  13.930  69.571  1.00  0.00     0.147 C  
BRANCH   8   9
HETATM    9  C   UNL     1      -9.258  14.601  69.306  1.00  0.00     0.030 C  
BRANCH   9  10
HETATM   10  C   UNL     1      -8.789  14.516  67.845  1.00  0.00    -0.176 C  
BRANCH  10  11
HETATM   11  N   UNL     1      -9.845  14.889  66.864  1.00  0.00    -0.235 NA 
HETATM   12  C   UNL     1     -10.337  13.807  66.060  1.00  0.00    -0.308 A  
HETATM   13  C   UNL     1     -10.134  12.451  66.418  1.00  0.00    -0.252 A  
HETATM   14  C   UNL     1     -10.478  11.385  65.582  1.00  0.00    -0.316 A  
HETATM   15  C   UNL     1     -11.101  11.633  64.374  1.00  0.00    -0.382 A  
HETATM   16  C   UNL     1     -11.394  12.947  64.025  1.00  0.00    -0.466 A  
HETATM   17  C   UNL     1     -11.024  14.026  64.853  1.00  0.00    -0.392 A  
HETATM   18  S   UNL     1     -11.467  15.630  64.243  1.00  0.00    -0.033 SA 
HETATM   19  C   UNL     1     -10.782  16.715  65.469  1.00  0.00    -0.223 A  
HETATM   20  C   UNL     1     -10.060  16.277  66.600  1.00  0.00    -0.276 A  
HETATM   21  C   UNL     1      -9.586  17.306  67.452  1.00  0.00    -0.252 A  
HETATM   22  C   UNL     1      -9.770  18.682  67.196  1.00  0.00    -0.324 A  
HETATM   23  C   UNL     1      -9.204  19.734  68.117  1.00  0.00    -0.325 C  
HETATM   24  C   UNL     1     -10.483  19.065  66.064  1.00  0.00    -0.530 A  
HETATM   25  F   UNL     1      -8.345  20.578  67.478  1.00  0.00    -0.354 F  
HETATM   26  F   UNL     1     -10.171  20.529  68.654  1.00  0.00    -0.452 F  
HETATM   27  F   UNL     1      -8.509  19.230  69.175  1.00  0.00    -0.374 F  
HETATM   28  C   UNL     1     -10.988  18.088  65.214  1.00  0.00     0.524 A  
ENDBRANCH  10  11
ENDBRANCH   9  10
ENDBRANCH   8   9
ENDBRANCH   5   8
TORSDOF 4
ENDMDL
MODEL       60
REMARK 921   NORMALIZED FREE ENERGY PREDICTED BY IDOCK:   -5.98 KCAL/MOL
REMARK 922        TOTAL FREE ENERGY PREDICTED BY IDOCK:   -7.80 KCAL/MOL
REMARK 923 INTER-LIGAND FREE ENERGY PREDICTED BY IDOCK:   -7.23 KCAL/MOL
REMARK 924 INTRA-LIGAND FREE ENERGY PREDICTED BY IDOCK:   -0.57 KCAL/MOL
REMARK 927      BINDING AFFINITY PREDICTED BY RF-SCORE:    0.00 PKD
ROOT
HETATM    1  C   UNL     1      -8.791   4.596  67.036  1.00  0.00    -0.111 C  
HETATM    2  N   UNL     1      -9.420   5.534  66.106  1.00  0.00    -0.158 NA 
HETATM    3  C   UNL     1     -10.723   5.995  66.627  1.00  0.00    -0.244 C  
HETATM    4  C   UNL     1     -10.617   7.004  67.794  1.00  0.00    -0.233 C  
HETATM    5  N   UNL     1      -9.792   8.191  67.492  1.00  0.00    -0.164 NA 
HETATM    6  C   UNL     1      -8.470   7.732  67.002  1.00  0.00    -0.124 C  
HETATM    7  C   UNL     1      -8.540   6.696  65.851  1.00  0.00    -0.148 C  
ENDROOT
BRANCH   5   8
HETATM    8  C   UNL     1     -10.411   9.085  66.499  1.00  0.00    -0.193 C  
BRANCH   8   9
HETATM    9  C   UNL     1     -10.958  10.384  67.088  1.00  0.00    -0.263 C  
BRANCH   9  10
HETATM   10  C   UNL     1      -9.995  11.092  68.054  1.00  0.00    -0.176 C  
BRANCH  10  11
HETATM   11  N   UNL     1     -10.691  11.901  69.093  1.00  0.00    -0.152 NA 
HETATM   12  C   UNL     1     -11.340  11.139  70.121  1.00  0.00    -0.209 A  
HETATM   13  C   UNL     1     -11.029   9.776  70.358  1.00  0.00    -0.371 A  
HETATM   14  C   UNL     1     -11.745   8.979  71.255  1.00  0.00    -0.382 A  
HETATM   15  C   UNL     1     -12.767   9.533  72.002  1.00  0.00    -0.479 A  
HETATM   16  C   UNL     1     -13.046  10.888  71.860  1.00  0.00    -0.537 A  
HETATM   17  C   UNL     1     -12.344  11.689  70.937  1.00  0.00    -0.336 A  
HETATM   18  S   UNL     1     -12.842  13.389  70.883  1.00  0.00    -0.146 SA 
HETATM   19  C   UNL     1     -11.831  14.050  69.582  1.00  0.00    -0.330 A  
HETATM   20  C   UNL     1     -10.907  13.289  68.834  1.00  0.00    -0.210 A  
HETATM   21  C   UNL     1     -10.208  14.005  67.830  1.00  0.00    -0.240 A  
HETATM   22  C   UNL     1     -10.424  15.370  67.545  1.00  0.00    -0.275 A  
HETATM   23  C   UNL     1      -9.679  16.068  66.434  1.00  0.00    -0.284 C  
HETATM   24  C   UNL     1     -11.350  16.076  68.307  1.00  0.00    -0.326 A  
HETATM   25  F   UNL     1     -10.517  16.594  65.496  1.00  0.00    -0.345 F  
HETATM   26  F   UNL     1      -8.929  17.111  66.887  1.00  0.00    -0.213 F  
HETATM   27  F   UNL     1      -8.819  15.262  65.752  1.00  0.00    -0.300 F  
HETATM   28  C   UNL     1     -12.041  15.419  69.319  1.00  0.00    -0.283 A  
ENDBRANCH  10  11
ENDBRANCH   9  10
ENDBRANCH   8   9
ENDBRANCH   5   8
TORSDOF 4
ENDMDL
MODEL       61
REMARK 921   NORMALIZED FREE ENERGY PREDICTED BY IDOCK:   -5.98 KCAL/MOL
REMARK 922        TOTAL FREE ENERGY PREDICTED BY IDOCK:   -7.79 KCAL/MOL
REMARK 923 INTER-LIGAND FREE ENERGY PREDICTED BY IDOCK:   -7.27 KCAL/MOL
REMARK 924 INTRA-LIGAND FREE ENERGY PREDICTED BY IDOCK:   -0.52 KCAL/MOL
REMARK 927      BINDING AFFINITY PREDICTED BY RF-SCORE:    0.00 PKD
ROOT
HETATM    1  C   UNL     1     -12.138  14.666  64.282  1.00  0.00    -0.415 C  
HETATM    2  N   UNL     1     -12.433  13.247  64.477  1.00  0.00    -0.601 NA 
HETATM    3  C   UNL     1     -11.792  12.429  63.426  1.00  0.00    -0.484 C  
HETATM    4  C   UNL     1     -10.262  12.279  63.585  1.00  0.00    -0.403 C  
HETATM    5  N   UNL     1      -9.840  11.755  64.900  1.00  0.00    -0.245 NA 
HETATM    6  C   UNL     1     -10.452  12.595  65.957  1.00  0.00    -0.268 C  
HETATM    7  C   UNL     1     -11.983  12.792  65.811  1.00  0.00    -0.449 C  
ENDROOT
BRANCH   5   8
HETATM    8  C   UNL     1     -10.211  10.345  65.104  1.00  0.00    -0.256 C  
BRANCH   8   9
HETATM    9  C   UNL     1      -9.199   9.550  65.927  1.00  0.00    -0.260 C  
BRANCH   9  10
HETATM   10  C   UNL     1      -9.797   8.340  66.663  1.00  0.00    -0.267 C  
BRANCH  10  11
HETATM   11  N   UNL     1      -9.078   8.002  67.922  1.00  0.00    -0.132 NA 
HETATM   12  C   UNL     1      -8.038   7.023  67.783  1.00  0.00    -0.114 A  
HETATM   13  C   UNL     1      -7.477   6.695  66.524  1.00  0.00    -0.078 A  
HETATM   14  C   UNL     1      -6.568   5.648  66.347  1.00  0.00    -0.055 A  
HETATM   15  C   UNL     1      -6.132   4.925  67.441  1.00  0.00    -0.031 A  
HETATM   16  C   UNL     1      -6.594   5.273  68.705  1.00  0.00    -0.048 A  
HETATM   17  C   UNL     1      -7.532   6.310  68.884  1.00  0.00    -0.087 A  
HETATM   18  S   UNL     1      -8.017   6.605  70.562  1.00  0.00    -0.113 SA 
HETATM   19  C   UNL     1      -9.239   7.882  70.396  1.00  0.00    -0.158 A  
HETATM   20  C   UNL     1      -9.650   8.428  69.160  1.00  0.00    -0.164 A  
HETATM   21  C   UNL     1     -10.649   9.430  69.245  1.00  0.00    -0.239 A  
HETATM   22  C   UNL     1     -11.241   9.848  70.456  1.00  0.00    -0.399 A  
HETATM   23  C   UNL     1     -12.331  10.890  70.478  1.00  0.00    -0.374 C  
HETATM   24  C   UNL     1     -10.805   9.275  71.647  1.00  0.00    -0.418 A  
HETATM   25  F   UNL     1     -13.484  10.425  71.039  1.00  0.00    -0.416 F  
HETATM   26  F   UNL     1     -11.985  11.989  71.204  1.00  0.00    -0.338 F  
HETATM   27  F   UNL     1     -12.680  11.354  69.246  1.00  0.00    -0.192 F  
HETATM   28  C   UNL     1      -9.810   8.306  71.614  1.00  0.00    -0.263 A  
ENDBRANCH  10  11
ENDBRANCH   9  10
ENDBRANCH   8   9
ENDBRANCH   5   8
TORSDOF 4
ENDMDL
MODEL       62
REMARK 921   NORMALIZED FREE ENERGY PREDICTED BY IDOCK:   -5.98 KCAL/MOL
REMARK 922        TOTAL FREE ENERGY PREDICTED BY IDOCK:   -7.79 KCAL/MOL
REMARK 923 INTER-LIGAND FREE ENERGY PREDICTED BY IDOCK:   -7.26 KCAL/MOL
REMARK 924 INTRA-LIGAND FREE ENERGY PREDICTED BY IDOCK:   -0.53 KCAL/MOL
REMARK 927      BINDING AFFINITY PREDICTED BY RF-SCORE:    0.00 PKD
ROOT
HETATM    1  C   UNL     1     -13.320  15.757  73.291  1.00  0.00    -0.549 C  
HETATM    2  N   UNL     1     -13.681  15.615  71.881  1.00  0.00    -0.463 NA 
HETATM    3  C   UNL     1     -12.519  15.895  71.011  1.00  0.00    -0.337 C  
HETATM    4  C   UNL     1     -11.454  14.775  70.997  1.00  0.00    -0.216 C  
HETATM    5  N   UNL     1     -11.985  13.441  70.647  1.00  0.00    -0.280 NA 
HETATM    6  C   UNL     1     -13.128  13.142  71.541  1.00  0.00    -0.315 C  
HETATM    7  C   UNL     1     -14.201  14.258  71.603  1.00  0.00    -0.388 C  
ENDROOT
BRANCH   5   8
HETATM    8  C   UNL     1     -12.410  13.343  69.241  1.00  0.00    -0.045 C  
BRANCH   8   9
HETATM    9  C   UNL     1     -12.031  12.024  68.568  1.00  0.00    -0.273 C  
BRANCH   9  10
HETATM   10  C   UNL     1     -10.840  11.304  69.222  1.00  0.00    -0.212 C  
BRANCH  10  11
HETATM   11  N   UNL     1     -10.844   9.833  68.992  1.00  0.00    -0.217 NA 
HETATM   12  C   UNL     1     -11.124   9.038  70.154  1.00  0.00    -0.207 A  
HETATM   13  C   UNL     1     -11.725   9.587  71.314  1.00  0.00    -0.444 A  
HETATM   14  C   UNL     1     -11.876   8.868  72.503  1.00  0.00    -0.176 A  
HETATM   15  C   UNL     1     -11.489   7.543  72.559  1.00  0.00    -0.376 A  
HETATM   16  C   UNL     1     -10.974   6.944  71.415  1.00  0.00    -0.270 A  
HETATM   17  C   UNL     1     -10.794   7.673  70.222  1.00  0.00    -0.246 A  
HETATM   18  S   UNL     1     -10.115   6.751  68.870  1.00  0.00    -0.171 SA 
HETATM   19  C   UNL     1      -9.952   7.982  67.602  1.00  0.00    -0.180 A  
HETATM   20  C   UNL     1     -10.297   9.341  67.768  1.00  0.00    -0.237 A  
HETATM   21  C   UNL     1     -10.078  10.163  66.634  1.00  0.00    -0.283 A  
HETATM   22  C   UNL     1      -9.518   9.699  65.425  1.00  0.00    -0.343 A  
HETATM   23  C   UNL     1      -9.269  10.632  64.266  1.00  0.00    -0.233 C  
HETATM   24  C   UNL     1      -9.189   8.352  65.312  1.00  0.00     0.115 A  
HETATM   25  F   UNL     1      -7.957  10.663  63.897  1.00  0.00    -0.141 F  
HETATM   26  F   UNL     1      -9.958  10.270  63.149  1.00  0.00    -0.333 F  
HETATM   27  F   UNL     1      -9.615  11.927  64.512  1.00  0.00    -0.228 F  
HETATM   28  C   UNL     1      -9.410   7.503  66.390  1.00  0.00    -0.211 A  
ENDBRANCH  10  11
ENDBRANCH   9  10
ENDBRANCH   8   9
ENDBRANCH   5   8
TORSDOF 4
ENDMDL
MODEL       63
REMARK 921   NORMALIZED FREE ENERGY PREDICTED BY IDOCK:   -5.96 KCAL/MOL
REMARK 922        TOTAL FREE ENERGY PREDICTED BY IDOCK:   -7.77 KCAL/MOL
REMARK 923 INTER-LIGAND FREE ENERGY PREDICTED BY IDOCK:   -7.16 KCAL/MOL
REMARK 924 INTRA-LIGAND FREE ENERGY PREDICTED BY IDOCK:   -0.62 KCAL/MOL
REMARK 927      BINDING AFFINITY PREDICTED BY RF-SCORE:    0.00 PKD
ROOT
HETATM    1  C   UNL     1     -10.843   7.867  69.729  1.00  0.00    -0.202 C  
HETATM    2  N   UNL     1      -9.930   8.108  68.613  1.00  0.00    -0.184 NA 
HETATM    3  C   UNL     1     -10.460   9.158  67.719  1.00  0.00    -0.247 C  
HETATM    4  C   UNL     1     -10.360  10.589  68.294  1.00  0.00    -0.168 C  
HETATM    5  N   UNL     1      -8.997  10.979  68.710  1.00  0.00    -0.166 NA 
HETATM    6  C   UNL     1      -8.475   9.945  69.635  1.00  0.00    -0.187 C  
HETATM    7  C   UNL     1      -8.588   8.494  69.101  1.00  0.00    -0.133 C  
ENDROOT
BRANCH   5   8
HETATM    8  C   UNL     1      -8.075  11.146  67.574  1.00  0.00    -0.119 C  
BRANCH   8   9
HETATM    9  C   UNL     1      -7.462  12.541  67.472  1.00  0.00    -0.151 C  
BRANCH   9  10
HETATM   10  C   UNL     1      -8.210  13.618  68.273  1.00  0.00    -0.156 C  
BRANCH  10  11
HETATM   11  N   UNL     1      -8.418  14.881  67.511  1.00  0.00    -0.173 NA 
HETATM   12  C   UNL     1      -7.746  16.030  68.046  1.00  0.00    -0.133 A  
HETATM   13  C   UNL     1      -6.678  15.915  68.970  1.00  0.00    -0.151 A  
HETATM   14  C   UNL     1      -6.105  17.018  69.609  1.00  0.00    -0.231 A  
HETATM   15  C   UNL     1      -6.538  18.293  69.300  1.00  0.00    -0.245 A  
HETATM   16  C   UNL     1      -7.527  18.452  68.335  1.00  0.00    -0.300 A  
HETATM   17  C   UNL     1      -8.126  17.341  67.708  1.00  0.00    -0.198 A  
HETATM   18  S   UNL     1      -9.375  17.733  66.514  1.00  0.00    -0.262 SA 
HETATM   19  C   UNL     1      -9.951  16.131  66.012  1.00  0.00    -0.348 A  
HETATM   20  C   UNL     1      -9.461  14.914  66.535  1.00  0.00    -0.283 A  
HETATM   21  C   UNL     1     -10.064  13.744  66.009  1.00  0.00    -0.320 A  
HETATM   22  C   UNL     1     -11.109  13.759  65.061  1.00  0.00    -0.348 A  
HETATM   23  C   UNL     1     -11.741  12.480  64.570  1.00  0.00    -0.362 C  
HETATM   24  C   UNL     1     -11.561  14.984  64.580  1.00  0.00    -0.386 A  
HETATM   25  F   UNL     1     -13.082  12.434  64.816  1.00  0.00    -0.547 F  
HETATM   26  F   UNL     1     -11.608  12.317  63.224  1.00  0.00    -0.470 F  
HETATM   27  F   UNL     1     -11.223  11.353  65.133  1.00  0.00    -0.328 F  
HETATM   28  C   UNL     1     -10.982  16.156  65.050  1.00  0.00    -0.357 A  
ENDBRANCH  10  11
ENDBRANCH   9  10
ENDBRANCH   8   9
ENDBRANCH   5   8
TORSDOF 4
ENDMDL
MODEL       64
REMARK 921   NORMALIZED FREE ENERGY PREDICTED BY IDOCK:   -5.96 KCAL/MOL
REMARK 922        TOTAL FREE ENERGY PREDICTED BY IDOCK:   -7.76 KCAL/MOL
REMARK 923 INTER-LIGAND FREE ENERGY PREDICTED BY IDOCK:   -7.21 KCAL/MOL
REMARK 924 INTRA-LIGAND FREE ENERGY PREDICTED BY IDOCK:   -0.56 KCAL/MOL
REMARK 927      BINDING AFFINITY PREDICTED BY RF-SCORE:    0.00 PKD
ROOT
HETATM    1  C   UNL     1     -10.469  16.877  68.637  1.00  0.00    -0.352 C  
HETATM    2  N   UNL     1     -10.214  15.786  69.577  1.00  0.00    -0.253 NA 
HETATM    3  C   UNL     1     -11.210  15.792  70.669  1.00  0.00    -0.372 C  
HETATM    4  C   UNL     1     -12.612  15.292  70.250  1.00  0.00    -0.347 C  
HETATM    5  N   UNL     1     -12.614  13.953  69.628  1.00  0.00    -0.139 NA 
HETATM    6  C   UNL     1     -11.642  13.954  68.509  1.00  0.00    -0.332 C  
HETATM    7  C   UNL     1     -10.233  14.478  68.887  1.00  0.00    -0.229 C  
ENDROOT
BRANCH   5   8
HETATM    8  C   UNL     1     -12.284  12.877  70.577  1.00  0.00    -0.314 C  
BRANCH   8   9
HETATM    9  C   UNL     1     -12.116  11.505  69.926  1.00  0.00    -0.389 C  
BRANCH   9  10
HETATM   10  C   UNL     1     -10.802  10.793  70.286  1.00  0.00     0.014 C  
BRANCH  10  11
HETATM   11  N   UNL     1     -10.726   9.399  69.770  1.00  0.00    -0.228 NA 
HETATM   12  C   UNL     1     -10.690   8.378  70.778  1.00  0.00    -0.212 A  
HETATM   13  C   UNL     1     -11.083   8.630  72.117  1.00  0.00    -0.434 A  
HETATM   14  C   UNL     1     -10.923   7.695  73.143  1.00  0.00    -0.411 A  
HETATM   15  C   UNL     1     -10.419   6.440  72.857  1.00  0.00    -0.243 A  
HETATM   16  C   UNL     1     -10.102   6.127  71.540  1.00  0.00    -0.227 A  
HETATM   17  C   UNL     1     -10.237   7.076  70.507  1.00  0.00    -0.196 A  
HETATM   18  S   UNL     1      -9.775   6.505  68.894  1.00  0.00    -0.131 SA 
HETATM   19  C   UNL     1      -9.984   7.955  67.893  1.00  0.00    -0.178 A  
HETATM   20  C   UNL     1     -10.404   9.208  68.391  1.00  0.00    -0.206 A  
HETATM   21  C   UNL     1     -10.496  10.242  67.426  1.00  0.00    -0.303 A  
HETATM   22  C   UNL     1     -10.161  10.077  66.065  1.00  0.00    -0.318 A  
HETATM   23  C   UNL     1     -10.237  11.228  65.093  1.00  0.00    -0.289 C  
HETATM   24  C   UNL     1      -9.747   8.824  65.623  1.00  0.00    -0.016 A  
HETATM   25  F   UNL     1      -9.038  11.489  64.499  1.00  0.00    -0.138 F  
HETATM   26  F   UNL     1     -11.109  10.991  64.074  1.00  0.00    -0.437 F  
HETATM   27  F   UNL     1     -10.635  12.404  65.655  1.00  0.00    -0.265 F  
HETATM   28  C   UNL     1      -9.666   7.774  66.530  1.00  0.00    -0.265 A  
ENDBRANCH  10  11
ENDBRANCH   9  10
ENDBRANCH   8   9
ENDBRANCH   5   8
TORSDOF 4
ENDMDL
MODEL       65
REMARK 921   NORMALIZED FREE ENERGY PREDICTED BY IDOCK:   -5.95 KCAL/MOL
REMARK 922        TOTAL FREE ENERGY PREDICTED BY IDOCK:   -7.76 KCAL/MOL
REMARK 923 INTER-LIGAND FREE ENERGY PREDICTED BY IDOCK:   -7.21 KCAL/MOL
REMARK 924 INTRA-LIGAND FREE ENERGY PREDICTED BY IDOCK:   -0.55 KCAL/MOL
REMARK 927      BINDING AFFINITY PREDICTED BY RF-SCORE:    0.00 PKD
ROOT
HETATM    1  C   UNL     1      -7.920   9.942  62.587  1.00  0.00    -0.129 C  
HETATM    2  N   UNL     1      -9.186   9.743  63.292  1.00  0.00    -0.245 NA 
HETATM    3  C   UNL     1      -8.948   9.361  64.700  1.00  0.00    -0.187 C  
HETATM    4  C   UNL     1      -8.468  10.524  65.598  1.00  0.00    -0.176 C  
HETATM    5  N   UNL     1      -9.355  11.705  65.582  1.00  0.00    -0.212 NA 
HETATM    6  C   UNL     1      -9.568  12.112  64.173  1.00  0.00     0.045 C  
HETATM    7  C   UNL     1     -10.020  10.963  63.236  1.00  0.00    -0.349 C  
ENDROOT
BRANCH   5   8
HETATM    8  C   UNL     1     -10.653  11.459  66.233  1.00  0.00    -0.263 C  
BRANCH   8   9
HETATM    9  C   UNL     1     -11.060  12.540  67.234  1.00  0.00    -0.319 C  
BRANCH   9  10
HETATM   10  C   UNL     1     -10.512  12.321  68.653  1.00  0.00    -0.208 C  
BRANCH  10  11
HETATM   11  N   UNL     1     -11.522  11.764  69.595  1.00  0.00    -0.281 NA 
HETATM   12  C   UNL     1     -12.271  12.741  70.332  1.00  0.00    -0.293 A  
HETATM   13  C   UNL     1     -12.332  14.100  69.932  1.00  0.00    -0.382 A  
HETATM   14  C   UNL     1     -12.935  15.094  70.708  1.00  0.00    -0.468 A  
HETATM   15  C   UNL     1     -13.560  14.755  71.893  1.00  0.00    -0.492 A  
HETATM   16  C   UNL     1     -13.594  13.419  72.278  1.00  0.00    -0.703 A  
HETATM   17  C   UNL     1     -12.964  12.418  71.511  1.00  0.00    -0.285 A  
HETATM   18  S   UNL     1     -13.100  10.775  72.159  1.00  0.00    -0.012 SA 
HETATM   19  C   UNL     1     -12.138   9.822  71.012  1.00  0.00    -0.346 A  
HETATM   20  C   UNL     1     -11.460  10.370  69.901  1.00  0.00    -0.297 A  
HETATM   21  C   UNL     1     -10.738   9.438  69.114  1.00  0.00    -0.216 A  
HETATM   22  C   UNL     1     -10.647   8.062  69.414  1.00  0.00    -0.210 A  
HETATM   23  C   UNL     1      -9.826   7.125  68.562  1.00  0.00    -0.153 C  
HETATM   24  C   UNL     1     -11.329   7.571  70.523  1.00  0.00    -0.279 A  
HETATM   25  F   UNL     1      -8.848   6.496  69.275  1.00  0.00    -0.129 F  
HETATM   26  F   UNL     1     -10.577   6.132  68.010  1.00  0.00    -0.177 F  
HETATM   27  F   UNL     1      -9.193   7.734  67.521  1.00  0.00    -0.130 F  
HETATM   28  C   UNL     1     -12.071   8.445  71.309  1.00  0.00    -0.315 A  
ENDBRANCH  10  11
ENDBRANCH   9  10
ENDBRANCH   8   9
ENDBRANCH   5   8
TORSDOF 4
ENDMDL
MODEL       66
REMARK 921   NORMALIZED FREE ENERGY PREDICTED BY IDOCK:   -5.95 KCAL/MOL
REMARK 922        TOTAL FREE ENERGY PREDICTED BY IDOCK:   -7.76 KCAL/MOL
REMARK 923 INTER-LIGAND FREE ENERGY PREDICTED BY IDOCK:   -7.25 KCAL/MOL
REMARK 924 INTRA-LIGAND FREE ENERGY PREDICTED BY IDOCK:   -0.51 KCAL/MOL
REMARK 927      BINDING AFFINITY PREDICTED BY RF-SCORE:    0.00 PKD
ROOT
HETATM    1  C   UNL     1      -8.289   3.271  65.086  1.00  0.00    -0.095 C  
HETATM    2  N   UNL     1      -9.071   4.429  64.656  1.00  0.00    -0.149 NA 
HETATM    3  C   UNL     1      -9.609   5.162  65.821  1.00  0.00    -0.122 C  
HETATM    4  C   UNL     1      -8.552   5.984  66.595  1.00  0.00    -0.113 C  
HETATM    5  N   UNL     1      -7.797   6.937  65.757  1.00  0.00    -0.100 NA 
HETATM    6  C   UNL     1      -7.227   6.199  64.605  1.00  0.00    -0.064 C  
HETATM    7  C   UNL     1      -8.253   5.339  63.824  1.00  0.00    -0.123 C  
ENDROOT
BRANCH   5   8
HETATM    8  C   UNL     1      -8.622   8.057  65.274  1.00  0.00    -0.086 C  
BRANCH   8   9
HETATM    9  C   UNL     1      -8.939   9.101  66.344  1.00  0.00    -0.182 C  
BRANCH   9  10
HETATM   10  C   UNL     1     -10.404   9.102  66.809  1.00  0.00    -0.238 C  
BRANCH  10  11
HETATM   11  N   UNL     1     -10.662  10.035  67.940  1.00  0.00    -0.255 NA 
HETATM   12  C   UNL     1     -10.732   9.418  69.233  1.00  0.00    -0.211 A  
HETATM   13  C   UNL     1     -10.220   8.119  69.475  1.00  0.00    -0.213 A  
HETATM   14  C   UNL     1     -10.403   7.444  70.685  1.00  0.00    -0.217 A  
HETATM   15  C   UNL     1     -11.055   8.071  71.730  1.00  0.00    -0.313 A  
HETATM   16  C   UNL     1     -11.497   9.379  71.559  1.00  0.00    -0.467 A  
HETATM   17  C   UNL     1     -11.338  10.053  70.331  1.00  0.00    -0.320 A  
HETATM   18  S   UNL     1     -11.972  11.707  70.293  1.00  0.00    -0.321 SA 
HETATM   19  C   UNL     1     -11.685  12.195  68.610  1.00  0.00    -0.330 A  
HETATM   20  C   UNL     1     -11.101  11.359  67.633  1.00  0.00    -0.268 A  
HETATM   21  C   UNL     1     -10.971  11.937  66.345  1.00  0.00    -0.337 A  
HETATM   22  C   UNL     1     -11.419  13.235  66.018  1.00  0.00    -0.360 A  
HETATM   23  C   UNL     1     -11.292  13.780  64.617  1.00  0.00    -0.372 C  
HETATM   24  C   UNL     1     -11.993  14.017  67.015  1.00  0.00    -0.472 A  
HETATM   25  F   UNL     1     -12.497  14.129  64.083  1.00  0.00    -0.452 F  
HETATM   26  F   UNL     1     -10.525  14.904  64.563  1.00  0.00    -0.393 F  
HETATM   27  F   UNL     1     -10.734  12.908  63.731  1.00  0.00    -0.383 F  
HETATM   28  C   UNL     1     -12.118  13.501  68.299  1.00  0.00    -0.295 A  
ENDBRANCH  10  11
ENDBRANCH   9  10
ENDBRANCH   8   9
ENDBRANCH   5   8
TORSDOF 4
ENDMDL
MODEL       67
REMARK 921   NORMALIZED FREE ENERGY PREDICTED BY IDOCK:   -5.95 KCAL/MOL
REMARK 922        TOTAL FREE ENERGY PREDICTED BY IDOCK:   -7.76 KCAL/MOL
REMARK 923 INTER-LIGAND FREE ENERGY PREDICTED BY IDOCK:   -7.20 KCAL/MOL
REMARK 924 INTRA-LIGAND FREE ENERGY PREDICTED BY IDOCK:   -0.55 KCAL/MOL
REMARK 927      BINDING AFFINITY PREDICTED BY RF-SCORE:    0.00 PKD
ROOT
HETATM    1  C   UNL     1     -13.059  10.241  71.216  1.00  0.00    -0.398 C  
HETATM    2  N   UNL     1     -11.686  10.701  71.014  1.00  0.00    -0.298 NA 
HETATM    3  C   UNL     1     -10.762   9.554  70.890  1.00  0.00    -0.333 C  
HETATM    4  C   UNL     1     -10.859   8.806  69.541  1.00  0.00    -0.142 C  
HETATM    5  N   UNL     1     -10.685   9.671  68.357  1.00  0.00    -0.225 NA 
HETATM    6  C   UNL     1     -11.636  10.804  68.460  1.00  0.00    -0.255 C  
HETATM    7  C   UNL     1     -11.586  11.558  69.813  1.00  0.00    -0.326 C  
ENDROOT
BRANCH   5   8
HETATM    8  C   UNL     1      -9.312  10.182  68.214  1.00  0.00    -0.133 C  
BRANCH   8   9
HETATM    9  C   UNL     1      -8.859  10.349  66.764  1.00  0.00    -0.139 C  
BRANCH   9  10
HETATM   10  C   UNL     1      -7.803  11.446  66.557  1.00  0.00    -0.105 C  
BRANCH  10  11
HETATM   11  N   UNL     1      -8.269  12.799  66.969  1.00  0.00    -0.141 NA 
HETATM   12  C   UNL     1      -7.531  13.394  68.046  1.00  0.00    -0.139 A  
HETATM   13  C   UNL     1      -6.247  12.929  68.425  1.00  0.00    -0.079 A  
HETATM   14  C   UNL     1      -5.573  13.397  69.557  1.00  0.00    -0.093 A  
HETATM   15  C   UNL     1      -6.133  14.402  70.323  1.00  0.00    -0.172 A  
HETATM   16  C   UNL     1      -7.354  14.943  69.935  1.00  0.00    -0.033 A  
HETATM   17  C   UNL     1      -8.049  14.455  68.809  1.00  0.00    -0.127 A  
HETATM   18  S   UNL     1      -9.593  15.256  68.472  1.00  0.00    -0.218 SA 
HETATM   19  C   UNL     1     -10.208  14.343  67.080  1.00  0.00    -0.263 A  
HETATM   20  C   UNL     1      -9.538  13.248  66.492  1.00  0.00    -0.264 A  
HETATM   21  C   UNL     1     -10.207  12.649  65.395  1.00  0.00    -0.301 A  
HETATM   22  C   UNL     1     -11.471  13.065  64.924  1.00  0.00    -0.348 A  
HETATM   23  C   UNL     1     -12.153  12.359  63.779  1.00  0.00    -0.529 C  
HETATM   24  C   UNL     1     -12.094  14.146  65.541  1.00  0.00    -0.421 A  
HETATM   25  F   UNL     1     -13.372  11.858  64.128  1.00  0.00    -0.480 F  
HETATM   26  F   UNL     1     -12.384  13.187  62.721  1.00  0.00    -0.477 F  
HETATM   27  F   UNL     1     -11.449  11.306  63.278  1.00  0.00    -0.426 F  
HETATM   28  C   UNL     1     -11.463  14.780  66.605  1.00  0.00    -0.339 A  
ENDBRANCH  10  11
ENDBRANCH   9  10
ENDBRANCH   8   9
ENDBRANCH   5   8
TORSDOF 4
ENDMDL
MODEL       68
REMARK 921   NORMALIZED FREE ENERGY PREDICTED BY IDOCK:   -5.93 KCAL/MOL
REMARK 922        TOTAL FREE ENERGY PREDICTED BY IDOCK:   -7.73 KCAL/MOL
REMARK 923 INTER-LIGAND FREE ENERGY PREDICTED BY IDOCK:   -7.16 KCAL/MOL
REMARK 924 INTRA-LIGAND FREE ENERGY PREDICTED BY IDOCK:   -0.57 KCAL/MOL
REMARK 927      BINDING AFFINITY PREDICTED BY RF-SCORE:    0.00 PKD
ROOT
HETATM    1  C   UNL     1      -5.785   7.148  63.169  1.00  0.00    -0.041 C  
HETATM    2  N   UNL     1      -6.827   8.170  63.262  1.00  0.00    -0.083 NA 
HETATM    3  C   UNL     1      -7.972   7.681  64.058  1.00  0.00    -0.099 C  
HETATM    4  C   UNL     1      -7.704   7.615  65.578  1.00  0.00    -0.101 C  
HETATM    5  N   UNL     1      -7.242   8.889  66.166  1.00  0.00    -0.088 NA 
HETATM    6  C   UNL     1      -6.071   9.366  65.392  1.00  0.00    -0.064 C  
HETATM    7  C   UNL     1      -6.295   9.415  63.859  1.00  0.00    -0.094 C  
ENDROOT
BRANCH   5   8
HETATM    8  C   UNL     1      -8.286   9.928  66.182  1.00  0.00    -0.122 C  
BRANCH   8   9
HETATM    9  C   UNL     1      -9.311   9.759  67.303  1.00  0.00    -0.161 C  
BRANCH   9  10
HETATM   10  C   UNL     1     -10.769   9.964  66.859  1.00  0.00    -0.125 C  
BRANCH  10  11
HETATM   11  N   UNL     1     -11.369  11.225  67.376  1.00  0.00    -0.436 NA 
HETATM   12  C   UNL     1     -11.212  12.368  66.523  1.00  0.00    -0.319 A  
HETATM   13  C   UNL     1     -10.871  12.242  65.153  1.00  0.00    -0.340 A  
HETATM   14  C   UNL     1     -10.574  13.340  64.340  1.00  0.00    -0.438 A  
HETATM   15  C   UNL     1     -10.670  14.620  64.853  1.00  0.00    -0.447 A  
HETATM   16  C   UNL     1     -11.084  14.788  66.170  1.00  0.00    -0.339 A  
HETATM   17  C   UNL     1     -11.359  13.682  67.000  1.00  0.00    -0.324 A  
HETATM   18  S   UNL     1     -11.862  14.085  68.650  1.00  0.00    -0.356 SA 
HETATM   19  C   UNL     1     -12.028  12.488  69.408  1.00  0.00    -0.256 A  
HETATM   20  C   UNL     1     -11.768  11.268  68.747  1.00  0.00    -0.338 A  
HETATM   21  C   UNL     1     -11.950  10.104  69.535  1.00  0.00    -0.001 A  
HETATM   22  C   UNL     1     -12.322  10.128  70.896  1.00  0.00    -0.461 A  
HETATM   23  C   UNL     1     -12.456   8.856  71.696  1.00  0.00    -0.344 C  
HETATM   24  C   UNL     1     -12.561  11.356  71.505  1.00  0.00    -0.393 A  
HETATM   25  F   UNL     1     -11.630   8.832  72.780  1.00  0.00    -0.371 F  
HETATM   26  F   UNL     1     -13.715   8.682  72.188  1.00  0.00    -0.344 F  
HETATM   27  F   UNL     1     -12.175   7.725  70.991  1.00  0.00    -0.314 F  
HETATM   28  C   UNL     1     -12.420  12.523  70.763  1.00  0.00    -0.357 A  
ENDBRANCH  10  11
ENDBRANCH   9  10
ENDBRANCH   8   9
ENDBRANCH   5   8
TORSDOF 4
ENDMDL
MODEL       69
REMARK 921   NORMALIZED FREE ENERGY PREDICTED BY IDOCK:   -5.92 KCAL/MOL
REMARK 922        TOTAL FREE ENERGY PREDICTED BY IDOCK:   -7.71 KCAL/MOL
REMARK 923 INTER-LIGAND FREE ENERGY PREDICTED BY IDOCK:   -7.01 KCAL/MOL
REMARK 924 INTRA-LIGAND FREE ENERGY PREDICTED BY IDOCK:   -0.70 KCAL/MOL
REMARK 927      BINDING AFFINITY PREDICTED BY RF-SCORE:    0.00 PKD
ROOT
HETATM    1  C   UNL     1      -5.471  13.486  69.892  1.00  0.00    -0.100 C  
HETATM    2  N   UNL     1      -5.364  12.485  68.832  1.00  0.00    -0.058 NA 
HETATM    3  C   UNL     1      -5.429  11.119  69.392  1.00  0.00    -0.041 C  
HETATM    4  C   UNL     1      -6.841  10.688  69.849  1.00  0.00    -0.149 C  
HETATM    5  N   UNL     1      -7.878  10.810  68.804  1.00  0.00    -0.120 NA 
HETATM    6  C   UNL     1      -7.839  12.190  68.264  1.00  0.00    -0.153 C  
HETATM    7  C   UNL     1      -6.431  12.666  67.824  1.00  0.00    -0.128 C  
ENDROOT
BRANCH   5   8
HETATM    8  C   UNL     1      -7.707   9.840  67.709  1.00  0.00    -0.091 C  
BRANCH   8   9
HETATM    9  C   UNL     1      -8.629  10.084  66.515  1.00  0.00    -0.131 C  
BRANCH   9  10
HETATM   10  C   UNL     1     -10.093   9.682  66.758  1.00  0.00    -0.236 C  
BRANCH  10  11
HETATM   11  N   UNL     1     -10.943  10.811  67.228  1.00  0.00    -0.303 NA 
HETATM   12  C   UNL     1     -11.009  11.934  66.337  1.00  0.00    -0.292 A  
HETATM   13  C   UNL     1     -10.631  11.836  64.974  1.00  0.00    -0.338 A  
HETATM   14  C   UNL     1     -10.551  12.945  64.127  1.00  0.00    -0.442 A  
HETATM   15  C   UNL     1     -10.911  14.195  64.596  1.00  0.00    -0.401 A  
HETATM   16  C   UNL     1     -11.368  14.317  65.903  1.00  0.00    -0.328 A  
HETATM   17  C   UNL     1     -11.424  13.206  66.768  1.00  0.00    -0.343 A  
HETATM   18  S   UNL     1     -12.021  13.551  68.400  1.00  0.00    -0.283 SA 
HETATM   19  C   UNL     1     -11.871  11.979  69.211  1.00  0.00    -0.318 A  
HETATM   20  C   UNL     1     -11.361  10.816  68.594  1.00  0.00    -0.291 A  
HETATM   21  C   UNL     1     -11.313   9.665  69.420  1.00  0.00    -0.038 A  
HETATM   22  C   UNL     1     -11.701   9.657  70.777  1.00  0.00    -0.390 A  
HETATM   23  C   UNL     1     -11.586   8.410  71.619  1.00  0.00    -0.289 C  
HETATM   24  C   UNL     1     -12.191  10.830  71.341  1.00  0.00    -0.374 A  
HETATM   25  F   UNL     1     -10.786   8.589  72.708  1.00  0.00    -0.399 F  
HETATM   26  F   UNL     1     -12.790   8.001  72.108  1.00  0.00    -0.311 F  
HETATM   27  F   UNL     1     -11.072   7.338  70.954  1.00  0.00    -0.249 F  
HETATM   28  C   UNL     1     -12.279  11.977  70.561  1.00  0.00    -0.414 A  
ENDBRANCH  10  11
ENDBRANCH   9  10
ENDBRANCH   8   9
ENDBRANCH   5   8
TORSDOF 4
ENDMDL
MODEL       70
REMARK 921   NORMALIZED FREE ENERGY PREDICTED BY IDOCK:   -5.89 KCAL/MOL
REMARK 922        TOTAL FREE ENERGY PREDICTED BY IDOCK:   -7.68 KCAL/MOL
REMARK 923 INTER-LIGAND FREE ENERGY PREDICTED BY IDOCK:   -7.01 KCAL/MOL
REMARK 924 INTRA-LIGAND FREE ENERGY PREDICTED BY IDOCK:   -0.67 KCAL/MOL
REMARK 927      BINDING AFFINITY PREDICTED BY RF-SCORE:    0.00 PKD
ROOT
HETATM    1  C   UNL     1     -12.513  12.082  63.353  1.00  0.00    -0.509 C  
HETATM    2  N   UNL     1     -11.329  12.691  63.958  1.00  0.00    -0.375 NA 
HETATM    3  C   UNL     1     -11.639  14.042  64.471  1.00  0.00    -0.391 C  
HETATM    4  C   UNL     1     -12.480  14.049  65.768  1.00  0.00    -0.494 C  
HETATM    5  N   UNL     1     -11.897  13.258  66.870  1.00  0.00    -0.385 NA 
HETATM    6  C   UNL     1     -11.617  11.891  66.369  1.00  0.00    -0.243 C  
HETATM    7  C   UNL     1     -10.801  11.847  65.052  1.00  0.00    -0.300 C  
ENDROOT
BRANCH   5   8
HETATM    8  C   UNL     1     -10.665  13.852  67.416  1.00  0.00    -0.272 C  
BRANCH   8   9
HETATM    9  C   UNL     1     -10.770  15.350  67.696  1.00  0.00    -0.292 C  
BRANCH   9  10
HETATM   10  C   UNL     1     -10.009  15.811  68.950  1.00  0.00    -0.223 C  
BRANCH  10  11
HETATM   11  N   UNL     1      -8.756  16.553  68.638  1.00  0.00    -0.233 NA 
HETATM   12  C   UNL     1      -8.935  17.941  68.321  1.00  0.00    -0.275 A  
HETATM   13  C   UNL     1     -10.124  18.640  68.649  1.00  0.00    -0.412 A  
HETATM   14  C   UNL     1     -10.377  19.948  68.226  1.00  0.00    -0.526 A  
HETATM   15  C   UNL     1      -9.418  20.635  67.506  1.00  0.00    -0.479 A  
HETATM   16  C   UNL     1      -8.204  20.012  67.238  1.00  0.00    -0.368 A  
HETATM   17  C   UNL     1      -7.956  18.684  67.640  1.00  0.00    -0.246 A  
HETATM   18  S   UNL     1      -6.360  18.050  67.202  1.00  0.00    -0.167 SA 
HETATM   19  C   UNL     1      -6.437  16.372  67.774  1.00  0.00    -0.138 A  
HETATM   20  C   UNL     1      -7.569  15.798  68.394  1.00  0.00    -0.130 A  
HETATM   21  C   UNL     1      -7.429  14.437  68.766  1.00  0.00    -0.133 A  
HETATM   22  C   UNL     1      -6.272  13.670  68.512  1.00  0.00    -0.091 A  
HETATM   23  C   UNL     1      -6.198  12.212  68.893  1.00  0.00    -0.077 C  
HETATM   24  C   UNL     1      -5.185  14.279  67.893  1.00  0.00    -0.056 A  
HETATM   25  F   UNL     1      -5.959  11.405  67.820  1.00  0.00    -0.045 F  
HETATM   26  F   UNL     1      -5.195  11.955  69.778  1.00  0.00    -0.065 F  
HETATM   27  F   UNL     1      -7.334  11.731  69.472  1.00  0.00    -0.066 F  
HETATM   28  C   UNL     1      -5.269  15.619  67.533  1.00  0.00    -0.022 A  
ENDBRANCH  10  11
ENDBRANCH   9  10
ENDBRANCH   8   9
ENDBRANCH   5   8
TORSDOF 4
ENDMDL
MODEL       71
REMARK 921   NORMALIZED FREE ENERGY PREDICTED BY IDOCK:   -5.87 KCAL/MOL
REMARK 922        TOTAL FREE ENERGY PREDICTED BY IDOCK:   -7.66 KCAL/MOL
REMARK 923 INTER-LIGAND FREE ENERGY PREDICTED BY IDOCK:   -6.92 KCAL/MOL
REMARK 924 INTRA-LIGAND FREE ENERGY PREDICTED BY IDOCK:   -0.75 KCAL/MOL
REMARK 927      BINDING AFFINITY PREDICTED BY RF-SCORE:    0.00 PKD
ROOT
HETATM    1  C   UNL     1      -7.153  10.451  62.390  1.00  0.00    -0.144 C  
HETATM    2  N   UNL     1      -8.178   9.463  62.725  1.00  0.00    -0.150 NA 
HETATM    3  C   UNL     1      -7.631   8.424  63.622  1.00  0.00    -0.132 C  
HETATM    4  C   UNL     1      -7.411   8.897  65.077  1.00  0.00    -0.095 C  
HETATM    5  N   UNL     1      -8.612   9.473  65.714  1.00  0.00    -0.133 NA 
HETATM    6  C   UNL     1      -9.144  10.540  64.833  1.00  0.00    -0.205 C  
HETATM    7  C   UNL     1      -9.348  10.109  63.358  1.00  0.00    -0.294 C  
ENDROOT
BRANCH   5   8
HETATM    8  C   UNL     1      -9.661   8.472  65.975  1.00  0.00    -0.165 C  
BRANCH   8   9
HETATM    9  C   UNL     1     -10.501   8.764  67.218  1.00  0.00    -0.353 C  
BRANCH   9  10
HETATM   10  C   UNL     1      -9.682   9.195  68.445  1.00  0.00    -0.152 C  
BRANCH  10  11
HETATM   11  N   UNL     1     -10.510   9.809  69.520  1.00  0.00    -0.217 NA 
HETATM   12  C   UNL     1     -11.064   8.882  70.464  1.00  0.00    -0.251 A  
HETATM   13  C   UNL     1     -10.564   7.563  70.605  1.00  0.00    -0.231 A  
HETATM   14  C   UNL     1     -11.176   6.602  71.414  1.00  0.00    -0.318 A  
HETATM   15  C   UNL     1     -12.283   6.943  72.168  1.00  0.00    -0.253 A  
HETATM   16  C   UNL     1     -12.753   8.251  72.121  1.00  0.00    -0.366 A  
HETATM   17  C   UNL     1     -12.154   9.216  71.286  1.00  0.00    -0.323 A  
HETATM   18  S   UNL     1     -12.891  10.826  71.347  1.00  0.00    -0.456 SA 
HETATM   19  C   UNL     1     -11.959  11.727  70.135  1.00  0.00    -0.339 A  
HETATM   20  C   UNL     1     -10.919  11.169  69.361  1.00  0.00    -0.244 A  
HETATM   21  C   UNL     1     -10.309  12.056  68.439  1.00  0.00    -0.220 A  
HETATM   22  C   UNL     1     -10.714  13.395  68.253  1.00  0.00    -0.273 A  
HETATM   23  C   UNL     1     -10.054  14.279  67.224  1.00  0.00    -0.252 C  
HETATM   24  C   UNL     1     -11.749  13.897  69.036  1.00  0.00    -0.378 A  
HETATM   25  F   UNL     1     -10.939  14.755  66.302  1.00  0.00    -0.305 F  
HETATM   26  F   UNL     1      -9.473  15.379  67.779  1.00  0.00    -0.199 F  
HETATM   27  F   UNL     1      -9.072  13.662  66.510  1.00  0.00    -0.246 F  
HETATM   28  C   UNL     1     -12.359  13.070  69.971  1.00  0.00    -0.222 A  
ENDBRANCH  10  11
ENDBRANCH   9  10
ENDBRANCH   8   9
ENDBRANCH   5   8
TORSDOF 4
ENDMDL
MODEL       72
REMARK 921   NORMALIZED FREE ENERGY PREDICTED BY IDOCK:   -5.87 KCAL/MOL
REMARK 922        TOTAL FREE ENERGY PREDICTED BY IDOCK:   -7.66 KCAL/MOL
REMARK 923 INTER-LIGAND FREE ENERGY PREDICTED BY IDOCK:   -7.14 KCAL/MOL
REMARK 924 INTRA-LIGAND FREE ENERGY PREDICTED BY IDOCK:   -0.52 KCAL/MOL
REMARK 927      BINDING AFFINITY PREDICTED BY RF-SCORE:    0.00 PKD
ROOT
HETATM    1  C   UNL     1     -12.456  15.380  74.238  1.00  0.00    -0.612 C  
HETATM    2  N   UNL     1     -13.076  15.851  73.000  1.00  0.00    -0.513 NA 
HETATM    3  C   UNL     1     -12.069  16.462  72.109  1.00  0.00    -0.343 C  
HETATM    4  C   UNL     1     -11.132  15.444  71.419  1.00  0.00    -0.259 C  
HETATM    5  N   UNL     1     -11.839  14.389  70.664  1.00  0.00    -0.302 NA 
HETATM    6  C   UNL     1     -12.826  13.749  71.566  1.00  0.00    -0.362 C  
HETATM    7  C   UNL     1     -13.762  14.744  72.298  1.00  0.00    -0.454 C  
ENDROOT
BRANCH   5   8
HETATM    8  C   UNL     1     -12.517  14.899  69.460  1.00  0.00    -0.088 C  
BRANCH   8   9
HETATM    9  C   UNL     1     -11.806  16.079  68.800  1.00  0.00    -0.210 C  
BRANCH   9  10
HETATM   10  C   UNL     1     -10.884  15.686  67.635  1.00  0.00    -0.307 C  
BRANCH  10  11
HETATM   11  N   UNL     1      -9.513  15.303  68.073  1.00  0.00    -0.197 NA 
HETATM   12  C   UNL     1      -8.600  16.398  68.239  1.00  0.00    -0.200 A  
HETATM   13  C   UNL     1      -9.047  17.738  68.361  1.00  0.00    -0.278 A  
HETATM   14  C   UNL     1      -8.175  18.830  68.380  1.00  0.00    -0.372 A  
HETATM   15  C   UNL     1      -6.810  18.620  68.343  1.00  0.00    -0.265 A  
HETATM   16  C   UNL     1      -6.331  17.315  68.309  1.00  0.00    -0.161 A  
HETATM   17  C   UNL     1      -7.207  16.212  68.262  1.00  0.00    -0.135 A  
HETATM   18  S   UNL     1      -6.419  14.626  68.211  1.00  0.00    -0.135 SA 
HETATM   19  C   UNL     1      -7.795  13.513  68.070  1.00  0.00    -0.147 A  
HETATM   20  C   UNL     1      -9.143  13.925  68.003  1.00  0.00    -0.192 A  
HETATM   21  C   UNL     1     -10.090  12.877  67.879  1.00  0.00    -0.232 A  
HETATM   22  C   UNL     1      -9.742  11.513  67.786  1.00  0.00    -0.180 A  
HETATM   23  C   UNL     1     -10.794  10.445  67.613  1.00  0.00    -0.306 C  
HETATM   24  C   UNL     1      -8.399  11.157  67.852  1.00  0.00    -0.129 A  
HETATM   25  F   UNL     1     -10.610   9.714  66.477  1.00  0.00    -0.296 F  
HETATM   26  F   UNL     1     -10.794   9.544  68.635  1.00  0.00    -0.239 F  
HETATM   27  F   UNL     1     -12.066  10.926  67.542  1.00  0.00    -0.112 F  
HETATM   28  C   UNL     1      -7.437  12.150  67.997  1.00  0.00    -0.116 A  
ENDBRANCH  10  11
ENDBRANCH   9  10
ENDBRANCH   8   9
ENDBRANCH   5   8
TORSDOF 4
ENDMDL
MODEL       73
REMARK 921   NORMALIZED FREE ENERGY PREDICTED BY IDOCK:   -5.83 KCAL/MOL
REMARK 922        TOTAL FREE ENERGY PREDICTED BY IDOCK:   -7.61 KCAL/MOL
REMARK 923 INTER-LIGAND FREE ENERGY PREDICTED BY IDOCK:   -6.91 KCAL/MOL
REMARK 924 INTRA-LIGAND FREE ENERGY PREDICTED BY IDOCK:   -0.70 KCAL/MOL
REMARK 927      BINDING AFFINITY PREDICTED BY RF-SCORE:    0.00 PKD
ROOT
HETATM    1  C   UNL     1      -7.643   5.890  72.339  1.00  0.00    -0.101 C  
HETATM    2  N   UNL     1      -9.033   5.969  71.891  1.00  0.00    -0.138 NA 
HETATM    3  C   UNL     1      -9.902   6.489  72.968  1.00  0.00    -0.166 C  
HETATM    4  C   UNL     1      -9.751   8.005  73.227  1.00  0.00    -0.238 C  
HETATM    5  N   UNL     1      -9.947   8.845  72.028  1.00  0.00    -0.322 NA 
HETATM    6  C   UNL     1      -9.051   8.349  70.956  1.00  0.00    -0.165 C  
HETATM    7  C   UNL     1      -9.154   6.825  70.691  1.00  0.00    -0.155 C  
ENDROOT
BRANCH   5   8
HETATM    8  C   UNL     1     -11.340   8.852  71.551  1.00  0.00    -0.325 C  
BRANCH   8   9
HETATM    9  C   UNL     1     -11.907  10.250  71.312  1.00  0.00    -0.425 C  
BRANCH   9  10
HETATM   10  C   UNL     1     -12.492  10.460  69.906  1.00  0.00    -0.056 C  
BRANCH  10  11
HETATM   11  N   UNL     1     -11.513  11.031  68.940  1.00  0.00    -0.270 NA 
HETATM   12  C   UNL     1     -11.456  12.464  68.909  1.00  0.00    -0.307 A  
HETATM   13  C   UNL     1     -11.982  13.261  69.956  1.00  0.00    -0.399 A  
HETATM   14  C   UNL     1     -12.065  14.654  69.883  1.00  0.00    -0.385 A  
HETATM   15  C   UNL     1     -11.564  15.315  68.777  1.00  0.00    -0.379 A  
HETATM   16  C   UNL     1     -10.963  14.573  67.766  1.00  0.00    -0.282 A  
HETATM   17  C   UNL     1     -10.901  13.166  67.825  1.00  0.00    -0.244 A  
HETATM   18  S   UNL     1     -10.111  12.389  66.443  1.00  0.00    -0.241 SA 
HETATM   19  C   UNL     1     -10.295  10.662  66.810  1.00  0.00    -0.245 A  
HETATM   20  C   UNL     1     -10.955  10.162  67.954  1.00  0.00    -0.277 A  
HETATM   21  C   UNL     1     -11.003   8.749  68.054  1.00  0.00     0.066 A  
HETATM   22  C   UNL     1     -10.476   7.875  67.078  1.00  0.00    -0.419 A  
HETATM   23  C   UNL     1     -10.596   6.377  67.219  1.00  0.00    -0.314 C  
HETATM   24  C   UNL     1      -9.840   8.416  65.966  1.00  0.00    -0.082 A  
HETATM   25  F   UNL     1     -11.261   5.808  66.174  1.00  0.00    -0.225 F  
HETATM   26  F   UNL     1      -9.383   5.760  67.265  1.00  0.00    -0.115 F  
HETATM   27  F   UNL     1     -11.258   5.977  68.341  1.00  0.00    -0.366 F  
HETATM   28  C   UNL     1      -9.748   9.797  65.839  1.00  0.00    -0.332 A  
ENDBRANCH  10  11
ENDBRANCH   9  10
ENDBRANCH   8   9
ENDBRANCH   5   8
TORSDOF 4
ENDMDL
MODEL       74
REMARK 921   NORMALIZED FREE ENERGY PREDICTED BY IDOCK:   -5.78 KCAL/MOL
REMARK 922        TOTAL FREE ENERGY PREDICTED BY IDOCK:   -7.54 KCAL/MOL
REMARK 923 INTER-LIGAND FREE ENERGY PREDICTED BY IDOCK:   -7.06 KCAL/MOL
REMARK 924 INTRA-LIGAND FREE ENERGY PREDICTED BY IDOCK:   -0.48 KCAL/MOL
REMARK 927      BINDING AFFINITY PREDICTED BY RF-SCORE:    0.00 PKD
ROOT
HETATM    1  C   UNL     1      -5.491   7.102  62.859  1.00  0.00    -0.034 C  
HETATM    2  N   UNL     1      -6.881   7.020  63.304  1.00  0.00    -0.051 NA 
HETATM    3  C   UNL     1      -6.959   6.994  64.780  1.00  0.00    -0.055 C  
HETATM    4  C   UNL     1      -6.675   8.356  65.453  1.00  0.00    -0.056 C  
HETATM    5  N   UNL     1      -7.526   9.460  64.965  1.00  0.00    -0.103 NA 
HETATM    6  C   UNL     1      -7.424   9.512  63.487  1.00  0.00    -0.114 C  
HETATM    7  C   UNL     1      -7.672   8.155  62.780  1.00  0.00    -0.133 C  
ENDROOT
BRANCH   5   8
HETATM    8  C   UNL     1      -8.936   9.319  65.364  1.00  0.00    -0.207 C  
BRANCH   8   9
HETATM    9  C   UNL     1      -9.145   9.195  66.872  1.00  0.00    -0.163 C  
BRANCH   9  10
HETATM   10  C   UNL     1     -10.618   9.240  67.310  1.00  0.00    -0.233 C  
BRANCH  10  11
HETATM   11  N   UNL     1     -10.885  10.244  68.377  1.00  0.00    -0.229 NA 
HETATM   12  C   UNL     1     -11.127   9.695  69.680  1.00  0.00    -0.193 A  
HETATM   13  C   UNL     1     -10.765   8.366  70.016  1.00  0.00    -0.236 A  
HETATM   14  C   UNL     1     -11.117   7.766  71.228  1.00  0.00    -0.271 A  
HETATM   15  C   UNL     1     -11.795   8.498  72.185  1.00  0.00    -0.448 A  
HETATM   16  C   UNL     1     -12.094   9.831  71.926  1.00  0.00    -0.331 A  
HETATM   17  C   UNL     1     -11.764  10.431  70.694  1.00  0.00    -0.351 A  
HETATM   18  S   UNL     1     -12.232  12.133  70.536  1.00  0.00    -0.205 SA 
HETATM   19  C   UNL     1     -11.752  12.516  68.871  1.00  0.00    -0.322 A  
HETATM   20  C   UNL     1     -11.167  11.587  67.982  1.00  0.00    -0.269 A  
HETATM   21  C   UNL     1     -10.869  12.091  66.691  1.00  0.00    -0.311 A  
HETATM   22  C   UNL     1     -11.161  13.409  66.277  1.00  0.00    -0.322 A  
HETATM   23  C   UNL     1     -10.860  13.875  64.874  1.00  0.00    -0.405 C  
HETATM   24  C   UNL     1     -11.743  14.285  67.188  1.00  0.00    -0.430 A  
HETATM   25  F   UNL     1     -11.975  14.309  64.220  1.00  0.00    -0.418 F  
HETATM   26  F   UNL     1      -9.988  14.921  64.850  1.00  0.00    -0.379 F  
HETATM   27  F   UNL     1     -10.311  12.917  64.077  1.00  0.00    -0.388 F  
HETATM   28  C   UNL     1     -12.030  13.840  68.473  1.00  0.00    -0.402 A  
ENDBRANCH  10  11
ENDBRANCH   9  10
ENDBRANCH   8   9
ENDBRANCH   5   8
TORSDOF 4
ENDMDL
MODEL       75
REMARK 921   NORMALIZED FREE ENERGY PREDICTED BY IDOCK:   -5.76 KCAL/MOL
REMARK 922        TOTAL FREE ENERGY PREDICTED BY IDOCK:   -7.53 KCAL/MOL
REMARK 923 INTER-LIGAND FREE ENERGY PREDICTED BY IDOCK:   -7.07 KCAL/MOL
REMARK 924 INTRA-LIGAND FREE ENERGY PREDICTED BY IDOCK:   -0.46 KCAL/MOL
REMARK 927      BINDING AFFINITY PREDICTED BY RF-SCORE:    0.00 PKD
ROOT
HETATM    1  C   UNL     1      -8.104  18.383  67.965  1.00  0.00    -0.274 C  
HETATM    2  N   UNL     1      -9.036  17.906  68.986  1.00  0.00    -0.089 NA 
HETATM    3  C   UNL     1     -10.435  18.087  68.545  1.00  0.00    -0.280 C  
HETATM    4  C   UNL     1     -10.890  17.085  67.459  1.00  0.00    -0.203 C  
HETATM    5  N   UNL     1     -10.700  15.667  67.828  1.00  0.00    -0.290 NA 
HETATM    6  C   UNL     1      -9.289  15.474  68.239  1.00  0.00    -0.192 C  
HETATM    7  C   UNL     1      -8.789  16.483  69.305  1.00  0.00    -0.073 C  
ENDROOT
BRANCH   5   8
HETATM    8  C   UNL     1     -11.600  15.229  68.909  1.00  0.00    -0.347 C  
BRANCH   8   9
HETATM    9  C   UNL     1     -11.488  13.742  69.244  1.00  0.00    -0.344 C  
BRANCH   9  10
HETATM   10  C   UNL     1     -12.268  12.822  68.293  1.00  0.00     0.072 C  
BRANCH  10  11
HETATM   11  N   UNL     1     -11.397  12.109  67.317  1.00  0.00    -0.311 NA 
HETATM   12  C   UNL     1     -11.486  12.583  65.965  1.00  0.00    -0.377 A  
HETATM   13  C   UNL     1     -12.039  13.849  65.646  1.00  0.00    -0.442 A  
HETATM   14  C   UNL     1     -12.265  14.270  64.333  1.00  0.00    -0.471 A  
HETATM   15  C   UNL     1     -11.884  13.462  63.278  1.00  0.00    -0.199 A  
HETATM   16  C   UNL     1     -11.260  12.250  63.550  1.00  0.00    -0.535 A  
HETATM   17  C   UNL     1     -11.055  11.810  64.873  1.00  0.00    -0.285 A  
HETATM   18  S   UNL     1     -10.256  10.236  65.029  1.00  0.00    -0.080 SA 
HETATM   19  C   UNL     1     -10.249   9.975  66.784  1.00  0.00    -0.232 A  
HETATM   20  C   UNL     1     -10.801  10.876  67.721  1.00  0.00    -0.259 A  
HETATM   21  C   UNL     1     -10.703  10.474  69.077  1.00  0.00    -0.259 A  
HETATM   22  C   UNL     1     -10.137   9.249  69.492  1.00  0.00    -0.205 A  
HETATM   23  C   UNL     1     -10.100   8.856  70.949  1.00  0.00    -0.241 C  
HETATM   24  C   UNL     1      -9.611   8.392  68.531  1.00  0.00    -0.155 A  
HETATM   25  F   UNL     1     -10.752   7.683  71.188  1.00  0.00    -0.222 F  
HETATM   26  F   UNL     1      -8.830   8.672  71.405  1.00  0.00    -0.176 F  
HETATM   27  F   UNL     1     -10.665   9.771  71.785  1.00  0.00    -0.345 F  
HETATM   28  C   UNL     1      -9.664   8.758  67.191  1.00  0.00    -0.248 A  
ENDBRANCH  10  11
ENDBRANCH   9  10
ENDBRANCH   8   9
ENDBRANCH   5   8
TORSDOF 4
ENDMDL
MODEL       76
REMARK 921   NORMALIZED FREE ENERGY PREDICTED BY IDOCK:   -5.73 KCAL/MOL
REMARK 922        TOTAL FREE ENERGY PREDICTED BY IDOCK:   -7.49 KCAL/MOL
REMARK 923 INTER-LIGAND FREE ENERGY PREDICTED BY IDOCK:   -6.88 KCAL/MOL
REMARK 924 INTRA-LIGAND FREE ENERGY PREDICTED BY IDOCK:   -0.61 KCAL/MOL
REMARK 927      BINDING AFFINITY PREDICTED BY RF-SCORE:    0.00 PKD
ROOT
HETATM    1  C   UNL     1     -12.762   7.648  71.775  1.00  0.00    -0.330 C  
HETATM    2  N   UNL     1     -11.335   7.970  71.776  1.00  0.00    -0.258 NA 
HETATM    3  C   UNL     1     -10.592   7.059  70.880  1.00  0.00    -0.217 C  
HETATM    4  C   UNL     1     -10.799   7.343  69.375  1.00  0.00    -0.171 C  
HETATM    5  N   UNL     1     -10.499   8.733  68.975  1.00  0.00    -0.216 NA 
HETATM    6  C   UNL     1     -11.271   9.649  69.849  1.00  0.00    -0.207 C  
HETATM    7  C   UNL     1     -11.110   9.373  71.365  1.00  0.00    -0.380 C  
ENDROOT
BRANCH   5   8
HETATM    8  C   UNL     1      -9.065   9.057  69.053  1.00  0.00    -0.143 C  
BRANCH   8   9
HETATM    9  C   UNL     1      -8.771  10.553  69.142  1.00  0.00    -0.155 C  
BRANCH   9  10
HETATM   10  C   UNL     1      -8.288  11.179  67.823  1.00  0.00    -0.123 C  
BRANCH  10  11
HETATM   11  N   UNL     1      -9.343  11.227  66.773  1.00  0.00    -0.174 NA 
HETATM   12  C   UNL     1      -9.058  10.464  65.592  1.00  0.00    -0.176 A  
HETATM   13  C   UNL     1      -8.066   9.452  65.571  1.00  0.00    -0.116 A  
HETATM   14  C   UNL     1      -7.674   8.796  64.400  1.00  0.00    -0.123 A  
HETATM   15  C   UNL     1      -8.308   9.085  63.206  1.00  0.00    -0.189 A  
HETATM   16  C   UNL     1      -9.345  10.012  63.202  1.00  0.00    -0.297 A  
HETATM   17  C   UNL     1      -9.724  10.694  64.376  1.00  0.00    -0.311 A  
HETATM   18  S   UNL     1     -11.056  11.847  64.180  1.00  0.00    -0.402 SA 
HETATM   19  C   UNL     1     -11.194  12.561  65.799  1.00  0.00    -0.320 A  
HETATM   20  C   UNL     1     -10.364  12.219  66.888  1.00  0.00    -0.216 A  
HETATM   21  C   UNL     1     -10.631  12.916  68.094  1.00  0.00    -0.249 A  
HETATM   22  C   UNL     1     -11.621  13.914  68.220  1.00  0.00    -0.372 A  
HETATM   23  C   UNL     1     -11.830  14.652  69.519  1.00  0.00    -0.330 C  
HETATM   24  C   UNL     1     -12.410  14.220  67.115  1.00  0.00    -0.169 A  
HETATM   25  F   UNL     1     -11.667  15.999  69.384  1.00  0.00    -0.317 F  
HETATM   26  F   UNL     1     -13.085  14.480  70.018  1.00  0.00    -0.301 F  
HETATM   27  F   UNL     1     -10.980  14.275  70.514  1.00  0.00    -0.115 F  
HETATM   28  C   UNL     1     -12.199  13.544  65.919  1.00  0.00    -0.507 A  
ENDBRANCH  10  11
ENDBRANCH   9  10
ENDBRANCH   8   9
ENDBRANCH   5   8
TORSDOF 4
ENDMDL
MODEL       77
REMARK 921   NORMALIZED FREE ENERGY PREDICTED BY IDOCK:   -5.69 KCAL/MOL
REMARK 922        TOTAL FREE ENERGY PREDICTED BY IDOCK:   -7.44 KCAL/MOL
REMARK 923 INTER-LIGAND FREE ENERGY PREDICTED BY IDOCK:   -6.95 KCAL/MOL
REMARK 924 INTRA-LIGAND FREE ENERGY PREDICTED BY IDOCK:   -0.49 KCAL/MOL
REMARK 927      BINDING AFFINITY PREDICTED BY RF-SCORE:    0.00 PKD
ROOT
HETATM    1  C   UNL     1      -6.117  16.040  67.456  1.00  0.00    -0.159 C  
HETATM    2  N   UNL     1      -6.600  15.214  68.563  1.00  0.00    -0.095 NA 
HETATM    3  C   UNL     1      -8.051  14.964  68.436  1.00  0.00    -0.137 C  
HETATM    4  C   UNL     1      -8.424  13.950  67.331  1.00  0.00    -0.199 C  
HETATM    5  N   UNL     1      -7.738  12.647  67.450  1.00  0.00    -0.161 NA 
HETATM    6  C   UNL     1      -6.279  12.892  67.542  1.00  0.00    -0.152 C  
HETATM    7  C   UNL     1      -5.871  13.928  68.621  1.00  0.00    -0.088 C  
ENDROOT
BRANCH   5   8
HETATM    8  C   UNL     1      -8.188  11.864  68.613  1.00  0.00    -0.072 C  
BRANCH   8   9
HETATM    9  C   UNL     1      -8.825  10.524  68.250  1.00  0.00    -0.139 C  
BRANCH   9  10
HETATM   10  C   UNL     1     -10.362  10.539  68.246  1.00  0.00    -0.168 C  
BRANCH  10  11
HETATM   11  N   UNL     1     -10.959  10.163  69.557  1.00  0.00    -0.242 NA 
HETATM   12  C   UNL     1     -11.006   8.754  69.822  1.00  0.00    -0.140 A  
HETATM   13  C   UNL     1     -10.215   7.826  69.099  1.00  0.00    -0.210 A  
HETATM   14  C   UNL     1     -10.348   6.442  69.241  1.00  0.00    -0.248 A  
HETATM   15  C   UNL     1     -11.238   5.929  70.165  1.00  0.00    -0.338 A  
HETATM   16  C   UNL     1     -11.971   6.809  70.954  1.00  0.00    -0.437 A  
HETATM   17  C   UNL     1     -11.859   8.205  70.795  1.00  0.00    -0.159 A  
HETATM   18  S   UNL     1     -12.876   9.170  71.877  1.00  0.00    -0.426 SA 
HETATM   19  C   UNL     1     -12.548  10.831  71.343  1.00  0.00    -0.410 A  
HETATM   20  C   UNL     1     -11.679  11.163  70.281  1.00  0.00    -0.341 A  
HETATM   21  C   UNL     1     -11.565  12.548  70.005  1.00  0.00    -0.207 A  
HETATM   22  C   UNL     1     -12.284  13.548  70.694  1.00  0.00    -0.434 A  
HETATM   23  C   UNL     1     -12.154  15.005  70.325  1.00  0.00    -0.329 C  
HETATM   24  C   UNL     1     -13.133  13.169  71.729  1.00  0.00    -0.478 A  
HETATM   25  F   UNL     1     -13.347  15.560  69.968  1.00  0.00    -0.154 F  
HETATM   26  F   UNL     1     -11.688  15.763  71.357  1.00  0.00    -0.328 F  
HETATM   27  F   UNL     1     -11.309  15.240  69.283  1.00  0.00    -0.237 F  
HETATM   28  C   UNL     1     -13.257  11.823  72.051  1.00  0.00    -0.460 A  
ENDBRANCH  10  11
ENDBRANCH   9  10
ENDBRANCH   8   9
ENDBRANCH   5   8
TORSDOF 4
ENDMDL
MODEL       78
REMARK 921   NORMALIZED FREE ENERGY PREDICTED BY IDOCK:   -5.69 KCAL/MOL
REMARK 922        TOTAL FREE ENERGY PREDICTED BY IDOCK:   -7.43 KCAL/MOL
REMARK 923 INTER-LIGAND FREE ENERGY PREDICTED BY IDOCK:   -6.91 KCAL/MOL
REMARK 924 INTRA-LIGAND FREE ENERGY PREDICTED BY IDOCK:   -0.53 KCAL/MOL
REMARK 927      BINDING AFFINITY PREDICTED BY RF-SCORE:    0.00 PKD
ROOT
HETATM    1  C   UNL     1     -11.598   6.232  72.063  1.00  0.00    -0.322 C  
HETATM    2  N   UNL     1     -11.884   6.953  70.823  1.00  0.00    -0.367 NA 
HETATM    3  C   UNL     1     -11.475   8.369  70.934  1.00  0.00    -0.267 C  
HETATM    4  C   UNL     1      -9.947   8.593  70.878  1.00  0.00    -0.206 C  
HETATM    5  N   UNL     1      -9.295   8.015  69.685  1.00  0.00    -0.156 NA 
HETATM    6  C   UNL     1      -9.675   6.586  69.590  1.00  0.00    -0.156 C  
HETATM    7  C   UNL     1     -11.200   6.322  69.674  1.00  0.00    -0.437 C  
ENDROOT
BRANCH   5   8
HETATM    8  C   UNL     1      -9.655   8.712  68.438  1.00  0.00    -0.147 C  
BRANCH   8   9
HETATM    9  C   UNL     1      -9.464  10.227  68.497  1.00  0.00    -0.158 C  
BRANCH   9  10
HETATM   10  C   UNL     1      -8.399  10.765  67.527  1.00  0.00    -0.115 C  
BRANCH  10  11
HETATM   11  N   UNL     1      -8.291  12.250  67.536  1.00  0.00    -0.159 NA 
HETATM   12  C   UNL     1      -7.398  12.788  68.521  1.00  0.00    -0.115 A  
HETATM   13  C   UNL     1      -6.417  11.992  69.162  1.00  0.00    -0.099 A  
HETATM   14  C   UNL     1      -5.634  12.457  70.223  1.00  0.00    -0.156 A  
HETATM   15  C   UNL     1      -5.759  13.768  70.644  1.00  0.00    -0.182 A  
HETATM   16  C   UNL     1      -6.651  14.605  69.984  1.00  0.00    -0.161 A  
HETATM   17  C   UNL     1      -7.461  14.131  68.932  1.00  0.00    -0.112 A  
HETATM   18  S   UNL     1      -8.547  15.335  68.216  1.00  0.00    -0.165 SA 
HETATM   19  C   UNL     1      -9.449  14.383  67.020  1.00  0.00    -0.248 A  
HETATM   20  C   UNL     1      -9.264  13.000  66.806  1.00  0.00    -0.228 A  
HETATM   21  C   UNL     1     -10.094  12.426  65.811  1.00  0.00    -0.273 A  
HETATM   22  C   UNL     1     -11.075  13.146  65.097  1.00  0.00    -0.308 A  
HETATM   23  C   UNL     1     -11.960  12.470  64.079  1.00  0.00    -0.454 C  
HETATM   24  C   UNL     1     -11.224  14.507  65.348  1.00  0.00    -0.342 A  
HETATM   25  F   UNL     1     -13.284  12.587  64.381  1.00  0.00    -0.400 F  
HETATM   26  F   UNL     1     -11.818  13.000  62.832  1.00  0.00    -0.540 F  
HETATM   27  F   UNL     1     -11.728  11.135  63.943  1.00  0.00    -0.318 F  
HETATM   28  C   UNL     1     -10.413  15.117  66.297  1.00  0.00    -0.312 A  
ENDBRANCH  10  11
ENDBRANCH   9  10
ENDBRANCH   8   9
ENDBRANCH   5   8
TORSDOF 4
ENDMDL
MODEL       79
REMARK 921   NORMALIZED FREE ENERGY PREDICTED BY IDOCK:   -5.66 KCAL/MOL
REMARK 922        TOTAL FREE ENERGY PREDICTED BY IDOCK:   -7.40 KCAL/MOL
REMARK 923 INTER-LIGAND FREE ENERGY PREDICTED BY IDOCK:   -6.82 KCAL/MOL
REMARK 924 INTRA-LIGAND FREE ENERGY PREDICTED BY IDOCK:   -0.58 KCAL/MOL
REMARK 927      BINDING AFFINITY PREDICTED BY RF-SCORE:    0.00 PKD
ROOT
HETATM    1  C   UNL     1     -11.758   7.482  72.575  1.00  0.00    -0.263 C  
HETATM    2  N   UNL     1     -12.238   7.805  71.232  1.00  0.00    -0.311 NA 
HETATM    3  C   UNL     1     -13.221   8.908  71.277  1.00  0.00    -0.185 C  
HETATM    4  C   UNL     1     -12.599  10.299  71.543  1.00  0.00    -0.440 C  
HETATM    5  N   UNL     1     -11.527  10.672  70.598  1.00  0.00    -0.326 NA 
HETATM    6  C   UNL     1     -10.522   9.583  70.576  1.00  0.00    -0.296 C  
HETATM    7  C   UNL     1     -11.114   8.170  70.342  1.00  0.00    -0.239 C  
ENDROOT
BRANCH   5   8
HETATM    8  C   UNL     1     -12.024  10.921  69.234  1.00  0.00    -0.310 C  
BRANCH   8   9
HETATM    9  C   UNL     1     -11.897  12.376  68.784  1.00  0.00    -0.358 C  
BRANCH   9  10
HETATM   10  C   UNL     1     -10.464  12.802  68.428  1.00  0.00    -0.243 C  
BRANCH  10  11
HETATM   11  N   UNL     1      -9.985  12.237  67.136  1.00  0.00    -0.204 NA 
HETATM   12  C   UNL     1     -10.724  12.654  65.979  1.00  0.00    -0.269 A  
HETATM   13  C   UNL     1     -11.572  13.790  65.998  1.00  0.00    -0.361 A  
HETATM   14  C   UNL     1     -12.408  14.132  64.931  1.00  0.00    -0.446 A  
HETATM   15  C   UNL     1     -12.380  13.382  63.770  1.00  0.00    -0.418 A  
HETATM   16  C   UNL     1     -11.500  12.310  63.682  1.00  0.00    -0.572 A  
HETATM   17  C   UNL     1     -10.675  11.946  64.766  1.00  0.00    -0.307 A  
HETATM   18  S   UNL     1      -9.625  10.548  64.478  1.00  0.00    -0.329 SA 
HETATM   19  C   UNL     1      -8.822  10.335  66.046  1.00  0.00    -0.149 A  
HETATM   20  C   UNL     1      -9.068  11.142  67.178  1.00  0.00    -0.147 A  
HETATM   21  C   UNL     1      -8.331  10.797  68.339  1.00  0.00    -0.132 A  
HETATM   22  C   UNL     1      -7.438   9.706  68.405  1.00  0.00    -0.080 A  
HETATM   23  C   UNL     1      -6.713   9.361  69.683  1.00  0.00    -0.048 C  
HETATM   24  C   UNL     1      -7.233   8.936  67.264  1.00  0.00    -0.083 A  
HETATM   25  F   UNL     1      -6.985   8.095  70.109  1.00  0.00    -0.039 F  
HETATM   26  F   UNL     1      -5.359   9.422  69.545  1.00  0.00    -0.034 F  
HETATM   27  F   UNL     1      -7.016  10.178  70.730  1.00  0.00    -0.125 F  
HETATM   28  C   UNL     1      -7.917   9.254  66.096  1.00  0.00    -0.107 A  
ENDBRANCH  10  11
ENDBRANCH   9  10
ENDBRANCH   8   9
ENDBRANCH   5   8
TORSDOF 4
ENDMDL
MODEL       80
REMARK 921   NORMALIZED FREE ENERGY PREDICTED BY IDOCK:   -5.65 KCAL/MOL
REMARK 922        TOTAL FREE ENERGY PREDICTED BY IDOCK:   -7.39 KCAL/MOL
REMARK 923 INTER-LIGAND FREE ENERGY PREDICTED BY IDOCK:   -6.80 KCAL/MOL
REMARK 924 INTRA-LIGAND FREE ENERGY PREDICTED BY IDOCK:   -0.59 KCAL/MOL
REMARK 927      BINDING AFFINITY PREDICTED BY RF-SCORE:    0.00 PKD
ROOT
HETATM    1  C   UNL     1     -14.098  15.068  72.403  1.00  0.00    -0.476 C  
HETATM    2  N   UNL     1     -12.772  14.462  72.292  1.00  0.00    -0.328 NA 
HETATM    3  C   UNL     1     -12.632  13.735  71.013  1.00  0.00    -0.371 C  
HETATM    4  C   UNL     1     -12.472  14.651  69.779  1.00  0.00    -0.205 C  
HETATM    5  N   UNL     1     -11.361  15.618  69.885  1.00  0.00    -0.306 NA 
HETATM    6  C   UNL     1     -11.517  16.374  71.150  1.00  0.00    -0.204 C  
HETATM    7  C   UNL     1     -11.711  15.487  72.406  1.00  0.00    -0.471 C  
ENDROOT
BRANCH   5   8
HETATM    8  C   UNL     1     -10.035  14.978  69.844  1.00  0.00    -0.005 C  
BRANCH   8   9
HETATM    9  C   UNL     1      -9.102  15.550  68.779  1.00  0.00    -0.207 C  
BRANCH   9  10
HETATM   10  C   UNL     1      -8.412  14.487  67.909  1.00  0.00    -0.161 C  
BRANCH  10  11
HETATM   11  N   UNL     1      -9.367  13.657  67.125  1.00  0.00    -0.231 NA 
HETATM   12  C   UNL     1     -10.141  14.376  66.154  1.00  0.00    -0.309 A  
HETATM   13  C   UNL     1      -9.770  15.667  65.702  1.00  0.00    -0.348 A  
HETATM   14  C   UNL     1     -10.580  16.442  64.867  1.00  0.00    -0.116 A  
HETATM   15  C   UNL     1     -11.773  15.926  64.398  1.00  0.00    -0.179 A  
HETATM   16  C   UNL     1     -12.132  14.630  64.751  1.00  0.00    -0.428 A  
HETATM   17  C   UNL     1     -11.330  13.856  65.614  1.00  0.00    -0.309 A  
HETATM   18  S   UNL     1     -11.950  12.233  65.964  1.00  0.00    -0.127 SA 
HETATM   19  C   UNL     1     -10.760  11.603  67.120  1.00  0.00    -0.247 A  
HETATM   20  C   UNL     1      -9.644  12.333  67.584  1.00  0.00    -0.191 A  
HETATM   21  C   UNL     1      -8.821  11.651  68.516  1.00  0.00    -0.131 A  
HETATM   22  C   UNL     1      -9.092  10.353  68.998  1.00  0.00    -0.193 A  
HETATM   23  C   UNL     1      -8.202   9.695  70.024  1.00  0.00    -0.184 C  
HETATM   24  C   UNL     1     -10.207   9.676  68.514  1.00  0.00    -0.216 A  
HETATM   25  F   UNL     1      -8.877   9.358  71.159  1.00  0.00    -0.256 F  
HETATM   26  F   UNL     1      -7.648   8.537  69.566  1.00  0.00    -0.079 F  
HETATM   27  F   UNL     1      -7.157  10.469  70.430  1.00  0.00    -0.161 F  
HETATM   28  C   UNL     1     -11.028  10.297  67.580  1.00  0.00    -0.356 A  
ENDBRANCH  10  11
ENDBRANCH   9  10
ENDBRANCH   8   9
ENDBRANCH   5   8
TORSDOF 4
ENDMDL
MODEL       81
REMARK 921   NORMALIZED FREE ENERGY PREDICTED BY IDOCK:   -5.64 KCAL/MOL
REMARK 922        TOTAL FREE ENERGY PREDICTED BY IDOCK:   -7.37 KCAL/MOL
REMARK 923 INTER-LIGAND FREE ENERGY PREDICTED BY IDOCK:   -7.01 KCAL/MOL
REMARK 924 INTRA-LIGAND FREE ENERGY PREDICTED BY IDOCK:   -0.36 KCAL/MOL
REMARK 927      BINDING AFFINITY PREDICTED BY RF-SCORE:    0.00 PKD
ROOT
HETATM    1  C   UNL     1     -11.933  15.453  64.267  1.00  0.00    -0.188 C  
HETATM    2  N   UNL     1     -12.481  14.136  64.589  1.00  0.00    -0.638 NA 
HETATM    3  C   UNL     1     -11.919  13.102  63.695  1.00  0.00    -0.514 C  
HETATM    4  C   UNL     1     -10.453  12.724  64.006  1.00  0.00    -0.406 C  
HETATM    5  N   UNL     1     -10.222  12.304  65.403  1.00  0.00    -0.266 NA 
HETATM    6  C   UNL     1     -10.752  13.356  66.303  1.00  0.00    -0.287 C  
HETATM    7  C   UNL     1     -12.211  13.781  65.999  1.00  0.00    -0.457 C  
ENDROOT
BRANCH   5   8
HETATM    8  C   UNL     1     -10.845  11.009  65.726  1.00  0.00    -0.097 C  
BRANCH   8   9
HETATM    9  C   UNL     1      -9.885   9.823  65.648  1.00  0.00    -0.371 C  
BRANCH   9  10
HETATM   10  C   UNL     1      -9.262   9.427  66.996  1.00  0.00    -0.142 C  
BRANCH  10  11
HETATM   11  N   UNL     1     -10.102   8.478  67.778  1.00  0.00    -0.198 NA 
HETATM   12  C   UNL     1     -10.763   9.048  68.916  1.00  0.00    -0.123 A  
HETATM   13  C   UNL     1     -10.928  10.448  69.068  1.00  0.00    -0.282 A  
HETATM   14  C   UNL     1     -11.440  11.031  70.230  1.00  0.00    -0.363 A  
HETATM   15  C   UNL     1     -11.871  10.227  71.269  1.00  0.00    -0.425 A  
HETATM   16  C   UNL     1     -11.804   8.846  71.124  1.00  0.00    -0.353 A  
HETATM   17  C   UNL     1     -11.263   8.255  69.964  1.00  0.00    -0.081 A  
HETATM   18  S   UNL     1     -11.248   6.484  69.958  1.00  0.00    -0.415 SA 
HETATM   19  C   UNL     1     -10.437   6.106  68.425  1.00  0.00    -0.231 A  
HETATM   20  C   UNL     1      -9.950   7.080  67.526  1.00  0.00    -0.156 A  
HETATM   21  C   UNL     1      -9.322   6.569  66.362  1.00  0.00    -0.175 A  
HETATM   22  C   UNL     1      -9.144   5.192  66.108  1.00  0.00    -0.144 A  
HETATM   23  C   UNL     1      -8.429   4.709  64.871  1.00  0.00    -0.135 C  
HETATM   24  C   UNL     1      -9.637   4.271  67.027  1.00  0.00    -0.227 A  
HETATM   25  F   UNL     1      -7.336   3.948  65.165  1.00  0.00    -0.063 F  
HETATM   26  F   UNL     1      -9.221   3.928  64.084  1.00  0.00    -0.122 F  
HETATM   27  F   UNL     1      -7.977   5.709  64.065  1.00  0.00    -0.093 F  
HETATM   28  C   UNL     1     -10.281   4.727  68.171  1.00  0.00    -0.058 A  
ENDBRANCH  10  11
ENDBRANCH   9  10
ENDBRANCH   8   9
ENDBRANCH   5   8
TORSDOF 4
ENDMDL
MODEL       82
REMARK 921   NORMALIZED FREE ENERGY PREDICTED BY IDOCK:   -5.64 KCAL/MOL
REMARK 922        TOTAL FREE ENERGY PREDICTED BY IDOCK:   -7.37 KCAL/MOL
REMARK 923 INTER-LIGAND FREE ENERGY PREDICTED BY IDOCK:   -7.38 KCAL/MOL
REMARK 924 INTRA-LIGAND FREE ENERGY PREDICTED BY IDOCK:    0.01 KCAL/MOL
REMARK 927      BINDING AFFINITY PREDICTED BY RF-SCORE:    0.00 PKD
ROOT
HETATM    1  C   UNL     1     -10.049  11.093  62.852  1.00  0.00    -0.190 C  
HETATM    2  N   UNL     1     -10.746  11.216  64.131  1.00  0.00    -0.374 NA 
HETATM    3  C   UNL     1     -10.026  12.137  65.035  1.00  0.00    -0.220 C  
HETATM    4  C   UNL     1     -10.162  13.630  64.657  1.00  0.00    -0.311 C  
HETATM    5  N   UNL     1     -11.558  14.097  64.536  1.00  0.00    -0.391 NA 
HETATM    6  C   UNL     1     -12.275  13.196  63.603  1.00  0.00    -0.479 C  
HETATM    7  C   UNL     1     -12.134  11.689  63.935  1.00  0.00    -0.195 C  
ENDROOT
BRANCH   5   8
HETATM    8  C   UNL     1     -12.263  14.143  65.828  1.00  0.00    -0.442 C  
BRANCH   8   9
HETATM    9  C   UNL     1     -11.591  15.036  66.870  1.00  0.00    -0.229 C  
BRANCH   9  10
HETATM   10  C   UNL     1     -10.948  14.268  68.036  1.00  0.00    -0.249 C  
BRANCH  10  11
HETATM   11  N   UNL     1      -9.472  14.449  68.117  1.00  0.00    -0.198 NA 
HETATM   12  C   UNL     1      -8.728  13.256  68.403  1.00  0.00    -0.126 A  
HETATM   13  C   UNL     1      -9.287  11.963  68.238  1.00  0.00    -0.193 A  
HETATM   14  C   UNL     1      -8.634  10.796  68.644  1.00  0.00    -0.151 A  
HETATM   15  C   UNL     1      -7.360  10.871  69.176  1.00  0.00    -0.126 A  
HETATM   16  C   UNL     1      -6.745  12.114  69.275  1.00  0.00    -0.084 A  
HETATM   17  C   UNL     1      -7.411  13.296  68.892  1.00  0.00    -0.023 A  
HETATM   18  S   UNL     1      -6.477  14.787  69.099  1.00  0.00    -0.118 SA 
HETATM   19  C   UNL     1      -7.635  16.042  68.613  1.00  0.00    -0.173 A  
HETATM   20  C   UNL     1      -8.960  15.780  68.202  1.00  0.00    -0.180 A  
HETATM   21  C   UNL     1      -9.726  16.924  67.867  1.00  0.00    -0.254 A  
HETATM   22  C   UNL     1      -9.245  18.247  67.966  1.00  0.00    -0.300 A  
HETATM   23  C   UNL     1     -10.123  19.429  67.636  1.00  0.00    -0.397 C  
HETATM   24  C   UNL     1      -7.934  18.454  68.382  1.00  0.00    -0.325 A  
HETATM   25  F   UNL     1     -10.263  20.283  68.689  1.00  0.00    -0.512 F  
HETATM   26  F   UNL     1      -9.623  20.180  66.616  1.00  0.00    -0.439 F  
HETATM   27  F   UNL     1     -11.389  19.092  67.262  1.00  0.00    -0.467 F  
HETATM   28  C   UNL     1      -7.138  17.359  68.697  1.00  0.00    -0.237 A  
ENDBRANCH  10  11
ENDBRANCH   9  10
ENDBRANCH   8   9
ENDBRANCH   5   8
TORSDOF 4
ENDMDL
MODEL       83
REMARK 921   NORMALIZED FREE ENERGY PREDICTED BY IDOCK:   -5.63 KCAL/MOL
REMARK 922        TOTAL FREE ENERGY PREDICTED BY IDOCK:   -7.36 KCAL/MOL
REMARK 923 INTER-LIGAND FREE ENERGY PREDICTED BY IDOCK:   -6.72 KCAL/MOL
REMARK 924 INTRA-LIGAND FREE ENERGY PREDICTED BY IDOCK:   -0.64 KCAL/MOL
REMARK 927      BINDING AFFINITY PREDICTED BY RF-SCORE:    0.00 PKD
ROOT
HETATM    1  C   UNL     1      -5.375  12.845  68.158  1.00  0.00    -0.085 C  
HETATM    2  N   UNL     1      -6.592  12.180  68.622  1.00  0.00    -0.071 NA 
HETATM    3  C   UNL     1      -7.519  11.938  67.497  1.00  0.00    -0.136 C  
HETATM    4  C   UNL     1      -7.084  10.793  66.553  1.00  0.00    -0.138 C  
HETATM    5  N   UNL     1      -6.839   9.507  67.237  1.00  0.00    -0.082 NA 
HETATM    6  C   UNL     1      -5.882   9.739  68.345  1.00  0.00    -0.043 C  
HETATM    7  C   UNL     1      -6.272  10.901  69.294  1.00  0.00    -0.055 C  
ENDROOT
BRANCH   5   8
HETATM    8  C   UNL     1      -8.070   8.890  67.760  1.00  0.00    -0.106 C  
BRANCH   8   9
HETATM    9  C   UNL     1      -9.211   8.826  66.746  1.00  0.00    -0.211 C  
BRANCH   9  10
HETATM   10  C   UNL     1     -10.564   8.409  67.346  1.00  0.00    -0.243 C  
BRANCH  10  11
HETATM   11  N   UNL     1     -10.770   8.907  68.735  1.00  0.00    -0.146 NA 
HETATM   12  C   UNL     1     -10.829   7.888  69.743  1.00  0.00    -0.202 A  
HETATM   13  C   UNL     1     -10.348   6.574  69.513  1.00  0.00    -0.237 A  
HETATM   14  C   UNL     1     -10.523   5.531  70.427  1.00  0.00    -0.356 A  
HETATM   15  C   UNL     1     -11.133   5.778  71.642  1.00  0.00    -0.290 A  
HETATM   16  C   UNL     1     -11.542   7.073  71.939  1.00  0.00    -0.320 A  
HETATM   17  C   UNL     1     -11.392   8.122  71.009  1.00  0.00    -0.269 A  
HETATM   18  S   UNL     1     -11.980   9.701  71.554  1.00  0.00    -0.409 SA 
HETATM   19  C   UNL     1     -11.716  10.728  70.130  1.00  0.00    -0.339 A  
HETATM   20  C   UNL     1     -11.179  10.264  68.909  1.00  0.00    -0.207 A  
HETATM   21  C   UNL     1     -11.061  11.244  67.891  1.00  0.00    -0.325 A  
HETATM   22  C   UNL     1     -11.479  12.583  68.039  1.00  0.00    -0.368 A  
HETATM   23  C   UNL     1     -11.368  13.570  66.903  1.00  0.00    -0.326 C  
HETATM   24  C   UNL     1     -12.008  12.990  69.260  1.00  0.00    -0.331 A  
HETATM   25  F   UNL     1     -12.575  14.103  66.557  1.00  0.00    -0.480 F  
HETATM   26  F   UNL     1     -10.572  14.631  67.211  1.00  0.00    -0.269 F  
HETATM   27  F   UNL     1     -10.855  13.042  65.757  1.00  0.00    -0.274 F  
HETATM   28  C   UNL     1     -12.119  12.069  70.295  1.00  0.00    -0.395 A  
ENDBRANCH  10  11
ENDBRANCH   9  10
ENDBRANCH   8   9
ENDBRANCH   5   8
TORSDOF 4
ENDMDL
MODEL       84
REMARK 921   NORMALIZED FREE ENERGY PREDICTED BY IDOCK:   -5.62 KCAL/MOL
REMARK 922        TOTAL FREE ENERGY PREDICTED BY IDOCK:   -7.35 KCAL/MOL
REMARK 923 INTER-LIGAND FREE ENERGY PREDICTED BY IDOCK:   -6.74 KCAL/MOL
REMARK 924 INTRA-LIGAND FREE ENERGY PREDICTED BY IDOCK:   -0.61 KCAL/MOL
REMARK 927      BINDING AFFINITY PREDICTED BY RF-SCORE:    0.00 PKD
ROOT
HETATM    1  C   UNL     1      -8.876   2.734  65.405  1.00  0.00    -0.131 C  
HETATM    2  N   UNL     1      -9.305   4.010  64.834  1.00  0.00    -0.152 NA 
HETATM    3  C   UNL     1     -10.516   4.510  65.516  1.00  0.00    -0.211 C  
HETATM    4  C   UNL     1     -10.259   5.070  66.933  1.00  0.00    -0.229 C  
HETATM    5  N   UNL     1      -9.228   6.126  66.988  1.00  0.00    -0.120 NA 
HETATM    6  C   UNL     1      -7.999   5.615  66.335  1.00  0.00    -0.101 C  
HETATM    7  C   UNL     1      -8.226   5.018  64.923  1.00  0.00    -0.132 C  
ENDROOT
BRANCH   5   8
HETATM    8  C   UNL     1      -9.653   7.379  66.342  1.00  0.00    -0.114 C  
BRANCH   8   9
HETATM    9  C   UNL     1     -10.395   8.337  67.273  1.00  0.00    -0.372 C  
BRANCH   9  10
HETATM   10  C   UNL     1      -9.519   8.938  68.385  1.00  0.00    -0.140 C  
BRANCH  10  11
HETATM   11  N   UNL     1     -10.273   9.225  69.637  1.00  0.00    -0.198 NA 
HETATM   12  C   UNL     1     -10.531   8.084  70.466  1.00  0.00    -0.214 A  
HETATM   13  C   UNL     1      -9.813   6.870  70.321  1.00  0.00    -0.186 A  
HETATM   14  C   UNL     1     -10.142   5.704  71.018  1.00  0.00    -0.266 A  
HETATM   15  C   UNL     1     -11.170   5.724  71.942  1.00  0.00    -0.289 A  
HETATM   16  C   UNL     1     -11.844   6.918  72.174  1.00  0.00    -0.318 A  
HETATM   17  C   UNL     1     -11.532   8.089  71.453  1.00  0.00    -0.258 A  
HETATM   18  S   UNL     1     -12.500   9.512  71.873  1.00  0.00    -0.371 SA 
HETATM   19  C   UNL     1     -11.906  10.737  70.734  1.00  0.00    -0.339 A  
HETATM   20  C   UNL     1     -10.911  10.497  69.761  1.00  0.00    -0.294 A  
HETATM   21  C   UNL     1     -10.589  11.607  68.940  1.00  0.00    -0.224 A  
HETATM   22  C   UNL     1     -11.225  12.863  69.034  1.00  0.00    -0.320 A  
HETATM   23  C   UNL     1     -10.868  13.995  68.103  1.00  0.00    -0.248 C  
HETATM   24  C   UNL     1     -12.203  13.049  70.006  1.00  0.00    -0.306 A  
HETATM   25  F   UNL     1     -11.939  14.435  67.384  1.00  0.00    -0.380 F  
HETATM   26  F   UNL     1     -10.396  15.087  68.768  1.00  0.00    -0.213 F  
HETATM   27  F   UNL     1      -9.912  13.679  67.186  1.00  0.00    -0.232 F  
HETATM   28  C   UNL     1     -12.535  11.995  70.849  1.00  0.00    -0.384 A  
ENDBRANCH  10  11
ENDBRANCH   9  10
ENDBRANCH   8   9
ENDBRANCH   5   8
TORSDOF 4
ENDMDL
MODEL       85
REMARK 921   NORMALIZED FREE ENERGY PREDICTED BY IDOCK:   -5.62 KCAL/MOL
REMARK 922        TOTAL FREE ENERGY PREDICTED BY IDOCK:   -7.35 KCAL/MOL
REMARK 923 INTER-LIGAND FREE ENERGY PREDICTED BY IDOCK:   -6.79 KCAL/MOL
REMARK 924 INTRA-LIGAND FREE ENERGY PREDICTED BY IDOCK:   -0.56 KCAL/MOL
REMARK 927      BINDING AFFINITY PREDICTED BY RF-SCORE:    0.00 PKD
ROOT
HETATM    1  C   UNL     1     -11.464   6.287  72.719  1.00  0.00    -0.164 C  
HETATM    2  N   UNL     1     -12.073   6.830  71.506  1.00  0.00    -0.347 NA 
HETATM    3  C   UNL     1     -12.435   8.251  71.692  1.00  0.00    -0.320 C  
HETATM    4  C   UNL     1     -11.228   9.217  71.687  1.00  0.00    -0.377 C  
HETATM    5  N   UNL     1     -10.372   9.109  70.488  1.00  0.00    -0.217 NA 
HETATM    6  C   UNL     1      -9.979   7.690  70.318  1.00  0.00    -0.189 C  
HETATM    7  C   UNL     1     -11.163   6.690  70.349  1.00  0.00    -0.344 C  
ENDROOT
BRANCH   5   8
HETATM    8  C   UNL     1     -11.033   9.594  69.265  1.00  0.00    -0.168 C  
BRANCH   8   9
HETATM    9  C   UNL     1     -10.219   9.375  67.991  1.00  0.00    -0.248 C  
BRANCH   9  10
HETATM   10  C   UNL     1      -9.174  10.468  67.714  1.00  0.00    -0.145 C  
BRANCH  10  11
HETATM   11  N   UNL     1      -9.575  11.404  66.628  1.00  0.00    -0.187 NA 
HETATM   12  C   UNL     1     -10.322  12.551  67.058  1.00  0.00    -0.224 A  
HETATM   13  C   UNL     1     -10.345  12.968  68.413  1.00  0.00    -0.257 A  
HETATM   14  C   UNL     1     -11.175  13.992  68.878  1.00  0.00    -0.303 A  
HETATM   15  C   UNL     1     -11.973  14.687  67.989  1.00  0.00    -0.292 A  
HETATM   16  C   UNL     1     -11.915  14.363  66.638  1.00  0.00    -0.414 A  
HETATM   17  C   UNL     1     -11.099  13.313  66.169  1.00  0.00    -0.285 A  
HETATM   18  S   UNL     1     -11.161  13.035  64.420  1.00  0.00    -0.392 SA 
HETATM   19  C   UNL     1     -10.108  11.620  64.214  1.00  0.00    -0.287 A  
HETATM   20  C   UNL     1      -9.455  10.957  65.276  1.00  0.00    -0.217 A  
HETATM   21  C   UNL     1      -8.669   9.840  64.899  1.00  0.00    -0.207 A  
HETATM   22  C   UNL     1      -8.558   9.371  63.572  1.00  0.00    -0.215 A  
HETATM   23  C   UNL     1      -7.740   8.148  63.238  1.00  0.00    -0.143 C  
HETATM   24  C   UNL     1      -9.225  10.055  62.561  1.00  0.00    -0.319 A  
HETATM   25  F   UNL     1      -8.481   7.173  62.640  1.00  0.00    -0.100 F  
HETATM   26  F   UNL     1      -6.724   8.423  62.372  1.00  0.00    -0.092 F  
HETATM   27  F   UNL     1      -7.156   7.559  64.318  1.00  0.00    -0.054 F  
HETATM   28  C   UNL     1      -9.987  11.172  62.882  1.00  0.00    -0.282 A  
ENDBRANCH  10  11
ENDBRANCH   9  10
ENDBRANCH   8   9
ENDBRANCH   5   8
TORSDOF 4
ENDMDL
MODEL       86
REMARK 921   NORMALIZED FREE ENERGY PREDICTED BY IDOCK:   -5.59 KCAL/MOL
REMARK 922        TOTAL FREE ENERGY PREDICTED BY IDOCK:   -7.31 KCAL/MOL
REMARK 923 INTER-LIGAND FREE ENERGY PREDICTED BY IDOCK:   -6.54 KCAL/MOL
REMARK 924 INTRA-LIGAND FREE ENERGY PREDICTED BY IDOCK:   -0.77 KCAL/MOL
REMARK 927      BINDING AFFINITY PREDICTED BY RF-SCORE:    0.00 PKD
ROOT
HETATM    1  C   UNL     1     -10.928   7.221  72.829  1.00  0.00    -0.323 C  
HETATM    2  N   UNL     1     -11.663   7.272  71.566  1.00  0.00    -0.276 NA 
HETATM    3  C   UNL     1     -11.428   8.557  70.875  1.00  0.00    -0.267 C  
HETATM    4  C   UNL     1     -10.029   8.681  70.229  1.00  0.00    -0.186 C  
HETATM    5  N   UNL     1      -9.694   7.586  69.297  1.00  0.00    -0.162 NA 
HETATM    6  C   UNL     1      -9.895   6.295  69.998  1.00  0.00    -0.169 C  
HETATM    7  C   UNL     1     -11.278   6.149  70.684  1.00  0.00    -0.319 C  
ENDROOT
BRANCH   5   8
HETATM    8  C   UNL     1     -10.497   7.615  68.063  1.00  0.00    -0.189 C  
BRANCH   8   9
HETATM    9  C   UNL     1     -10.624   9.003  67.438  1.00  0.00    -0.309 C  
BRANCH   9  10
HETATM   10  C   UNL     1      -9.576   9.304  66.354  1.00  0.00    -0.238 C  
BRANCH  10  11
HETATM   11  N   UNL     1      -8.725  10.485  66.670  1.00  0.00    -0.132 NA 
HETATM   12  C   UNL     1      -7.505  10.186  67.362  1.00  0.00    -0.094 A  
HETATM   13  C   UNL     1      -6.962   8.877  67.400  1.00  0.00    -0.075 A  
HETATM   14  C   UNL     1      -5.856   8.536  68.183  1.00  0.00    -0.042 A  
HETATM   15  C   UNL     1      -5.205   9.512  68.915  1.00  0.00    -0.037 A  
HETATM   16  C   UNL     1      -5.656  10.825  68.836  1.00  0.00    -0.040 A  
HETATM   17  C   UNL     1      -6.788  11.167  68.069  1.00  0.00    -0.067 A  
HETATM   18  S   UNL     1      -7.224  12.884  68.096  1.00  0.00    -0.130 SA 
HETATM   19  C   UNL     1      -8.707  12.925  67.120  1.00  0.00    -0.205 A  
HETATM   20  C   UNL     1      -9.302  11.785  66.537  1.00  0.00    -0.210 A  
HETATM   21  C   UNL     1     -10.491  12.031  65.805  1.00  0.00    -0.290 A  
HETATM   22  C   UNL     1     -11.086  13.305  65.682  1.00  0.00    -0.299 A  
HETATM   23  C   UNL     1     -12.377  13.498  64.926  1.00  0.00    -0.407 C  
HETATM   24  C   UNL     1     -10.464  14.397  66.280  1.00  0.00    -0.292 A  
HETATM   25  F   UNL     1     -13.362  14.029  65.705  1.00  0.00    -0.522 F  
HETATM   26  F   UNL     1     -12.240  14.350  63.872  1.00  0.00    -0.489 F  
HETATM   27  F   UNL     1     -12.894  12.349  64.408  1.00  0.00    -0.529 F  
HETATM   28  C   UNL     1      -9.283  14.205  66.987  1.00  0.00    -0.249 A  
ENDBRANCH  10  11
ENDBRANCH   9  10
ENDBRANCH   8   9
ENDBRANCH   5   8
TORSDOF 4
ENDMDL
MODEL       87
REMARK 921   NORMALIZED FREE ENERGY PREDICTED BY IDOCK:   -5.57 KCAL/MOL
REMARK 922        TOTAL FREE ENERGY PREDICTED BY IDOCK:   -7.29 KCAL/MOL
REMARK 923 INTER-LIGAND FREE ENERGY PREDICTED BY IDOCK:   -6.79 KCAL/MOL
REMARK 924 INTRA-LIGAND FREE ENERGY PREDICTED BY IDOCK:   -0.50 KCAL/MOL
REMARK 927      BINDING AFFINITY PREDICTED BY RF-SCORE:    0.00 PKD
ROOT
HETATM    1  C   UNL     1      -9.472  20.711  67.041  1.00  0.00    -0.321 C  
HETATM    2  N   UNL     1      -9.101  19.899  68.199  1.00  0.00    -0.305 NA 
HETATM    3  C   UNL     1     -10.195  18.975  68.565  1.00  0.00    -0.351 C  
HETATM    4  C   UNL     1     -10.361  17.778  67.601  1.00  0.00    -0.373 C  
HETATM    5  N   UNL     1      -9.130  16.985  67.406  1.00  0.00    -0.221 NA 
HETATM    6  C   UNL     1      -8.038  17.904  67.006  1.00  0.00    -0.221 C  
HETATM    7  C   UNL     1      -7.864  19.133  67.934  1.00  0.00    -0.285 C  
ENDROOT
BRANCH   5   8
HETATM    8  C   UNL     1      -8.735  16.232  68.609  1.00  0.00    -0.226 C  
BRANCH   8   9
HETATM    9  C   UNL     1      -7.379  15.538  68.488  1.00  0.00    -0.120 C  
BRANCH   9  10
HETATM   10  C   UNL     1      -7.350  14.386  67.470  1.00  0.00    -0.186 C  
BRANCH  10  11
HETATM   11  N   UNL     1      -8.051  13.162  67.946  1.00  0.00    -0.145 NA 
HETATM   12  C   UNL     1      -7.282  12.321  68.818  1.00  0.00    -0.098 A  
HETATM   13  C   UNL     1      -6.120  12.789  69.481  1.00  0.00    -0.118 A  
HETATM   14  C   UNL     1      -5.278  11.953  70.220  1.00  0.00    -0.100 A  
HETATM   15  C   UNL     1      -5.602  10.619  70.377  1.00  0.00    -0.083 A  
HETATM   16  C   UNL     1      -6.779  10.140  69.812  1.00  0.00    -0.096 A  
HETATM   17  C   UNL     1      -7.616  10.975  69.044  1.00  0.00    -0.134 A  
HETATM   18  S   UNL     1      -9.066  10.192  68.392  1.00  0.00    -0.137 SA 
HETATM   19  C   UNL     1      -9.810  11.488  67.433  1.00  0.00    -0.186 A  
HETATM   20  C   UNL     1      -9.262  12.781  67.290  1.00  0.00    -0.203 A  
HETATM   21  C   UNL     1     -10.007  13.665  66.470  1.00  0.00    -0.288 A  
HETATM   22  C   UNL     1     -11.192  13.300  65.797  1.00  0.00    -0.313 A  
HETATM   23  C   UNL     1     -11.919  14.274  64.902  1.00  0.00    -0.425 C  
HETATM   24  C   UNL     1     -11.689  12.012  65.966  1.00  0.00    -0.311 A  
HETATM   25  F   UNL     1     -12.036  13.817  63.623  1.00  0.00    -0.490 F  
HETATM   26  F   UNL     1     -13.190  14.520  65.325  1.00  0.00    -0.371 F  
HETATM   27  F   UNL     1     -11.318  15.493  64.806  1.00  0.00    -0.373 F  
HETATM   28  C   UNL     1     -11.005  11.118  66.781  1.00  0.00    -0.309 A  
ENDBRANCH  10  11
ENDBRANCH   9  10
ENDBRANCH   8   9
ENDBRANCH   5   8
TORSDOF 4
ENDMDL
MODEL       88
REMARK 921   NORMALIZED FREE ENERGY PREDICTED BY IDOCK:   -5.56 KCAL/MOL
REMARK 922        TOTAL FREE ENERGY PREDICTED BY IDOCK:   -7.28 KCAL/MOL
REMARK 923 INTER-LIGAND FREE ENERGY PREDICTED BY IDOCK:   -6.81 KCAL/MOL
REMARK 924 INTRA-LIGAND FREE ENERGY PREDICTED BY IDOCK:   -0.47 KCAL/MOL
REMARK 927      BINDING AFFINITY PREDICTED BY RF-SCORE:    0.00 PKD
ROOT
HETATM    1  C   UNL     1      -8.072   1.468  68.097  1.00  0.00    -0.057 C  
HETATM    2  N   UNL     1      -7.526   2.819  68.224  1.00  0.00    -0.052 NA 
HETATM    3  C   UNL     1      -7.372   3.449  66.896  1.00  0.00    -0.067 C  
HETATM    4  C   UNL     1      -8.703   3.896  66.249  1.00  0.00    -0.115 C  
HETATM    5  N   UNL     1      -9.515   4.793  67.096  1.00  0.00    -0.139 NA 
HETATM    6  C   UNL     1      -9.702   4.148  68.418  1.00  0.00    -0.081 C  
HETATM    7  C   UNL     1      -8.389   3.660  69.082  1.00  0.00    -0.064 C  
ENDROOT
BRANCH   5   8
HETATM    8  C   UNL     1      -8.910   6.124  67.270  1.00  0.00    -0.107 C  
BRANCH   8   9
HETATM    9  C   UNL     1      -9.693   7.254  66.604  1.00  0.00    -0.249 C  
BRANCH   9  10
HETATM   10  C   UNL     1      -9.128   8.657  66.875  1.00  0.00    -0.144 C  
BRANCH  10  11
HETATM   11  N   UNL     1     -10.183   9.688  67.076  1.00  0.00    -0.230 NA 
HETATM   12  C   UNL     1     -10.333  10.623  65.997  1.00  0.00    -0.225 A  
HETATM   13  C   UNL     1      -9.812  10.368  64.704  1.00  0.00    -0.405 A  
HETATM   14  C   UNL     1      -9.821  11.320  63.680  1.00  0.00    -0.377 A  
HETATM   15  C   UNL     1     -10.413  12.551  63.893  1.00  0.00    -0.464 A  
HETATM   16  C   UNL     1     -11.009  12.808  65.122  1.00  0.00    -0.323 A  
HETATM   17  C   UNL     1     -10.979  11.860  66.165  1.00  0.00    -0.308 A  
HETATM   18  S   UNL     1     -11.779  12.363  67.664  1.00  0.00    -0.300 SA 
HETATM   19  C   UNL     1     -11.469  10.993  68.749  1.00  0.00    -0.305 A  
HETATM   20  C   UNL     1     -10.729   9.847  68.386  1.00  0.00    -0.232 A  
HETATM   21  C   UNL     1     -10.587   8.872  69.405  1.00  0.00    -0.226 A  
HETATM   22  C   UNL     1     -11.099   9.022  70.711  1.00  0.00    -0.328 A  
HETATM   23  C   UNL     1     -10.878   7.967  71.767  1.00  0.00    -0.242 C  
HETATM   24  C   UNL     1     -11.817  10.173  71.022  1.00  0.00    -0.475 A  
HETATM   25  F   UNL     1     -10.226   8.454  72.861  1.00  0.00    -0.362 F  
HETATM   26  F   UNL     1     -12.047   7.447  72.236  1.00  0.00    -0.298 F  
HETATM   27  F   UNL     1     -10.143   6.902  71.342  1.00  0.00    -0.185 F  
HETATM   28  C   UNL     1     -12.003  11.144  70.046  1.00  0.00    -0.447 A  
ENDBRANCH  10  11
ENDBRANCH   9  10
ENDBRANCH   8   9
ENDBRANCH   5   8
TORSDOF 4
ENDMDL
MODEL       89
REMARK 921   NORMALIZED FREE ENERGY PREDICTED BY IDOCK:   -5.54 KCAL/MOL
REMARK 922        TOTAL FREE ENERGY PREDICTED BY IDOCK:   -7.25 KCAL/MOL
REMARK 923 INTER-LIGAND FREE ENERGY PREDICTED BY IDOCK:   -6.58 KCAL/MOL
REMARK 924 INTRA-LIGAND FREE ENERGY PREDICTED BY IDOCK:   -0.67 KCAL/MOL
REMARK 927      BINDING AFFINITY PREDICTED BY RF-SCORE:    0.00 PKD
ROOT
HETATM    1  C   UNL     1     -13.069  11.623  71.912  1.00  0.00    -0.385 C  
HETATM    2  N   UNL     1     -13.276  10.432  71.090  1.00  0.00    -0.358 NA 
HETATM    3  C   UNL     1     -12.182  10.275  70.108  1.00  0.00    -0.176 C  
HETATM    4  C   UNL     1     -10.847   9.793  70.720  1.00  0.00    -0.333 C  
HETATM    5  N   UNL     1     -10.956   8.541  71.496  1.00  0.00    -0.250 NA 
HETATM    6  C   UNL     1     -12.029   8.707  72.505  1.00  0.00    -0.288 C  
HETATM    7  C   UNL     1     -13.374   9.219  71.930  1.00  0.00    -0.429 C  
ENDROOT
BRANCH   5   8
HETATM    8  C   UNL     1     -11.237   7.366  70.655  1.00  0.00    -0.270 C  
BRANCH   8   9
HETATM    9  C   UNL     1     -10.300   7.221  69.457  1.00  0.00    -0.230 C  
BRANCH   9  10
HETATM   10  C   UNL     1     -11.016   6.913  68.132  1.00  0.00    -0.147 C  
BRANCH  10  11
HETATM   11  N   UNL     1     -10.110   6.953  66.950  1.00  0.00    -0.208 NA 
HETATM   12  C   UNL     1      -9.450   5.715  66.649  1.00  0.00    -0.147 A  
HETATM   13  C   UNL     1      -9.901   4.476  67.169  1.00  0.00    -0.225 A  
HETATM   14  C   UNL     1      -9.195   3.281  67.005  1.00  0.00    -0.206 A  
HETATM   15  C   UNL     1      -8.033   3.268  66.256  1.00  0.00    -0.088 A  
HETATM   16  C   UNL     1      -7.603   4.448  65.659  1.00  0.00    -0.085 A  
HETATM   17  C   UNL     1      -8.299   5.660  65.844  1.00  0.00    -0.128 A  
HETATM   18  S   UNL     1      -7.600   7.063  65.018  1.00  0.00    -0.112 SA 
HETATM   19  C   UNL     1      -8.660   8.388  65.538  1.00  0.00    -0.176 A  
HETATM   20  C   UNL     1      -9.752   8.230  66.419  1.00  0.00    -0.230 A  
HETATM   21  C   UNL     1     -10.465   9.418  66.718  1.00  0.00    -0.265 A  
HETATM   22  C   UNL     1     -10.112  10.690  66.220  1.00  0.00    -0.291 A  
HETATM   23  C   UNL     1     -10.884  11.927  66.609  1.00  0.00    -0.276 C  
HETATM   24  C   UNL     1      -9.024  10.796  65.359  1.00  0.00    -0.211 A  
HETATM   25  F   UNL     1     -10.098  12.863  67.214  1.00  0.00    -0.221 F  
HETATM   26  F   UNL     1     -11.441  12.552  65.534  1.00  0.00    -0.330 F  
HETATM   27  F   UNL     1     -11.911  11.691  67.472  1.00  0.00    -0.364 F  
HETATM   28  C   UNL     1      -8.311   9.653  65.019  1.00  0.00    -0.146 A  
ENDBRANCH  10  11
ENDBRANCH   9  10
ENDBRANCH   8   9
ENDBRANCH   5   8
TORSDOF 4
ENDMDL
MODEL       90
REMARK 921   NORMALIZED FREE ENERGY PREDICTED BY IDOCK:   -5.53 KCAL/MOL
REMARK 922        TOTAL FREE ENERGY PREDICTED BY IDOCK:   -7.24 KCAL/MOL
REMARK 923 INTER-LIGAND FREE ENERGY PREDICTED BY IDOCK:   -6.74 KCAL/MOL
REMARK 924 INTRA-LIGAND FREE ENERGY PREDICTED BY IDOCK:   -0.50 KCAL/MOL
REMARK 927      BINDING AFFINITY PREDICTED BY RF-SCORE:    0.00 PKD
ROOT
HETATM    1  C   UNL     1      -6.682  10.162  62.753  1.00  0.00    -0.133 C  
HETATM    2  N   UNL     1      -7.535  10.337  63.928  1.00  0.00    -0.117 NA 
HETATM    3  C   UNL     1      -8.498   9.222  64.047  1.00  0.00    -0.193 C  
HETATM    4  C   UNL     1      -7.870   7.892  64.525  1.00  0.00    -0.134 C  
HETATM    5  N   UNL     1      -7.125   7.999  65.796  1.00  0.00    -0.063 NA 
HETATM    6  C   UNL     1      -6.134   9.093  65.668  1.00  0.00    -0.055 C  
HETATM    7  C   UNL     1      -6.724  10.434  65.161  1.00  0.00    -0.082 C  
ENDROOT
BRANCH   5   8
HETATM    8  C   UNL     1      -7.998   8.247  66.956  1.00  0.00    -0.100 C  
BRANCH   8   9
HETATM    9  C   UNL     1      -8.969   7.107  67.256  1.00  0.00    -0.123 C  
BRANCH   9  10
HETATM   10  C   UNL     1     -10.420   7.560  67.484  1.00  0.00    -0.271 C  
BRANCH  10  11
HETATM   11  N   UNL     1     -10.607   8.324  68.749  1.00  0.00    -0.171 NA 
HETATM   12  C   UNL     1     -10.627   7.528  69.942  1.00  0.00    -0.237 A  
HETATM   13  C   UNL     1     -10.128   6.201  69.969  1.00  0.00    -0.228 A  
HETATM   14  C   UNL     1     -10.265   5.361  71.078  1.00  0.00    -0.296 A  
HETATM   15  C   UNL     1     -10.854   5.839  72.233  1.00  0.00    -0.298 A  
HETATM   16  C   UNL     1     -11.280   7.162  72.274  1.00  0.00    -0.297 A  
HETATM   17  C   UNL     1     -11.167   8.004  71.149  1.00  0.00    -0.261 A  
HETATM   18  S   UNL     1     -11.772   9.653  71.380  1.00  0.00    -0.407 SA 
HETATM   19  C   UNL     1     -11.556  10.376  69.773  1.00  0.00    -0.269 A  
HETATM   20  C   UNL     1     -11.035   9.684  68.657  1.00  0.00    -0.111 A  
HETATM   21  C   UNL     1     -10.956  10.440  67.461  1.00  0.00    -0.358 A  
HETATM   22  C   UNL     1     -11.395  11.776  67.347  1.00  0.00    -0.376 A  
HETATM   23  C   UNL     1     -11.325  12.516  66.033  1.00  0.00    -0.344 C  
HETATM   24  C   UNL     1     -11.906  12.413  68.473  1.00  0.00    -0.352 A  
HETATM   25  F   UNL     1     -12.548  12.952  65.616  1.00  0.00    -0.502 F  
HETATM   26  F   UNL     1     -10.541  13.627  66.104  1.00  0.00    -0.278 F  
HETATM   27  F   UNL     1     -10.826  11.775  65.005  1.00  0.00    -0.309 F  
HETATM   28  C   UNL     1     -11.979  11.718  69.675  1.00  0.00    -0.378 A  
ENDBRANCH  10  11
ENDBRANCH   9  10
ENDBRANCH   8   9
ENDBRANCH   5   8
TORSDOF 4
ENDMDL
MODEL       91
REMARK 921   NORMALIZED FREE ENERGY PREDICTED BY IDOCK:   -5.49 KCAL/MOL
REMARK 922        TOTAL FREE ENERGY PREDICTED BY IDOCK:   -7.19 KCAL/MOL
REMARK 923 INTER-LIGAND FREE ENERGY PREDICTED BY IDOCK:   -6.73 KCAL/MOL
REMARK 924 INTRA-LIGAND FREE ENERGY PREDICTED BY IDOCK:   -0.46 KCAL/MOL
REMARK 927      BINDING AFFINITY PREDICTED BY RF-SCORE:    0.00 PKD
ROOT
HETATM    1  C   UNL     1     -11.888  15.291  68.463  1.00  0.00    -0.281 C  
HETATM    2  N   UNL     1     -10.771  14.527  67.909  1.00  0.00    -0.243 NA 
HETATM    3  C   UNL     1     -10.548  13.287  68.682  1.00  0.00    -0.246 C  
HETATM    4  C   UNL     1     -11.607  12.189  68.435  1.00  0.00    -0.327 C  
HETATM    5  N   UNL     1     -11.778  11.824  67.014  1.00  0.00    -0.594 NA 
HETATM    6  C   UNL     1     -12.036  13.061  66.240  1.00  0.00    -0.414 C  
HETATM    7  C   UNL     1     -11.010  14.196  66.487  1.00  0.00    -0.309 C  
ENDROOT
BRANCH   5   8
HETATM    8  C   UNL     1     -10.611  11.119  66.456  1.00  0.00    -0.262 C  
BRANCH   8   9
HETATM    9  C   UNL     1     -10.642   9.606  66.664  1.00  0.00    -0.173 C  
BRANCH   9  10
HETATM   10  C   UNL     1      -9.692   9.102  67.763  1.00  0.00    -0.154 C  
BRANCH  10  11
HETATM   11  N   UNL     1     -10.136   7.824  68.384  1.00  0.00    -0.186 NA 
HETATM   12  C   UNL     1     -10.675   7.946  69.708  1.00  0.00    -0.233 A  
HETATM   13  C   UNL     1     -11.110   9.190  70.231  1.00  0.00    -0.272 A  
HETATM   14  C   UNL     1     -11.504   9.358  71.562  1.00  0.00    -0.467 A  
HETATM   15  C   UNL     1     -11.538   8.268  72.411  1.00  0.00    -0.464 A  
HETATM   16  C   UNL     1     -11.199   7.015  71.912  1.00  0.00    -0.282 A  
HETATM   17  C   UNL     1     -10.776   6.846  70.578  1.00  0.00    -0.235 A  
HETATM   18  S   UNL     1     -10.373   5.183  70.121  1.00  0.00    -0.228 SA 
HETATM   19  C   UNL     1      -9.811   5.364  68.447  1.00  0.00    -0.147 A  
HETATM   20  C   UNL     1      -9.732   6.600  67.768  1.00  0.00    -0.123 A  
HETATM   21  C   UNL     1      -9.245   6.529  66.439  1.00  0.00    -0.178 A  
HETATM   22  C   UNL     1      -8.821   5.332  65.822  1.00  0.00    -0.149 A  
HETATM   23  C   UNL     1      -8.269   5.326  64.417  1.00  0.00    -0.135 C  
HETATM   24  C   UNL     1      -8.912   4.141  66.535  1.00  0.00    -0.125 A  
HETATM   25  F   UNL     1      -7.000   4.831  64.359  1.00  0.00    -0.045 F  
HETATM   26  F   UNL     1      -9.007   4.553  63.573  1.00  0.00    -0.127 F  
HETATM   27  F   UNL     1      -8.213   6.558  63.838  1.00  0.00    -0.121 F  
HETATM   28  C   UNL     1      -9.408   4.160  67.833  1.00  0.00    -0.210 A  
ENDBRANCH  10  11
ENDBRANCH   9  10
ENDBRANCH   8   9
ENDBRANCH   5   8
TORSDOF 4
ENDMDL
MODEL       92
REMARK 921   NORMALIZED FREE ENERGY PREDICTED BY IDOCK:   -5.48 KCAL/MOL
REMARK 922        TOTAL FREE ENERGY PREDICTED BY IDOCK:   -7.17 KCAL/MOL
REMARK 923 INTER-LIGAND FREE ENERGY PREDICTED BY IDOCK:   -6.58 KCAL/MOL
REMARK 924 INTRA-LIGAND FREE ENERGY PREDICTED BY IDOCK:   -0.59 KCAL/MOL
REMARK 927      BINDING AFFINITY PREDICTED BY RF-SCORE:    0.00 PKD
ROOT
HETATM    1  C   UNL     1     -11.364  16.335  70.124  1.00  0.00    -0.282 C  
HETATM    2  N   UNL     1     -10.737  15.014  70.132  1.00  0.00    -0.199 NA 
HETATM    3  C   UNL     1     -11.676  13.985  69.637  1.00  0.00    -0.311 C  
HETATM    4  C   UNL     1     -11.908  14.022  68.109  1.00  0.00    -0.367 C  
HETATM    5  N   UNL     1     -10.669  13.942  67.309  1.00  0.00    -0.282 NA 
HETATM    6  C   UNL     1      -9.739  14.996  67.778  1.00  0.00    -0.215 C  
HETATM    7  C   UNL     1      -9.507  15.008  69.311  1.00  0.00    -0.170 C  
ENDROOT
BRANCH   5   8
HETATM    8  C   UNL     1     -10.015  12.625  67.389  1.00  0.00    -0.204 C  
BRANCH   8   9
HETATM    9  C   UNL     1     -10.940  11.453  67.067  1.00  0.00    -0.347 C  
BRANCH   9  10
HETATM   10  C   UNL     1     -10.241  10.084  67.060  1.00  0.00    -0.237 C  
BRANCH  10  11
HETATM   11  N   UNL     1      -9.228   9.933  68.142  1.00  0.00    -0.128 NA 
HETATM   12  C   UNL     1      -7.868   9.851  67.693  1.00  0.00    -0.098 A  
HETATM   13  C   UNL     1      -7.478  10.264  66.394  1.00  0.00    -0.114 A  
HETATM   14  C   UNL     1      -6.191  10.062  65.888  1.00  0.00    -0.085 A  
HETATM   15  C   UNL     1      -5.219   9.493  66.690  1.00  0.00    -0.044 A  
HETATM   16  C   UNL     1      -5.541   9.153  67.999  1.00  0.00    -0.038 A  
HETATM   17  C   UNL     1      -6.845   9.330  68.504  1.00  0.00    -0.062 A  
HETATM   18  S   UNL     1      -7.074   8.831  70.188  1.00  0.00    -0.049 SA 
HETATM   19  C   UNL     1      -8.809   9.108  70.444  1.00  0.00    -0.220 A  
HETATM   20  C   UNL     1      -9.687   9.594  69.451  1.00  0.00    -0.194 A  
HETATM   21  C   UNL     1     -11.039   9.733  69.856  1.00  0.00    -0.293 A  
HETATM   22  C   UNL     1     -11.514   9.382  71.138  1.00  0.00    -0.422 A  
HETATM   23  C   UNL     1     -12.973   9.512  71.497  1.00  0.00    -0.386 C  
HETATM   24  C   UNL     1     -10.610   8.902  72.080  1.00  0.00    -0.388 A  
HETATM   25  F   UNL     1     -13.523   8.324  71.878  1.00  0.00    -0.321 F  
HETATM   26  F   UNL     1     -13.179  10.365  72.539  1.00  0.00    -0.444 F  
HETATM   27  F   UNL     1     -13.755   9.973  70.481  1.00  0.00    -0.347 F  
HETATM   28  C   UNL     1      -9.270   8.773  71.734  1.00  0.00    -0.332 A  
ENDBRANCH  10  11
ENDBRANCH   9  10
ENDBRANCH   8   9
ENDBRANCH   5   8
TORSDOF 4
ENDMDL
MODEL       93
REMARK 921   NORMALIZED FREE ENERGY PREDICTED BY IDOCK:   -5.46 KCAL/MOL
REMARK 922        TOTAL FREE ENERGY PREDICTED BY IDOCK:   -7.15 KCAL/MOL
REMARK 923 INTER-LIGAND FREE ENERGY PREDICTED BY IDOCK:   -6.73 KCAL/MOL
REMARK 924 INTRA-LIGAND FREE ENERGY PREDICTED BY IDOCK:   -0.42 KCAL/MOL
REMARK 927      BINDING AFFINITY PREDICTED BY RF-SCORE:    0.00 PKD
ROOT
HETATM    1  C   UNL     1      -5.806  13.599  71.237  1.00  0.00    -0.108 C  
HETATM    2  N   UNL     1      -5.753  14.201  69.905  1.00  0.00    -0.105 NA 
HETATM    3  C   UNL     1      -6.003  13.186  68.860  1.00  0.00    -0.079 C  
HETATM    4  C   UNL     1      -7.478  12.738  68.754  1.00  0.00    -0.048 C  
HETATM    5  N   UNL     1      -8.434  13.847  68.560  1.00  0.00    -0.152 NA 
HETATM    6  C   UNL     1      -8.210  14.851  69.627  1.00  0.00     0.041 C  
HETATM    7  C   UNL     1      -6.735  15.301  69.783  1.00  0.00    -0.176 C  
ENDROOT
BRANCH   5   8
HETATM    8  C   UNL     1      -8.314  14.486  67.239  1.00  0.00    -0.212 C  
BRANCH   8   9
HETATM    9  C   UNL     1      -9.487  15.398  66.881  1.00  0.00    -0.246 C  
BRANCH   9  10
HETATM   10  C   UNL     1     -10.672  14.671  66.226  1.00  0.00    -0.316 C  
BRANCH  10  11
HETATM   11  N   UNL     1     -11.094  13.448  66.965  1.00  0.00    -0.287 NA 
HETATM   12  C   UNL     1     -11.641  13.685  68.270  1.00  0.00    -0.339 A  
HETATM   13  C   UNL     1     -12.102  14.964  68.672  1.00  0.00    -0.205 A  
HETATM   14  C   UNL     1     -12.505  15.250  69.979  1.00  0.00    -0.330 A  
HETATM   15  C   UNL     1     -12.522  14.245  70.927  1.00  0.00    -0.424 A  
HETATM   16  C   UNL     1     -12.157  12.957  70.550  1.00  0.00    -0.364 A  
HETATM   17  C   UNL     1     -11.725  12.671  69.239  1.00  0.00    -0.322 A  
HETATM   18  S   UNL     1     -11.288  10.980  68.943  1.00  0.00    -0.308 SA 
HETATM   19  C   UNL     1     -10.722  11.013  67.261  1.00  0.00    -0.265 A  
HETATM   20  C   UNL     1     -10.664  12.180  66.468  1.00  0.00    -0.255 A  
HETATM   21  C   UNL     1     -10.170  11.993  65.153  1.00  0.00    -0.308 A  
HETATM   22  C   UNL     1      -9.720  10.752  64.653  1.00  0.00    -0.344 A  
HETATM   23  C   UNL     1      -9.163  10.624  63.257  1.00  0.00    -0.278 C  
HETATM   24  C   UNL     1      -9.792   9.632  65.475  1.00  0.00    -0.352 A  
HETATM   25  F   UNL     1      -7.884  10.149  63.248  1.00  0.00    -0.139 F  
HETATM   26  F   UNL     1      -9.881   9.760  62.487  1.00  0.00    -0.193 F  
HETATM   27  F   UNL     1      -9.127  11.796  62.564  1.00  0.00    -0.330 F  
HETATM   28  C   UNL     1     -10.294   9.764  66.764  1.00  0.00    -0.289 A  
ENDBRANCH  10  11
ENDBRANCH   9  10
ENDBRANCH   8   9
ENDBRANCH   5   8
TORSDOF 4
ENDMDL
MODEL       94
REMARK 921   NORMALIZED FREE ENERGY PREDICTED BY IDOCK:   -5.45 KCAL/MOL
REMARK 922        TOTAL FREE ENERGY PREDICTED BY IDOCK:   -7.14 KCAL/MOL
REMARK 923 INTER-LIGAND FREE ENERGY PREDICTED BY IDOCK:   -6.66 KCAL/MOL
REMARK 924 INTRA-LIGAND FREE ENERGY PREDICTED BY IDOCK:   -0.48 KCAL/MOL
REMARK 927      BINDING AFFINITY PREDICTED BY RF-SCORE:    0.00 PKD
ROOT
HETATM    1  C   UNL     1      -7.671   2.151  66.078  1.00  0.00    -0.071 C  
HETATM    2  N   UNL     1      -7.302   3.539  66.352  1.00  0.00    -0.074 NA 
HETATM    3  C   UNL     1      -7.489   4.379  65.150  1.00  0.00    -0.073 C  
HETATM    4  C   UNL     1      -8.967   4.688  64.818  1.00  0.00    -0.153 C  
HETATM    5  N   UNL     1      -9.721   5.299  65.931  1.00  0.00    -0.138 NA 
HETATM    6  C   UNL     1      -9.564   4.442  67.130  1.00  0.00    -0.195 C  
HETATM    7  C   UNL     1      -8.096   4.086  67.474  1.00  0.00    -0.091 C  
ENDROOT
BRANCH   5   8
HETATM    8  C   UNL     1      -9.283   6.672  66.238  1.00  0.00    -0.127 C  
BRANCH   8   9
HETATM    9  C   UNL     1     -10.313   7.494  67.010  1.00  0.00    -0.395 C  
BRANCH   9  10
HETATM   10  C   UNL     1      -9.713   8.649  67.827  1.00  0.00    -0.165 C  
BRANCH  10  11
HETATM   11  N   UNL     1     -10.740   9.489  68.503  1.00  0.00    -0.208 NA 
HETATM   12  C   UNL     1     -11.003  10.751  67.874  1.00  0.00    -0.289 A  
HETATM   13  C   UNL     1     -10.624  11.018  66.534  1.00  0.00    -0.310 A  
HETATM   14  C   UNL     1     -10.741  12.282  65.949  1.00  0.00    -0.294 A  
HETATM   15  C   UNL     1     -11.306  13.320  66.665  1.00  0.00    -0.353 A  
HETATM   16  C   UNL     1     -11.768  13.077  67.953  1.00  0.00    -0.402 A  
HETATM   17  C   UNL     1     -11.627  11.810  68.556  1.00  0.00    -0.321 A  
HETATM   18  S   UNL     1     -12.262  11.687  70.206  1.00  0.00    -0.288 SA 
HETATM   19  C   UNL     1     -11.840  10.024  70.662  1.00  0.00    -0.325 A  
HETATM   20  C   UNL     1     -11.143   9.126  69.825  1.00  0.00    -0.125 A  
HETATM   21  C   UNL     1     -10.893   7.848  70.384  1.00  0.00    -0.244 A  
HETATM   22  C   UNL     1     -11.264   7.480  71.695  1.00  0.00    -0.275 A  
HETATM   23  C   UNL     1     -10.932   6.117  72.251  1.00  0.00    -0.260 C  
HETATM   24  C   UNL     1     -11.944   8.402  72.484  1.00  0.00    -0.418 A  
HETATM   25  F   UNL     1     -10.167   6.187  73.378  1.00  0.00    -0.171 F  
HETATM   26  F   UNL     1     -12.045   5.414  72.604  1.00  0.00    -0.337 F  
HETATM   27  F   UNL     1     -10.247   5.317  71.387  1.00  0.00    -0.232 F  
HETATM   28  C   UNL     1     -12.232   9.660  71.967  1.00  0.00    -0.330 A  
ENDBRANCH  10  11
ENDBRANCH   9  10
ENDBRANCH   8   9
ENDBRANCH   5   8
TORSDOF 4
ENDMDL
MODEL       95
REMARK 921   NORMALIZED FREE ENERGY PREDICTED BY IDOCK:   -5.43 KCAL/MOL
REMARK 922        TOTAL FREE ENERGY PREDICTED BY IDOCK:   -7.11 KCAL/MOL
REMARK 923 INTER-LIGAND FREE ENERGY PREDICTED BY IDOCK:   -6.59 KCAL/MOL
REMARK 924 INTRA-LIGAND FREE ENERGY PREDICTED BY IDOCK:   -0.52 KCAL/MOL
REMARK 927      BINDING AFFINITY PREDICTED BY RF-SCORE:    0.00 PKD
ROOT
HETATM    1  C   UNL     1      -6.759  16.587  69.222  1.00  0.00    -0.218 C  
HETATM    2  N   UNL     1      -7.551  15.436  69.653  1.00  0.00    -0.201 NA 
HETATM    3  C   UNL     1      -8.553  15.076  68.629  1.00  0.00    -0.174 C  
HETATM    4  C   UNL     1      -7.962  14.381  67.381  1.00  0.00    -0.201 C  
HETATM    5  N   UNL     1      -7.157  13.180  67.683  1.00  0.00    -0.147 NA 
HETATM    6  C   UNL     1      -6.127  13.546  68.685  1.00  0.00    -0.086 C  
HETATM    7  C   UNL     1      -6.682  14.273  69.937  1.00  0.00    -0.068 C  
ENDROOT
BRANCH   5   8
HETATM    8  C   UNL     1      -7.965  12.056  68.185  1.00  0.00    -0.152 C  
BRANCH   8   9
HETATM    9  C   UNL     1      -7.866  10.792  67.334  1.00  0.00    -0.111 C  
BRANCH   9  10
HETATM   10  C   UNL     1      -9.218  10.268  66.824  1.00  0.00    -0.157 C  
BRANCH  10  11
HETATM   11  N   UNL     1     -10.386  10.975  67.420  1.00  0.00    -0.198 NA 
HETATM   12  C   UNL     1     -10.773  12.181  66.747  1.00  0.00    -0.234 A  
HETATM   13  C   UNL     1     -10.351  12.475  65.426  1.00  0.00    -0.305 A  
HETATM   14  C   UNL     1     -10.597  13.703  64.806  1.00  0.00    -0.436 A  
HETATM   15  C   UNL     1     -11.336  14.669  65.463  1.00  0.00    -0.341 A  
HETATM   16  C   UNL     1     -11.840  14.386  66.728  1.00  0.00    -0.431 A  
HETATM   17  C   UNL     1     -11.571  13.159  67.367  1.00  0.00    -0.356 A  
HETATM   18  S   UNL     1     -12.284  12.977  68.979  1.00  0.00     0.093 SA 
HETATM   19  C   UNL     1     -11.676  11.393  69.498  1.00  0.00    -0.348 A  
HETATM   20  C   UNL     1     -10.818  10.582  68.723  1.00  0.00    -0.231 A  
HETATM   21  C   UNL     1     -10.437   9.357  69.326  1.00  0.00    -0.230 A  
HETATM   22  C   UNL     1     -10.836   8.962  70.622  1.00  0.00    -0.286 A  
HETATM   23  C   UNL     1     -10.362   7.664  71.227  1.00  0.00    -0.198 C  
HETATM   24  C   UNL     1     -11.678   9.799  71.348  1.00  0.00    -0.475 A  
HETATM   25  F   UNL     1      -9.683   7.852  72.395  1.00  0.00    -0.199 F  
HETATM   26  F   UNL     1     -11.393   6.826  71.531  1.00  0.00    -0.266 F  
HETATM   27  F   UNL     1      -9.527   6.949  70.424  1.00  0.00    -0.165 F  
HETATM   28  C   UNL     1     -12.096  10.999  70.786  1.00  0.00    -0.467 A  
ENDBRANCH  10  11
ENDBRANCH   9  10
ENDBRANCH   8   9
ENDBRANCH   5   8
TORSDOF 4
ENDMDL
MODEL       96
REMARK 921   NORMALIZED FREE ENERGY PREDICTED BY IDOCK:   -5.42 KCAL/MOL
REMARK 922        TOTAL FREE ENERGY PREDICTED BY IDOCK:   -7.11 KCAL/MOL
REMARK 923 INTER-LIGAND FREE ENERGY PREDICTED BY IDOCK:   -6.59 KCAL/MOL
REMARK 924 INTRA-LIGAND FREE ENERGY PREDICTED BY IDOCK:   -0.52 KCAL/MOL
REMARK 927      BINDING AFFINITY PREDICTED BY RF-SCORE:    0.00 PKD
ROOT
HETATM    1  C   UNL     1      -8.566  18.067  68.503  1.00  0.00    -0.297 C  
HETATM    2  N   UNL     1      -9.594  17.034  68.623  1.00  0.00    -0.267 NA 
HETATM    3  C   UNL     1     -10.457  17.011  67.424  1.00  0.00    -0.322 C  
HETATM    4  C   UNL     1      -9.787  16.399  66.173  1.00  0.00    -0.338 C  
HETATM    5  N   UNL     1      -9.249  15.039  66.382  1.00  0.00    -0.289 NA 
HETATM    6  C   UNL     1      -8.354  15.065  67.563  1.00  0.00    -0.176 C  
HETATM    7  C   UNL     1      -8.984  15.702  68.828  1.00  0.00    -0.205 C  
ENDROOT
BRANCH   5   8
HETATM    8  C   UNL     1     -10.300  14.026  66.573  1.00  0.00    -0.285 C  
BRANCH   8   9
HETATM    9  C   UNL     1      -9.781  12.679  67.071  1.00  0.00    -0.225 C  
BRANCH   9  10
HETATM   10  C   UNL     1     -10.792  11.528  66.943  1.00  0.00    -0.284 C  
BRANCH  10  11
HETATM   11  N   UNL     1     -10.482  10.371  67.828  1.00  0.00    -0.209 NA 
HETATM   12  C   UNL     1      -9.843   9.263  67.178  1.00  0.00    -0.195 A  
HETATM   13  C   UNL     1      -9.210   9.395  65.917  1.00  0.00    -0.269 A  
HETATM   14  C   UNL     1      -8.707   8.304  65.202  1.00  0.00    -0.089 A  
HETATM   15  C   UNL     1      -8.761   7.038  65.754  1.00  0.00    -0.116 A  
HETATM   16  C   UNL     1      -9.299   6.880  67.026  1.00  0.00    -0.170 A  
HETATM   17  C   UNL     1      -9.831   7.974  67.739  1.00  0.00    -0.165 A  
HETATM   18  S   UNL     1     -10.484   7.585  69.339  1.00  0.00    -0.217 SA 
HETATM   19  C   UNL     1     -11.130   9.145  69.886  1.00  0.00    -0.159 A  
HETATM   20  C   UNL     1     -11.088  10.331  69.121  1.00  0.00    -0.235 A  
HETATM   21  C   UNL     1     -11.671  11.467  69.736  1.00  0.00    -0.426 A  
HETATM   22  C   UNL     1     -12.293  11.441  71.003  1.00  0.00    -0.448 A  
HETATM   23  C   UNL     1     -12.935  12.675  71.588  1.00  0.00    -0.299 C  
HETATM   24  C   UNL     1     -12.314  10.247  71.716  1.00  0.00    -0.362 A  
HETATM   25  F   UNL     1     -14.260  12.495  71.855  1.00  0.00    -0.039 F  
HETATM   26  F   UNL     1     -12.368  13.046  72.769  1.00  0.00     0.244 F  
HETATM   27  F   UNL     1     -12.865  13.772  70.782  1.00  0.00    -0.369 F  
HETATM   28  C   UNL     1     -11.732   9.112  71.161  1.00  0.00    -0.380 A  
ENDBRANCH  10  11
ENDBRANCH   9  10
ENDBRANCH   8   9
ENDBRANCH   5   8
TORSDOF 4
ENDMDL
MODEL       97
REMARK 921   NORMALIZED FREE ENERGY PREDICTED BY IDOCK:   -5.42 KCAL/MOL
REMARK 922        TOTAL FREE ENERGY PREDICTED BY IDOCK:   -7.10 KCAL/MOL
REMARK 923 INTER-LIGAND FREE ENERGY PREDICTED BY IDOCK:   -6.54 KCAL/MOL
REMARK 924 INTRA-LIGAND FREE ENERGY PREDICTED BY IDOCK:   -0.56 KCAL/MOL
REMARK 927      BINDING AFFINITY PREDICTED BY RF-SCORE:    0.00 PKD
ROOT
HETATM    1  C   UNL     1      -6.939  18.154  67.563  1.00  0.00    -0.198 C  
HETATM    2  N   UNL     1      -7.691  17.278  68.461  1.00  0.00    -0.250 NA 
HETATM    3  C   UNL     1      -8.847  16.679  67.763  1.00  0.00    -0.206 C  
HETATM    4  C   UNL     1      -8.473  15.564  66.760  1.00  0.00    -0.279 C  
HETATM    5  N   UNL     1      -7.667  14.472  67.344  1.00  0.00    -0.192 NA 
HETATM    6  C   UNL     1      -6.487  15.067  68.015  1.00  0.00    -0.147 C  
HETATM    7  C   UNL     1      -6.824  16.210  69.006  1.00  0.00    -0.176 C  
ENDROOT
BRANCH   5   8
HETATM    8  C   UNL     1      -8.424  13.647  68.301  1.00  0.00    -0.170 C  
BRANCH   8   9
HETATM    9  C   UNL     1      -9.057  12.402  67.683  1.00  0.00    -0.186 C  
BRANCH   9  10
HETATM   10  C   UNL     1     -10.573  12.514  67.453  1.00  0.00    -0.223 C  
BRANCH  10  11
HETATM   11  N   UNL     1     -11.381  12.040  68.611  1.00  0.00    -0.251 NA 
HETATM   12  C   UNL     1     -11.935  13.079  69.430  1.00  0.00    -0.281 A  
HETATM   13  C   UNL     1     -12.043  14.418  68.977  1.00  0.00    -0.298 A  
HETATM   14  C   UNL     1     -12.446  15.470  69.804  1.00  0.00    -0.188 A  
HETATM   15  C   UNL     1     -12.822  15.212  71.109  1.00  0.00    -0.469 A  
HETATM   16  C   UNL     1     -12.811  13.898  71.566  1.00  0.00    -0.441 A  
HETATM   17  C   UNL     1     -12.379  12.839  70.742  1.00  0.00    -0.287 A  
HETATM   18  S   UNL     1     -12.421  11.235  71.494  1.00  0.00    -0.144 SA 
HETATM   19  C   UNL     1     -11.741  10.193  70.228  1.00  0.00    -0.282 A  
HETATM   20  C   UNL     1     -11.293  10.662  68.974  1.00  0.00    -0.277 A  
HETATM   21  C   UNL     1     -10.773   9.667  68.108  1.00  0.00    -0.266 A  
HETATM   22  C   UNL     1     -10.658   8.304  68.458  1.00  0.00    -0.143 A  
HETATM   23  C   UNL     1     -10.055   7.298  67.509  1.00  0.00    -0.193 C  
HETATM   24  C   UNL     1     -11.109   7.893  69.708  1.00  0.00    -0.079 A  
HETATM   25  F   UNL     1      -8.968   6.669  68.040  1.00  0.00    -0.120 F  
HETATM   26  F   UNL     1     -10.929   6.308  67.177  1.00  0.00    -0.321 F  
HETATM   27  F   UNL     1      -9.634   7.832  66.329  1.00  0.00    -0.240 F  
HETATM   28  C   UNL     1     -11.650   8.830  70.580  1.00  0.00    -0.236 A  
ENDBRANCH  10  11
ENDBRANCH   9  10
ENDBRANCH   8   9
ENDBRANCH   5   8
TORSDOF 4
ENDMDL
MODEL       98
REMARK 921   NORMALIZED FREE ENERGY PREDICTED BY IDOCK:   -5.42 KCAL/MOL
REMARK 922        TOTAL FREE ENERGY PREDICTED BY IDOCK:   -7.10 KCAL/MOL
REMARK 923 INTER-LIGAND FREE ENERGY PREDICTED BY IDOCK:   -6.52 KCAL/MOL
REMARK 924 INTRA-LIGAND FREE ENERGY PREDICTED BY IDOCK:   -0.58 KCAL/MOL
REMARK 927      BINDING AFFINITY PREDICTED BY RF-SCORE:    0.00 PKD
ROOT
HETATM    1  C   UNL     1      -5.579   4.031  66.751  1.00  0.00    -0.018 C  
HETATM    2  N   UNL     1      -7.038   4.124  66.715  1.00  0.00    -0.063 NA 
HETATM    3  C   UNL     1      -7.554   4.763  67.943  1.00  0.00    -0.082 C  
HETATM    4  C   UNL     1      -7.318   6.289  68.010  1.00  0.00    -0.089 C  
HETATM    5  N   UNL     1      -7.842   7.032  66.846  1.00  0.00    -0.105 NA 
HETATM    6  C   UNL     1      -7.299   6.416  65.612  1.00  0.00    -0.080 C  
HETATM    7  C   UNL     1      -7.491   4.880  65.527  1.00  0.00    -0.081 C  
ENDROOT
BRANCH   5   8
HETATM    8  C   UNL     1      -9.313   7.050  66.790  1.00  0.00    -0.156 C  
BRANCH   8   9
HETATM    9  C   UNL     1      -9.897   8.337  66.209  1.00  0.00    -0.227 C  
BRANCH   9  10
HETATM   10  C   UNL     1      -9.377   9.621  66.874  1.00  0.00    -0.146 C  
BRANCH  10  11
HETATM   11  N   UNL     1     -10.463  10.556  67.279  1.00  0.00    -0.235 NA 
HETATM   12  C   UNL     1     -10.689  11.651  66.379  1.00  0.00    -0.272 A  
HETATM   13  C   UNL     1     -10.207  11.640  65.046  1.00  0.00    -0.321 A  
HETATM   14  C   UNL     1     -10.291  12.749  64.199  1.00  0.00    -0.401 A  
HETATM   15  C   UNL     1     -10.921  13.900  64.635  1.00  0.00    -0.406 A  
HETATM   16  C   UNL     1     -11.481  13.920  65.907  1.00  0.00    -0.328 A  
HETATM   17  C   UNL     1     -11.375  12.812  66.773  1.00  0.00    -0.313 A  
HETATM   18  S   UNL     1     -12.138  13.021  68.359  1.00  0.00    -0.027 SA 
HETATM   19  C   UNL     1     -11.735  11.503  69.187  1.00  0.00    -0.329 A  
HETATM   20  C   UNL     1     -10.965  10.468  68.613  1.00  0.00    -0.248 A  
HETATM   21  C   UNL     1     -10.747   9.343  69.448  1.00  0.00    -0.234 A  
HETATM   22  C   UNL     1     -11.217   9.249  70.775  1.00  0.00    -0.351 A  
HETATM   23  C   UNL     1     -10.916   8.043  71.630  1.00  0.00    -0.239 C  
HETATM   24  C   UNL     1     -11.967  10.298  71.298  1.00  0.00    -0.457 A  
HETATM   25  F   UNL     1     -10.243   8.368  72.770  1.00  0.00    -0.352 F  
HETATM   26  F   UNL     1     -12.045   7.400  72.039  1.00  0.00    -0.293 F  
HETATM   27  F   UNL     1     -10.156   7.098  71.009  1.00  0.00    -0.190 F  
HETATM   28  C   UNL     1     -12.226  11.410  70.507  1.00  0.00    -0.478 A  
ENDBRANCH  10  11
ENDBRANCH   9  10
ENDBRANCH   8   9
ENDBRANCH   5   8
TORSDOF 4
ENDMDL
MODEL       99
REMARK 921   NORMALIZED FREE ENERGY PREDICTED BY IDOCK:   -5.40 KCAL/MOL
REMARK 922        TOTAL FREE ENERGY PREDICTED BY IDOCK:   -7.08 KCAL/MOL
REMARK 923 INTER-LIGAND FREE ENERGY PREDICTED BY IDOCK:   -6.09 KCAL/MOL
REMARK 924 INTRA-LIGAND FREE ENERGY PREDICTED BY IDOCK:   -0.99 KCAL/MOL
REMARK 927      BINDING AFFINITY PREDICTED BY RF-SCORE:    0.00 PKD
ROOT
HETATM    1  C   UNL     1      -9.943  11.531  62.889  1.00  0.00    -0.211 C  
HETATM    2  N   UNL     1     -10.171  11.607  64.331  1.00  0.00    -0.280 NA 
HETATM    3  C   UNL     1      -9.815  12.944  64.849  1.00  0.00    -0.026 C  
HETATM    4  C   UNL     1     -10.829  14.053  64.488  1.00  0.00    -0.347 C  
HETATM    5  N   UNL     1     -12.218  13.756  64.891  1.00  0.00    -0.399 NA 
HETATM    6  C   UNL     1     -12.592  12.430  64.344  1.00  0.00    -0.399 C  
HETATM    7  C   UNL     1     -11.580  11.299  64.661  1.00  0.00     0.195 C  
ENDROOT
BRANCH   5   8
HETATM    8  C   UNL     1     -12.408  13.766  66.351  1.00  0.00    -0.412 C  
BRANCH   8   9
HETATM    9  C   UNL     1     -12.005  15.079  67.020  1.00  0.00    -0.017 C  
BRANCH   9  10
HETATM   10  C   UNL     1     -11.457  14.916  68.447  1.00  0.00    -0.318 C  
BRANCH  10  11
HETATM   11  N   UNL     1      -9.971  14.997  68.520  1.00  0.00    -0.213 NA 
HETATM   12  C   UNL     1      -9.435  16.327  68.525  1.00  0.00    -0.219 A  
HETATM   13  C   UNL     1     -10.233  17.459  68.828  1.00  0.00    -0.361 A  
HETATM   14  C   UNL     1      -9.769  18.771  68.701  1.00  0.00    -0.437 A  
HETATM   15  C   UNL     1      -8.460  19.003  68.325  1.00  0.00    -0.366 A  
HETATM   16  C   UNL     1      -7.621  17.917  68.101  1.00  0.00    -0.260 A  
HETATM   17  C   UNL     1      -8.093  16.593  68.202  1.00  0.00    -0.186 A  
HETATM   18  S   UNL     1      -6.888  15.337  67.871  1.00  0.00    -0.167 SA 
HETATM   19  C   UNL     1      -7.837  13.842  68.000  1.00  0.00    -0.154 A  
HETATM   20  C   UNL     1      -9.220  13.805  68.283  1.00  0.00    -0.204 A  
HETATM   21  C   UNL     1      -9.792  12.509  68.331  1.00  0.00    -0.202 A  
HETATM   22  C   UNL     1      -9.070  11.323  68.078  1.00  0.00    -0.156 A  
HETATM   23  C   UNL     1      -9.745   9.974  68.100  1.00  0.00    -0.140 C  
HETATM   24  C   UNL     1      -7.710  11.412  67.798  1.00  0.00    -0.115 A  
HETATM   25  F   UNL     1      -9.628   9.314  66.913  1.00  0.00    -0.173 F  
HETATM   26  F   UNL     1      -9.213   9.142  69.039  1.00  0.00    -0.138 F  
HETATM   27  F   UNL     1     -11.080  10.025  68.365  1.00  0.00    -0.261 F  
HETATM   28  C   UNL     1      -7.102  12.662  67.766  1.00  0.00    -0.126 A  
ENDBRANCH  10  11
ENDBRANCH   9  10
ENDBRANCH   8   9
ENDBRANCH   5   8
TORSDOF 4
ENDMDL
MODEL      100
REMARK 921   NORMALIZED FREE ENERGY PREDICTED BY IDOCK:   -5.39 KCAL/MOL
REMARK 922        TOTAL FREE ENERGY PREDICTED BY IDOCK:   -7.07 KCAL/MOL
REMARK 923 INTER-LIGAND FREE ENERGY PREDICTED BY IDOCK:   -6.63 KCAL/MOL
REMARK 924 INTRA-LIGAND FREE ENERGY PREDICTED BY IDOCK:   -0.44 KCAL/MOL
REMARK 927      BINDING AFFINITY PREDICTED BY RF-SCORE:    0.00 PKD
ROOT
HETATM    1  C   UNL     1     -11.102   5.728  72.814  1.00  0.00    -0.284 C  
HETATM    2  N   UNL     1     -11.678   6.813  72.020  1.00  0.00    -0.293 NA 
HETATM    3  C   UNL     1     -11.173   8.123  72.479  1.00  0.00    -0.391 C  
HETATM    4  C   UNL     1      -9.710   8.414  72.073  1.00  0.00    -0.283 C  
HETATM    5  N   UNL     1      -9.450   8.298  70.624  1.00  0.00    -0.161 NA 
HETATM    6  C   UNL     1      -9.924   6.971  70.167  1.00  0.00    -0.182 C  
HETATM    7  C   UNL     1     -11.379   6.633  70.583  1.00  0.00    -0.347 C  
ENDROOT
BRANCH   5   8
HETATM    8  C   UNL     1     -10.100   9.360  69.837  1.00  0.00    -0.218 C  
BRANCH   8   9
HETATM    9  C   UNL     1     -10.080   9.115  68.329  1.00  0.00    -0.221 C  
BRANCH   9  10
HETATM   10  C   UNL     1      -9.043   9.958  67.568  1.00  0.00    -0.134 C  
BRANCH  10  11
HETATM   11  N   UNL     1      -9.496  10.360  66.208  1.00  0.00    -0.166 NA 
HETATM   12  C   UNL     1      -9.092   9.482  65.148  1.00  0.00    -0.228 A  
HETATM   13  C   UNL     1      -8.646   8.159  65.396  1.00  0.00    -0.154 A  
HETATM   14  C   UNL     1      -8.115   7.337  64.399  1.00  0.00    -0.065 A  
HETATM   15  C   UNL     1      -8.067   7.785  63.092  1.00  0.00    -0.078 A  
HETATM   16  C   UNL     1      -8.573   9.046  62.795  1.00  0.00    -0.191 A  
HETATM   17  C   UNL     1      -9.085   9.888  63.802  1.00  0.00    -0.256 A  
HETATM   18  S   UNL     1      -9.675  11.461  63.241  1.00  0.00    -0.392 SA 
HETATM   19  C   UNL     1     -10.147  12.263  64.753  1.00  0.00    -0.246 A  
HETATM   20  C   UNL     1     -10.011  11.681  66.033  1.00  0.00    -0.228 A  
HETATM   21  C   UNL     1     -10.435  12.494  67.113  1.00  0.00    -0.237 A  
HETATM   22  C   UNL     1     -10.925  13.809  66.961  1.00  0.00    -0.297 A  
HETATM   23  C   UNL     1     -11.322  14.642  68.155  1.00  0.00    -0.302 C  
HETATM   24  C   UNL     1     -11.035  14.340  65.679  1.00  0.00    -0.309 A  
HETATM   25  F   UNL     1     -10.613  15.804  68.237  1.00  0.00    -0.241 F  
HETATM   26  F   UNL     1     -12.632  15.012  68.118  1.00  0.00    -0.024 F  
HETATM   27  F   UNL     1     -11.147  14.015  69.351  1.00  0.00    -0.258 F  
HETATM   28  C   UNL     1     -10.653  13.569  64.588  1.00  0.00    -0.441 A  
ENDBRANCH  10  11
ENDBRANCH   9  10
ENDBRANCH   8   9
ENDBRANCH   5   8
TORSDOF 4
ENDMDL
MODEL      101
REMARK 921   NORMALIZED FREE ENERGY PREDICTED BY IDOCK:   -5.38 KCAL/MOL
REMARK 922        TOTAL FREE ENERGY PREDICTED BY IDOCK:   -7.06 KCAL/MOL
REMARK 923 INTER-LIGAND FREE ENERGY PREDICTED BY IDOCK:   -6.52 KCAL/MOL
REMARK 924 INTRA-LIGAND FREE ENERGY PREDICTED BY IDOCK:   -0.54 KCAL/MOL
REMARK 927      BINDING AFFINITY PREDICTED BY RF-SCORE:    0.00 PKD
ROOT
HETATM    1  C   UNL     1     -11.770  13.718  67.209  1.00  0.00    -0.382 C  
HETATM    2  N   UNL     1     -11.970  12.327  66.804  1.00  0.00    -0.605 NA 
HETATM    3  C   UNL     1     -11.241  12.035  65.552  1.00  0.00    -0.321 C  
HETATM    4  C   UNL     1      -9.710  11.914  65.724  1.00  0.00    -0.237 C  
HETATM    5  N   UNL     1      -9.293  10.929  66.743  1.00  0.00    -0.164 NA 
HETATM    6  C   UNL     1      -9.996  11.239  68.011  1.00  0.00    -0.179 C  
HETATM    7  C   UNL     1     -11.531  11.398  67.869  1.00  0.00    -0.291 C  
ENDROOT
BRANCH   5   8
HETATM    8  C   UNL     1      -9.570   9.538  66.345  1.00  0.00    -0.213 C  
BRANCH   8   9
HETATM    9  C   UNL     1      -9.553   8.545  67.506  1.00  0.00    -0.194 C  
BRANCH   9  10
HETATM   10  C   UNL     1     -10.841   7.719  67.648  1.00  0.00    -0.079 C  
BRANCH  10  11
HETATM   11  N   UNL     1     -10.730   6.620  68.647  1.00  0.00    -0.235 NA 
HETATM   12  C   UNL     1     -10.898   7.022  70.013  1.00  0.00    -0.261 A  
HETATM   13  C   UNL     1     -11.498   8.257  70.366  1.00  0.00    -0.122 A  
HETATM   14  C   UNL     1     -11.544   8.731  71.680  1.00  0.00    -0.390 A  
HETATM   15  C   UNL     1     -11.045   7.954  72.708  1.00  0.00    -0.462 A  
HETATM   16  C   UNL     1     -10.524   6.700  72.412  1.00  0.00    -0.232 A  
HETATM   17  C   UNL     1     -10.452   6.229  71.085  1.00  0.00    -0.223 A  
HETATM   18  S   UNL     1      -9.749   4.614  70.896  1.00  0.00    -0.204 SA 
HETATM   19  C   UNL     1      -9.738   4.399  69.134  1.00  0.00    -0.170 A  
HETATM   20  C   UNL     1     -10.190   5.370  68.215  1.00  0.00    -0.160 A  
HETATM   21  C   UNL     1     -10.084   5.005  66.849  1.00  0.00    -0.261 A  
HETATM   22  C   UNL     1      -9.533   3.785  66.404  1.00  0.00    -0.197 A  
HETATM   23  C   UNL     1      -9.407   3.471  64.933  1.00  0.00    -0.153 C  
HETATM   24  C   UNL     1      -9.096   2.862  67.348  1.00  0.00    -0.209 A  
HETATM   25  F   UNL     1      -8.117   3.233  64.561  1.00  0.00    -0.083 F  
HETATM   26  F   UNL     1     -10.105   2.357  64.577  1.00  0.00    -0.104 F  
HETATM   27  F   UNL     1      -9.851   4.464  64.114  1.00  0.00    -0.157 F  
HETATM   28  C   UNL     1      -9.204   3.167  68.700  1.00  0.00    -0.228 A  
ENDBRANCH  10  11
ENDBRANCH   9  10
ENDBRANCH   8   9
ENDBRANCH   5   8
TORSDOF 4
ENDMDL
MODEL      102
REMARK 921   NORMALIZED FREE ENERGY PREDICTED BY IDOCK:   -5.38 KCAL/MOL
REMARK 922        TOTAL FREE ENERGY PREDICTED BY IDOCK:   -7.05 KCAL/MOL
REMARK 923 INTER-LIGAND FREE ENERGY PREDICTED BY IDOCK:   -6.58 KCAL/MOL
REMARK 924 INTRA-LIGAND FREE ENERGY PREDICTED BY IDOCK:   -0.47 KCAL/MOL
REMARK 927      BINDING AFFINITY PREDICTED BY RF-SCORE:    0.00 PKD
ROOT
HETATM    1  C   UNL     1     -10.776  13.639  64.804  1.00  0.00    -0.410 C  
HETATM    2  N   UNL     1     -11.325  12.284  64.845  1.00  0.00    -0.317 NA 
HETATM    3  C   UNL     1     -10.621  11.404  63.889  1.00  0.00    -0.392 C  
HETATM    4  C   UNL     1      -9.200  10.994  64.335  1.00  0.00    -0.158 C  
HETATM    5  N   UNL     1      -9.144  10.366  65.670  1.00  0.00    -0.167 NA 
HETATM    6  C   UNL     1      -9.818  11.262  66.639  1.00  0.00    -0.205 C  
HETATM    7  C   UNL     1     -11.235  11.718  66.208  1.00  0.00    -0.312 C  
ENDROOT
BRANCH   5   8
HETATM    8  C   UNL     1      -9.767   9.032  65.705  1.00  0.00    -0.184 C  
BRANCH   8   9
HETATM    9  C   UNL     1      -9.791   8.394  67.093  1.00  0.00    -0.279 C  
BRANCH   9  10
HETATM   10  C   UNL     1     -10.690   7.152  67.200  1.00  0.00    -0.352 C  
BRANCH  10  11
HETATM   11  N   UNL     1     -10.024   5.998  67.866  1.00  0.00    -0.123 NA 
HETATM   12  C   UNL     1      -9.657   4.922  66.992  1.00  0.00    -0.159 A  
HETATM   13  C   UNL     1      -9.572   5.089  65.587  1.00  0.00    -0.138 A  
HETATM   14  C   UNL     1      -9.357   4.025  64.706  1.00  0.00    -0.162 A  
HETATM   15  C   UNL     1      -9.152   2.752  65.205  1.00  0.00    -0.144 A  
HETATM   16  C   UNL     1      -9.144   2.562  66.582  1.00  0.00    -0.121 A  
HETATM   17  C   UNL     1      -9.387   3.628  67.472  1.00  0.00    -0.202 A  
HETATM   18  S   UNL     1      -9.349   3.199  69.190  1.00  0.00    -0.122 SA 
HETATM   19  C   UNL     1      -9.777   4.728  69.983  1.00  0.00    -0.210 A  
HETATM   20  C   UNL     1     -10.073   5.923  69.291  1.00  0.00    -0.194 A  
HETATM   21  C   UNL     1     -10.403   7.030  70.113  1.00  0.00    -0.213 A  
HETATM   22  C   UNL     1     -10.478   6.969  71.520  1.00  0.00    -0.222 A  
HETATM   23  C   UNL     1     -10.877   8.172  72.339  1.00  0.00    -0.339 C  
HETATM   24  C   UNL     1     -10.182   5.767  72.156  1.00  0.00    -0.240 A  
HETATM   25  F   UNL     1     -11.985   7.940  73.098  1.00  0.00    -0.309 F  
HETATM   26  F   UNL     1      -9.904   8.552  73.213  1.00  0.00    -0.277 F  
HETATM   27  F   UNL     1     -11.161   9.278  71.597  1.00  0.00    -0.367 F  
HETATM   28  C   UNL     1      -9.830   4.661  71.391  1.00  0.00    -0.264 A  
ENDBRANCH  10  11
ENDBRANCH   9  10
ENDBRANCH   8   9
ENDBRANCH   5   8
TORSDOF 4
ENDMDL
MODEL      103
REMARK 921   NORMALIZED FREE ENERGY PREDICTED BY IDOCK:   -5.34 KCAL/MOL
REMARK 922        TOTAL FREE ENERGY PREDICTED BY IDOCK:   -7.01 KCAL/MOL
REMARK 923 INTER-LIGAND FREE ENERGY PREDICTED BY IDOCK:   -6.46 KCAL/MOL
REMARK 924 INTRA-LIGAND FREE ENERGY PREDICTED BY IDOCK:   -0.54 KCAL/MOL
REMARK 927      BINDING AFFINITY PREDICTED BY RF-SCORE:    0.00 PKD
ROOT
HETATM    1  C   UNL     1      -5.184  14.278  69.909  1.00  0.00    -0.093 C  
HETATM    2  N   UNL     1      -5.655  14.339  68.526  1.00  0.00    -0.090 NA 
HETATM    3  C   UNL     1      -5.929  12.984  68.005  1.00  0.00    -0.112 C  
HETATM    4  C   UNL     1      -7.218  12.340  68.563  1.00  0.00    -0.103 C  
HETATM    5  N   UNL     1      -8.432  13.161  68.380  1.00  0.00    -0.156 NA 
HETATM    6  C   UNL     1      -8.173  14.511  68.934  1.00  0.00    -0.114 C  
HETATM    7  C   UNL     1      -6.871  15.175  68.418  1.00  0.00    -0.109 C  
ENDROOT
BRANCH   5   8
HETATM    8  C   UNL     1      -8.846  13.269  66.971  1.00  0.00    -0.212 C  
BRANCH   8   9
HETATM    9  C   UNL     1     -10.318  13.633  66.782  1.00  0.00    -0.268 C  
BRANCH   9  10
HETATM   10  C   UNL     1     -11.280  12.440  66.890  1.00  0.00    -0.305 C  
BRANCH  10  11
HETATM   11  N   UNL     1     -11.052  11.607  68.103  1.00  0.00    -0.224 NA 
HETATM   12  C   UNL     1     -10.604  10.269  67.845  1.00  0.00    -0.239 A  
HETATM   13  C   UNL     1     -10.054   9.887  66.596  1.00  0.00    -0.297 A  
HETATM   14  C   UNL     1      -9.744   8.562  66.275  1.00  0.00    -0.300 A  
HETATM   15  C   UNL     1      -9.914   7.569  67.221  1.00  0.00    -0.273 A  
HETATM   16  C   UNL     1     -10.371   7.917  68.487  1.00  0.00    -0.229 A  
HETATM   17  C   UNL     1     -10.710   9.248  68.806  1.00  0.00    -0.154 A  
HETATM   18  S   UNL     1     -11.287   9.502  70.461  1.00  0.00    -0.291 SA 
HETATM   19  C   UNL     1     -11.693  11.230  70.471  1.00  0.00    -0.247 A  
HETATM   20  C   UNL     1     -11.561  12.080  69.351  1.00  0.00    -0.330 A  
HETATM   21  C   UNL     1     -11.952  13.426  69.565  1.00  0.00    -0.377 A  
HETATM   22  C   UNL     1     -12.477  13.906  70.784  1.00  0.00    -0.445 A  
HETATM   23  C   UNL     1     -12.917  15.341  70.938  1.00  0.00    -0.462 C  
HETATM   24  C   UNL     1     -12.593  13.028  71.857  1.00  0.00    -0.089 A  
HETATM   25  F   UNL     1     -14.231  15.448  71.287  1.00  0.00    -0.530 F  
HETATM   26  F   UNL     1     -12.223  15.996  71.910  1.00  0.00    -0.420 F  
HETATM   27  F   UNL     1     -12.772  16.090  69.810  1.00  0.00    -0.250 F  
HETATM   28  C   UNL     1     -12.198  11.704  71.700  1.00  0.00     0.256 A  
ENDBRANCH  10  11
ENDBRANCH   9  10
ENDBRANCH   8   9
ENDBRANCH   5   8
TORSDOF 4
ENDMDL
MODEL      104
REMARK 921   NORMALIZED FREE ENERGY PREDICTED BY IDOCK:   -5.33 KCAL/MOL
REMARK 922        TOTAL FREE ENERGY PREDICTED BY IDOCK:   -6.99 KCAL/MOL
REMARK 923 INTER-LIGAND FREE ENERGY PREDICTED BY IDOCK:   -6.45 KCAL/MOL
REMARK 924 INTRA-LIGAND FREE ENERGY PREDICTED BY IDOCK:   -0.54 KCAL/MOL
REMARK 927      BINDING AFFINITY PREDICTED BY RF-SCORE:    0.00 PKD
ROOT
HETATM    1  C   UNL     1     -11.251  15.725  64.584  1.00  0.00    -0.363 C  
HETATM    2  N   UNL     1     -11.849  14.391  64.594  1.00  0.00    -0.429 NA 
HETATM    3  C   UNL     1     -10.804  13.348  64.529  1.00  0.00    -0.406 C  
HETATM    4  C   UNL     1     -10.016  13.159  65.845  1.00  0.00    -0.269 C  
HETATM    5  N   UNL     1     -10.865  12.892  67.024  1.00  0.00    -0.257 NA 
HETATM    6  C   UNL     1     -11.893  13.956  67.113  1.00  0.00    -0.412 C  
HETATM    7  C   UNL     1     -12.682  14.193  65.800  1.00  0.00    -0.413 C  
ENDROOT
BRANCH   5   8
HETATM    8  C   UNL     1     -11.515  11.571  66.978  1.00  0.00    -0.214 C  
BRANCH   8   9
HETATM    9  C   UNL     1     -10.561  10.401  67.212  1.00  0.00    -0.322 C  
BRANCH   9  10
HETATM   10  C   UNL     1      -9.522  10.647  68.317  1.00  0.00    -0.159 C  
BRANCH  10  11
HETATM   11  N   UNL     1      -8.619   9.485  68.546  1.00  0.00    -0.119 NA 
HETATM   12  C   UNL     1      -7.537   9.364  67.612  1.00  0.00    -0.088 A  
HETATM   13  C   UNL     1      -7.125  10.445  66.792  1.00  0.00    -0.105 A  
HETATM   14  C   UNL     1      -6.172  10.310  65.779  1.00  0.00    -0.109 A  
HETATM   15  C   UNL     1      -5.542   9.095  65.586  1.00  0.00    -0.045 A  
HETATM   16  C   UNL     1      -5.858   8.033  66.425  1.00  0.00    -0.041 A  
HETATM   17  C   UNL     1      -6.838   8.158  67.431  1.00  0.00    -0.074 A  
HETATM   18  S   UNL     1      -7.116   6.699  68.397  1.00  0.00    -0.085 SA 
HETATM   19  C   UNL     1      -8.441   7.190  69.471  1.00  0.00    -0.134 A  
HETATM   20  C   UNL     1      -9.051   8.463  69.444  1.00  0.00    -0.154 A  
HETATM   21  C   UNL     1     -10.101   8.649  70.378  1.00  0.00    -0.213 A  
HETATM   22  C   UNL     1     -10.557   7.643  71.258  1.00  0.00    -0.237 A  
HETATM   23  C   UNL     1     -11.709   7.888  72.201  1.00  0.00    -0.333 C  
HETATM   24  C   UNL     1      -9.926   6.403  71.243  1.00  0.00    -0.204 A  
HETATM   25  F   UNL     1     -12.739   7.018  72.000  1.00  0.00    -0.338 F  
HETATM   26  F   UNL     1     -11.352   7.742  73.507  1.00  0.00    -0.373 F  
HETATM   27  F   UNL     1     -12.251   9.134  72.102  1.00  0.00    -0.408 F  
HETATM   28  C   UNL     1      -8.875   6.184  70.360  1.00  0.00    -0.149 A  
ENDBRANCH  10  11
ENDBRANCH   9  10
ENDBRANCH   8   9
ENDBRANCH   5   8
TORSDOF 4
ENDMDL
MODEL      105
REMARK 921   NORMALIZED FREE ENERGY PREDICTED BY IDOCK:   -5.31 KCAL/MOL
REMARK 922        TOTAL FREE ENERGY PREDICTED BY IDOCK:   -6.97 KCAL/MOL
REMARK 923 INTER-LIGAND FREE ENERGY PREDICTED BY IDOCK:   -6.77 KCAL/MOL
REMARK 924 INTRA-LIGAND FREE ENERGY PREDICTED BY IDOCK:   -0.19 KCAL/MOL
REMARK 927      BINDING AFFINITY PREDICTED BY RF-SCORE:    0.00 PKD
ROOT
HETATM    1  C   UNL     1      -8.213  17.248  68.526  1.00  0.00    -0.267 C  
HETATM    2  N   UNL     1      -8.844  16.162  69.275  1.00  0.00    -0.232 NA 
HETATM    3  C   UNL     1     -10.313  16.325  69.296  1.00  0.00    -0.277 C  
HETATM    4  C   UNL     1     -11.006  15.993  67.955  1.00  0.00    -0.327 C  
HETATM    5  N   UNL     1     -10.697  14.646  67.433  1.00  0.00    -0.276 NA 
HETATM    6  C   UNL     1      -9.224  14.492  67.377  1.00  0.00    -0.200 C  
HETATM    7  C   UNL     1      -8.493  14.847  68.697  1.00  0.00    -0.166 C  
ENDROOT
BRANCH   5   8
HETATM    8  C   UNL     1     -11.282  13.566  68.244  1.00  0.00    -0.274 C  
BRANCH   8   9
HETATM    9  C   UNL     1     -10.469  12.273  68.236  1.00  0.00    -0.236 C  
BRANCH   9  10
HETATM   10  C   UNL     1     -11.249  11.041  67.751  1.00  0.00    -0.308 C  
BRANCH  10  11
HETATM   11  N   UNL     1     -10.398   9.829  67.593  1.00  0.00    -0.214 NA 
HETATM   12  C   UNL     1      -9.748   9.705  66.320  1.00  0.00    -0.240 A  
HETATM   13  C   UNL     1      -9.604  10.805  65.438  1.00  0.00    -0.272 A  
HETATM   14  C   UNL     1      -9.104  10.678  64.139  1.00  0.00    -0.245 A  
HETATM   15  C   UNL     1      -8.666   9.446  63.690  1.00  0.00    -0.222 A  
HETATM   16  C   UNL     1      -8.712   8.359  64.555  1.00  0.00     0.067 A  
HETATM   17  C   UNL     1      -9.241   8.478  65.857  1.00  0.00    -0.182 A  
HETATM   18  S   UNL     1      -9.230   6.987  66.814  1.00  0.00    -0.158 SA 
HETATM   19  C   UNL     1     -10.031   7.484  68.318  1.00  0.00    -0.173 A  
HETATM   20  C   UNL     1     -10.529   8.784  68.558  1.00  0.00    -0.175 A  
HETATM   21  C   UNL     1     -11.145   8.971  69.820  1.00  0.00    -0.117 A  
HETATM   22  C   UNL     1     -11.303   7.945  70.776  1.00  0.00    -0.283 A  
HETATM   23  C   UNL     1     -12.007   8.195  72.087  1.00  0.00    -0.359 C  
HETATM   24  C   UNL     1     -10.799   6.680  70.491  1.00  0.00    -0.310 A  
HETATM   25  F   UNL     1     -13.089   7.384  72.259  1.00  0.00    -0.227 F  
HETATM   26  F   UNL     1     -11.201   7.968  73.162  1.00  0.00    -0.449 F  
HETATM   27  F   UNL     1     -12.470   9.467  72.234  1.00  0.00    -0.424 F  
HETATM   28  C   UNL     1     -10.165   6.457  69.275  1.00  0.00    -0.229 A  
ENDBRANCH  10  11
ENDBRANCH   9  10
ENDBRANCH   8   9
ENDBRANCH   5   8
TORSDOF 4
ENDMDL
MODEL      106
REMARK 921   NORMALIZED FREE ENERGY PREDICTED BY IDOCK:   -5.29 KCAL/MOL
REMARK 922        TOTAL FREE ENERGY PREDICTED BY IDOCK:   -6.95 KCAL/MOL
REMARK 923 INTER-LIGAND FREE ENERGY PREDICTED BY IDOCK:   -6.42 KCAL/MOL
REMARK 924 INTRA-LIGAND FREE ENERGY PREDICTED BY IDOCK:   -0.52 KCAL/MOL
REMARK 927      BINDING AFFINITY PREDICTED BY RF-SCORE:    0.00 PKD
ROOT
HETATM    1  C   UNL     1      -9.129   7.729  69.910  1.00  0.00    -0.147 C  
HETATM    2  N   UNL     1      -8.912   9.088  70.404  1.00  0.00    -0.186 NA 
HETATM    3  C   UNL     1      -7.479   9.445  70.345  1.00  0.00    -0.135 C  
HETATM    4  C   UNL     1      -6.956   9.728  68.918  1.00  0.00    -0.062 C  
HETATM    5  N   UNL     1      -7.720  10.759  68.187  1.00  0.00    -0.099 NA 
HETATM    6  C   UNL     1      -9.154  10.386  68.214  1.00  0.00    -0.145 C  
HETATM    7  C   UNL     1      -9.705  10.066  69.627  1.00  0.00    -0.229 C  
ENDROOT
BRANCH   5   8
HETATM    8  C   UNL     1      -7.544  12.110  68.746  1.00  0.00    -0.056 C  
BRANCH   8   9
HETATM    9  C   UNL     1      -8.093  13.225  67.859  1.00  0.00    -0.159 C  
BRANCH   9  10
HETATM   10  C   UNL     1      -9.101  14.149  68.560  1.00  0.00    -0.176 C  
BRANCH  10  11
HETATM   11  N   UNL     1      -9.798  15.077  67.627  1.00  0.00    -0.220 NA 
HETATM   12  C   UNL     1     -10.761  14.458  66.762  1.00  0.00    -0.292 A  
HETATM   13  C   UNL     1     -11.289  13.169  67.024  1.00  0.00    -0.349 A  
HETATM   14  C   UNL     1     -12.116  12.490  66.125  1.00  0.00    -0.357 A  
HETATM   15  C   UNL     1     -12.501  13.104  64.948  1.00  0.00    -0.490 A  
HETATM   16  C   UNL     1     -12.072  14.402  64.694  1.00  0.00    -0.485 A  
HETATM   17  C   UNL     1     -11.216  15.079  65.586  1.00  0.00    -0.327 A  
HETATM   18  S   UNL     1     -10.762  16.720  65.094  1.00  0.00     0.006 SA 
HETATM   19  C   UNL     1      -9.639  17.214  66.377  1.00  0.00    -0.278 A  
HETATM   20  C   UNL     1      -9.266  16.392  67.462  1.00  0.00    -0.198 A  
HETATM   21  C   UNL     1      -8.346  16.973  68.371  1.00  0.00    -0.241 A  
HETATM   22  C   UNL     1      -7.793  18.261  68.212  1.00  0.00    -0.310 A  
HETATM   23  C   UNL     1      -6.785  18.809  69.191  1.00  0.00    -0.281 C  
HETATM   24  C   UNL     1      -8.189  19.031  67.123  1.00  0.00    -0.286 A  
HETATM   25  F   UNL     1      -5.603  19.134  68.594  1.00  0.00    -0.192 F  
HETATM   26  F   UNL     1      -7.216  19.949  69.799  1.00  0.00    -0.366 F  
HETATM   27  F   UNL     1      -6.467  17.950  70.199  1.00  0.00    -0.148 F  
HETATM   28  C   UNL     1      -9.108  18.511  66.219  1.00  0.00    -0.216 A  
ENDBRANCH  10  11
ENDBRANCH   9  10
ENDBRANCH   8   9
ENDBRANCH   5   8
TORSDOF 4
ENDMDL
MODEL      107
REMARK 921   NORMALIZED FREE ENERGY PREDICTED BY IDOCK:   -5.29 KCAL/MOL
REMARK 922        TOTAL FREE ENERGY PREDICTED BY IDOCK:   -6.94 KCAL/MOL
REMARK 923 INTER-LIGAND FREE ENERGY PREDICTED BY IDOCK:   -7.40 KCAL/MOL
REMARK 924 INTRA-LIGAND FREE ENERGY PREDICTED BY IDOCK:    0.46 KCAL/MOL
REMARK 927      BINDING AFFINITY PREDICTED BY RF-SCORE:    0.00 PKD
ROOT
HETATM    1  C   UNL     1     -12.058  12.235  63.564  1.00  0.00    -0.553 C  
HETATM    2  N   UNL     1     -10.988  12.811  64.378  1.00  0.00    -0.338 NA 
HETATM    3  C   UNL     1     -11.502  13.917  65.213  1.00  0.00    -0.315 C  
HETATM    4  C   UNL     1     -12.361  13.458  66.413  1.00  0.00    -0.321 C  
HETATM    5  N   UNL     1     -11.691  12.483  67.297  1.00  0.00    -0.398 NA 
HETATM    6  C   UNL     1     -11.205  11.354  66.468  1.00  0.00    -0.209 C  
HETATM    7  C   UNL     1     -10.365  11.780  65.237  1.00  0.00    -0.274 C  
ENDROOT
BRANCH   5   8
HETATM    8  C   UNL     1     -10.570  13.067  68.053  1.00  0.00    -0.235 C  
BRANCH   8   9
HETATM    9  C   UNL     1     -10.249  14.511  67.672  1.00  0.00    -0.225 C  
BRANCH   9  10
HETATM   10  C   UNL     1      -8.966  14.672  66.841  1.00  0.00    -0.253 C  
BRANCH  10  11
HETATM   11  N   UNL     1      -7.915  15.472  67.530  1.00  0.00    -0.153 NA 
HETATM   12  C   UNL     1      -6.950  14.703  68.263  1.00  0.00    -0.113 A  
HETATM   13  C   UNL     1      -6.769  13.315  68.042  1.00  0.00    -0.127 A  
HETATM   14  C   UNL     1      -5.940  12.521  68.839  1.00  0.00    -0.070 A  
HETATM   15  C   UNL     1      -5.205  13.100  69.855  1.00  0.00    -0.089 A  
HETATM   16  C   UNL     1      -5.291  14.474  70.049  1.00  0.00    -0.097 A  
HETATM   17  C   UNL     1      -6.146  15.274  69.265  1.00  0.00    -0.110 A  
HETATM   18  S   UNL     1      -6.135  17.001  69.660  1.00  0.00    -0.222 SA 
HETATM   19  C   UNL     1      -7.364  17.660  68.562  1.00  0.00    -0.256 A  
HETATM   20  C   UNL     1      -8.114  16.881  67.654  1.00  0.00    -0.182 A  
HETATM   21  C   UNL     1      -9.054  17.600  66.874  1.00  0.00    -0.262 A  
HETATM   22  C   UNL     1      -9.280  18.987  66.999  1.00  0.00    -0.330 A  
HETATM   23  C   UNL     1     -10.327  19.690  66.171  1.00  0.00    -0.530 C  
HETATM   24  C   UNL     1      -8.519  19.711  67.912  1.00  0.00    -0.356 A  
HETATM   25  F   UNL     1     -11.268  20.309  66.938  1.00  0.00    -0.232 F  
HETATM   26  F   UNL     1      -9.796  20.664  65.380  1.00  0.00    -0.289 F  
HETATM   27  F   UNL     1     -11.015  18.867  65.332  1.00  0.00    -0.492 F  
HETATM   28  C   UNL     1      -7.567  19.051  68.681  1.00  0.00    -0.372 A  
ENDBRANCH  10  11
ENDBRANCH   9  10
ENDBRANCH   8   9
ENDBRANCH   5   8
TORSDOF 4
ENDMDL
MODEL      108
REMARK 921   NORMALIZED FREE ENERGY PREDICTED BY IDOCK:   -5.27 KCAL/MOL
REMARK 922        TOTAL FREE ENERGY PREDICTED BY IDOCK:   -6.92 KCAL/MOL
REMARK 923 INTER-LIGAND FREE ENERGY PREDICTED BY IDOCK:   -6.40 KCAL/MOL
REMARK 924 INTRA-LIGAND FREE ENERGY PREDICTED BY IDOCK:   -0.52 KCAL/MOL
REMARK 927      BINDING AFFINITY PREDICTED BY RF-SCORE:    0.00 PKD
ROOT
HETATM    1  C   UNL     1      -7.615   6.390  63.131  1.00  0.00    -0.079 C  
HETATM    2  N   UNL     1      -6.812   7.015  64.181  1.00  0.00    -0.049 NA 
HETATM    3  C   UNL     1      -6.986   8.482  64.171  1.00  0.00    -0.078 C  
HETATM    4  C   UNL     1      -8.345   8.962  64.729  1.00  0.00    -0.175 C  
HETATM    5  N   UNL     1      -8.649   8.469  66.088  1.00  0.00    -0.130 NA 
HETATM    6  C   UNL     1      -8.510   6.994  66.093  1.00  0.00    -0.135 C  
HETATM    7  C   UNL     1      -7.169   6.476  65.512  1.00  0.00    -0.073 C  
ENDROOT
BRANCH   5   8
HETATM    8  C   UNL     1      -7.779   9.057  67.121  1.00  0.00    -0.099 C  
BRANCH   8   9
HETATM    9  C   UNL     1      -8.471  10.104  67.992  1.00  0.00    -0.118 C  
BRANCH   9  10
HETATM   10  C   UNL     1     -10.006  10.038  67.956  1.00  0.00    -0.150 C  
BRANCH  10  11
HETATM   11  N   UNL     1     -10.653  10.733  69.104  1.00  0.00    -0.211 NA 
HETATM   12  C   UNL     1     -11.122   9.870  70.149  1.00  0.00    -0.296 A  
HETATM   13  C   UNL     1     -10.675   8.531  70.277  1.00  0.00    -0.242 A  
HETATM   14  C   UNL     1     -11.222   7.632  71.197  1.00  0.00    -0.280 A  
HETATM   15  C   UNL     1     -12.201   8.058  72.075  1.00  0.00    -0.374 A  
HETATM   16  C   UNL     1     -12.606   9.388  72.037  1.00  0.00    -0.462 A  
HETATM   17  C   UNL     1     -12.076  10.290  71.093  1.00  0.00    -0.395 A  
HETATM   18  S   UNL     1     -12.718  11.939  71.184  1.00  0.00    -0.191 SA 
HETATM   19  C   UNL     1     -11.911  12.747  69.825  1.00  0.00    -0.310 A  
HETATM   20  C   UNL     1     -11.011  12.106  68.945  1.00  0.00    -0.224 A  
HETATM   21  C   UNL     1     -10.485  12.928  67.916  1.00  0.00    -0.231 A  
HETATM   22  C   UNL     1     -10.844  14.280  67.730  1.00  0.00    -0.259 A  
HETATM   23  C   UNL     1     -10.283  15.092  66.589  1.00  0.00    -0.268 C  
HETATM   24  C   UNL     1     -11.739  14.864  68.621  1.00  0.00    -0.358 A  
HETATM   25  F   UNL     1     -11.257  15.584  65.772  1.00  0.00    -0.319 F  
HETATM   26  F   UNL     1      -9.579  16.176  67.019  1.00  0.00    -0.214 F  
HETATM   27  F   UNL     1      -9.436  14.398  65.779  1.00  0.00    -0.305 F  
HETATM   28  C   UNL     1     -12.261  14.103  69.660  1.00  0.00    -0.376 A  
ENDBRANCH  10  11
ENDBRANCH   9  10
ENDBRANCH   8   9
ENDBRANCH   5   8
TORSDOF 4
ENDMDL
MODEL      109
REMARK 921   NORMALIZED FREE ENERGY PREDICTED BY IDOCK:   -5.25 KCAL/MOL
REMARK 922        TOTAL FREE ENERGY PREDICTED BY IDOCK:   -6.89 KCAL/MOL
REMARK 923 INTER-LIGAND FREE ENERGY PREDICTED BY IDOCK:   -6.45 KCAL/MOL
REMARK 924 INTRA-LIGAND FREE ENERGY PREDICTED BY IDOCK:   -0.45 KCAL/MOL
REMARK 927      BINDING AFFINITY PREDICTED BY RF-SCORE:    0.00 PKD
ROOT
HETATM    1  C   UNL     1     -10.710  17.469  65.884  1.00  0.00    -0.119 C  
HETATM    2  N   UNL     1      -9.783  16.447  65.399  1.00  0.00    -0.447 NA 
HETATM    3  C   UNL     1      -8.719  16.190  66.392  1.00  0.00    -0.325 C  
HETATM    4  C   UNL     1      -9.186  15.384  67.626  1.00  0.00    -0.187 C  
HETATM    5  N   UNL     1      -9.833  14.098  67.297  1.00  0.00    -0.235 NA 
HETATM    6  C   UNL     1     -10.924  14.355  66.328  1.00  0.00    -0.318 C  
HETATM    7  C   UNL     1     -10.498  15.188  65.092  1.00  0.00    -0.410 C  
ENDROOT
BRANCH   5   8
HETATM    8  C   UNL     1      -8.895  13.107  66.743  1.00  0.00    -0.132 C  
BRANCH   8   9
HETATM    9  C   UNL     1      -9.025  11.715  67.359  1.00  0.00    -0.166 C  
BRANCH   9  10
HETATM   10  C   UNL     1     -10.351  11.007  67.039  1.00  0.00    -0.228 C  
BRANCH  10  11
HETATM   11  N   UNL     1     -10.593   9.801  67.879  1.00  0.00    -0.244 NA 
HETATM   12  C   UNL     1     -11.269  10.051  69.120  1.00  0.00    -0.149 A  
HETATM   13  C   UNL     1     -11.988  11.250  69.357  1.00  0.00    -0.410 A  
HETATM   14  C   UNL     1     -12.533  11.575  70.602  1.00  0.00    -0.405 A  
HETATM   15  C   UNL     1     -12.433  10.680  71.650  1.00  0.00    -0.416 A  
HETATM   16  C   UNL     1     -11.809   9.457  71.433  1.00  0.00    -0.447 A  
HETATM   17  C   UNL     1     -11.235   9.136  70.186  1.00  0.00    -0.187 A  
HETATM   18  S   UNL     1     -10.472   7.540  70.096  1.00  0.00    -0.226 SA 
HETATM   19  C   UNL     1      -9.799   7.522  68.454  1.00  0.00    -0.164 A  
HETATM   20  C   UNL     1      -9.900   8.598  67.545  1.00  0.00    -0.180 A  
HETATM   21  C   UNL     1      -9.283   8.386  66.287  1.00  0.00    -0.263 A  
HETATM   22  C   UNL     1      -8.575   7.213  65.948  1.00  0.00    -0.157 A  
HETATM   23  C   UNL     1      -7.902   7.063  64.606  1.00  0.00    -0.123 C  
HETATM   24  C   UNL     1      -8.499   6.182  66.880  1.00  0.00    -0.105 A  
HETATM   25  F   UNL     1      -6.560   6.844  64.719  1.00  0.00    -0.039 F  
HETATM   26  F   UNL     1      -8.389   6.008  63.895  1.00  0.00    -0.125 F  
HETATM   27  F   UNL     1      -8.033   8.149  63.795  1.00  0.00    -0.126 F  
HETATM   28  C   UNL     1      -9.111   6.337  68.118  1.00  0.00    -0.112 A  
ENDBRANCH  10  11
ENDBRANCH   9  10
ENDBRANCH   8   9
ENDBRANCH   5   8
TORSDOF 4
ENDMDL
MODEL      110
REMARK 921   NORMALIZED FREE ENERGY PREDICTED BY IDOCK:   -5.24 KCAL/MOL
REMARK 922        TOTAL FREE ENERGY PREDICTED BY IDOCK:   -6.88 KCAL/MOL
REMARK 923 INTER-LIGAND FREE ENERGY PREDICTED BY IDOCK:   -6.24 KCAL/MOL
REMARK 924 INTRA-LIGAND FREE ENERGY PREDICTED BY IDOCK:   -0.63 KCAL/MOL
REMARK 927      BINDING AFFINITY PREDICTED BY RF-SCORE:    0.00 PKD
ROOT
HETATM    1  C   UNL     1     -10.351  16.024  65.665  1.00  0.00    -0.392 C  
HETATM    2  N   UNL     1     -10.156  15.554  67.036  1.00  0.00    -0.249 NA 
HETATM    3  C   UNL     1     -11.454  15.392  67.725  1.00  0.00    -0.278 C  
HETATM    4  C   UNL     1     -12.264  14.158  67.266  1.00  0.00    -0.279 C  
HETATM    5  N   UNL     1     -11.527  12.882  67.362  1.00  0.00    -0.315 NA 
HETATM    6  C   UNL     1     -10.240  13.029  66.642  1.00  0.00    -0.257 C  
HETATM    7  C   UNL     1      -9.414  14.274  67.055  1.00  0.00    -0.254 C  
ENDROOT
BRANCH   5   8
HETATM    8  C   UNL     1     -11.278  12.464  68.752  1.00  0.00    -0.273 C  
BRANCH   8   9
HETATM    9  C   UNL     1     -10.416  11.209  68.877  1.00  0.00    -0.233 C  
BRANCH   9  10
HETATM   10  C   UNL     1     -11.151   9.904  68.532  1.00  0.00    -0.129 C  
BRANCH  10  11
HETATM   11  N   UNL     1     -10.375   8.681  68.881  1.00  0.00    -0.211 NA 
HETATM   12  C   UNL     1     -10.507   8.247  70.242  1.00  0.00    -0.218 A  
HETATM   13  C   UNL     1     -11.565   8.691  71.075  1.00  0.00    -0.325 A  
HETATM   14  C   UNL     1     -11.633   8.395  72.439  1.00  0.00    -0.450 A  
HETATM   15  C   UNL     1     -10.673   7.585  73.015  1.00  0.00    -0.438 A  
HETATM   16  C   UNL     1      -9.666   7.060  72.212  1.00  0.00    -0.169 A  
HETATM   17  C   UNL     1      -9.579   7.378  70.842  1.00  0.00    -0.166 A  
HETATM   18  S   UNL     1      -8.224   6.629  69.980  1.00  0.00    -0.132 SA 
HETATM   19  C   UNL     1      -8.378   7.309  68.347  1.00  0.00    -0.125 A  
HETATM   20  C   UNL     1      -9.374   8.234  67.966  1.00  0.00    -0.132 A  
HETATM   21  C   UNL     1      -9.314   8.664  66.616  1.00  0.00    -0.246 A  
HETATM   22  C   UNL     1      -8.320   8.250  65.705  1.00  0.00    -0.154 A  
HETATM   23  C   UNL     1      -8.282   8.777  64.291  1.00  0.00    -0.163 C  
HETATM   24  C   UNL     1      -7.356   7.342  66.130  1.00  0.00    -0.075 A  
HETATM   25  F   UNL     1      -7.110   9.410  64.003  1.00  0.00    -0.094 F  
HETATM   26  F   UNL     1      -8.405   7.787  63.364  1.00  0.00    -0.124 F  
HETATM   27  F   UNL     1      -9.267   9.674  64.008  1.00  0.00    -0.268 F  
HETATM   28  C   UNL     1      -7.391   6.874  67.438  1.00  0.00    -0.092 A  
ENDBRANCH  10  11
ENDBRANCH   9  10
ENDBRANCH   8   9
ENDBRANCH   5   8
TORSDOF 4
ENDMDL
MODEL      111
REMARK 921   NORMALIZED FREE ENERGY PREDICTED BY IDOCK:   -5.23 KCAL/MOL
REMARK 922        TOTAL FREE ENERGY PREDICTED BY IDOCK:   -6.87 KCAL/MOL
REMARK 923 INTER-LIGAND FREE ENERGY PREDICTED BY IDOCK:   -6.29 KCAL/MOL
REMARK 924 INTRA-LIGAND FREE ENERGY PREDICTED BY IDOCK:   -0.58 KCAL/MOL
REMARK 927      BINDING AFFINITY PREDICTED BY RF-SCORE:    0.00 PKD
ROOT
HETATM    1  C   UNL     1      -8.769   7.622  73.764  1.00  0.00    -0.239 C  
HETATM    2  N   UNL     1      -9.896   7.282  72.897  1.00  0.00    -0.180 NA 
HETATM    3  C   UNL     1     -10.415   8.485  72.215  1.00  0.00    -0.332 C  
HETATM    4  C   UNL     1      -9.512   9.005  71.073  1.00  0.00    -0.274 C  
HETATM    5  N   UNL     1      -9.193   7.991  70.047  1.00  0.00    -0.155 NA 
HETATM    6  C   UNL     1      -8.639   6.795  70.725  1.00  0.00    -0.141 C  
HETATM    7  C   UNL     1      -9.505   6.266  71.896  1.00  0.00    -0.153 C  
ENDROOT
BRANCH   5   8
HETATM    8  C   UNL     1     -10.359   7.609  69.233  1.00  0.00    -0.217 C  
BRANCH   8   9
HETATM    9  C   UNL     1     -10.527   8.439  67.961  1.00  0.00    -0.242 C  
BRANCH   9  10
HETATM   10  C   UNL     1      -9.218   9.037  67.422  1.00  0.00    -0.138 C  
BRANCH  10  11
HETATM   11  N   UNL     1      -8.991   8.753  65.978  1.00  0.00    -0.179 NA 
HETATM   12  C   UNL     1      -8.096   7.665  65.707  1.00  0.00    -0.126 A  
HETATM   13  C   UNL     1      -7.765   6.700  66.691  1.00  0.00    -0.102 A  
HETATM   14  C   UNL     1      -6.790   5.718  66.494  1.00  0.00    -0.059 A  
HETATM   15  C   UNL     1      -6.150   5.621  65.272  1.00  0.00    -0.026 A  
HETATM   16  C   UNL     1      -6.509   6.497  64.253  1.00  0.00    -0.037 A  
HETATM   17  C   UNL     1      -7.472   7.506  64.457  1.00  0.00    -0.098 A  
HETATM   18  S   UNL     1      -7.794   8.535  63.052  1.00  0.00    -0.154 SA 
HETATM   19  C   UNL     1      -8.958   9.713  63.690  1.00  0.00    -0.216 A  
HETATM   20  C   UNL     1      -9.418   9.728  65.025  1.00  0.00    -0.272 A  
HETATM   21  C   UNL     1     -10.338  10.761  65.336  1.00  0.00    -0.315 A  
HETATM   22  C   UNL     1     -10.754  11.744  64.413  1.00  0.00    -0.381 A  
HETATM   23  C   UNL     1     -11.703  12.846  64.815  1.00  0.00    -0.346 C  
HETATM   24  C   UNL     1     -10.268  11.691  63.111  1.00  0.00    -0.396 A  
HETATM   25  F   UNL     1     -11.168  14.087  64.632  1.00  0.00    -0.334 F  
HETATM   26  F   UNL     1     -12.855  12.830  64.089  1.00  0.00    -0.393 F  
HETATM   27  F   UNL     1     -12.087  12.798  66.121  1.00  0.00    -0.432 F  
HETATM   28  C   UNL     1      -9.383  10.680  62.755  1.00  0.00    -0.348 A  
ENDBRANCH  10  11
ENDBRANCH   9  10
ENDBRANCH   8   9
ENDBRANCH   5   8
TORSDOF 4
ENDMDL
MODEL      112
REMARK 921   NORMALIZED FREE ENERGY PREDICTED BY IDOCK:   -5.20 KCAL/MOL
REMARK 922        TOTAL FREE ENERGY PREDICTED BY IDOCK:   -6.84 KCAL/MOL
REMARK 923 INTER-LIGAND FREE ENERGY PREDICTED BY IDOCK:   -6.55 KCAL/MOL
REMARK 924 INTRA-LIGAND FREE ENERGY PREDICTED BY IDOCK:   -0.29 KCAL/MOL
REMARK 927      BINDING AFFINITY PREDICTED BY RF-SCORE:    0.00 PKD
ROOT
HETATM    1  C   UNL     1     -11.259  15.097  67.765  1.00  0.00    -0.323 C  
HETATM    2  N   UNL     1     -10.951  13.959  66.900  1.00  0.00    -0.293 NA 
HETATM    3  C   UNL     1      -9.497  13.696  66.878  1.00  0.00    -0.262 C  
HETATM    4  C   UNL     1      -8.952  13.044  68.169  1.00  0.00    -0.198 C  
HETATM    5  N   UNL     1      -9.642  11.796  68.553  1.00  0.00    -0.195 NA 
HETATM    6  C   UNL     1     -11.099  12.064  68.611  1.00  0.00    -0.250 C  
HETATM    7  C   UNL     1     -11.674  12.747  67.344  1.00  0.00    -0.366 C  
ENDROOT
BRANCH   5   8
HETATM    8  C   UNL     1      -9.375  10.682  67.627  1.00  0.00    -0.146 C  
BRANCH   8   9
HETATM    9  C   UNL     1     -10.598   9.815  67.331  1.00  0.00    -0.330 C  
BRANCH   9  10
HETATM   10  C   UNL     1     -10.369   8.310  67.544  1.00  0.00    -0.265 C  
BRANCH  10  11
HETATM   11  N   UNL     1      -9.542   8.005  68.745  1.00  0.00    -0.148 NA 
HETATM   12  C   UNL     1      -8.277   7.387  68.469  1.00  0.00    -0.125 A  
HETATM   13  C   UNL     1      -7.689   7.417  67.180  1.00  0.00    -0.115 A  
HETATM   14  C   UNL     1      -6.532   6.704  66.855  1.00  0.00    -0.043 A  
HETATM   15  C   UNL     1      -5.876   5.978  67.832  1.00  0.00    -0.013 A  
HETATM   16  C   UNL     1      -6.374   5.993  69.130  1.00  0.00    -0.041 A  
HETATM   17  C   UNL     1      -7.556   6.689  69.454  1.00  0.00    -0.096 A  
HETATM   18  S   UNL     1      -8.047   6.587  71.154  1.00  0.00    -0.117 SA 
HETATM   19  C   UNL     1      -9.580   7.482  71.170  1.00  0.00    -0.158 A  
HETATM   20  C   UNL     1     -10.168   8.067  70.027  1.00  0.00    -0.205 A  
HETATM   21  C   UNL     1     -11.401   8.728  70.253  1.00  0.00    -0.162 A  
HETATM   22  C   UNL     1     -12.045   8.780  71.508  1.00  0.00    -0.388 A  
HETATM   23  C   UNL     1     -13.380   9.462  71.677  1.00  0.00    -0.404 C  
HETATM   24  C   UNL     1     -11.429   8.184  72.603  1.00  0.00    -0.454 A  
HETATM   25  F   UNL     1     -14.339   8.616  72.151  1.00  0.00    -0.442 F  
HETATM   26  F   UNL     1     -13.328  10.495  72.564  1.00  0.00    -0.445 F  
HETATM   27  F   UNL     1     -13.885   9.986  70.526  1.00  0.00    -0.304 F  
HETATM   28  C   UNL     1     -10.205   7.546  72.433  1.00  0.00    -0.261 A  
ENDBRANCH  10  11
ENDBRANCH   9  10
ENDBRANCH   8   9
ENDBRANCH   5   8
TORSDOF 4
ENDMDL
MODEL      113
REMARK 921   NORMALIZED FREE ENERGY PREDICTED BY IDOCK:   -5.19 KCAL/MOL
REMARK 922        TOTAL FREE ENERGY PREDICTED BY IDOCK:   -6.82 KCAL/MOL
REMARK 923 INTER-LIGAND FREE ENERGY PREDICTED BY IDOCK:   -6.16 KCAL/MOL
REMARK 924 INTRA-LIGAND FREE ENERGY PREDICTED BY IDOCK:   -0.66 KCAL/MOL
REMARK 927      BINDING AFFINITY PREDICTED BY RF-SCORE:    0.00 PKD
ROOT
HETATM    1  C   UNL     1      -5.159  10.424  70.768  1.00  0.00    -0.063 C  
HETATM    2  N   UNL     1      -6.619  10.503  70.795  1.00  0.00    -0.341 NA 
HETATM    3  C   UNL     1      -7.119  11.348  69.690  1.00  0.00     0.037 C  
HETATM    4  C   UNL     1      -7.039  10.681  68.298  1.00  0.00    -0.081 C  
HETATM    5  N   UNL     1      -7.711   9.368  68.218  1.00  0.00    -0.083 NA 
HETATM    6  C   UNL     1      -7.187   8.506  69.304  1.00  0.00    -0.063 C  
HETATM    7  C   UNL     1      -7.223   9.156  70.710  1.00  0.00    -0.108 C  
ENDROOT
BRANCH   5   8
HETATM    8  C   UNL     1      -9.177   9.465  68.320  1.00  0.00    -0.130 C  
BRANCH   8   9
HETATM    9  C   UNL     1      -9.802  10.464  67.348  1.00  0.00    -0.210 C  
BRANCH   9  10
HETATM   10  C   UNL     1     -11.335  10.545  67.428  1.00  0.00    -0.039 C  
BRANCH  10  11
HETATM   11  N   UNL     1     -11.821  11.577  68.386  1.00  0.00    -0.515 NA 
HETATM   12  C   UNL     1     -11.561  12.934  68.000  1.00  0.00    -0.342 A  
HETATM   13  C   UNL     1     -11.230  13.288  66.668  1.00  0.00    -0.332 A  
HETATM   14  C   UNL     1     -10.835  14.577  66.300  1.00  0.00    -0.317 A  
HETATM   15  C   UNL     1     -10.817  15.585  67.245  1.00  0.00    -0.313 A  
HETATM   16  C   UNL     1     -11.216  15.297  68.545  1.00  0.00    -0.308 A  
HETATM   17  C   UNL     1     -11.589  13.992  68.926  1.00  0.00    -0.315 A  
HETATM   18  S   UNL     1     -12.057  13.808  70.625  1.00  0.00    -0.298 SA 
HETATM   19  C   UNL     1     -12.366  12.065  70.757  1.00  0.00    -0.308 A  
HETATM   20  C   UNL     1     -12.216  11.151  69.690  1.00  0.00    -0.290 A  
HETATM   21  C   UNL     1     -12.502   9.800  70.008  1.00  0.00     0.293 A  
HETATM   22  C   UNL     1     -12.872   9.358  71.297  1.00  0.00    -0.383 A  
HETATM   23  C   UNL     1     -13.121   7.898  71.584  1.00  0.00    -0.332 C  
HETATM   24  C   UNL     1     -13.001  10.296  72.316  1.00  0.00    -0.276 A  
HETATM   25  F   UNL     1     -12.301   7.412  72.559  1.00  0.00    -0.239 F  
HETATM   26  F   UNL     1     -14.391   7.663  72.019  1.00  0.00    -0.425 F  
HETATM   27  F   UNL     1     -12.941   7.082  70.509  1.00  0.00    -0.283 F  
HETATM   28  C   UNL     1     -12.755  11.637  72.044  1.00  0.00    -0.095 A  
ENDBRANCH  10  11
ENDBRANCH   9  10
ENDBRANCH   8   9
ENDBRANCH   5   8
TORSDOF 4
ENDMDL
MODEL      114
REMARK 921   NORMALIZED FREE ENERGY PREDICTED BY IDOCK:   -5.18 KCAL/MOL
REMARK 922        TOTAL FREE ENERGY PREDICTED BY IDOCK:   -6.80 KCAL/MOL
REMARK 923 INTER-LIGAND FREE ENERGY PREDICTED BY IDOCK:   -6.17 KCAL/MOL
REMARK 924 INTRA-LIGAND FREE ENERGY PREDICTED BY IDOCK:   -0.63 KCAL/MOL
REMARK 927      BINDING AFFINITY PREDICTED BY RF-SCORE:    0.00 PKD
ROOT
HETATM    1  C   UNL     1     -13.493  10.674  72.065  1.00  0.00    -0.205 C  
HETATM    2  N   UNL     1     -13.155   9.644  71.084  1.00  0.00    -0.336 NA 
HETATM    3  C   UNL     1     -12.512  10.243  69.895  1.00  0.00     0.025 C  
HETATM    4  C   UNL     1     -11.055  10.702  70.127  1.00  0.00    -0.268 C  
HETATM    5  N   UNL     1     -10.165   9.645  70.651  1.00  0.00    -0.288 NA 
HETATM    6  C   UNL     1     -10.790   9.066  71.864  1.00  0.00    -0.343 C  
HETATM    7  C   UNL     1     -12.263   8.623  71.676  1.00  0.00    -0.333 C  
ENDROOT
BRANCH   5   8
HETATM    8  C   UNL     1      -9.896   8.581  69.670  1.00  0.00    -0.183 C  
BRANCH   8   9
HETATM    9  C   UNL     1      -9.524   9.097  68.281  1.00  0.00    -0.152 C  
BRANCH   9  10
HETATM   10  C   UNL     1     -10.223   8.360  67.127  1.00  0.00    -0.292 C  
BRANCH  10  11
HETATM   11  N   UNL     1      -9.379   8.243  65.906  1.00  0.00    -0.146 NA 
HETATM   12  C   UNL     1      -8.421   7.176  65.929  1.00  0.00    -0.147 A  
HETATM   13  C   UNL     1      -8.520   6.095  66.840  1.00  0.00    -0.105 A  
HETATM   14  C   UNL     1      -7.526   5.122  66.976  1.00  0.00    -0.087 A  
HETATM   15  C   UNL     1      -6.415   5.157  66.156  1.00  0.00    -0.040 A  
HETATM   16  C   UNL     1      -6.321   6.154  65.191  1.00  0.00    -0.038 A  
HETATM   17  C   UNL     1      -7.309   7.152  65.069  1.00  0.00    -0.083 A  
HETATM   18  S   UNL     1      -7.019   8.346  63.793  1.00  0.00    -0.081 SA 
HETATM   19  C   UNL     1      -8.383   9.466  63.990  1.00  0.00    -0.174 A  
HETATM   20  C   UNL     1      -9.379   9.332  64.981  1.00  0.00    -0.127 A  
HETATM   21  C   UNL     1     -10.376  10.341  64.975  1.00  0.00    -0.174 A  
HETATM   22  C   UNL     1     -10.379  11.435  64.084  1.00  0.00    -0.400 A  
HETATM   23  C   UNL     1     -11.444  12.502  64.155  1.00  0.00    -0.385 C  
HETATM   24  C   UNL     1      -9.372  11.525  63.129  1.00  0.00    -0.271 A  
HETATM   25  F   UNL     1     -10.923  13.743  64.369  1.00  0.00    -0.365 F  
HETATM   26  F   UNL     1     -12.163  12.596  63.002  1.00  0.00    -0.559 F  
HETATM   27  F   UNL     1     -12.358  12.308  65.147  1.00  0.00    -0.467 F  
HETATM   28  C   UNL     1      -8.388  10.545  63.081  1.00  0.00    -0.146 A  
ENDBRANCH  10  11
ENDBRANCH   9  10
ENDBRANCH   8   9
ENDBRANCH   5   8
TORSDOF 4
ENDMDL
MODEL      115
REMARK 921   NORMALIZED FREE ENERGY PREDICTED BY IDOCK:   -5.16 KCAL/MOL
REMARK 922        TOTAL FREE ENERGY PREDICTED BY IDOCK:   -6.78 KCAL/MOL
REMARK 923 INTER-LIGAND FREE ENERGY PREDICTED BY IDOCK:   -6.32 KCAL/MOL
REMARK 924 INTRA-LIGAND FREE ENERGY PREDICTED BY IDOCK:   -0.46 KCAL/MOL
REMARK 927      BINDING AFFINITY PREDICTED BY RF-SCORE:    0.00 PKD
ROOT
HETATM    1  C   UNL     1     -13.380  15.421  70.720  1.00  0.00    -0.334 C  
HETATM    2  N   UNL     1     -12.028  14.874  70.831  1.00  0.00    -0.295 NA 
HETATM    3  C   UNL     1     -12.039  13.408  70.649  1.00  0.00    -0.295 C  
HETATM    4  C   UNL     1     -12.255  12.953  69.188  1.00  0.00    -0.037 C  
HETATM    5  N   UNL     1     -11.294  13.532  68.227  1.00  0.00    -0.275 NA 
HETATM    6  C   UNL     1     -11.305  15.006  68.383  1.00  0.00    -0.309 C  
HETATM    7  C   UNL     1     -11.122  15.496  69.841  1.00  0.00    -0.310 C  
ENDROOT
BRANCH   5   8
HETATM    8  C   UNL     1      -9.924  13.021  68.405  1.00  0.00    -0.216 C  
BRANCH   8   9
HETATM    9  C   UNL     1      -9.675  11.668  67.740  1.00  0.00    -0.177 C  
BRANCH   9  10
HETATM   10  C   UNL     1      -8.831  10.698  68.583  1.00  0.00    -0.151 C  
BRANCH  10  11
HETATM   11  N   UNL     1      -8.845   9.302  68.065  1.00  0.00    -0.128 NA 
HETATM   12  C   UNL     1      -8.177   9.113  66.809  1.00  0.00    -0.119 A  
HETATM   13  C   UNL     1      -7.257  10.062  66.297  1.00  0.00    -0.106 A  
HETATM   14  C   UNL     1      -6.704   9.969  65.016  1.00  0.00    -0.128 A  
HETATM   15  C   UNL     1      -7.003   8.882  64.217  1.00  0.00    -0.089 A  
HETATM   16  C   UNL     1      -7.835   7.887  64.717  1.00  0.00    -0.125 A  
HETATM   17  C   UNL     1      -8.416   7.991  65.998  1.00  0.00    -0.136 A  
HETATM   18  S   UNL     1      -9.458   6.636  66.464  1.00  0.00    -0.122 SA 
HETATM   19  C   UNL     1     -10.067   7.142  68.053  1.00  0.00    -0.169 A  
HETATM   20  C   UNL     1      -9.738   8.367  68.673  1.00  0.00    -0.164 A  
HETATM   21  C   UNL     1     -10.340   8.585  69.938  1.00  0.00    -0.210 A  
HETATM   22  C   UNL     1     -11.241   7.682  70.543  1.00  0.00    -0.275 A  
HETATM   23  C   UNL     1     -11.884   7.990  71.873  1.00  0.00    -0.307 C  
HETATM   24  C   UNL     1     -11.538   6.491  69.890  1.00  0.00    -0.433 A  
HETATM   25  F   UNL     1     -13.246   8.006  71.800  1.00  0.00    -0.318 F  
HETATM   26  F   UNL     1     -11.577   7.066  72.826  1.00  0.00    -0.279 F  
HETATM   27  F   UNL     1     -11.527   9.195  72.397  1.00  0.00    -0.392 F  
HETATM   28  C   UNL     1     -10.950   6.224  68.659  1.00  0.00    -0.423 A  
ENDBRANCH  10  11
ENDBRANCH   9  10
ENDBRANCH   8   9
ENDBRANCH   5   8
TORSDOF 4
ENDMDL
MODEL      116
REMARK 921   NORMALIZED FREE ENERGY PREDICTED BY IDOCK:   -5.14 KCAL/MOL
REMARK 922        TOTAL FREE ENERGY PREDICTED BY IDOCK:   -6.76 KCAL/MOL
REMARK 923 INTER-LIGAND FREE ENERGY PREDICTED BY IDOCK:   -6.07 KCAL/MOL
REMARK 924 INTRA-LIGAND FREE ENERGY PREDICTED BY IDOCK:   -0.69 KCAL/MOL
REMARK 927      BINDING AFFINITY PREDICTED BY RF-SCORE:    0.00 PKD
ROOT
HETATM    1  C   UNL     1      -9.272   5.028  65.787  1.00  0.00    -0.156 C  
HETATM    2  N   UNL     1      -8.247   5.870  66.401  1.00  0.00    -0.110 NA 
HETATM    3  C   UNL     1      -7.387   6.486  65.370  1.00  0.00    -0.076 C  
HETATM    4  C   UNL     1      -8.061   7.634  64.586  1.00  0.00    -0.112 C  
HETATM    5  N   UNL     1      -8.604   8.711  65.439  1.00  0.00    -0.174 NA 
HETATM    6  C   UNL     1      -9.496   8.101  66.454  1.00  0.00    -0.218 C  
HETATM    7  C   UNL     1      -8.861   6.924  67.238  1.00  0.00    -0.118 C  
ENDROOT
BRANCH   5   8
HETATM    8  C   UNL     1      -7.555   9.501  66.106  1.00  0.00    -0.100 C  
BRANCH   8   9
HETATM    9  C   UNL     1      -7.904  10.978  66.275  1.00  0.00    -0.141 C  
BRANCH   9  10
HETATM   10  C   UNL     1      -7.653  11.526  67.690  1.00  0.00    -0.115 C  
BRANCH  10  11
HETATM   11  N   UNL     1      -8.894  11.645  68.504  1.00  0.00    -0.157 NA 
HETATM   12  C   UNL     1      -9.193  10.507  69.325  1.00  0.00    -0.148 A  
HETATM   13  C   UNL     1      -8.216   9.529  69.640  1.00  0.00    -0.143 A  
HETATM   14  C   UNL     1      -8.518   8.344  70.317  1.00  0.00    -0.126 A  
HETATM   15  C   UNL     1      -9.806   8.118  70.764  1.00  0.00    -0.201 A  
HETATM   16  C   UNL     1     -10.775   9.093  70.549  1.00  0.00    -0.289 A  
HETATM   17  C   UNL     1     -10.479  10.277  69.843  1.00  0.00    -0.256 A  
HETATM   18  S   UNL     1     -11.838  11.399  69.653  1.00  0.00    -0.380 SA 
HETATM   19  C   UNL     1     -11.136  12.696  68.665  1.00  0.00    -0.266 A  
HETATM   20  C   UNL     1      -9.806  12.699  68.192  1.00  0.00    -0.226 A  
HETATM   21  C   UNL     1      -9.447  13.824  67.408  1.00  0.00    -0.224 A  
HETATM   22  C   UNL     1     -10.340  14.864  67.071  1.00  0.00    -0.264 A  
HETATM   23  C   UNL     1      -9.911  16.015  66.196  1.00  0.00    -0.325 C  
HETATM   24  C   UNL     1     -11.643  14.812  67.558  1.00  0.00    -0.379 A  
HETATM   25  F   UNL     1     -10.668  16.122  65.068  1.00  0.00    -0.390 F  
HETATM   26  F   UNL     1     -10.019  17.217  66.828  1.00  0.00    -0.257 F  
HETATM   27  F   UNL     1      -8.620  15.936  65.769  1.00  0.00    -0.326 F  
HETATM   28  C   UNL     1     -12.032  13.740  68.351  1.00  0.00    -0.395 A  
ENDBRANCH  10  11
ENDBRANCH   9  10
ENDBRANCH   8   9
ENDBRANCH   5   8
TORSDOF 4
ENDMDL
MODEL      117
REMARK 921   NORMALIZED FREE ENERGY PREDICTED BY IDOCK:   -5.14 KCAL/MOL
REMARK 922        TOTAL FREE ENERGY PREDICTED BY IDOCK:   -6.76 KCAL/MOL
REMARK 923 INTER-LIGAND FREE ENERGY PREDICTED BY IDOCK:   -6.16 KCAL/MOL
REMARK 924 INTRA-LIGAND FREE ENERGY PREDICTED BY IDOCK:   -0.60 KCAL/MOL
REMARK 927      BINDING AFFINITY PREDICTED BY RF-SCORE:    0.00 PKD
ROOT
HETATM    1  C   UNL     1      -6.047   6.998  62.919  1.00  0.00    -0.041 C  
HETATM    2  N   UNL     1      -7.318   7.629  63.273  1.00  0.00    -0.084 NA 
HETATM    3  C   UNL     1      -7.561   7.539  64.728  1.00  0.00    -0.102 C  
HETATM    4  C   UNL     1      -6.689   8.493  65.575  1.00  0.00    -0.059 C  
HETATM    5  N   UNL     1      -6.784   9.912  65.177  1.00  0.00    -0.102 NA 
HETATM    6  C   UNL     1      -6.506  10.011  63.725  1.00  0.00    -0.131 C  
HETATM    7  C   UNL     1      -7.342   9.045  62.846  1.00  0.00    -0.095 C  
ENDROOT
BRANCH   5   8
HETATM    8  C   UNL     1      -8.097  10.507  65.477  1.00  0.00    -0.155 C  
BRANCH   8   9
HETATM    9  C   UNL     1      -8.661  10.111  66.840  1.00  0.00    -0.135 C  
BRANCH   9  10
HETATM   10  C   UNL     1     -10.144   9.709  66.815  1.00  0.00    -0.236 C  
BRANCH  10  11
HETATM   11  N   UNL     1     -10.940  10.322  67.915  1.00  0.00    -0.286 NA 
HETATM   12  C   UNL     1     -11.358  11.674  67.682  1.00  0.00    -0.295 A  
HETATM   13  C   UNL     1     -11.362  12.247  66.385  1.00  0.00    -0.405 A  
HETATM   14  C   UNL     1     -11.628  13.600  66.153  1.00  0.00    -0.369 A  
HETATM   15  C   UNL     1     -11.966  14.424  67.210  1.00  0.00    -0.409 A  
HETATM   16  C   UNL     1     -12.056  13.880  68.486  1.00  0.00    -0.331 A  
HETATM   17  C   UNL     1     -11.762  12.522  68.727  1.00  0.00    -0.327 A  
HETATM   18  S   UNL     1     -11.918  12.007  70.415  1.00  0.00    -0.188 SA 
HETATM   19  C   UNL     1     -11.396  10.311  70.354  1.00  0.00    -0.332 A  
HETATM   20  C   UNL     1     -10.964   9.658  69.180  1.00  0.00    -0.151 A  
HETATM   21  C   UNL     1     -10.578   8.304  69.348  1.00  0.00    -0.203 A  
HETATM   22  C   UNL     1     -10.574   7.639  70.593  1.00  0.00    -0.225 A  
HETATM   23  C   UNL     1     -10.110   6.209  70.717  1.00  0.00    -0.193 C  
HETATM   24  C   UNL     1     -11.004   8.328  71.723  1.00  0.00    -0.342 A  
HETATM   25  F   UNL     1      -9.063   6.074  71.580  1.00  0.00    -0.141 F  
HETATM   26  F   UNL     1     -11.086   5.385  71.190  1.00  0.00    -0.291 F  
HETATM   27  F   UNL     1      -9.696   5.656  69.543  1.00  0.00    -0.155 F  
HETATM   28  C   UNL     1     -11.415   9.649  71.600  1.00  0.00    -0.376 A  
ENDBRANCH  10  11
ENDBRANCH   9  10
ENDBRANCH   8   9
ENDBRANCH   5   8
TORSDOF 4
ENDMDL
MODEL      118
REMARK 921   NORMALIZED FREE ENERGY PREDICTED BY IDOCK:   -5.13 KCAL/MOL
REMARK 922        TOTAL FREE ENERGY PREDICTED BY IDOCK:   -6.74 KCAL/MOL
REMARK 923 INTER-LIGAND FREE ENERGY PREDICTED BY IDOCK:   -6.37 KCAL/MOL
REMARK 924 INTRA-LIGAND FREE ENERGY PREDICTED BY IDOCK:   -0.37 KCAL/MOL
REMARK 927      BINDING AFFINITY PREDICTED BY RF-SCORE:    0.00 PKD
ROOT
HETATM    1  C   UNL     1      -7.850  19.286  68.296  1.00  0.00    -0.319 C  
HETATM    2  N   UNL     1      -8.582  18.068  67.948  1.00  0.00    -0.252 NA 
HETATM    3  C   UNL     1      -8.134  17.543  66.641  1.00  0.00    -0.255 C  
HETATM    4  C   UNL     1      -6.744  16.867  66.673  1.00  0.00    -0.229 C  
HETATM    5  N   UNL     1      -6.621  15.788  67.673  1.00  0.00    -0.156 NA 
HETATM    6  C   UNL     1      -7.035  16.321  68.992  1.00  0.00    -0.188 C  
HETATM    7  C   UNL     1      -8.412  17.033  68.990  1.00  0.00    -0.124 C  
ENDROOT
BRANCH   5   8
HETATM    8  C   UNL     1      -7.424  14.599  67.339  1.00  0.00    -0.186 C  
BRANCH   8   9
HETATM    9  C   UNL     1      -6.681  13.277  67.524  1.00  0.00    -0.156 C  
BRANCH   9  10
HETATM   10  C   UNL     1      -7.553  12.138  68.077  1.00  0.00    -0.123 C  
BRANCH  10  11
HETATM   11  N   UNL     1      -8.605  11.686  67.125  1.00  0.00    -0.157 NA 
HETATM   12  C   UNL     1      -8.151  10.796  66.095  1.00  0.00    -0.160 A  
HETATM   13  C   UNL     1      -6.921  10.099  66.191  1.00  0.00    -0.113 A  
HETATM   14  C   UNL     1      -6.394   9.340  65.143  1.00  0.00    -0.069 A  
HETATM   15  C   UNL     1      -7.112   9.197  63.970  1.00  0.00    -0.096 A  
HETATM   16  C   UNL     1      -8.362   9.797  63.869  1.00  0.00    -0.173 A  
HETATM   17  C   UNL     1      -8.885  10.584  64.915  1.00  0.00    -0.192 A  
HETATM   18  S   UNL     1     -10.485  11.279  64.606  1.00  0.00    -0.328 SA 
HETATM   19  C   UNL     1     -10.774  12.253  66.061  1.00  0.00    -0.261 A  
HETATM   20  C   UNL     1      -9.856  12.376  67.127  1.00  0.00    -0.205 A  
HETATM   21  C   UNL     1     -10.274  13.213  68.191  1.00  0.00    -0.239 A  
HETATM   22  C   UNL     1     -11.496  13.920  68.200  1.00  0.00    -0.346 A  
HETATM   23  C   UNL     1     -11.867  14.831  69.344  1.00  0.00    -0.323 C  
HETATM   24  C   UNL     1     -12.365  13.771  67.124  1.00  0.00    -0.244 A  
HETATM   25  F   UNL     1     -12.083  16.115  68.938  1.00  0.00    -0.362 F  
HETATM   26  F   UNL     1     -13.015  14.444  69.966  1.00  0.00    -0.352 F  
HETATM   27  F   UNL     1     -10.923  14.907  70.322  1.00  0.00    -0.259 F  
HETATM   28  C   UNL     1     -12.007  12.940  66.069  1.00  0.00    -0.505 A  
ENDBRANCH  10  11
ENDBRANCH   9  10
ENDBRANCH   8   9
ENDBRANCH   5   8
TORSDOF 4
ENDMDL
MODEL      119
REMARK 921   NORMALIZED FREE ENERGY PREDICTED BY IDOCK:   -5.11 KCAL/MOL
REMARK 922        TOTAL FREE ENERGY PREDICTED BY IDOCK:   -6.72 KCAL/MOL
REMARK 923 INTER-LIGAND FREE ENERGY PREDICTED BY IDOCK:   -6.33 KCAL/MOL
REMARK 924 INTRA-LIGAND FREE ENERGY PREDICTED BY IDOCK:   -0.39 KCAL/MOL
REMARK 927      BINDING AFFINITY PREDICTED BY RF-SCORE:    0.00 PKD
ROOT
HETATM    1  C   UNL     1     -14.032  15.205  71.491  1.00  0.00    -0.522 C  
HETATM    2  N   UNL     1     -12.653  14.883  71.855  1.00  0.00    -0.317 NA 
HETATM    3  C   UNL     1     -12.151  13.747  71.054  1.00  0.00    -0.241 C  
HETATM    4  C   UNL     1     -11.830  14.102  69.584  1.00  0.00    -0.324 C  
HETATM    5  N   UNL     1     -10.890  15.231  69.427  1.00  0.00    -0.248 NA 
HETATM    6  C   UNL     1     -11.408  16.384  70.202  1.00  0.00    -0.190 C  
HETATM    7  C   UNL     1     -11.770  16.056  71.673  1.00  0.00    -0.506 C  
ENDROOT
BRANCH   5   8
HETATM    8  C   UNL     1      -9.523  14.907  69.868  1.00  0.00     0.265 C  
BRANCH   8   9
HETATM    9  C   UNL     1      -8.952  13.638  69.237  1.00  0.00     0.669 C  
BRANCH   9  10
HETATM   10  C   UNL     1      -8.449  13.823  67.796  1.00  0.00    -0.181 C  
BRANCH  10  11
HETATM   11  N   UNL     1      -9.507  13.605  66.771  1.00  0.00    -0.263 NA 
HETATM   12  C   UNL     1      -9.652  12.248  66.327  1.00  0.00    -0.242 A  
HETATM   13  C   UNL     1      -9.125  11.156  67.061  1.00  0.00    -0.158 A  
HETATM   14  C   UNL     1      -9.129   9.844  66.579  1.00  0.00    -0.179 A  
HETATM   15  C   UNL     1      -9.723   9.561  65.363  1.00  0.00    -0.314 A  
HETATM   16  C   UNL     1     -10.326  10.593  64.653  1.00  0.00    -0.353 A  
HETATM   17  C   UNL     1     -10.300  11.922  65.123  1.00  0.00    -0.277 A  
HETATM   18  S   UNL     1     -11.108  13.106  64.082  1.00  0.00    -0.368 SA 
HETATM   19  C   UNL     1     -10.802  14.638  64.924  1.00  0.00    -0.419 A  
HETATM   20  C   UNL     1     -10.059  14.750  66.119  1.00  0.00    -0.296 A  
HETATM   21  C   UNL     1      -9.920  16.067  66.623  1.00  0.00    -0.277 A  
HETATM   22  C   UNL     1     -10.440  17.212  65.981  1.00  0.00    -0.271 A  
HETATM   23  C   UNL     1     -10.223  18.594  66.545  1.00  0.00    -0.412 C  
HETATM   24  C   UNL     1     -11.161  17.050  64.802  1.00  0.00     0.227 A  
HETATM   25  F   UNL     1      -9.577  19.417  65.670  1.00  0.00    -0.257 F  
HETATM   26  F   UNL     1     -11.393  19.223  66.846  1.00  0.00    -0.404 F  
HETATM   27  F   UNL     1      -9.484  18.617  67.689  1.00  0.00    -0.282 F  
HETATM   28  C   UNL     1     -11.343  15.773  64.284  1.00  0.00    -0.189 A  
ENDBRANCH  10  11
ENDBRANCH   9  10
ENDBRANCH   8   9
ENDBRANCH   5   8
TORSDOF 4
ENDMDL
MODEL      120
REMARK 921   NORMALIZED FREE ENERGY PREDICTED BY IDOCK:   -5.08 KCAL/MOL
REMARK 922        TOTAL FREE ENERGY PREDICTED BY IDOCK:   -6.68 KCAL/MOL
REMARK 923 INTER-LIGAND FREE ENERGY PREDICTED BY IDOCK:   -6.30 KCAL/MOL
REMARK 924 INTRA-LIGAND FREE ENERGY PREDICTED BY IDOCK:   -0.39 KCAL/MOL
REMARK 927      BINDING AFFINITY PREDICTED BY RF-SCORE:    0.00 PKD
ROOT
HETATM    1  C   UNL     1     -12.892  11.824  63.386  1.00  0.00    -0.176 C  
HETATM    2  N   UNL     1     -11.983  12.963  63.262  1.00  0.00    -0.536 NA 
HETATM    3  C   UNL     1     -12.512  14.137  63.987  1.00  0.00    -0.163 C  
HETATM    4  C   UNL     1     -12.399  14.034  65.525  1.00  0.00    -0.483 C  
HETATM    5  N   UNL     1     -11.032  13.764  66.014  1.00  0.00    -0.283 NA 
HETATM    6  C   UNL     1     -10.511  12.566  65.314  1.00  0.00    -0.287 C  
HETATM    7  C   UNL     1     -10.636  12.622  63.771  1.00  0.00    -0.397 C  
ENDROOT
BRANCH   5   8
HETATM    8  C   UNL     1     -10.115  14.899  65.813  1.00  0.00    -0.341 C  
BRANCH   8   9
HETATM    9  C   UNL     1     -10.127  15.916  66.952  1.00  0.00    -0.267 C  
BRANCH   9  10
HETATM   10  C   UNL     1     -10.036  15.293  68.355  1.00  0.00    -0.220 C  
BRANCH  10  11
HETATM   11  N   UNL     1      -8.709  14.683  68.643  1.00  0.00    -0.172 NA 
HETATM   12  C   UNL     1      -7.611  15.605  68.677  1.00  0.00    -0.143 A  
HETATM   13  C   UNL     1      -7.806  17.003  68.814  1.00  0.00    -0.253 A  
HETATM   14  C   UNL     1      -6.765  17.929  68.707  1.00  0.00    -0.240 A  
HETATM   15  C   UNL     1      -5.469  17.487  68.520  1.00  0.00    -0.155 A  
HETATM   16  C   UNL     1      -5.225  16.119  68.465  1.00  0.00    -0.096 A  
HETATM   17  C   UNL     1      -6.276  15.183  68.546  1.00  0.00    -0.093 A  
HETATM   18  S   UNL     1      -5.781  13.485  68.446  1.00  0.00    -0.107 SA 
HETATM   19  C   UNL     1      -7.333  12.624  68.490  1.00  0.00    -0.115 A  
HETATM   20  C   UNL     1      -8.590  13.261  68.566  1.00  0.00    -0.065 A  
HETATM   21  C   UNL     1      -9.709  12.391  68.578  1.00  0.00    -0.140 A  
HETATM   22  C   UNL     1      -9.612  10.987  68.481  1.00  0.00    -0.187 A  
HETATM   23  C   UNL     1     -10.843  10.114  68.455  1.00  0.00    -0.237 C  
HETATM   24  C   UNL     1      -8.350  10.406  68.402  1.00  0.00    -0.119 A  
HETATM   25  F   UNL     1     -10.919   9.356  67.324  1.00  0.00    -0.338 F  
HETATM   26  F   UNL     1     -10.877   9.233  69.493  1.00  0.00    -0.225 F  
HETATM   27  F   UNL     1     -12.014  10.806  68.517  1.00  0.00    -0.373 F  
HETATM   28  C   UNL     1      -7.223  11.219  68.413  1.00  0.00    -0.085 A  
ENDBRANCH  10  11
ENDBRANCH   9  10
ENDBRANCH   8   9
ENDBRANCH   5   8
TORSDOF 4
ENDMDL
MODEL      121
REMARK 921   NORMALIZED FREE ENERGY PREDICTED BY IDOCK:   -5.08 KCAL/MOL
REMARK 922        TOTAL FREE ENERGY PREDICTED BY IDOCK:   -6.68 KCAL/MOL
REMARK 923 INTER-LIGAND FREE ENERGY PREDICTED BY IDOCK:   -5.98 KCAL/MOL
REMARK 924 INTRA-LIGAND FREE ENERGY PREDICTED BY IDOCK:   -0.70 KCAL/MOL
REMARK 927      BINDING AFFINITY PREDICTED BY RF-SCORE:    0.00 PKD
ROOT
HETATM    1  C   UNL     1      -5.213  13.792  69.844  1.00  0.00    -0.094 C  
HETATM    2  N   UNL     1      -5.292  13.157  68.529  1.00  0.00    -0.065 NA 
HETATM    3  C   UNL     1      -5.321  11.685  68.659  1.00  0.00    -0.042 C  
HETATM    4  C   UNL     1      -6.666  11.121  69.170  1.00  0.00    -0.092 C  
HETATM    5  N   UNL     1      -7.838  11.538  68.374  1.00  0.00    -0.130 NA 
HETATM    6  C   UNL     1      -7.832  13.017  68.271  1.00  0.00    -0.143 C  
HETATM    7  C   UNL     1      -6.488  13.619  67.790  1.00  0.00    -0.171 C  
ENDROOT
BRANCH   5   8
HETATM    8  C   UNL     1      -7.860  10.943  67.027  1.00  0.00    -0.132 C  
BRANCH   8   9
HETATM    9  C   UNL     1      -8.920  11.539  66.102  1.00  0.00    -0.201 C  
BRANCH   9  10
HETATM   10  C   UNL     1     -10.225  10.729  66.037  1.00  0.00    -0.251 C  
BRANCH  10  11
HETATM   11  N   UNL     1     -10.889  10.574  67.361  1.00  0.00    -0.286 NA 
HETATM   12  C   UNL     1     -11.369  11.793  67.947  1.00  0.00    -0.292 A  
HETATM   13  C   UNL     1     -11.553  12.973  67.183  1.00  0.00    -0.411 A  
HETATM   14  C   UNL     1     -11.882  14.205  67.755  1.00  0.00    -0.414 A  
HETATM   15  C   UNL     1     -12.104  14.291  69.117  1.00  0.00    -0.337 A  
HETATM   16  C   UNL     1     -12.015  13.138  69.888  1.00  0.00    -0.387 A  
HETATM   17  C   UNL     1     -11.658  11.899  69.318  1.00  0.00    -0.315 A  
HETATM   18  S   UNL     1     -11.583  10.541  70.453  1.00  0.00    -0.360 SA 
HETATM   19  C   UNL     1     -11.030   9.204  69.426  1.00  0.00    -0.092 A  
HETATM   20  C   UNL     1     -10.734   9.333  68.051  1.00  0.00    -0.174 A  
HETATM   21  C   UNL     1     -10.294   8.145  67.414  1.00  0.00    -0.351 A  
HETATM   22  C   UNL     1     -10.115   6.916  68.084  1.00  0.00    -0.187 A  
HETATM   23  C   UNL     1      -9.602   5.695  67.361  1.00  0.00    -0.118 C  
HETATM   24  C   UNL     1     -10.414   6.841  69.441  1.00  0.00    -0.244 A  
HETATM   25  F   UNL     1      -8.450   5.212  67.907  1.00  0.00    -0.104 F  
HETATM   26  F   UNL     1     -10.488   4.661  67.393  1.00  0.00    -0.182 F  
HETATM   27  F   UNL     1      -9.326   5.906  66.043  1.00  0.00    -0.164 F  
HETATM   28  C   UNL     1     -10.872   7.976  70.101  1.00  0.00    -0.242 A  
ENDBRANCH  10  11
ENDBRANCH   9  10
ENDBRANCH   8   9
ENDBRANCH   5   8
TORSDOF 4
ENDMDL
MODEL      122
REMARK 921   NORMALIZED FREE ENERGY PREDICTED BY IDOCK:   -5.07 KCAL/MOL
REMARK 922        TOTAL FREE ENERGY PREDICTED BY IDOCK:   -6.67 KCAL/MOL
REMARK 923 INTER-LIGAND FREE ENERGY PREDICTED BY IDOCK:   -6.34 KCAL/MOL
REMARK 924 INTRA-LIGAND FREE ENERGY PREDICTED BY IDOCK:   -0.33 KCAL/MOL
REMARK 927      BINDING AFFINITY PREDICTED BY RF-SCORE:    0.00 PKD
ROOT
HETATM    1  C   UNL     1     -13.361  15.407  70.916  1.00  0.00    -0.418 C  
HETATM    2  N   UNL     1     -11.980  14.978  71.135  1.00  0.00    -0.299 NA 
HETATM    3  C   UNL     1     -11.746  13.643  70.547  1.00  0.00    -0.099 C  
HETATM    4  C   UNL     1     -11.651  13.639  69.004  1.00  0.00    -0.312 C  
HETATM    5  N   UNL     1     -10.642  14.569  68.458  1.00  0.00    -0.245 NA 
HETATM    6  C   UNL     1     -10.895  15.918  69.019  1.00  0.00    -0.266 C  
HETATM    7  C   UNL     1     -11.027  15.954  70.563  1.00  0.00    -0.330 C  
ENDROOT
BRANCH   5   8
HETATM    8  C   UNL     1      -9.260  14.156  68.754  1.00  0.00    -0.080 C  
BRANCH   8   9
HETATM    9  C   UNL     1      -8.961  12.698  68.410  1.00  0.00    -0.125 C  
BRANCH   9  10
HETATM   10  C   UNL     1      -7.974  12.515  67.247  1.00  0.00    -0.173 C  
BRANCH  10  11
HETATM   11  N   UNL     1      -8.368  11.430  66.306  1.00  0.00    -0.148 NA 
HETATM   12  C   UNL     1      -7.429  10.350  66.196  1.00  0.00    -0.131 A  
HETATM   13  C   UNL     1      -6.419  10.130  67.166  1.00  0.00    -0.068 A  
HETATM   14  C   UNL     1      -5.409   9.176  67.008  1.00  0.00    -0.040 A  
HETATM   15  C   UNL     1      -5.408   8.356  65.897  1.00  0.00    -0.031 A  
HETATM   16  C   UNL     1      -6.431   8.484  64.964  1.00  0.00    -0.060 A  
HETATM   17  C   UNL     1      -7.435   9.463  65.106  1.00  0.00    -0.105 A  
HETATM   18  S   UNL     1      -8.650   9.488  63.817  1.00  0.00    -0.213 SA 
HETATM   19  C   UNL     1      -9.672  10.867  64.271  1.00  0.00    -0.294 A  
HETATM   20  C   UNL     1      -9.446  11.680  65.403  1.00  0.00    -0.171 A  
HETATM   21  C   UNL     1     -10.372  12.738  65.581  1.00  0.00    -0.296 A  
HETATM   22  C   UNL     1     -11.430  13.014  64.688  1.00  0.00    -0.374 A  
HETATM   23  C   UNL     1     -12.358  14.183  64.907  1.00  0.00    -0.430 C  
HETATM   24  C   UNL     1     -11.607  12.187  63.583  1.00  0.00    -0.575 A  
HETATM   25  F   UNL     1     -12.351  15.056  63.860  1.00  0.00    -0.460 F  
HETATM   26  F   UNL     1     -13.656  13.796  65.055  1.00  0.00    -0.027 F  
HETATM   27  F   UNL     1     -12.064  14.925  66.011  1.00  0.00    -0.283 F  
HETATM   28  C   UNL     1     -10.738  11.121  63.383  1.00  0.00    -0.286 A  
ENDBRANCH  10  11
ENDBRANCH   9  10
ENDBRANCH   8   9
ENDBRANCH   5   8
TORSDOF 4
ENDMDL
MODEL      123
REMARK 921   NORMALIZED FREE ENERGY PREDICTED BY IDOCK:   -5.06 KCAL/MOL
REMARK 922        TOTAL FREE ENERGY PREDICTED BY IDOCK:   -6.66 KCAL/MOL
REMARK 923 INTER-LIGAND FREE ENERGY PREDICTED BY IDOCK:   -6.34 KCAL/MOL
REMARK 924 INTRA-LIGAND FREE ENERGY PREDICTED BY IDOCK:   -0.31 KCAL/MOL
REMARK 927      BINDING AFFINITY PREDICTED BY RF-SCORE:    0.00 PKD
ROOT
HETATM    1  C   UNL     1      -5.624  17.778  69.248  1.00  0.00    -0.202 C  
HETATM    2  N   UNL     1      -7.006  17.311  69.152  1.00  0.00    -0.234 NA 
HETATM    3  C   UNL     1      -7.788  18.172  68.239  1.00  0.00    -0.293 C  
HETATM    4  C   UNL     1      -7.464  17.965  66.742  1.00  0.00    -0.208 C  
HETATM    5  N   UNL     1      -7.593  16.566  66.284  1.00  0.00    -0.219 NA 
HETATM    6  C   UNL     1      -6.782  15.704  67.176  1.00  0.00    -0.045 C  
HETATM    7  C   UNL     1      -7.059  15.908  68.687  1.00  0.00    -0.133 C  
ENDROOT
BRANCH   5   8
HETATM    8  C   UNL     1      -8.988  16.094  66.264  1.00  0.00    -0.344 C  
BRANCH   8   9
HETATM    9  C   UNL     1      -9.142  14.601  66.552  1.00  0.00    -0.267 C  
BRANCH   9  10
HETATM   10  C   UNL     1     -10.363  13.953  65.881  1.00  0.00    -0.311 C  
BRANCH  10  11
HETATM   11  N   UNL     1     -10.899  12.786  66.634  1.00  0.00    -0.260 NA 
HETATM   12  C   UNL     1     -11.591  13.113  67.848  1.00  0.00    -0.336 A  
HETATM   13  C   UNL     1     -12.067  14.421  68.114  1.00  0.00    -0.258 A  
HETATM   14  C   UNL     1     -12.615  14.795  69.344  1.00  0.00     0.027 A  
HETATM   15  C   UNL     1     -12.770  13.851  70.341  1.00  0.00    -0.286 A  
HETATM   16  C   UNL     1     -12.393  12.537  70.089  1.00  0.00    -0.210 A  
HETATM   17  C   UNL     1     -11.815  12.162  68.859  1.00  0.00    -0.304 A  
HETATM   18  S   UNL     1     -11.387  10.449  68.719  1.00  0.00    -0.174 SA 
HETATM   19  C   UNL     1     -10.624  10.368  67.119  1.00  0.00    -0.261 A  
HETATM   20  C   UNL     1     -10.444  11.482  66.270  1.00  0.00    -0.251 A  
HETATM   21  C   UNL     1      -9.800  11.205  65.038  1.00  0.00    -0.315 A  
HETATM   22  C   UNL     1      -9.324   9.928  64.671  1.00  0.00    -0.338 A  
HETATM   23  C   UNL     1      -8.607   9.704  63.362  1.00  0.00    -0.209 C  
HETATM   24  C   UNL     1      -9.520   8.863  65.544  1.00  0.00    -0.162 A  
HETATM   25  F   UNL     1      -7.349   9.209  63.536  1.00  0.00    -0.095 F  
HETATM   26  F   UNL     1      -9.250   8.806  62.565  1.00  0.00    -0.150 F  
HETATM   27  F   UNL     1      -8.461  10.830  62.610  1.00  0.00    -0.166 F  
HETATM   28  C   UNL     1     -10.169   9.083  66.753  1.00  0.00    -0.341 A  
ENDBRANCH  10  11
ENDBRANCH   9  10
ENDBRANCH   8   9
ENDBRANCH   5   8
TORSDOF 4
ENDMDL
MODEL      124
REMARK 921   NORMALIZED FREE ENERGY PREDICTED BY IDOCK:   -5.05 KCAL/MOL
REMARK 922        TOTAL FREE ENERGY PREDICTED BY IDOCK:   -6.65 KCAL/MOL
REMARK 923 INTER-LIGAND FREE ENERGY PREDICTED BY IDOCK:   -6.22 KCAL/MOL
REMARK 924 INTRA-LIGAND FREE ENERGY PREDICTED BY IDOCK:   -0.43 KCAL/MOL
REMARK 927      BINDING AFFINITY PREDICTED BY RF-SCORE:    0.00 PKD
ROOT
HETATM    1  C   UNL     1      -6.617   2.829  65.334  1.00  0.00    -0.035 C  
HETATM    2  N   UNL     1      -7.866   3.558  65.551  1.00  0.00    -0.088 NA 
HETATM    3  C   UNL     1      -7.828   4.291  66.834  1.00  0.00    -0.097 C  
HETATM    4  C   UNL     1      -6.931   5.550  66.818  1.00  0.00    -0.065 C  
HETATM    5  N   UNL     1      -7.258   6.510  65.744  1.00  0.00    -0.069 NA 
HETATM    6  C   UNL     1      -7.262   5.786  64.451  1.00  0.00    -0.059 C  
HETATM    7  C   UNL     1      -8.128   4.500  64.441  1.00  0.00    -0.099 C  
ENDROOT
BRANCH   5   8
HETATM    8  C   UNL     1      -8.554   7.180  65.946  1.00  0.00    -0.148 C  
BRANCH   8   9
HETATM    9  C   UNL     1      -8.795   7.646  67.381  1.00  0.00    -0.124 C  
BRANCH   9  10
HETATM   10  C   UNL     1     -10.200   7.330  67.918  1.00  0.00    -0.191 C  
BRANCH  10  11
HETATM   11  N   UNL     1     -10.515   8.032  69.193  1.00  0.00    -0.220 NA 
HETATM   12  C   UNL     1     -10.617   7.183  70.345  1.00  0.00    -0.224 A  
HETATM   13  C   UNL     1     -10.089   5.868  70.360  1.00  0.00    -0.259 A  
HETATM   14  C   UNL     1     -10.301   4.976  71.415  1.00  0.00    -0.251 A  
HETATM   15  C   UNL     1     -11.000   5.389  72.533  1.00  0.00    -0.312 A  
HETATM   16  C   UNL     1     -11.461   6.700  72.593  1.00  0.00    -0.221 A  
HETATM   17  C   UNL     1     -11.272   7.594  71.519  1.00  0.00    -0.246 A  
HETATM   18  S   UNL     1     -11.937   9.217  71.766  1.00  0.00    -0.380 SA 
HETATM   19  C   UNL     1     -11.601  10.015  70.216  1.00  0.00    -0.280 A  
HETATM   20  C   UNL     1     -10.968   9.385  69.122  1.00  0.00    -0.090 A  
HETATM   21  C   UNL     1     -10.805  10.195  67.970  1.00  0.00    -0.320 A  
HETATM   22  C   UNL     1     -11.266  11.525  67.875  1.00  0.00    -0.344 A  
HETATM   23  C   UNL     1     -11.101  12.324  66.605  1.00  0.00    -0.297 C  
HETATM   24  C   UNL     1     -11.889  12.100  68.978  1.00  0.00    -0.361 A  
HETATM   25  F   UNL     1     -12.294  12.752  66.101  1.00  0.00    -0.477 F  
HETATM   26  F   UNL     1     -10.355  13.448  66.791  1.00  0.00    -0.252 F  
HETATM   27  F   UNL     1     -10.496  11.640  65.594  1.00  0.00    -0.269 F  
HETATM   28  C   UNL     1     -12.048  11.351  70.138  1.00  0.00    -0.439 A  
ENDBRANCH  10  11
ENDBRANCH   9  10
ENDBRANCH   8   9
ENDBRANCH   5   8
TORSDOF 4
ENDMDL
MODEL      125
REMARK 921   NORMALIZED FREE ENERGY PREDICTED BY IDOCK:   -5.04 KCAL/MOL
REMARK 922        TOTAL FREE ENERGY PREDICTED BY IDOCK:   -6.64 KCAL/MOL
REMARK 923 INTER-LIGAND FREE ENERGY PREDICTED BY IDOCK:   -6.08 KCAL/MOL
REMARK 924 INTRA-LIGAND FREE ENERGY PREDICTED BY IDOCK:   -0.56 KCAL/MOL
REMARK 927      BINDING AFFINITY PREDICTED BY RF-SCORE:    0.00 PKD
ROOT
HETATM    1  C   UNL     1      -9.049  19.871  67.523  1.00  0.00    -0.340 C  
HETATM    2  N   UNL     1      -9.013  18.913  68.628  1.00  0.00    -0.356 NA 
HETATM    3  C   UNL     1     -10.378  18.469  68.981  1.00  0.00    -0.015 C  
HETATM    4  C   UNL     1     -11.007  17.489  67.964  1.00  0.00    -0.134 C  
HETATM    5  N   UNL     1     -10.187  16.291  67.692  1.00  0.00    -0.266 NA 
HETATM    6  C   UNL     1      -8.826  16.734  67.304  1.00  0.00    -0.204 C  
HETATM    7  C   UNL     1      -8.177  17.742  68.286  1.00  0.00    -0.285 C  
ENDROOT
BRANCH   5   8
HETATM    8  C   UNL     1     -10.105  15.376  68.843  1.00  0.00    -0.219 C  
BRANCH   8   9
HETATM    9  C   UNL     1      -9.417  14.048  68.532  1.00  0.00    -0.191 C  
BRANCH   9  10
HETATM   10  C   UNL     1     -10.369  12.946  68.040  1.00  0.00    -0.227 C  
BRANCH  10  11
HETATM   11  N   UNL     1      -9.889  12.259  66.809  1.00  0.00    -0.205 NA 
HETATM   12  C   UNL     1     -10.611  12.583  65.612  1.00  0.00    -0.269 A  
HETATM   13  C   UNL     1     -11.440  13.729  65.520  1.00  0.00    -0.319 A  
HETATM   14  C   UNL     1     -12.261  13.986  64.419  1.00  0.00    -0.457 A  
HETATM   15  C   UNL     1     -12.236  13.135  63.330  1.00  0.00    -0.521 A  
HETATM   16  C   UNL     1     -11.373  12.045  63.347  1.00  0.00    -0.484 A  
HETATM   17  C   UNL     1     -10.563  11.768  64.468  1.00  0.00    -0.313 A  
HETATM   18  S   UNL     1      -9.535  10.333  64.317  1.00  0.00    -0.318 SA 
HETATM   19  C   UNL     1      -8.749  10.248  65.906  1.00  0.00    -0.156 A  
HETATM   20  C   UNL     1      -8.991  11.158  66.959  1.00  0.00    -0.154 A  
HETATM   21  C   UNL     1      -8.269  10.907  68.152  1.00  0.00    -0.121 A  
HETATM   22  C   UNL     1      -7.395   9.813  68.325  1.00  0.00    -0.079 A  
HETATM   23  C   UNL     1      -6.688   9.573  69.636  1.00  0.00    -0.054 C  
HETATM   24  C   UNL     1      -7.194   8.940  67.260  1.00  0.00    -0.083 A  
HETATM   25  F   UNL     1      -6.984   8.355  70.172  1.00  0.00    -0.041 F  
HETATM   26  F   UNL     1      -5.332   9.599  69.507  1.00  0.00    -0.034 F  
HETATM   27  F   UNL     1      -6.986  10.485  70.603  1.00  0.00    -0.128 F  
HETATM   28  C   UNL     1      -7.862   9.162  66.062  1.00  0.00    -0.102 A  
ENDBRANCH  10  11
ENDBRANCH   9  10
ENDBRANCH   8   9
ENDBRANCH   5   8
TORSDOF 4
ENDMDL
MODEL      126
REMARK 921   NORMALIZED FREE ENERGY PREDICTED BY IDOCK:   -5.03 KCAL/MOL
REMARK 922        TOTAL FREE ENERGY PREDICTED BY IDOCK:   -6.63 KCAL/MOL
REMARK 923 INTER-LIGAND FREE ENERGY PREDICTED BY IDOCK:   -5.91 KCAL/MOL
REMARK 924 INTRA-LIGAND FREE ENERGY PREDICTED BY IDOCK:   -0.72 KCAL/MOL
REMARK 927      BINDING AFFINITY PREDICTED BY RF-SCORE:    0.00 PKD
ROOT
HETATM    1  C   UNL     1      -5.535   6.584  63.284  1.00  0.00    -0.026 C  
HETATM    2  N   UNL     1      -5.515   8.003  63.638  1.00  0.00    -0.052 NA 
HETATM    3  C   UNL     1      -6.257   8.803  62.640  1.00  0.00    -0.091 C  
HETATM    4  C   UNL     1      -7.793   8.657  62.728  1.00  0.00    -0.138 C  
HETATM    5  N   UNL     1      -8.353   8.948  64.064  1.00  0.00    -0.175 NA 
HETATM    6  C   UNL     1      -7.635   8.122  65.063  1.00  0.00    -0.096 C  
HETATM    7  C   UNL     1      -6.090   8.221  64.984  1.00  0.00    -0.045 C  
ENDROOT
BRANCH   5   8
HETATM    8  C   UNL     1      -8.256  10.371  64.429  1.00  0.00    -0.125 C  
BRANCH   8   9
HETATM    9  C   UNL     1      -9.373  11.238  63.849  1.00  0.00    -0.145 C  
BRANCH   9  10
HETATM   10  C   UNL     1     -10.755  10.983  64.471  1.00  0.00    -0.264 C  
BRANCH  10  11
HETATM   11  N   UNL     1     -10.906  11.567  65.832  1.00  0.00    -0.275 NA 
HETATM   12  C   UNL     1     -10.934  13.001  65.879  1.00  0.00    -0.271 A  
HETATM   13  C   UNL     1     -11.189  13.786  64.727  1.00  0.00    -0.370 A  
HETATM   14  C   UNL     1     -11.081  15.179  64.718  1.00  0.00    -0.395 A  
HETATM   15  C   UNL     1     -10.774  15.851  65.886  1.00  0.00    -0.303 A  
HETATM   16  C   UNL     1     -10.599  15.122  67.056  1.00  0.00    -0.300 A  
HETATM   17  C   UNL     1     -10.681  13.714  67.063  1.00  0.00    -0.278 A  
HETATM   18  S   UNL     1     -10.420  12.953  68.641  1.00  0.00    -0.169 SA 
HETATM   19  C   UNL     1     -10.505  11.222  68.257  1.00  0.00    -0.196 A  
HETATM   20  C   UNL     1     -10.715  10.709  66.958  1.00  0.00    -0.259 A  
HETATM   21  C   UNL     1     -10.737   9.294  66.864  1.00  0.00    -0.164 A  
HETATM   22  C   UNL     1     -10.528   8.432  67.961  1.00  0.00    -0.242 A  
HETATM   23  C   UNL     1     -10.521   6.932  67.790  1.00  0.00    -0.223 C  
HETATM   24  C   UNL     1     -10.320   8.986  69.220  1.00  0.00    -0.227 A  
HETATM   25  F   UNL     1      -9.344   6.369  68.186  1.00  0.00    -0.115 F  
HETATM   26  F   UNL     1     -11.490   6.320  68.526  1.00  0.00    -0.407 F  
HETATM   27  F   UNL     1     -10.715   6.520  66.506  1.00  0.00    -0.300 F  
HETATM   28  C   UNL     1     -10.315  10.368  69.363  1.00  0.00    -0.259 A  
ENDBRANCH  10  11
ENDBRANCH   9  10
ENDBRANCH   8   9
ENDBRANCH   5   8
TORSDOF 4
ENDMDL
MODEL      127
REMARK 921   NORMALIZED FREE ENERGY PREDICTED BY IDOCK:   -5.02 KCAL/MOL
REMARK 922        TOTAL FREE ENERGY PREDICTED BY IDOCK:   -6.61 KCAL/MOL
REMARK 923 INTER-LIGAND FREE ENERGY PREDICTED BY IDOCK:   -6.27 KCAL/MOL
REMARK 924 INTRA-LIGAND FREE ENERGY PREDICTED BY IDOCK:   -0.34 KCAL/MOL
REMARK 927      BINDING AFFINITY PREDICTED BY RF-SCORE:    0.00 PKD
ROOT
HETATM    1  C   UNL     1     -11.333  15.053  65.160  1.00  0.00    -0.372 C  
HETATM    2  N   UNL     1     -11.028  14.804  66.568  1.00  0.00    -0.320 NA 
HETATM    3  C   UNL     1     -11.962  13.812  67.140  1.00  0.00    -0.405 C  
HETATM    4  C   UNL     1     -11.702  12.359  66.680  1.00  0.00    -0.372 C  
HETATM    5  N   UNL     1     -10.323  11.888  66.919  1.00  0.00    -0.208 NA 
HETATM    6  C   UNL     1      -9.383  12.863  66.316  1.00  0.00    -0.141 C  
HETATM    7  C   UNL     1      -9.634  14.334  66.732  1.00  0.00    -0.280 C  
ENDROOT
BRANCH   5   8
HETATM    8  C   UNL     1     -10.014  11.713  68.348  1.00  0.00    -0.201 C  
BRANCH   8   9
HETATM    9  C   UNL     1      -8.522  11.593  68.650  1.00  0.00    -0.094 C  
BRANCH   9  10
HETATM   10  C   UNL     1      -8.122  10.275  69.334  1.00  0.00    -0.163 C  
BRANCH  10  11
HETATM   11  N   UNL     1      -8.536   9.066  68.570  1.00  0.00    -0.127 NA 
HETATM   12  C   UNL     1      -8.089   9.026  67.207  1.00  0.00    -0.103 A  
HETATM   13  C   UNL     1      -7.036   9.850  66.736  1.00  0.00    -0.089 A  
HETATM   14  C   UNL     1      -6.680   9.931  65.387  1.00  0.00    -0.104 A  
HETATM   15  C   UNL     1      -7.327   9.139  64.458  1.00  0.00    -0.099 A  
HETATM   16  C   UNL     1      -8.309   8.255  64.893  1.00  0.00    -0.145 A  
HETATM   17  C   UNL     1      -8.688   8.190  66.249  1.00  0.00    -0.150 A  
HETATM   18  S   UNL     1      -9.963   7.016  66.619  1.00  0.00    -0.110 SA 
HETATM   19  C   UNL     1     -10.235   7.270  68.354  1.00  0.00    -0.180 A  
HETATM   20  C   UNL     1      -9.547   8.228  69.131  1.00  0.00    -0.160 A  
HETATM   21  C   UNL     1      -9.923   8.279  70.497  1.00  0.00    -0.198 A  
HETATM   22  C   UNL     1     -10.935   7.475  71.064  1.00  0.00    -0.266 A  
HETATM   23  C   UNL     1     -11.320   7.606  72.516  1.00  0.00    -0.355 C  
HETATM   24  C   UNL     1     -11.587   6.550  70.255  1.00  0.00    -0.473 A  
HETATM   25  F   UNL     1     -12.636   7.925  72.679  1.00  0.00    -0.244 F  
HETATM   26  F   UNL     1     -11.132   6.449  73.210  1.00  0.00    -0.261 F  
HETATM   27  F   UNL     1     -10.621   8.561  73.192  1.00  0.00    -0.259 F  
HETATM   28  C   UNL     1     -11.235   6.448  68.915  1.00  0.00    -0.385 A  
ENDBRANCH  10  11
ENDBRANCH   9  10
ENDBRANCH   8   9
ENDBRANCH   5   8
TORSDOF 4
ENDMDL
MODEL      128
REMARK 921   NORMALIZED FREE ENERGY PREDICTED BY IDOCK:   -5.01 KCAL/MOL
REMARK 922        TOTAL FREE ENERGY PREDICTED BY IDOCK:   -6.59 KCAL/MOL
REMARK 923 INTER-LIGAND FREE ENERGY PREDICTED BY IDOCK:   -6.68 KCAL/MOL
REMARK 924 INTRA-LIGAND FREE ENERGY PREDICTED BY IDOCK:    0.08 KCAL/MOL
REMARK 927      BINDING AFFINITY PREDICTED BY RF-SCORE:    0.00 PKD
ROOT
HETATM    1  C   UNL     1     -12.339  12.364  62.979  1.00  0.00     0.020 C  
HETATM    2  N   UNL     1     -12.628  12.316  64.412  1.00  0.00    -0.528 NA 
HETATM    3  C   UNL     1     -11.378  12.227  65.196  1.00  0.00    -0.329 C  
HETATM    4  C   UNL     1     -10.575  13.546  65.259  1.00  0.00    -0.328 C  
HETATM    5  N   UNL     1     -11.351  14.702  65.752  1.00  0.00    -0.338 NA 
HETATM    6  C   UNL     1     -12.589  14.816  64.945  1.00  0.00    -0.087 C  
HETATM    7  C   UNL     1     -13.403  13.502  64.836  1.00  0.00     0.629 C  
ENDROOT
BRANCH   5   8
HETATM    8  C   UNL     1     -11.693  14.598  67.181  1.00  0.00    -0.373 C  
BRANCH   8   9
HETATM    9  C   UNL     1     -10.771  15.397  68.100  1.00  0.00    -0.271 C  
BRANCH   9  10
HETATM   10  C   UNL     1      -9.725  14.547  68.837  1.00  0.00    -0.169 C  
BRANCH  10  11
HETATM   11  N   UNL     1     -10.251  13.231  69.295  1.00  0.00     0.229 NA 
HETATM   12  C   UNL     1      -9.869  12.109  68.486  1.00  0.00    -0.162 A  
HETATM   13  C   UNL     1      -8.786  12.173  67.575  1.00  0.00    -0.173 A  
HETATM   14  C   UNL     1      -8.486  11.144  66.678  1.00  0.00    -0.164 A  
HETATM   15  C   UNL     1      -9.224   9.976  66.702  1.00  0.00    -0.178 A  
HETATM   16  C   UNL     1     -10.242   9.842  67.639  1.00  0.00    -0.261 A  
HETATM   17  C   UNL     1     -10.565  10.888  68.527  1.00  0.00    -0.190 A  
HETATM   18  S   UNL     1     -11.897  10.545  69.644  1.00  0.00    -0.199 SA 
HETATM   19  C   UNL     1     -12.074  12.077  70.522  1.00  0.00    -0.311 A  
HETATM   20  C   UNL     1     -11.290  13.226  70.275  1.00  0.00     0.297 A  
HETATM   21  C   UNL     1     -11.600  14.352  71.078  1.00  0.00    -0.167 A  
HETATM   22  C   UNL     1     -12.637  14.372  72.035  1.00  0.00    -0.392 A  
HETATM   23  C   UNL     1     -12.948  15.616  72.830  1.00  0.00    -0.497 C  
HETATM   24  C   UNL     1     -13.386  13.216  72.237  1.00  0.00    -0.621 A  
HETATM   25  F   UNL     1     -14.231  16.041  72.651  1.00  0.00    -0.622 F  
HETATM   26  F   UNL     1     -12.807  15.425  74.171  1.00  0.00    -0.595 F  
HETATM   27  F   UNL     1     -12.159  16.682  72.523  1.00  0.00    -0.531 F  
HETATM   28  C   UNL     1     -13.100  12.080  71.490  1.00  0.00    -0.362 A  
ENDBRANCH  10  11
ENDBRANCH   9  10
ENDBRANCH   8   9
ENDBRANCH   5   8
TORSDOF 4
ENDMDL
MODEL      129
REMARK 921   NORMALIZED FREE ENERGY PREDICTED BY IDOCK:   -4.97 KCAL/MOL
REMARK 922        TOTAL FREE ENERGY PREDICTED BY IDOCK:   -6.54 KCAL/MOL
REMARK 923 INTER-LIGAND FREE ENERGY PREDICTED BY IDOCK:   -5.78 KCAL/MOL
REMARK 924 INTRA-LIGAND FREE ENERGY PREDICTED BY IDOCK:   -0.76 KCAL/MOL
REMARK 927      BINDING AFFINITY PREDICTED BY RF-SCORE:    0.00 PKD
ROOT
HETATM    1  C   UNL     1      -9.345   2.008  70.228  1.00  0.00    -0.109 C  
HETATM    2  N   UNL     1      -8.704   3.222  70.730  1.00  0.00    -0.071 NA 
HETATM    3  C   UNL     1      -7.354   3.381  70.151  1.00  0.00    -0.041 C  
HETATM    4  C   UNL     1      -7.349   3.822  68.670  1.00  0.00    -0.054 C  
HETATM    5  N   UNL     1      -8.115   5.057  68.404  1.00  0.00    -0.086 NA 
HETATM    6  C   UNL     1      -9.481   4.888  68.953  1.00  0.00    -0.143 C  
HETATM    7  C   UNL     1      -9.524   4.416  70.429  1.00  0.00    -0.175 C  
ENDROOT
BRANCH   5   8
HETATM    8  C   UNL     1      -7.489   6.258  68.982  1.00  0.00    -0.091 C  
BRANCH   8   9
HETATM    9  C   UNL     1      -8.218   7.558  68.651  1.00  0.00    -0.129 C  
BRANCH   9  10
HETATM   10  C   UNL     1      -7.952   8.700  69.645  1.00  0.00    -0.096 C  
BRANCH  10  11
HETATM   11  N   UNL     1      -9.191   9.230  70.280  1.00  0.00    -0.217 NA 
HETATM   12  C   UNL     1      -9.607   8.541  71.467  1.00  0.00    -0.228 A  
HETATM   13  C   UNL     1      -8.730   7.698  72.195  1.00  0.00    -0.154 A  
HETATM   14  C   UNL     1      -9.151   6.908  73.268  1.00  0.00    -0.158 A  
HETATM   15  C   UNL     1     -10.462   6.981  73.701  1.00  0.00    -0.414 A  
HETATM   16  C   UNL     1     -11.333   7.860  73.066  1.00  0.00    -0.298 A  
HETATM   17  C   UNL     1     -10.918   8.637  71.966  1.00  0.00    -0.362 A  
HETATM   18  S   UNL     1     -12.164   9.692  71.277  1.00  0.00    -0.387 SA 
HETATM   19  C   UNL     1     -11.329  10.429  69.894  1.00  0.00    -0.302 A  
HETATM   20  C   UNL     1      -9.996  10.139  69.529  1.00  0.00    -0.235 A  
HETATM   21  C   UNL     1      -9.522  10.827  68.383  1.00  0.00    -0.174 A  
HETATM   22  C   UNL     1     -10.310  11.711  67.617  1.00  0.00    -0.210 A  
HETATM   23  C   UNL     1      -9.762  12.381  66.381  1.00  0.00    -0.240 C  
HETATM   24  C   UNL     1     -11.620  11.960  68.015  1.00  0.00    -0.401 A  
HETATM   25  F   UNL     1     -10.487  12.087  65.264  1.00  0.00    -0.275 F  
HETATM   26  F   UNL     1      -9.770  13.740  66.478  1.00  0.00    -0.256 F  
HETATM   27  F   UNL     1      -8.476  12.038  66.088  1.00  0.00    -0.124 F  
HETATM   28  C   UNL     1     -12.120  11.326  69.146  1.00  0.00    -0.348 A  
ENDBRANCH  10  11
ENDBRANCH   9  10
ENDBRANCH   8   9
ENDBRANCH   5   8
TORSDOF 4
ENDMDL
MODEL      130
REMARK 921   NORMALIZED FREE ENERGY PREDICTED BY IDOCK:   -4.90 KCAL/MOL
REMARK 922        TOTAL FREE ENERGY PREDICTED BY IDOCK:   -6.46 KCAL/MOL
REMARK 923 INTER-LIGAND FREE ENERGY PREDICTED BY IDOCK:   -6.10 KCAL/MOL
REMARK 924 INTRA-LIGAND FREE ENERGY PREDICTED BY IDOCK:   -0.36 KCAL/MOL
REMARK 927      BINDING AFFINITY PREDICTED BY RF-SCORE:    0.00 PKD
ROOT
HETATM    1  C   UNL     1      -5.568   4.525  71.526  1.00  0.00    -0.011 C  
HETATM    2  N   UNL     1      -5.382   5.014  70.160  1.00  0.00    -0.003 NA 
HETATM    3  C   UNL     1      -6.533   4.646  69.309  1.00  0.00    -0.036 C  
HETATM    4  C   UNL     1      -7.811   5.472  69.582  1.00  0.00    -0.090 C  
HETATM    5  N   UNL     1      -7.616   6.933  69.491  1.00  0.00    -0.096 NA 
HETATM    6  C   UNL     1      -6.485   7.311  70.370  1.00  0.00    -0.042 C  
HETATM    7  C   UNL     1      -5.195   6.481  70.145  1.00  0.00    -0.014 C  
ENDROOT
BRANCH   5   8
HETATM    8  C   UNL     1      -7.357   7.395  68.117  1.00  0.00    -0.100 C  
BRANCH   8   9
HETATM    9  C   UNL     1      -8.036   8.718  67.769  1.00  0.00    -0.107 C  
BRANCH   9  10
HETATM   10  C   UNL     1      -9.187   8.589  66.758  1.00  0.00    -0.172 C  
BRANCH  10  11
HETATM   11  N   UNL     1     -10.241   9.627  66.929  1.00  0.00    -0.230 NA 
HETATM   12  C   UNL     1     -10.372  10.546  65.836  1.00  0.00    -0.206 A  
HETATM   13  C   UNL     1      -9.835  10.271  64.553  1.00  0.00    -0.384 A  
HETATM   14  C   UNL     1      -9.827  11.208  63.516  1.00  0.00    -0.392 A  
HETATM   15  C   UNL     1     -10.417  12.444  63.703  1.00  0.00    -0.460 A  
HETATM   16  C   UNL     1     -11.029  12.720  64.920  1.00  0.00    -0.324 A  
HETATM   17  C   UNL     1     -11.016  11.788  65.977  1.00  0.00    -0.306 A  
HETATM   18  S   UNL     1     -11.835  12.315  67.457  1.00  0.00    -0.161 SA 
HETATM   19  C   UNL     1     -11.545  10.960  68.566  1.00  0.00    -0.290 A  
HETATM   20  C   UNL     1     -10.804   9.806  68.230  1.00  0.00    -0.210 A  
HETATM   21  C   UNL     1     -10.679   8.846  69.265  1.00  0.00    -0.177 A  
HETATM   22  C   UNL     1     -11.209   9.016  70.561  1.00  0.00    -0.301 A  
HETATM   23  C   UNL     1     -11.006   7.976  71.635  1.00  0.00    -0.239 C  
HETATM   24  C   UNL     1     -11.927  10.173  70.846  1.00  0.00    -0.461 A  
HETATM   25  F   UNL     1     -10.367   8.476  72.731  1.00  0.00    -0.371 F  
HETATM   26  F   UNL     1     -12.183   7.467  72.095  1.00  0.00    -0.300 F  
HETATM   27  F   UNL     1     -10.269   6.902  71.235  1.00  0.00    -0.197 F  
HETATM   28  C   UNL     1     -12.096  11.132  69.854  1.00  0.00    -0.418 A  
ENDBRANCH  10  11
ENDBRANCH   9  10
ENDBRANCH   8   9
ENDBRANCH   5   8
TORSDOF 4
ENDMDL
MODEL      131
REMARK 921   NORMALIZED FREE ENERGY PREDICTED BY IDOCK:   -4.89 KCAL/MOL
REMARK 922        TOTAL FREE ENERGY PREDICTED BY IDOCK:   -6.45 KCAL/MOL
REMARK 923 INTER-LIGAND FREE ENERGY PREDICTED BY IDOCK:   -6.04 KCAL/MOL
REMARK 924 INTRA-LIGAND FREE ENERGY PREDICTED BY IDOCK:   -0.41 KCAL/MOL
REMARK 927      BINDING AFFINITY PREDICTED BY RF-SCORE:    0.00 PKD
ROOT
HETATM    1  C   UNL     1      -5.448   5.926  73.007  1.00  0.00    -0.031 C  
HETATM    2  N   UNL     1      -6.367   6.128  71.887  1.00  0.00    -0.045 NA 
HETATM    3  C   UNL     1      -7.762   6.230  72.366  1.00  0.00    -0.102 C  
HETATM    4  C   UNL     1      -8.095   7.568  73.064  1.00  0.00    -0.111 C  
HETATM    5  N   UNL     1      -7.795   8.765  72.252  1.00  0.00    -0.366 NA 
HETATM    6  C   UNL     1      -6.386   8.683  71.799  1.00  0.00    -0.071 C  
HETATM    7  C   UNL     1      -6.008   7.342  71.121  1.00  0.00    -0.036 C  
ENDROOT
BRANCH   5   8
HETATM    8  C   UNL     1      -8.686   8.909  71.088  1.00  0.00    -0.222 C  
BRANCH   8   9
HETATM    9  C   UNL     1     -10.094   9.386  71.440  1.00  0.00    -0.263 C  
BRANCH   9  10
HETATM   10  C   UNL     1     -11.217   8.609  70.735  1.00  0.00    -0.261 C  
BRANCH  10  11
HETATM   11  N   UNL     1     -10.876   8.218  69.339  1.00  0.00    -0.147 NA 
HETATM   12  C   UNL     1     -10.422   6.867  69.180  1.00  0.00    -0.207 A  
HETATM   13  C   UNL     1     -10.644   5.877  70.170  1.00  0.00    -0.362 A  
HETATM   14  C   UNL     1     -10.090   4.596  70.101  1.00  0.00    -0.283 A  
HETATM   15  C   UNL     1      -9.339   4.231  69.000  1.00  0.00    -0.226 A  
HETATM   16  C   UNL     1      -9.169   5.146  67.967  1.00  0.00    -0.132 A  
HETATM   17  C   UNL     1      -9.704   6.448  68.046  1.00  0.00    -0.122 A  
HETATM   18  S   UNL     1      -9.379   7.482  66.644  1.00  0.00    -0.177 SA 
HETATM   19  C   UNL     1     -10.105   9.029  67.123  1.00  0.00    -0.243 A  
HETATM   20  C   UNL     1     -10.742   9.254  68.364  1.00  0.00    -0.145 A  
HETATM   21  C   UNL     1     -11.246  10.565  68.555  1.00  0.00    -0.332 A  
HETATM   22  C   UNL     1     -11.103  11.605  67.612  1.00  0.00    -0.314 A  
HETATM   23  C   UNL     1     -11.624  12.994  67.891  1.00  0.00    -0.342 C  
HETATM   24  C   UNL     1     -10.463  11.335  66.407  1.00  0.00    -0.306 A  
HETATM   25  F   UNL     1     -10.641  13.937  67.843  1.00  0.00    -0.233 F  
HETATM   26  F   UNL     1     -12.560  13.390  66.984  1.00  0.00    -0.312 F  
HETATM   27  F   UNL     1     -12.209  13.131  69.113  1.00  0.00    -0.329 F  
HETATM   28  C   UNL     1      -9.975  10.056  66.166  1.00  0.00    -0.322 A  
ENDBRANCH  10  11
ENDBRANCH   9  10
ENDBRANCH   8   9
ENDBRANCH   5   8
TORSDOF 4
ENDMDL
MODEL      132
REMARK 921   NORMALIZED FREE ENERGY PREDICTED BY IDOCK:   -4.89 KCAL/MOL
REMARK 922        TOTAL FREE ENERGY PREDICTED BY IDOCK:   -6.45 KCAL/MOL
REMARK 923 INTER-LIGAND FREE ENERGY PREDICTED BY IDOCK:   -6.04 KCAL/MOL
REMARK 924 INTRA-LIGAND FREE ENERGY PREDICTED BY IDOCK:   -0.40 KCAL/MOL
REMARK 927      BINDING AFFINITY PREDICTED BY RF-SCORE:    0.00 PKD
ROOT
HETATM    1  C   UNL     1      -5.478  10.102  64.843  1.00  0.00    -0.101 C  
HETATM    2  N   UNL     1      -6.127   9.559  66.036  1.00  0.00    -0.062 NA 
HETATM    3  C   UNL     1      -7.215  10.450  66.492  1.00  0.00    -0.118 C  
HETATM    4  C   UNL     1      -8.482  10.404  65.609  1.00  0.00    -0.165 C  
HETATM    5  N   UNL     1      -9.040   9.050  65.422  1.00  0.00    -0.210 NA 
HETATM    6  C   UNL     1      -7.960   8.161  64.931  1.00  0.00    -0.145 C  
HETATM    7  C   UNL     1      -6.662   8.205  65.776  1.00  0.00    -0.055 C  
ENDROOT
BRANCH   5   8
HETATM    8  C   UNL     1      -9.624   8.493  66.654  1.00  0.00    -0.227 C  
BRANCH   8   9
HETATM    9  C   UNL     1      -9.795   6.975  66.629  1.00  0.00    -0.223 C  
BRANCH   9  10
HETATM   10  C   UNL     1     -10.919   6.453  67.538  1.00  0.00    -0.364 C  
BRANCH  10  11
HETATM   11  N   UNL     1     -10.463   6.146  68.922  1.00  0.00    -0.210 NA 
HETATM   12  C   UNL     1      -9.904   4.837  69.100  1.00  0.00    -0.184 A  
HETATM   13  C   UNL     1      -9.462   4.052  68.006  1.00  0.00    -0.220 A  
HETATM   14  C   UNL     1      -9.047   2.724  68.142  1.00  0.00    -0.228 A  
HETATM   15  C   UNL     1      -8.997   2.145  69.396  1.00  0.00    -0.160 A  
HETATM   16  C   UNL     1      -9.342   2.911  70.505  1.00  0.00    -0.220 A  
HETATM   17  C   UNL     1      -9.786   4.242  70.368  1.00  0.00    -0.198 A  
HETATM   18  S   UNL     1     -10.193   5.059  71.887  1.00  0.00    -0.202 SA 
HETATM   19  C   UNL     1     -10.783   6.639  71.333  1.00  0.00    -0.229 A  
HETATM   20  C   UNL     1     -10.875   7.018  69.976  1.00  0.00    -0.261 A  
HETATM   21  C   UNL     1     -11.384   8.321  69.746  1.00  0.00     0.134 A  
HETATM   22  C   UNL     1     -11.815   9.187  70.773  1.00  0.00    -0.280 A  
HETATM   23  C   UNL     1     -12.390  10.547  70.463  1.00  0.00    -0.343 C  
HETATM   24  C   UNL     1     -11.710   8.765  72.094  1.00  0.00    -0.433 A  
HETATM   25  F   UNL     1     -13.658  10.698  70.939  1.00  0.00    -0.285 F  
HETATM   26  F   UNL     1     -11.664  11.557  71.020  1.00  0.00    -0.337 F  
HETATM   27  F   UNL     1     -12.458  10.830  69.132  1.00  0.00    -0.362 F  
HETATM   28  C   UNL     1     -11.193   7.504  72.368  1.00  0.00    -0.356 A  
ENDBRANCH  10  11
ENDBRANCH   9  10
ENDBRANCH   8   9
ENDBRANCH   5   8
TORSDOF 4
ENDMDL
MODEL      133
REMARK 921   NORMALIZED FREE ENERGY PREDICTED BY IDOCK:   -4.89 KCAL/MOL
REMARK 922        TOTAL FREE ENERGY PREDICTED BY IDOCK:   -6.44 KCAL/MOL
REMARK 923 INTER-LIGAND FREE ENERGY PREDICTED BY IDOCK:   -5.95 KCAL/MOL
REMARK 924 INTRA-LIGAND FREE ENERGY PREDICTED BY IDOCK:   -0.49 KCAL/MOL
REMARK 927      BINDING AFFINITY PREDICTED BY RF-SCORE:    0.00 PKD
ROOT
HETATM    1  C   UNL     1      -5.925   3.321  71.967  1.00  0.00    -0.013 C  
HETATM    2  N   UNL     1      -6.498   3.403  70.624  1.00  0.00    -0.030 NA 
HETATM    3  C   UNL     1      -7.929   3.035  70.641  1.00  0.00    -0.046 C  
HETATM    4  C   UNL     1      -8.852   4.112  71.255  1.00  0.00    -0.107 C  
HETATM    5  N   UNL     1      -8.724   5.445  70.631  1.00  0.00    -0.126 NA 
HETATM    6  C   UNL     1      -7.294   5.833  70.643  1.00  0.00    -0.084 C  
HETATM    7  C   UNL     1      -6.335   4.762  70.063  1.00  0.00    -0.030 C  
ENDROOT
BRANCH   5   8
HETATM    8  C   UNL     1      -9.242   5.486  69.253  1.00  0.00    -0.113 C  
BRANCH   8   9
HETATM    9  C   UNL     1      -9.160   6.865  68.600  1.00  0.00    -0.131 C  
BRANCH   9  10
HETATM   10  C   UNL     1     -10.520   7.446  68.181  1.00  0.00    -0.193 C  
BRANCH  10  11
HETATM   11  N   UNL     1     -10.605   8.923  68.345  1.00  0.00    -0.182 NA 
HETATM   12  C   UNL     1     -11.247   9.365  69.550  1.00  0.00    -0.033 A  
HETATM   13  C   UNL     1     -11.431   8.506  70.662  1.00  0.00    -0.249 A  
HETATM   14  C   UNL     1     -12.176   8.869  71.788  1.00  0.00    -0.429 A  
HETATM   15  C   UNL     1     -12.715  10.139  71.873  1.00  0.00    -0.493 A  
HETATM   16  C   UNL     1     -12.484  11.039  70.839  1.00  0.00    -0.509 A  
HETATM   17  C   UNL     1     -11.756  10.667  69.691  1.00  0.00    -0.296 A  
HETATM   18  S   UNL     1     -11.571  11.940  68.472  1.00  0.00    -0.337 SA 
HETATM   19  C   UNL     1     -10.704  11.105  67.167  1.00  0.00    -0.259 A  
HETATM   20  C   UNL     1     -10.331   9.744  67.209  1.00  0.00    -0.248 A  
HETATM   21  C   UNL     1      -9.656   9.267  66.057  1.00  0.00    -0.338 A  
HETATM   22  C   UNL     1      -9.396  10.057  64.917  1.00  0.00    -0.324 A  
HETATM   23  C   UNL     1      -8.711   9.481  63.702  1.00  0.00    -0.221 C  
HETATM   24  C   UNL     1      -9.789  11.392  64.921  1.00  0.00    -0.301 A  
HETATM   25  F   UNL     1      -9.474   9.584  62.576  1.00  0.00    -0.282 F  
HETATM   26  F   UNL     1      -7.541  10.116  63.414  1.00  0.00    -0.135 F  
HETATM   27  F   UNL     1      -8.398   8.160  63.816  1.00  0.00    -0.162 F  
HETATM   28  C   UNL     1     -10.432  11.909  66.040  1.00  0.00    -0.282 A  
ENDBRANCH  10  11
ENDBRANCH   9  10
ENDBRANCH   8   9
ENDBRANCH   5   8
TORSDOF 4
ENDMDL
MODEL      134
REMARK 921   NORMALIZED FREE ENERGY PREDICTED BY IDOCK:   -4.89 KCAL/MOL
REMARK 922        TOTAL FREE ENERGY PREDICTED BY IDOCK:   -6.44 KCAL/MOL
REMARK 923 INTER-LIGAND FREE ENERGY PREDICTED BY IDOCK:   -6.01 KCAL/MOL
REMARK 924 INTRA-LIGAND FREE ENERGY PREDICTED BY IDOCK:   -0.43 KCAL/MOL
REMARK 927      BINDING AFFINITY PREDICTED BY RF-SCORE:    0.00 PKD
ROOT
HETATM    1  C   UNL     1      -5.871   6.221  72.635  1.00  0.00    -0.038 C  
HETATM    2  N   UNL     1      -6.827   6.419  71.546  1.00  0.00    -0.065 NA 
HETATM    3  C   UNL     1      -8.188   6.646  72.077  1.00  0.00    -0.106 C  
HETATM    4  C   UNL     1      -8.397   8.043  72.704  1.00  0.00    -0.166 C  
HETATM    5  N   UNL     1      -8.057   9.166  71.807  1.00  0.00    -0.309 NA 
HETATM    6  C   UNL     1      -6.680   8.960  71.299  1.00  0.00    -0.083 C  
HETATM    7  C   UNL     1      -6.425   7.558  70.690  1.00  0.00    -0.039 C  
ENDROOT
BRANCH   5   8
HETATM    8  C   UNL     1      -8.991   9.302  70.677  1.00  0.00    -0.243 C  
BRANCH   8   9
HETATM    9  C   UNL     1     -10.434   9.582  71.094  1.00  0.00    -0.358 C  
BRANCH   9  10
HETATM   10  C   UNL     1     -11.466   9.363  69.977  1.00  0.00    -0.077 C  
BRANCH  10  11
HETATM   11  N   UNL     1     -11.111  10.049  68.703  1.00  0.00    -0.208 NA 
HETATM   12  C   UNL     1     -10.566   9.197  67.686  1.00  0.00    -0.242 A  
HETATM   13  C   UNL     1     -10.711   7.787  67.728  1.00  0.00    -0.197 A  
HETATM   14  C   UNL     1     -10.071   6.930  66.829  1.00  0.00    -0.264 A  
HETATM   15  C   UNL     1      -9.305   7.457  65.805  1.00  0.00     0.141 A  
HETATM   16  C   UNL     1      -9.208   8.838  65.680  1.00  0.00    -0.244 A  
HETATM   17  C   UNL     1      -9.831   9.705  66.601  1.00  0.00    -0.224 A  
HETATM   18  S   UNL     1      -9.589  11.432  66.292  1.00  0.00    -0.221 SA 
HETATM   19  C   UNL     1     -10.417  12.194  67.665  1.00  0.00    -0.206 A  
HETATM   20  C   UNL     1     -11.057  11.477  68.700  1.00  0.00    -0.238 A  
HETATM   21  C   UNL     1     -11.649  12.274  69.711  1.00  0.00    -0.314 A  
HETATM   22  C   UNL     1     -11.586  13.684  69.735  1.00  0.00    -0.322 A  
HETATM   23  C   UNL     1     -12.199  14.478  70.863  1.00  0.00    -0.339 C  
HETATM   24  C   UNL     1     -10.939  14.345  68.695  1.00  0.00    -0.264 A  
HETATM   25  F   UNL     1     -11.284  15.254  71.510  1.00  0.00    -0.380 F  
HETATM   26  F   UNL     1     -13.168  15.332  70.430  1.00  0.00    -0.374 F  
HETATM   27  F   UNL     1     -12.783  13.712  71.826  1.00  0.00    -0.394 F  
HETATM   28  C   UNL     1     -10.366  13.603  67.669  1.00  0.00    -0.239 A  
ENDBRANCH  10  11
ENDBRANCH   9  10
ENDBRANCH   8   9
ENDBRANCH   5   8
TORSDOF 4
ENDMDL
MODEL      135
REMARK 921   NORMALIZED FREE ENERGY PREDICTED BY IDOCK:   -4.87 KCAL/MOL
REMARK 922        TOTAL FREE ENERGY PREDICTED BY IDOCK:   -6.42 KCAL/MOL
REMARK 923 INTER-LIGAND FREE ENERGY PREDICTED BY IDOCK:   -5.56 KCAL/MOL
REMARK 924 INTRA-LIGAND FREE ENERGY PREDICTED BY IDOCK:   -0.86 KCAL/MOL
REMARK 927      BINDING AFFINITY PREDICTED BY RF-SCORE:    0.00 PKD
ROOT
HETATM    1  C   UNL     1     -10.612   4.350  65.725  1.00  0.00    -0.102 C  
HETATM    2  N   UNL     1      -9.655   4.742  66.759  1.00  0.00    -0.157 NA 
HETATM    3  C   UNL     1      -8.390   5.207  66.153  1.00  0.00    -0.114 C  
HETATM    4  C   UNL     1      -8.477   6.607  65.503  1.00  0.00    -0.131 C  
HETATM    5  N   UNL     1      -8.973   7.663  66.407  1.00  0.00    -0.160 NA 
HETATM    6  C   UNL     1     -10.260   7.215  66.990  1.00  0.00    -0.269 C  
HETATM    7  C   UNL     1     -10.217   5.802  67.625  1.00  0.00    -0.193 C  
ENDROOT
BRANCH   5   8
HETATM    8  C   UNL     1      -8.023   7.992  67.484  1.00  0.00    -0.122 C  
BRANCH   8   9
HETATM    9  C   UNL     1      -8.570   8.978  68.514  1.00  0.00    -0.129 C  
BRANCH   9  10
HETATM   10  C   UNL     1      -8.012   8.781  69.933  1.00  0.00    -0.106 C  
BRANCH  10  11
HETATM   11  N   UNL     1      -8.624   7.629  70.652  1.00  0.00    -0.134 NA 
HETATM   12  C   UNL     1      -7.827   6.436  70.676  1.00  0.00    -0.107 A  
HETATM   13  C   UNL     1      -6.438   6.453  70.394  1.00  0.00    -0.044 A  
HETATM   14  C   UNL     1      -5.673   5.290  70.273  1.00  0.00    -0.016 A  
HETATM   15  C   UNL     1      -6.258   4.058  70.493  1.00  0.00    -0.019 A  
HETATM   16  C   UNL     1      -7.600   4.004  70.855  1.00  0.00    -0.047 A  
HETATM   17  C   UNL     1      -8.381   5.174  70.952  1.00  0.00    -0.114 A  
HETATM   18  S   UNL     1     -10.072   4.915  71.414  1.00  0.00    -0.184 SA 
HETATM   19  C   UNL     1     -10.749   6.554  71.349  1.00  0.00    -0.238 A  
HETATM   20  C   UNL     1     -10.012   7.701  70.981  1.00  0.00    -0.182 A  
HETATM   21  C   UNL     1     -10.744   8.915  70.981  1.00  0.00    -0.315 A  
HETATM   22  C   UNL     1     -12.120   9.001  71.281  1.00  0.00    -0.375 A  
HETATM   23  C   UNL     1     -12.856  10.317  71.222  1.00  0.00    -0.422 C  
HETATM   24  C   UNL     1     -12.804   7.841  71.633  1.00  0.00    -0.365 A  
HETATM   25  F   UNL     1     -13.897  10.292  70.343  1.00  0.00    -0.168 F  
HETATM   26  F   UNL     1     -13.395  10.666  72.424  1.00  0.00    -0.522 F  
HETATM   27  F   UNL     1     -12.078  11.370  70.845  1.00  0.00    -0.420 F  
HETATM   28  C   UNL     1     -12.120   6.632  71.670  1.00  0.00    -0.404 A  
ENDBRANCH  10  11
ENDBRANCH   9  10
ENDBRANCH   8   9
ENDBRANCH   5   8
TORSDOF 4
ENDMDL
MODEL      136
REMARK 921   NORMALIZED FREE ENERGY PREDICTED BY IDOCK:   -4.86 KCAL/MOL
REMARK 922        TOTAL FREE ENERGY PREDICTED BY IDOCK:   -6.41 KCAL/MOL
REMARK 923 INTER-LIGAND FREE ENERGY PREDICTED BY IDOCK:   -5.86 KCAL/MOL
REMARK 924 INTRA-LIGAND FREE ENERGY PREDICTED BY IDOCK:   -0.55 KCAL/MOL
REMARK 927      BINDING AFFINITY PREDICTED BY RF-SCORE:    0.00 PKD
ROOT
HETATM    1  C   UNL     1      -7.356  18.869  68.630  1.00  0.00    -0.310 C  
HETATM    2  N   UNL     1      -8.197  17.702  68.367  1.00  0.00    -0.281 NA 
HETATM    3  C   UNL     1      -8.145  17.329  66.938  1.00  0.00    -0.228 C  
HETATM    4  C   UNL     1      -6.825  16.650  66.509  1.00  0.00    -0.102 C  
HETATM    5  N   UNL     1      -6.468  15.462  67.310  1.00  0.00    -0.309 NA 
HETATM    6  C   UNL     1      -6.484  15.842  68.743  1.00  0.00    -0.111 C  
HETATM    7  C   UNL     1      -7.783  16.553  69.202  1.00  0.00    -0.205 C  
ENDROOT
BRANCH   5   8
HETATM    8  C   UNL     1      -7.372  14.322  67.084  1.00  0.00     0.151 C  
BRANCH   8   9
HETATM    9  C   UNL     1      -7.074  13.109  67.964  1.00  0.00    -0.115 C  
BRANCH   9  10
HETATM   10  C   UNL     1      -8.251  12.132  68.110  1.00  0.00    -0.164 C  
BRANCH  10  11
HETATM   11  N   UNL     1      -8.452  11.269  66.913  1.00  0.00    -0.147 NA 
HETATM   12  C   UNL     1      -7.458  10.251  66.724  1.00  0.00    -0.107 A  
HETATM   13  C   UNL     1      -6.593   9.843  67.770  1.00  0.00    -0.068 A  
HETATM   14  C   UNL     1      -5.528   8.959  67.572  1.00  0.00    -0.035 A  
HETATM   15  C   UNL     1      -5.325   8.396  66.327  1.00  0.00    -0.028 A  
HETATM   16  C   UNL     1      -6.205   8.707  65.296  1.00  0.00    -0.056 A  
HETATM   17  C   UNL     1      -7.264   9.618  65.485  1.00  0.00    -0.098 A  
HETATM   18  S   UNL     1      -8.276   9.902  64.059  1.00  0.00    -0.170 SA 
HETATM   19  C   UNL     1      -9.416  11.137  64.630  1.00  0.00    -0.213 A  
HETATM   20  C   UNL     1      -9.397  11.692  65.928  1.00  0.00    -0.218 A  
HETATM   21  C   UNL     1     -10.387  12.675  66.180  1.00  0.00    -0.273 A  
HETATM   22  C   UNL     1     -11.313  13.120  65.213  1.00  0.00    -0.321 A  
HETATM   23  C   UNL     1     -12.317  14.202  65.528  1.00  0.00    -0.458 C  
HETATM   24  C   UNL     1     -11.288  12.547  63.946  1.00  0.00    -0.504 A  
HETATM   25  F   UNL     1     -12.196  15.280  64.702  1.00  0.00    -0.354 F  
HETATM   26  F   UNL     1     -13.603  13.774  65.391  1.00  0.00    -0.267 F  
HETATM   27  F   UNL     1     -12.223  14.694  66.795  1.00  0.00    -0.402 F  
HETATM   28  C   UNL     1     -10.350  11.561  63.662  1.00  0.00    -0.467 A  
ENDBRANCH  10  11
ENDBRANCH   9  10
ENDBRANCH   8   9
ENDBRANCH   5   8
TORSDOF 4
ENDMDL
MODEL      137
REMARK 921   NORMALIZED FREE ENERGY PREDICTED BY IDOCK:   -4.83 KCAL/MOL
REMARK 922        TOTAL FREE ENERGY PREDICTED BY IDOCK:   -6.37 KCAL/MOL
REMARK 923 INTER-LIGAND FREE ENERGY PREDICTED BY IDOCK:   -5.88 KCAL/MOL
REMARK 924 INTRA-LIGAND FREE ENERGY PREDICTED BY IDOCK:   -0.49 KCAL/MOL
REMARK 927      BINDING AFFINITY PREDICTED BY RF-SCORE:    0.00 PKD
ROOT
HETATM    1  C   UNL     1      -9.610   6.263  74.422  1.00  0.00    -0.241 C  
HETATM    2  N   UNL     1      -9.875   6.243  72.984  1.00  0.00    -0.166 NA 
HETATM    3  C   UNL     1     -11.211   6.800  72.689  1.00  0.00    -0.255 C  
HETATM    4  C   UNL     1     -11.300   8.337  72.826  1.00  0.00    -0.262 C  
HETATM    5  N   UNL     1     -10.303   9.074  72.024  1.00  0.00    -0.308 NA 
HETATM    6  C   UNL     1      -8.957   8.542  72.344  1.00  0.00    -0.214 C  
HETATM    7  C   UNL     1      -8.840   6.999  72.245  1.00  0.00    -0.132 C  
ENDROOT
BRANCH   5   8
HETATM    8  C   UNL     1     -10.547   8.979  70.574  1.00  0.00    -0.227 C  
BRANCH   8   9
HETATM    9  C   UNL     1     -11.232  10.208  69.979  1.00  0.00    -0.361 C  
BRANCH   9  10
HETATM   10  C   UNL     1     -11.205  10.261  68.443  1.00  0.00    -0.224 C  
BRANCH  10  11
HETATM   11  N   UNL     1      -9.984  10.918  67.898  1.00  0.00    -0.173 NA 
HETATM   12  C   UNL     1      -8.993  10.021  67.378  1.00  0.00    -0.131 A  
HETATM   13  C   UNL     1      -9.294   8.675  67.049  1.00  0.00    -0.202 A  
HETATM   14  C   UNL     1      -8.318   7.747  66.677  1.00  0.00    -0.126 A  
HETATM   15  C   UNL     1      -7.000   8.147  66.556  1.00  0.00    -0.068 A  
HETATM   16  C   UNL     1      -6.678   9.480  66.789  1.00  0.00    -0.072 A  
HETATM   17  C   UNL     1      -7.656  10.412  67.190  1.00  0.00    -0.096 A  
HETATM   18  S   UNL     1      -7.062  12.061  67.451  1.00  0.00    -0.145 SA 
HETATM   19  C   UNL     1      -8.513  12.912  68.019  1.00  0.00    -0.178 A  
HETATM   20  C   UNL     1      -9.772  12.299  68.196  1.00  0.00    -0.213 A  
HETATM   21  C   UNL     1     -10.799  13.153  68.670  1.00  0.00    -0.287 A  
HETATM   22  C   UNL     1     -10.602  14.513  68.990  1.00  0.00    -0.250 A  
HETATM   23  C   UNL     1     -11.725  15.362  69.533  1.00  0.00    -0.346 C  
HETATM   24  C   UNL     1      -9.341  15.071  68.804  1.00  0.00    -0.200 A  
HETATM   25  F   UNL     1     -11.435  15.890  70.756  1.00  0.00    -0.292 F  
HETATM   26  F   UNL     1     -12.007  16.426  68.730  1.00  0.00    -0.299 F  
HETATM   27  F   UNL     1     -12.901  14.693  69.688  1.00  0.00    -0.247 F  
HETATM   28  C   UNL     1      -8.310  14.276  68.317  1.00  0.00    -0.165 A  
ENDBRANCH  10  11
ENDBRANCH   9  10
ENDBRANCH   8   9
ENDBRANCH   5   8
TORSDOF 4
ENDMDL
MODEL      138
REMARK 921   NORMALIZED FREE ENERGY PREDICTED BY IDOCK:   -4.82 KCAL/MOL
REMARK 922        TOTAL FREE ENERGY PREDICTED BY IDOCK:   -6.36 KCAL/MOL
REMARK 923 INTER-LIGAND FREE ENERGY PREDICTED BY IDOCK:   -5.99 KCAL/MOL
REMARK 924 INTRA-LIGAND FREE ENERGY PREDICTED BY IDOCK:   -0.37 KCAL/MOL
REMARK 927      BINDING AFFINITY PREDICTED BY RF-SCORE:    0.00 PKD
ROOT
HETATM    1  C   UNL     1     -11.022   5.451  72.391  1.00  0.00    -0.240 C  
HETATM    2  N   UNL     1     -11.535   6.759  72.798  1.00  0.00    -0.187 NA 
HETATM    3  C   UNL     1     -10.429   7.723  72.977  1.00  0.00    -0.369 C  
HETATM    4  C   UNL     1      -9.803   8.222  71.654  1.00  0.00    -0.199 C  
HETATM    5  N   UNL     1     -10.776   8.804  70.708  1.00  0.00    -0.217 NA 
HETATM    6  C   UNL     1     -11.870   7.825  70.498  1.00  0.00    -0.045 C  
HETATM    7  C   UNL     1     -12.500   7.281  71.805  1.00  0.00    -0.343 C  
ENDROOT
BRANCH   5   8
HETATM    8  C   UNL     1     -11.334  10.085  71.171  1.00  0.00    -0.323 C  
BRANCH   8   9
HETATM    9  C   UNL     1     -12.616  10.501  70.450  1.00  0.00    -0.364 C  
BRANCH   9  10
HETATM   10  C   UNL     1     -12.389  11.064  69.038  1.00  0.00     0.076 C  
BRANCH  10  11
HETATM   11  N   UNL     1     -11.173  11.916  68.931  1.00  0.00    -0.235 NA 
HETATM   12  C   UNL     1     -11.333  13.264  69.396  1.00  0.00    -0.219 A  
HETATM   13  C   UNL     1     -12.410  13.648  70.234  1.00  0.00    -0.392 A  
HETATM   14  C   UNL     1     -12.666  14.977  70.581  1.00  0.00    -0.428 A  
HETATM   15  C   UNL     1     -11.811  15.975  70.153  1.00  0.00    -0.253 A  
HETATM   16  C   UNL     1     -10.696  15.629  69.399  1.00  0.00    -0.252 A  
HETATM   17  C   UNL     1     -10.449  14.292  69.024  1.00  0.00    -0.204 A  
HETATM   18  S   UNL     1      -8.988  14.039  68.055  1.00  0.00    -0.189 SA 
HETATM   19  C   UNL     1      -9.051  12.300  67.703  1.00  0.00    -0.184 A  
HETATM   20  C   UNL     1     -10.086  11.442  68.135  1.00  0.00    -0.189 A  
HETATM   21  C   UNL     1      -9.953  10.088  67.737  1.00  0.00    -0.203 A  
HETATM   22  C   UNL     1      -8.898   9.606  66.933  1.00  0.00    -0.143 A  
HETATM   23  C   UNL     1      -8.834   8.161  66.505  1.00  0.00    -0.149 C  
HETATM   24  C   UNL     1      -7.905  10.493  66.528  1.00  0.00    -0.134 A  
HETATM   25  F   UNL     1      -8.826   8.020  65.149  1.00  0.00    -0.156 F  
HETATM   26  F   UNL     1      -7.707   7.537  66.948  1.00  0.00    -0.099 F  
HETATM   27  F   UNL     1      -9.876   7.404  66.950  1.00  0.00    -0.200 F  
HETATM   28  C   UNL     1      -7.981  11.825  66.916  1.00  0.00    -0.149 A  
ENDBRANCH  10  11
ENDBRANCH   9  10
ENDBRANCH   8   9
ENDBRANCH   5   8
TORSDOF 4
ENDMDL
MODEL      139
REMARK 921   NORMALIZED FREE ENERGY PREDICTED BY IDOCK:   -4.80 KCAL/MOL
REMARK 922        TOTAL FREE ENERGY PREDICTED BY IDOCK:   -6.34 KCAL/MOL
REMARK 923 INTER-LIGAND FREE ENERGY PREDICTED BY IDOCK:   -5.55 KCAL/MOL
REMARK 924 INTRA-LIGAND FREE ENERGY PREDICTED BY IDOCK:   -0.79 KCAL/MOL
REMARK 927      BINDING AFFINITY PREDICTED BY RF-SCORE:    0.00 PKD
ROOT
HETATM    1  C   UNL     1      -9.424   7.898  66.893  1.00  0.00    -0.191 C  
HETATM    2  N   UNL     1      -9.286   9.009  67.834  1.00  0.00    -0.140 NA 
HETATM    3  C   UNL     1      -8.021   8.902  68.590  1.00  0.00    -0.103 C  
HETATM    4  C   UNL     1      -6.761   9.257  67.768  1.00  0.00    -0.068 C  
HETATM    5  N   UNL     1      -6.809  10.589  67.132  1.00  0.00    -0.081 NA 
HETATM    6  C   UNL     1      -8.061  10.687  66.344  1.00  0.00    -0.148 C  
HETATM    7  C   UNL     1      -9.342  10.309  67.129  1.00  0.00    -0.153 C  
ENDROOT
BRANCH   5   8
HETATM    8  C   UNL     1      -6.743  11.693  68.104  1.00  0.00    -0.063 C  
BRANCH   8   9
HETATM    9  C   UNL     1      -6.711  13.081  67.465  1.00  0.00    -0.156 C  
BRANCH   9  10
HETATM   10  C   UNL     1      -7.189  14.211  68.391  1.00  0.00    -0.109 C  
BRANCH  10  11
HETATM   11  N   UNL     1      -8.285  15.030  67.803  1.00  0.00    -0.144 NA 
HETATM   12  C   UNL     1      -7.862  16.248  67.173  1.00  0.00    -0.191 A  
HETATM   13  C   UNL     1      -6.514  16.470  66.794  1.00  0.00    -0.123 A  
HETATM   14  C   UNL     1      -6.053  17.698  66.311  1.00  0.00    -0.261 A  
HETATM   15  C   UNL     1      -6.942  18.740  66.126  1.00  0.00    -0.285 A  
HETATM   16  C   UNL     1      -8.289  18.534  66.406  1.00  0.00    -0.278 A  
HETATM   17  C   UNL     1      -8.752  17.306  66.919  1.00  0.00    -0.240 A  
HETATM   18  S   UNL     1     -10.495  17.228  67.228  1.00  0.00    -0.287 SA 
HETATM   19  C   UNL     1     -10.694  15.611  67.933  1.00  0.00    -0.294 A  
HETATM   20  C   UNL     1      -9.631  14.710  68.159  1.00  0.00    -0.213 A  
HETATM   21  C   UNL     1     -10.002  13.473  68.743  1.00  0.00    -0.078 A  
HETATM   22  C   UNL     1     -11.322  13.148  69.121  1.00  0.00    -0.335 A  
HETATM   23  C   UNL     1     -11.649  11.831  69.780  1.00  0.00    -0.299 C  
HETATM   24  C   UNL     1     -12.335  14.072  68.883  1.00  0.00    -0.106 A  
HETATM   25  F   UNL     1     -12.220  11.990  71.007  1.00  0.00    -0.437 F  
HETATM   26  F   UNL     1     -12.533  11.092  69.054  1.00  0.00    -0.383 F  
HETATM   27  F   UNL     1     -10.567  11.026  69.976  1.00  0.00    -0.226 F  
HETATM   28  C   UNL     1     -12.020  15.289  68.289  1.00  0.00    -0.153 A  
ENDBRANCH  10  11
ENDBRANCH   9  10
ENDBRANCH   8   9
ENDBRANCH   5   8
TORSDOF 4
ENDMDL
MODEL      140
REMARK 921   NORMALIZED FREE ENERGY PREDICTED BY IDOCK:   -4.80 KCAL/MOL
REMARK 922        TOTAL FREE ENERGY PREDICTED BY IDOCK:   -6.34 KCAL/MOL
REMARK 923 INTER-LIGAND FREE ENERGY PREDICTED BY IDOCK:   -5.81 KCAL/MOL
REMARK 924 INTRA-LIGAND FREE ENERGY PREDICTED BY IDOCK:   -0.52 KCAL/MOL
REMARK 927      BINDING AFFINITY PREDICTED BY RF-SCORE:    0.00 PKD
ROOT
HETATM    1  C   UNL     1      -8.032   7.317  64.107  1.00  0.00    -0.084 C  
HETATM    2  N   UNL     1      -7.123   8.270  64.742  1.00  0.00    -0.078 NA 
HETATM    3  C   UNL     1      -7.213   9.594  64.091  1.00  0.00    -0.122 C  
HETATM    4  C   UNL     1      -8.501  10.379  64.430  1.00  0.00    -0.163 C  
HETATM    5  N   UNL     1      -8.736  10.558  65.877  1.00  0.00    -0.161 NA 
HETATM    6  C   UNL     1      -8.681   9.228  66.529  1.00  0.00    -0.132 C  
HETATM    7  C   UNL     1      -7.416   8.399  66.186  1.00  0.00    -0.088 C  
ENDROOT
BRANCH   5   8
HETATM    8  C   UNL     1      -7.764  11.465  66.510  1.00  0.00    -0.093 C  
BRANCH   8   9
HETATM    9  C   UNL     1      -8.345  12.299  67.651  1.00  0.00    -0.166 C  
BRANCH   9  10
HETATM   10  C   UNL     1      -9.797  12.750  67.424  1.00  0.00    -0.210 C  
BRANCH  10  11
HETATM   11  N   UNL     1     -10.383  13.460  68.595  1.00  0.00    -0.232 NA 
HETATM   12  C   UNL     1     -11.192  12.647  69.457  1.00  0.00    -0.082 A  
HETATM   13  C   UNL     1     -11.129  11.231  69.431  1.00  0.00    -0.316 A  
HETATM   14  C   UNL     1     -12.005  10.419  70.157  1.00  0.00    -0.357 A  
HETATM   15  C   UNL     1     -12.944  10.995  70.991  1.00  0.00    -0.369 A  
HETATM   16  C   UNL     1     -12.980  12.380  71.108  1.00  0.00    -0.232 A  
HETATM   17  C   UNL     1     -12.116  13.203  70.358  1.00  0.00    -0.317 A  
HETATM   18  S   UNL     1     -12.312  14.944  70.626  1.00  0.00    -0.374 SA 
HETATM   19  C   UNL     1     -11.154  15.647  69.479  1.00  0.00    -0.298 A  
HETATM   20  C   UNL     1     -10.347  14.888  68.603  1.00  0.00    -0.237 A  
HETATM   21  C   UNL     1      -9.497  15.644  67.758  1.00  0.00    -0.208 A  
HETATM   22  C   UNL     1      -9.464  17.055  67.737  1.00  0.00    -0.245 A  
HETATM   23  C   UNL     1      -8.568  17.805  66.782  1.00  0.00    -0.252 C  
HETATM   24  C   UNL     1     -10.283  17.758  68.615  1.00  0.00    -0.377 A  
HETATM   25  F   UNL     1      -9.267  18.637  65.957  1.00  0.00    -0.290 F  
HETATM   26  F   UNL     1      -7.668  18.598  67.428  1.00  0.00    -0.223 F  
HETATM   27  F   UNL     1      -7.835  17.002  65.962  1.00  0.00    -0.316 F  
HETATM   28  C   UNL     1     -11.115  17.057  69.480  1.00  0.00     0.211 A  
ENDBRANCH  10  11
ENDBRANCH   9  10
ENDBRANCH   8   9
ENDBRANCH   5   8
TORSDOF 4
ENDMDL
MODEL      141
REMARK 921   NORMALIZED FREE ENERGY PREDICTED BY IDOCK:   -4.79 KCAL/MOL
REMARK 922        TOTAL FREE ENERGY PREDICTED BY IDOCK:   -6.32 KCAL/MOL
REMARK 923 INTER-LIGAND FREE ENERGY PREDICTED BY IDOCK:   -5.75 KCAL/MOL
REMARK 924 INTRA-LIGAND FREE ENERGY PREDICTED BY IDOCK:   -0.58 KCAL/MOL
REMARK 927      BINDING AFFINITY PREDICTED BY RF-SCORE:    0.00 PKD
ROOT
HETATM    1  C   UNL     1      -8.539   6.096  73.751  1.00  0.00    -0.123 C  
HETATM    2  N   UNL     1      -8.125   5.476  72.493  1.00  0.00    -0.103 NA 
HETATM    3  C   UNL     1      -9.248   4.738  71.878  1.00  0.00    -0.137 C  
HETATM    4  C   UNL     1     -10.326   5.643  71.240  1.00  0.00    -0.228 C  
HETATM    5  N   UNL     1      -9.800   6.600  70.245  1.00  0.00    -0.174 NA 
HETATM    6  C   UNL     1      -8.696   7.367  70.870  1.00  0.00    -0.144 C  
HETATM    7  C   UNL     1      -7.612   6.490  71.547  1.00  0.00    -0.094 C  
ENDROOT
BRANCH   5   8
HETATM    8  C   UNL     1      -9.322   5.946  69.015  1.00  0.00    -0.123 C  
BRANCH   8   9
HETATM    9  C   UNL     1      -9.702   6.683  67.732  1.00  0.00    -0.136 C  
BRANCH   9  10
HETATM   10  C   UNL     1      -8.798   7.881  67.402  1.00  0.00    -0.127 C  
BRANCH  10  11
HETATM   11  N   UNL     1      -9.468   8.912  66.562  1.00  0.00    -0.192 NA 
HETATM   12  C   UNL     1      -8.960   9.031  65.226  1.00  0.00    -0.183 A  
HETATM   13  C   UNL     1      -8.171   8.017  64.628  1.00  0.00    -0.109 A  
HETATM   14  C   UNL     1      -7.548   8.172  63.386  1.00  0.00    -0.132 A  
HETATM   15  C   UNL     1      -7.744   9.331  62.660  1.00  0.00    -0.117 A  
HETATM   16  C   UNL     1      -8.580  10.315  63.176  1.00  0.00    -0.194 A  
HETATM   17  C   UNL     1      -9.188  10.174  64.440  1.00  0.00    -0.258 A  
HETATM   18  S   UNL     1     -10.210  11.532  64.940  1.00  0.00    -0.290 SA 
HETATM   19  C   UNL     1     -10.719  11.055  66.572  1.00  0.00    -0.241 A  
HETATM   20  C   UNL     1     -10.316   9.861  67.210  1.00  0.00    -0.245 A  
HETATM   21  C   UNL     1     -10.825   9.675  68.520  1.00  0.00    -0.202 A  
HETATM   22  C   UNL     1     -11.645  10.612  69.184  1.00  0.00    -0.342 A  
HETATM   23  C   UNL     1     -12.122  10.377  70.596  1.00  0.00    -0.348 C  
HETATM   24  C   UNL     1     -12.011  11.776  68.515  1.00  0.00    -0.279 A  
HETATM   25  F   UNL     1     -11.726  11.363  71.450  1.00  0.00    -0.116 F  
HETATM   26  F   UNL     1     -13.480  10.334  70.686  1.00  0.00    -0.429 F  
HETATM   27  F   UNL     1     -11.677   9.212  71.144  1.00  0.00    -0.297 F  
HETATM   28  C   UNL     1     -11.554  11.989  67.219  1.00  0.00    -0.383 A  
ENDBRANCH  10  11
ENDBRANCH   9  10
ENDBRANCH   8   9
ENDBRANCH   5   8
TORSDOF 4
ENDMDL
MODEL      142
REMARK 921   NORMALIZED FREE ENERGY PREDICTED BY IDOCK:   -4.76 KCAL/MOL
REMARK 922        TOTAL FREE ENERGY PREDICTED BY IDOCK:   -6.29 KCAL/MOL
REMARK 923 INTER-LIGAND FREE ENERGY PREDICTED BY IDOCK:   -5.74 KCAL/MOL
REMARK 924 INTRA-LIGAND FREE ENERGY PREDICTED BY IDOCK:   -0.55 KCAL/MOL
REMARK 927      BINDING AFFINITY PREDICTED BY RF-SCORE:    0.00 PKD
ROOT
HETATM    1  C   UNL     1      -6.068   9.845  63.502  1.00  0.00    -0.121 C  
HETATM    2  N   UNL     1      -7.258   8.998  63.434  1.00  0.00    -0.092 NA 
HETATM    3  C   UNL     1      -7.020   7.705  64.110  1.00  0.00    -0.061 C  
HETATM    4  C   UNL     1      -6.997   7.792  65.653  1.00  0.00    -0.053 C  
HETATM    5  N   UNL     1      -8.204   8.407  66.241  1.00  0.00    -0.107 NA 
HETATM    6  C   UNL     1      -8.426   9.720  65.591  1.00  0.00    -0.139 C  
HETATM    7  C   UNL     1      -8.424   9.675  64.041  1.00  0.00    -0.185 C  
ENDROOT
BRANCH   5   8
HETATM    8  C   UNL     1      -9.406   7.568  66.097  1.00  0.00    -0.069 C  
BRANCH   8   9
HETATM    9  C   UNL     1      -9.888   6.945  67.406  1.00  0.00    -0.184 C  
BRANCH   9  10
HETATM   10  C   UNL     1      -9.411   7.682  68.667  1.00  0.00    -0.151 C  
BRANCH  10  11
HETATM   11  N   UNL     1     -10.443   7.744  69.739  1.00  0.00    -0.229 NA 
HETATM   12  C   UNL     1     -11.080   9.020  69.895  1.00  0.00    -0.142 A  
HETATM   13  C   UNL     1     -11.028  10.016  68.887  1.00  0.00    -0.244 A  
HETATM   14  C   UNL     1     -11.517  11.312  69.073  1.00  0.00    -0.369 A  
HETATM   15  C   UNL     1     -12.140  11.646  70.261  1.00  0.00    -0.443 A  
HETATM   16  C   UNL     1     -12.286  10.672  71.242  1.00  0.00    -0.488 A  
HETATM   17  C   UNL     1     -11.770   9.372  71.068  1.00  0.00    -0.323 A  
HETATM   18  S   UNL     1     -12.039   8.267  72.427  1.00  0.00    -0.325 SA 
HETATM   19  C   UNL     1     -11.198   6.794  71.903  1.00  0.00    -0.260 A  
HETATM   20  C   UNL     1     -10.501   6.672  70.681  1.00  0.00    -0.217 A  
HETATM   21  C   UNL     1      -9.887   5.414  70.459  1.00  0.00    -0.267 A  
HETATM   22  C   UNL     1      -9.916   4.352  71.388  1.00  0.00    -0.248 A  
HETATM   23  C   UNL     1      -9.205   3.050  71.113  1.00  0.00    -0.127 C  
HETATM   24  C   UNL     1     -10.611   4.523  72.581  1.00  0.00    -0.247 A  
HETATM   25  F   UNL     1      -8.272   2.756  72.062  1.00  0.00    -0.055 F  
HETATM   26  F   UNL     1     -10.058   1.987  71.093  1.00  0.00    -0.205 F  
HETATM   27  F   UNL     1      -8.546   3.018  69.922  1.00  0.00    -0.074 F  
HETATM   28  C   UNL     1     -11.249   5.732  72.831  1.00  0.00    -0.319 A  
ENDBRANCH  10  11
ENDBRANCH   9  10
ENDBRANCH   8   9
ENDBRANCH   5   8
TORSDOF 4
ENDMDL
MODEL      143
REMARK 921   NORMALIZED FREE ENERGY PREDICTED BY IDOCK:   -4.76 KCAL/MOL
REMARK 922        TOTAL FREE ENERGY PREDICTED BY IDOCK:   -6.29 KCAL/MOL
REMARK 923 INTER-LIGAND FREE ENERGY PREDICTED BY IDOCK:   -5.77 KCAL/MOL
REMARK 924 INTRA-LIGAND FREE ENERGY PREDICTED BY IDOCK:   -0.51 KCAL/MOL
REMARK 927      BINDING AFFINITY PREDICTED BY RF-SCORE:    0.00 PKD
ROOT
HETATM    1  C   UNL     1     -13.165  11.648  71.873  1.00  0.00    -0.369 C  
HETATM    2  N   UNL     1     -13.257  10.583  70.876  1.00  0.00    -0.296 NA 
HETATM    3  C   UNL     1     -11.998  10.473  70.109  1.00  0.00    -0.316 C  
HETATM    4  C   UNL     1     -10.833   9.830  70.895  1.00  0.00    -0.328 C  
HETATM    5  N   UNL     1     -11.147   8.503  71.463  1.00  0.00    -0.257 NA 
HETATM    6  C   UNL     1     -12.390   8.617  72.262  1.00  0.00    -0.382 C  
HETATM    7  C   UNL     1     -13.572   9.287  71.514  1.00  0.00    -0.346 C  
ENDROOT
BRANCH   5   8
HETATM    8  C   UNL     1     -11.307   7.460  70.435  1.00  0.00    -0.249 C  
BRANCH   8   9
HETATM    9  C   UNL     1     -10.227   7.482  69.355  1.00  0.00    -0.204 C  
BRANCH   9  10
HETATM   10  C   UNL     1     -10.772   7.576  67.921  1.00  0.00    -0.133 C  
BRANCH  10  11
HETATM   11  N   UNL     1      -9.704   7.712  66.892  1.00  0.00    -0.196 NA 
HETATM   12  C   UNL     1      -9.605   9.008  66.286  1.00  0.00    -0.260 A  
HETATM   13  C   UNL     1     -10.191  10.159  66.870  1.00  0.00    -0.295 A  
HETATM   14  C   UNL     1     -10.231  11.400  66.229  1.00  0.00    -0.274 A  
HETATM   15  C   UNL     1      -9.624  11.556  64.997  1.00  0.00    -0.222 A  
HETATM   16  C   UNL     1      -8.965  10.471  64.429  1.00  0.00    -0.232 A  
HETATM   17  C   UNL     1      -8.947   9.211  65.061  1.00  0.00    -0.171 A  
HETATM   18  S   UNL     1      -8.070   7.944  64.187  1.00  0.00    -0.041 SA 
HETATM   19  C   UNL     1      -8.330   6.515  65.208  1.00  0.00    -0.121 A  
HETATM   20  C   UNL     1      -9.092   6.520  66.396  1.00  0.00    -0.155 A  
HETATM   21  C   UNL     1      -9.186   5.270  67.058  1.00  0.00    -0.116 A  
HETATM   22  C   UNL     1      -8.607   4.079  66.571  1.00  0.00    -0.110 A  
HETATM   23  C   UNL     1      -8.779   2.768  67.299  1.00  0.00    -0.121 C  
HETATM   24  C   UNL     1      -7.870   4.124  65.392  1.00  0.00    -0.086 A  
HETATM   25  F   UNL     1      -9.373   1.817  66.524  1.00  0.00    -0.111 F  
HETATM   26  F   UNL     1      -7.590   2.233  67.694  1.00  0.00    -0.057 F  
HETATM   27  F   UNL     1      -9.539   2.855  68.426  1.00  0.00    -0.240 F  
HETATM   28  C   UNL     1      -7.730   5.334  64.723  1.00  0.00    -0.087 A  
ENDBRANCH  10  11
ENDBRANCH   9  10
ENDBRANCH   8   9
ENDBRANCH   5   8
TORSDOF 4
ENDMDL
MODEL      144
REMARK 921   NORMALIZED FREE ENERGY PREDICTED BY IDOCK:   -4.76 KCAL/MOL
REMARK 922        TOTAL FREE ENERGY PREDICTED BY IDOCK:   -6.28 KCAL/MOL
REMARK 923 INTER-LIGAND FREE ENERGY PREDICTED BY IDOCK:   -5.61 KCAL/MOL
REMARK 924 INTRA-LIGAND FREE ENERGY PREDICTED BY IDOCK:   -0.68 KCAL/MOL
REMARK 927      BINDING AFFINITY PREDICTED BY RF-SCORE:    0.00 PKD
ROOT
HETATM    1  C   UNL     1     -10.630   4.299  65.714  1.00  0.00     0.020 C  
HETATM    2  N   UNL     1      -9.712   4.781  66.745  1.00  0.00    -0.171 NA 
HETATM    3  C   UNL     1      -8.418   5.179  66.151  1.00  0.00    -0.115 C  
HETATM    4  C   UNL     1      -8.464   6.512  65.370  1.00  0.00    -0.115 C  
HETATM    5  N   UNL     1      -8.986   7.652  66.151  1.00  0.00    -0.170 NA 
HETATM    6  C   UNL     1     -10.300   7.269  66.719  1.00  0.00    -0.241 C  
HETATM    7  C   UNL     1     -10.297   5.921  67.484  1.00  0.00    -0.215 C  
ENDROOT
BRANCH   5   8
HETATM    8  C   UNL     1      -8.077   8.073  67.231  1.00  0.00    -0.121 C  
BRANCH   8   9
HETATM    9  C   UNL     1      -8.681   9.104  68.182  1.00  0.00    -0.129 C  
BRANCH   9  10
HETATM   10  C   UNL     1      -8.330   8.877  69.662  1.00  0.00    -0.123 C  
BRANCH  10  11
HETATM   11  N   UNL     1      -9.483   8.399  70.474  1.00  0.00    -0.166 NA 
HETATM   12  C   UNL     1      -9.403   7.030  70.895  1.00  0.00    -0.157 A  
HETATM   13  C   UNL     1      -8.183   6.309  70.884  1.00  0.00    -0.126 A  
HETATM   14  C   UNL     1      -8.107   4.940  71.152  1.00  0.00    -0.101 A  
HETATM   15  C   UNL     1      -9.247   4.246  71.508  1.00  0.00    -0.190 A  
HETATM   16  C   UNL     1     -10.450   4.936  71.613  1.00  0.00    -0.196 A  
HETATM   17  C   UNL     1     -10.535   6.311  71.316  1.00  0.00    -0.218 A  
HETATM   18  S   UNL     1     -12.149   7.021  71.492  1.00  0.00    -0.372 SA 
HETATM   19  C   UNL     1     -11.898   8.696  70.963  1.00  0.00    -0.265 A  
HETATM   20  C   UNL     1     -10.661   9.207  70.512  1.00  0.00    -0.235 A  
HETATM   21  C   UNL     1     -10.676  10.570  70.123  1.00  0.00    -0.232 A  
HETATM   22  C   UNL     1     -11.834  11.376  70.133  1.00  0.00    -0.440 A  
HETATM   23  C   UNL     1     -11.796  12.810  69.665  1.00  0.00    -0.317 C  
HETATM   24  C   UNL     1     -13.031  10.825  70.581  1.00  0.00    -0.313 A  
HETATM   25  F   UNL     1     -12.652  13.042  68.629  1.00  0.00    -0.076 F  
HETATM   26  F   UNL     1     -12.157  13.686  70.644  1.00  0.00    -0.376 F  
HETATM   27  F   UNL     1     -10.572  13.220  69.233  1.00  0.00    -0.182 F  
HETATM   28  C   UNL     1     -13.057   9.499  70.996  1.00  0.00    -0.263 A  
ENDBRANCH  10  11
ENDBRANCH   9  10
ENDBRANCH   8   9
ENDBRANCH   5   8
TORSDOF 4
ENDMDL
MODEL      145
REMARK 921   NORMALIZED FREE ENERGY PREDICTED BY IDOCK:   -4.74 KCAL/MOL
REMARK 922        TOTAL FREE ENERGY PREDICTED BY IDOCK:   -6.27 KCAL/MOL
REMARK 923 INTER-LIGAND FREE ENERGY PREDICTED BY IDOCK:   -5.75 KCAL/MOL
REMARK 924 INTRA-LIGAND FREE ENERGY PREDICTED BY IDOCK:   -0.52 KCAL/MOL
REMARK 927      BINDING AFFINITY PREDICTED BY RF-SCORE:    0.00 PKD
ROOT
HETATM    1  C   UNL     1      -6.253   8.483  69.856  1.00  0.00    -0.031 C  
HETATM    2  N   UNL     1      -7.006   9.664  70.275  1.00  0.00    -0.103 NA 
HETATM    3  C   UNL     1      -6.121  10.642  70.942  1.00  0.00     0.042 C  
HETATM    4  C   UNL     1      -5.184  11.406  69.979  1.00  0.00    -0.071 C  
HETATM    5  N   UNL     1      -5.883  12.093  68.874  1.00  0.00    -0.059 NA 
HETATM    6  C   UNL     1      -6.746  11.107  68.181  1.00  0.00    -0.059 C  
HETATM    7  C   UNL     1      -7.678  10.300  69.121  1.00  0.00    -0.119 C  
ENDROOT
BRANCH   5   8
HETATM    8  C   UNL     1      -6.694  13.236  69.328  1.00  0.00    -0.066 C  
BRANCH   8   9
HETATM    9  C   UNL     1      -7.497  13.907  68.216  1.00  0.00    -0.118 C  
BRANCH   9  10
HETATM   10  C   UNL     1      -8.958  14.207  68.588  1.00  0.00    -0.132 C  
BRANCH  10  11
HETATM   11  N   UNL     1      -9.829  14.452  67.405  1.00  0.00    -0.222 NA 
HETATM   12  C   UNL     1     -10.172  13.281  66.650  1.00  0.00    -0.265 A  
HETATM   13  C   UNL     1     -10.032  11.975  67.184  1.00  0.00    -0.208 A  
HETATM   14  C   UNL     1     -10.224  10.818  66.422  1.00  0.00    -0.294 A  
HETATM   15  C   UNL     1     -10.628  10.924  65.104  1.00  0.00    -0.268 A  
HETATM   16  C   UNL     1     -10.857  12.186  64.569  1.00  0.00    -0.356 A  
HETATM   17  C   UNL     1     -10.639  13.355  65.327  1.00  0.00    -0.325 A  
HETATM   18  S   UNL     1     -10.972  14.875  64.479  1.00  0.00    -0.069 SA 
HETATM   19  C   UNL     1     -10.512  16.099  65.679  1.00  0.00    -0.383 A  
HETATM   20  C   UNL     1      -9.997  15.798  66.959  1.00  0.00    -0.239 A  
HETATM   21  C   UNL     1      -9.680  16.923  67.762  1.00  0.00    -0.250 A  
HETATM   22  C   UNL     1      -9.819  18.259  67.330  1.00  0.00    -0.323 A  
HETATM   23  C   UNL     1      -9.423  19.415  68.216  1.00  0.00    -0.365 C  
HETATM   24  C   UNL     1     -10.326  18.504  66.058  1.00  0.00    -0.423 A  
HETATM   25  F   UNL     1      -8.468  20.204  67.647  1.00  0.00    -0.338 F  
HETATM   26  F   UNL     1     -10.470  20.243  68.488  1.00  0.00    -0.530 F  
HETATM   27  F   UNL     1      -8.922  19.041  69.426  1.00  0.00    -0.209 F  
HETATM   28  C   UNL     1     -10.673  17.432  65.245  1.00  0.00     0.029 A  
ENDBRANCH  10  11
ENDBRANCH   9  10
ENDBRANCH   8   9
ENDBRANCH   5   8
TORSDOF 4
ENDMDL
MODEL      146
REMARK 921   NORMALIZED FREE ENERGY PREDICTED BY IDOCK:   -4.73 KCAL/MOL
REMARK 922        TOTAL FREE ENERGY PREDICTED BY IDOCK:   -6.25 KCAL/MOL
REMARK 923 INTER-LIGAND FREE ENERGY PREDICTED BY IDOCK:   -6.25 KCAL/MOL
REMARK 924 INTRA-LIGAND FREE ENERGY PREDICTED BY IDOCK:    0.00 KCAL/MOL
REMARK 927      BINDING AFFINITY PREDICTED BY RF-SCORE:    0.00 PKD
ROOT
HETATM    1  C   UNL     1      -5.597  10.966  67.617  1.00  0.00    -0.043 C  
HETATM    2  N   UNL     1      -5.982  12.306  67.176  1.00  0.00    -0.213 NA 
HETATM    3  C   UNL     1      -7.442  12.388  66.960  1.00  0.00    -0.034 C  
HETATM    4  C   UNL     1      -8.274  12.424  68.262  1.00  0.00    -0.170 C  
HETATM    5  N   UNL     1      -7.884  13.497  69.198  1.00  0.00     0.172 NA 
HETATM    6  C   UNL     1      -6.426  13.397  69.446  1.00  0.00    -0.100 C  
HETATM    7  C   UNL     1      -5.562  13.328  68.160  1.00  0.00    -0.100 C  
ENDROOT
BRANCH   5   8
HETATM    8  C   UNL     1      -8.215  14.843  68.701  1.00  0.00    -0.157 C  
BRANCH   8   9
HETATM    9  C   UNL     1      -8.989  15.701  69.701  1.00  0.00    -0.136 C  
BRANCH   9  10
HETATM   10  C   UNL     1     -10.481  15.348  69.812  1.00  0.00    -0.293 C  
BRANCH  10  11
HETATM   11  N   UNL     1     -11.055  14.813  68.546  1.00  0.00    -0.253 NA 
HETATM   12  C   UNL     1     -11.396  13.419  68.576  1.00  0.00    -0.289 A  
HETATM   13  C   UNL     1     -11.546  12.707  69.792  1.00  0.00    -0.285 A  
HETATM   14  C   UNL     1     -11.737  11.323  69.843  1.00  0.00    -0.430 A  
HETATM   15  C   UNL     1     -11.851  10.602  68.670  1.00  0.00    -0.135 A  
HETATM   16  C   UNL     1     -11.794  11.278  67.456  1.00  0.00    -0.030 A  
HETATM   17  C   UNL     1     -11.575  12.669  67.400  1.00  0.00    -0.360 A  
HETATM   18  S   UNL     1     -11.520  13.358  65.769  1.00  0.00    -0.330 SA 
HETATM   19  C   UNL     1     -11.147  15.066  66.080  1.00  0.00    -0.329 A  
HETATM   20  C   UNL     1     -10.945  15.610  67.367  1.00  0.00    -0.293 A  
HETATM   21  C   UNL     1     -10.645  16.995  67.396  1.00  0.00    -0.289 A  
HETATM   22  C   UNL     1     -10.510  17.794  66.240  1.00  0.00    -0.307 A  
HETATM   23  C   UNL     1     -10.146  19.255  66.333  1.00  0.00    -0.429 C  
HETATM   24  C   UNL     1     -10.714  17.209  64.994  1.00  0.00     0.091 A  
HETATM   25  F   UNL     1      -8.998  19.549  65.661  1.00  0.00    -0.235 F  
HETATM   26  F   UNL     1     -11.104  20.064  65.800  1.00  0.00    -0.457 F  
HETATM   27  F   UNL     1      -9.954  19.698  67.607  1.00  0.00    -0.394 F  
HETATM   28  C   UNL     1     -11.034  15.859  64.919  1.00  0.00    -0.427 A  
ENDBRANCH  10  11
ENDBRANCH   9  10
ENDBRANCH   8   9
ENDBRANCH   5   8
TORSDOF 4
ENDMDL
MODEL      147
REMARK 921   NORMALIZED FREE ENERGY PREDICTED BY IDOCK:   -4.73 KCAL/MOL
REMARK 922        TOTAL FREE ENERGY PREDICTED BY IDOCK:   -6.25 KCAL/MOL
REMARK 923 INTER-LIGAND FREE ENERGY PREDICTED BY IDOCK:   -5.83 KCAL/MOL
REMARK 924 INTRA-LIGAND FREE ENERGY PREDICTED BY IDOCK:   -0.41 KCAL/MOL
REMARK 927      BINDING AFFINITY PREDICTED BY RF-SCORE:    0.00 PKD
ROOT
HETATM    1  C   UNL     1     -13.053   7.928  72.620  1.00  0.00     0.287 C  
HETATM    2  N   UNL     1     -13.119   8.445  71.253  1.00  0.00    -0.207 NA 
HETATM    3  C   UNL     1     -13.881   9.711  71.208  1.00  0.00    -0.076 C  
HETATM    4  C   UNL     1     -13.121  10.928  71.783  1.00  0.00    -0.459 C  
HETATM    5  N   UNL     1     -11.799  11.160  71.167  1.00  0.00    -0.064 NA 
HETATM    6  C   UNL     1     -11.018   9.902  71.242  1.00  0.00    -0.155 C  
HETATM    7  C   UNL     1     -11.763   8.655  70.701  1.00  0.00    -0.155 C  
ENDROOT
BRANCH   5   8
HETATM    8  C   UNL     1     -11.887  11.611  69.767  1.00  0.00    -0.357 C  
BRANCH   8   9
HETATM    9  C   UNL     1     -11.677  13.113  69.584  1.00  0.00    -0.370 C  
BRANCH   9  10
HETATM   10  C   UNL     1     -10.241  13.505  69.198  1.00  0.00     0.157 C  
BRANCH  10  11
HETATM   11  N   UNL     1     -10.090  13.840  67.755  1.00  0.00    -0.240 NA 
HETATM   12  C   UNL     1     -10.217  15.233  67.438  1.00  0.00    -0.243 A  
HETATM   13  C   UNL     1     -10.105  16.243  68.427  1.00  0.00    -0.237 A  
HETATM   14  C   UNL     1     -10.365  17.592  68.169  1.00  0.00    -0.375 A  
HETATM   15  C   UNL     1     -10.687  17.995  66.887  1.00  0.00    -0.214 A  
HETATM   16  C   UNL     1     -10.725  17.046  65.872  1.00  0.00    -0.140 A  
HETATM   17  C   UNL     1     -10.489  15.681  66.134  1.00  0.00    -0.317 A  
HETATM   18  S   UNL     1     -10.590  14.615  64.723  1.00  0.00    -0.258 SA 
HETATM   19  C   UNL     1     -10.334  13.007  65.430  1.00  0.00    -0.300 A  
HETATM   20  C   UNL     1     -10.133  12.771  66.808  1.00  0.00    -0.236 A  
HETATM   21  C   UNL     1      -9.960  11.412  67.169  1.00  0.00    -0.217 A  
HETATM   22  C   UNL     1     -10.021  10.342  66.251  1.00  0.00    -0.283 A  
HETATM   23  C   UNL     1      -9.873   8.910  66.702  1.00  0.00    -0.262 C  
HETATM   24  C   UNL     1     -10.227  10.625  64.904  1.00  0.00    -0.395 A  
HETATM   25  F   UNL     1     -10.960   8.150  66.388  1.00  0.00    -0.094 F  
HETATM   26  F   UNL     1      -8.809   8.289  66.121  1.00  0.00    -0.135 F  
HETATM   27  F   UNL     1      -9.697   8.768  68.045  1.00  0.00    -0.154 F  
HETATM   28  C   UNL     1     -10.377  11.947  64.501  1.00  0.00    -0.334 A  
ENDBRANCH  10  11
ENDBRANCH   9  10
ENDBRANCH   8   9
ENDBRANCH   5   8
TORSDOF 4
ENDMDL
MODEL      148
REMARK 921   NORMALIZED FREE ENERGY PREDICTED BY IDOCK:   -4.72 KCAL/MOL
REMARK 922        TOTAL FREE ENERGY PREDICTED BY IDOCK:   -6.24 KCAL/MOL
REMARK 923 INTER-LIGAND FREE ENERGY PREDICTED BY IDOCK:   -6.42 KCAL/MOL
REMARK 924 INTRA-LIGAND FREE ENERGY PREDICTED BY IDOCK:    0.18 KCAL/MOL
REMARK 927      BINDING AFFINITY PREDICTED BY RF-SCORE:    0.00 PKD
ROOT
HETATM    1  C   UNL     1     -12.700  15.636  74.182  1.00  0.00    -0.512 C  
HETATM    2  N   UNL     1     -13.345  15.696  72.871  1.00  0.00    -0.511 NA 
HETATM    3  C   UNL     1     -12.369  16.057  71.822  1.00  0.00    -0.435 C  
HETATM    4  C   UNL     1     -11.393  14.919  71.446  1.00  0.00    -0.189 C  
HETATM    5  N   UNL     1     -12.057  13.661  71.048  1.00  0.00    -0.274 NA 
HETATM    6  C   UNL     1     -13.012  13.276  72.114  1.00  0.00    -0.292 C  
HETATM    7  C   UNL     1     -13.986  14.405  72.538  1.00  0.00    -0.408 C  
ENDROOT
BRANCH   5   8
HETATM    8  C   UNL     1     -12.762  13.766  69.759  1.00  0.00     0.139 C  
BRANCH   8   9
HETATM    9  C   UNL     1     -12.023  13.112  68.593  1.00  0.00    -0.319 C  
BRANCH   9  10
HETATM   10  C   UNL     1     -10.896  12.157  69.017  1.00  0.00    -0.162 C  
BRANCH  10  11
HETATM   11  N   UNL     1      -9.634  12.360  68.253  1.00  0.00    -0.216 NA 
HETATM   12  C   UNL     1      -8.836  11.181  68.075  1.00  0.00    -0.142 A  
HETATM   13  C   UNL     1      -9.366   9.879  68.257  1.00  0.00    -0.136 A  
HETATM   14  C   UNL     1      -8.577   8.726  68.228  1.00  0.00    -0.134 A  
HETATM   15  C   UNL     1      -7.227   8.825  67.951  1.00  0.00    -0.084 A  
HETATM   16  C   UNL     1      -6.685  10.077  67.683  1.00  0.00    -0.075 A  
HETATM   17  C   UNL     1      -7.473  11.245  67.738  1.00  0.00    -0.095 A  
HETATM   18  S   UNL     1      -6.612  12.752  67.380  1.00  0.00    -0.079 SA 
HETATM   19  C   UNL     1      -7.866  13.984  67.626  1.00  0.00    -0.176 A  
HETATM   20  C   UNL     1      -9.188  13.698  68.032  1.00  0.00    -0.197 A  
HETATM   21  C   UNL     1     -10.031  14.828  68.183  1.00  0.00    -0.221 A  
HETATM   22  C   UNL     1      -9.601  16.159  67.990  1.00  0.00    -0.220 A  
HETATM   23  C   UNL     1     -10.535  17.324  68.208  1.00  0.00    -0.385 C  
HETATM   24  C   UNL     1      -8.287  16.389  67.596  1.00  0.00    -0.176 A  
HETATM   25  F   UNL     1     -10.073  18.190  69.155  1.00  0.00    -0.363 F  
HETATM   26  F   UNL     1     -10.709  18.069  67.081  1.00  0.00    -0.370 F  
HETATM   27  F   UNL     1     -11.785  16.965  68.612  1.00  0.00    -0.149 F  
HETATM   28  C   UNL     1      -7.432  15.309  67.411  1.00  0.00    -0.239 A  
ENDBRANCH  10  11
ENDBRANCH   9  10
ENDBRANCH   8   9
ENDBRANCH   5   8
TORSDOF 4
ENDMDL
MODEL      149
REMARK 921   NORMALIZED FREE ENERGY PREDICTED BY IDOCK:   -4.71 KCAL/MOL
REMARK 922        TOTAL FREE ENERGY PREDICTED BY IDOCK:   -6.23 KCAL/MOL
REMARK 923 INTER-LIGAND FREE ENERGY PREDICTED BY IDOCK:   -5.57 KCAL/MOL
REMARK 924 INTRA-LIGAND FREE ENERGY PREDICTED BY IDOCK:   -0.66 KCAL/MOL
REMARK 927      BINDING AFFINITY PREDICTED BY RF-SCORE:    0.00 PKD
ROOT
HETATM    1  C   UNL     1      -6.435   6.793  62.425  1.00  0.00    -0.043 C  
HETATM    2  N   UNL     1      -7.572   7.613  62.840  1.00  0.00    -0.111 NA 
HETATM    3  C   UNL     1      -7.829   7.458  64.287  1.00  0.00    -0.127 C  
HETATM    4  C   UNL     1      -6.801   8.175  65.193  1.00  0.00    -0.058 C  
HETATM    5  N   UNL     1      -6.640   9.613  64.902  1.00  0.00    -0.087 NA 
HETATM    6  C   UNL     1      -6.347   9.770  63.457  1.00  0.00    -0.116 C  
HETATM    7  C   UNL     1      -7.341   9.038  62.520  1.00  0.00    -0.098 C  
ENDROOT
BRANCH   5   8
HETATM    8  C   UNL     1      -7.825  10.410  65.261  1.00  0.00    -0.137 C  
BRANCH   8   9
HETATM    9  C   UNL     1      -8.477   9.994  66.578  1.00  0.00    -0.128 C  
BRANCH   9  10
HETATM   10  C   UNL     1      -9.939   9.538  66.441  1.00  0.00    -0.269 C  
BRANCH  10  11
HETATM   11  N   UNL     1     -10.613   9.321  67.751  1.00  0.00    -0.259 NA 
HETATM   12  C   UNL     1     -11.176  10.499  68.346  1.00  0.00    -0.279 A  
HETATM   13  C   UNL     1     -11.420  11.678  67.597  1.00  0.00    -0.373 A  
HETATM   14  C   UNL     1     -11.833  12.878  68.182  1.00  0.00    -0.380 A  
HETATM   15  C   UNL     1     -12.082  12.929  69.541  1.00  0.00    -0.274 A  
HETATM   16  C   UNL     1     -11.936  11.771  70.296  1.00  0.00    -0.429 A  
HETATM   17  C   UNL     1     -11.494  10.566  69.714  1.00  0.00    -0.294 A  
HETATM   18  S   UNL     1     -11.356   9.197  70.830  1.00  0.00    -0.293 SA 
HETATM   19  C   UNL     1     -10.704   7.912  69.792  1.00  0.00    -0.233 A  
HETATM   20  C   UNL     1     -10.394   8.081  68.425  1.00  0.00    -0.199 A  
HETATM   21  C   UNL     1      -9.872   6.932  67.778  1.00  0.00    -0.161 A  
HETATM   22  C   UNL     1      -9.629   5.706  68.432  1.00  0.00    -0.152 A  
HETATM   23  C   UNL     1      -9.031   4.531  67.700  1.00  0.00    -0.115 C  
HETATM   24  C   UNL     1      -9.946   5.592  69.782  1.00  0.00    -0.279 A  
HETATM   25  F   UNL     1      -7.861   4.110  68.259  1.00  0.00    -0.072 F  
HETATM   26  F   UNL     1      -9.852   3.444  67.701  1.00  0.00    -0.239 F  
HETATM   27  F   UNL     1      -8.747   4.779  66.391  1.00  0.00    -0.113 F  
HETATM   28  C   UNL     1     -10.483   6.685  70.451  1.00  0.00    -0.249 A  
ENDBRANCH  10  11
ENDBRANCH   9  10
ENDBRANCH   8   9
ENDBRANCH   5   8
TORSDOF 4
ENDMDL
MODEL      150
REMARK 921   NORMALIZED FREE ENERGY PREDICTED BY IDOCK:   -4.70 KCAL/MOL
REMARK 922        TOTAL FREE ENERGY PREDICTED BY IDOCK:   -6.21 KCAL/MOL
REMARK 923 INTER-LIGAND FREE ENERGY PREDICTED BY IDOCK:   -5.74 KCAL/MOL
REMARK 924 INTRA-LIGAND FREE ENERGY PREDICTED BY IDOCK:   -0.47 KCAL/MOL
REMARK 927      BINDING AFFINITY PREDICTED BY RF-SCORE:    0.00 PKD
ROOT
HETATM    1  C   UNL     1      -7.385   2.746  63.033  1.00  0.00    -0.049 C  
HETATM    2  N   UNL     1      -8.556   3.094  63.837  1.00  0.00    -0.089 NA 
HETATM    3  C   UNL     1      -8.244   3.015  65.280  1.00  0.00    -0.091 C  
HETATM    4  C   UNL     1      -7.366   4.175  65.802  1.00  0.00    -0.077 C  
HETATM    5  N   UNL     1      -7.909   5.518  65.518  1.00  0.00    -0.095 NA 
HETATM    6  C   UNL     1      -8.191   5.614  64.066  1.00  0.00    -0.102 C  
HETATM    7  C   UNL     1      -9.044   4.449  63.503  1.00  0.00    -0.132 C  
ENDROOT
BRANCH   5   8
HETATM    8  C   UNL     1      -9.130   5.819  66.285  1.00  0.00    -0.147 C  
BRANCH   8   9
HETATM    9  C   UNL     1      -8.953   5.719  67.799  1.00  0.00    -0.107 C  
BRANCH   9  10
HETATM   10  C   UNL     1     -10.235   5.348  68.561  1.00  0.00    -0.169 C  
BRANCH  10  11
HETATM   11  N   UNL     1     -10.129   5.560  70.031  1.00  0.00    -0.219 NA 
HETATM   12  C   UNL     1      -9.903   4.371  70.801  1.00  0.00    -0.203 A  
HETATM   13  C   UNL     1      -9.433   3.171  70.211  1.00  0.00    -0.224 A  
HETATM   14  C   UNL     1      -9.341   1.965  70.913  1.00  0.00    -0.191 A  
HETATM   15  C   UNL     1      -9.656   1.927  72.258  1.00  0.00    -0.170 A  
HETATM   16  C   UNL     1     -10.040   3.104  72.892  1.00  0.00    -0.222 A  
HETATM   17  C   UNL     1     -10.160   4.315  72.182  1.00  0.00    -0.185 A  
HETATM   18  S   UNL     1     -10.671   5.708  73.150  1.00  0.00    -0.286 SA 
HETATM   19  C   UNL     1     -10.797   6.999  71.939  1.00  0.00    -0.224 A  
HETATM   20  C   UNL     1     -10.544   6.820  70.561  1.00  0.00    -0.225 A  
HETATM   21  C   UNL     1     -10.714   7.977  69.760  1.00  0.00    -0.231 A  
HETATM   22  C   UNL     1     -11.143   9.223  70.263  1.00  0.00    -0.289 A  
HETATM   23  C   UNL     1     -11.348  10.409  69.353  1.00  0.00    -0.250 C  
HETATM   24  C   UNL     1     -11.386   9.348  71.628  1.00  0.00    -0.452 A  
HETATM   25  F   UNL     1     -12.624  10.887  69.399  1.00  0.00    -0.376 F  
HETATM   26  F   UNL     1     -10.548  11.461  69.682  1.00  0.00    -0.207 F  
HETATM   27  F   UNL     1     -11.097  10.150  68.040  1.00  0.00    -0.282 F  
HETATM   28  C   UNL     1     -11.208   8.246  72.455  1.00  0.00    -0.446 A  
ENDBRANCH  10  11
ENDBRANCH   9  10
ENDBRANCH   8   9
ENDBRANCH   5   8
TORSDOF 4
ENDMDL
MODEL      151
REMARK 921   NORMALIZED FREE ENERGY PREDICTED BY IDOCK:   -4.69 KCAL/MOL
REMARK 922        TOTAL FREE ENERGY PREDICTED BY IDOCK:   -6.20 KCAL/MOL
REMARK 923 INTER-LIGAND FREE ENERGY PREDICTED BY IDOCK:   -5.50 KCAL/MOL
REMARK 924 INTRA-LIGAND FREE ENERGY PREDICTED BY IDOCK:   -0.71 KCAL/MOL
REMARK 927      BINDING AFFINITY PREDICTED BY RF-SCORE:    0.00 PKD
ROOT
HETATM    1  C   UNL     1      -5.176   3.456  71.964  1.00  0.00     0.000 C  
HETATM    2  N   UNL     1      -5.366   3.687  70.533  1.00  0.00    -0.011 NA 
HETATM    3  C   UNL     1      -6.666   3.145  70.082  1.00  0.00    -0.033 C  
HETATM    4  C   UNL     1      -7.887   3.983  70.523  1.00  0.00    -0.051 C  
HETATM    5  N   UNL     1      -7.817   5.406  70.132  1.00  0.00    -0.080 NA 
HETATM    6  C   UNL     1      -6.530   5.962  70.613  1.00  0.00    -0.040 C  
HETATM    7  C   UNL     1      -5.285   5.129  70.214  1.00  0.00    -0.004 C  
ENDROOT
BRANCH   5   8
HETATM    8  C   UNL     1      -7.938   5.609  68.678  1.00  0.00    -0.100 C  
BRANCH   8   9
HETATM    9  C   UNL     1      -8.314   7.036  68.281  1.00  0.00    -0.123 C  
BRANCH   9  10
HETATM   10  C   UNL     1      -9.722   7.171  67.679  1.00  0.00    -0.143 C  
BRANCH  10  11
HETATM   11  N   UNL     1     -10.482   8.334  68.215  1.00  0.00    -0.191 NA 
HETATM   12  C   UNL     1     -10.450   9.511  67.396  1.00  0.00    -0.272 A  
HETATM   13  C   UNL     1     -10.070   9.467  66.031  1.00  0.00    -0.319 A  
HETATM   14  C   UNL     1      -9.895  10.616  65.254  1.00  0.00    -0.334 A  
HETATM   15  C   UNL     1     -10.157  11.859  65.798  1.00  0.00    -0.272 A  
HETATM   16  C   UNL     1     -10.613  11.938  67.109  1.00  0.00    -0.264 A  
HETATM   17  C   UNL     1     -10.765  10.783  67.904  1.00  0.00    -0.239 A  
HETATM   18  S   UNL     1     -11.345  11.075  69.552  1.00  0.00    -0.313 SA 
HETATM   19  C   UNL     1     -11.328   9.449  70.264  1.00  0.00    -0.220 A  
HETATM   20  C   UNL     1     -10.909   8.289  69.578  1.00  0.00    -0.116 A  
HETATM   21  C   UNL     1     -10.960   7.089  70.331  1.00  0.00    -0.301 A  
HETATM   22  C   UNL     1     -11.358   7.029  71.684  1.00  0.00    -0.288 A  
HETATM   23  C   UNL     1     -11.351   5.727  72.447  1.00  0.00    -0.294 C  
HETATM   24  C   UNL     1     -11.757   8.201  72.318  1.00  0.00    -0.439 A  
HETATM   25  F   UNL     1     -10.548   5.774  73.548  1.00  0.00    -0.211 F  
HETATM   26  F   UNL     1     -12.587   5.387  72.907  1.00  0.00    -0.229 F  
HETATM   27  F   UNL     1     -10.920   4.660  71.719  1.00  0.00    -0.142 F  
HETATM   28  C   UNL     1     -11.746   9.397  71.610  1.00  0.00    -0.468 A  
ENDBRANCH  10  11
ENDBRANCH   9  10
ENDBRANCH   8   9
ENDBRANCH   5   8
TORSDOF 4
ENDMDL
MODEL      152
REMARK 921   NORMALIZED FREE ENERGY PREDICTED BY IDOCK:   -4.67 KCAL/MOL
REMARK 922        TOTAL FREE ENERGY PREDICTED BY IDOCK:   -6.18 KCAL/MOL
REMARK 923 INTER-LIGAND FREE ENERGY PREDICTED BY IDOCK:   -5.80 KCAL/MOL
REMARK 924 INTRA-LIGAND FREE ENERGY PREDICTED BY IDOCK:   -0.38 KCAL/MOL
REMARK 927      BINDING AFFINITY PREDICTED BY RF-SCORE:    0.00 PKD
ROOT
HETATM    1  C   UNL     1      -5.814   5.886  72.969  1.00  0.00    -0.037 C  
HETATM    2  N   UNL     1      -6.794   6.111  71.907  1.00  0.00    -0.064 NA 
HETATM    3  C   UNL     1      -8.144   6.313  72.474  1.00  0.00    -0.103 C  
HETATM    4  C   UNL     1      -8.348   7.689  73.147  1.00  0.00    -0.138 C  
HETATM    5  N   UNL     1      -8.034   8.840  72.276  1.00  0.00    -0.373 NA 
HETATM    6  C   UNL     1      -6.667   8.658  71.733  1.00  0.00    -0.082 C  
HETATM    7  C   UNL     1      -6.418   7.276  71.077  1.00  0.00    -0.043 C  
ENDROOT
BRANCH   5   8
HETATM    8  C   UNL     1      -8.993   9.004  71.171  1.00  0.00    -0.235 C  
BRANCH   8   9
HETATM    9  C   UNL     1     -10.456   9.005  71.613  1.00  0.00    -0.426 C  
BRANCH   9  10
HETATM   10  C   UNL     1     -11.464   9.085  70.456  1.00  0.00    -0.212 C  
BRANCH  10  11
HETATM   11  N   UNL     1     -11.065  10.049  69.393  1.00  0.00    -0.235 NA 
HETATM   12  C   UNL     1     -11.516  11.396  69.594  1.00  0.00    -0.309 A  
HETATM   13  C   UNL     1     -11.957  11.860  70.858  1.00  0.00    -0.070 A  
HETATM   14  C   UNL     1     -12.533  13.120  71.046  1.00  0.00    -0.406 A  
HETATM   15  C   UNL     1     -12.631  13.996  69.981  1.00  0.00    -0.250 A  
HETATM   16  C   UNL     1     -12.132  13.608  68.743  1.00  0.00    -0.332 A  
HETATM   17  C   UNL     1     -11.576  12.328  68.544  1.00  0.00    -0.310 A  
HETATM   18  S   UNL     1     -11.002  12.004  66.899  1.00  0.00    -0.298 SA 
HETATM   19  C   UNL     1     -10.466  10.315  67.000  1.00  0.00    -0.244 A  
HETATM   20  C   UNL     1     -10.552   9.525  68.167  1.00  0.00    -0.217 A  
HETATM   21  C   UNL     1     -10.080   8.195  68.033  1.00  0.00    -0.241 A  
HETATM   22  C   UNL     1      -9.590   7.655  66.824  1.00  0.00    -0.269 A  
HETATM   23  C   UNL     1      -9.142   6.217  66.733  1.00  0.00    -0.135 C  
HETATM   24  C   UNL     1      -9.530   8.472  65.700  1.00  0.00    -0.051 A  
HETATM   25  F   UNL     1      -9.841   5.512  65.799  1.00  0.00    -0.162 F  
HETATM   26  F   UNL     1      -7.832   6.103  66.376  1.00  0.00    -0.096 F  
HETATM   27  F   UNL     1      -9.271   5.520  67.896  1.00  0.00    -0.109 F  
HETATM   28  C   UNL     1      -9.960   9.790  65.792  1.00  0.00    -0.349 A  
ENDBRANCH  10  11
ENDBRANCH   9  10
ENDBRANCH   8   9
ENDBRANCH   5   8
TORSDOF 4
ENDMDL
MODEL      153
REMARK 921   NORMALIZED FREE ENERGY PREDICTED BY IDOCK:   -4.67 KCAL/MOL
REMARK 922        TOTAL FREE ENERGY PREDICTED BY IDOCK:   -6.17 KCAL/MOL
REMARK 923 INTER-LIGAND FREE ENERGY PREDICTED BY IDOCK:   -6.55 KCAL/MOL
REMARK 924 INTRA-LIGAND FREE ENERGY PREDICTED BY IDOCK:    0.38 KCAL/MOL
REMARK 927      BINDING AFFINITY PREDICTED BY RF-SCORE:    0.00 PKD
ROOT
HETATM    1  C   UNL     1      -5.519   9.527  70.328  1.00  0.00    -0.032 C  
HETATM    2  N   UNL     1      -6.894  10.004  70.477  1.00  0.00    -0.242 NA 
HETATM    3  C   UNL     1      -7.389  10.582  69.211  1.00  0.00    -0.113 C  
HETATM    4  C   UNL     1      -7.721   9.534  68.124  1.00  0.00    -0.083 C  
HETATM    5  N   UNL     1      -8.672   8.491  68.561  1.00  0.00    -0.138 NA 
HETATM    6  C   UNL     1      -8.160   7.885  69.813  1.00  0.00    -0.116 C  
HETATM    7  C   UNL     1      -7.788   8.909  70.914  1.00  0.00    -0.133 C  
ENDROOT
BRANCH   5   8
HETATM    8  C   UNL     1     -10.034   9.008  68.776  1.00  0.00    -0.182 C  
BRANCH   8   9
HETATM    9  C   UNL     1     -10.526   9.940  67.669  1.00  0.00    -0.296 C  
BRANCH   9  10
HETATM   10  C   UNL     1     -11.474  11.048  68.155  1.00  0.00    -0.302 C  
BRANCH  10  11
HETATM   11  N   UNL     1     -11.351  12.311  67.375  1.00  0.00    -0.303 NA 
HETATM   12  C   UNL     1     -11.009  12.141  65.992  1.00  0.00    -0.293 A  
HETATM   13  C   UNL     1     -11.156  10.897  65.329  1.00  0.00     0.082 A  
HETATM   14  C   UNL     1     -10.698  10.671  64.028  1.00  0.00     0.163 A  
HETATM   15  C   UNL     1     -10.128  11.706  63.311  1.00  0.00    -0.454 A  
HETATM   16  C   UNL     1     -10.044  12.964  63.898  1.00  0.00    -0.029 A  
HETATM   17  C   UNL     1     -10.480  13.189  65.219  1.00  0.00    -0.307 A  
HETATM   18  S   UNL     1     -10.284  14.849  65.805  1.00  0.00    -0.362 SA 
HETATM   19  C   UNL     1     -10.841  14.737  67.487  1.00  0.00    -0.287 A  
HETATM   20  C   UNL     1     -11.287  13.543  68.095  1.00  0.00    -0.286 A  
HETATM   21  C   UNL     1     -11.677  13.666  69.452  1.00  0.00    -0.379 A  
HETATM   22  C   UNL     1     -11.599  14.870  70.185  1.00  0.00    -0.333 A  
HETATM   23  C   UNL     1     -11.988  14.929  71.642  1.00  0.00    -0.363 C  
HETATM   24  C   UNL     1     -11.148  16.019  69.542  1.00  0.00    -0.333 A  
HETATM   25  F   UNL     1     -10.964  15.348  72.438  1.00  0.00    -0.425 F  
HETATM   26  F   UNL     1     -13.013  15.797  71.871  1.00  0.00    -0.421 F  
HETATM   27  F   UNL     1     -12.393  13.734  72.156  1.00  0.00    -0.284 F  
HETATM   28  C   UNL     1     -10.778  15.950  68.204  1.00  0.00    -0.302 A  
ENDBRANCH  10  11
ENDBRANCH   9  10
ENDBRANCH   8   9
ENDBRANCH   5   8
TORSDOF 4
ENDMDL
MODEL      154
REMARK 921   NORMALIZED FREE ENERGY PREDICTED BY IDOCK:   -4.66 KCAL/MOL
REMARK 922        TOTAL FREE ENERGY PREDICTED BY IDOCK:   -6.16 KCAL/MOL
REMARK 923 INTER-LIGAND FREE ENERGY PREDICTED BY IDOCK:   -5.88 KCAL/MOL
REMARK 924 INTRA-LIGAND FREE ENERGY PREDICTED BY IDOCK:   -0.28 KCAL/MOL
REMARK 927      BINDING AFFINITY PREDICTED BY RF-SCORE:    0.00 PKD
ROOT
HETATM    1  C   UNL     1      -9.145  16.931  66.927  1.00  0.00    -0.230 C  
HETATM    2  N   UNL     1      -8.540  15.731  66.352  1.00  0.00    -0.307 NA 
HETATM    3  C   UNL     1      -7.432  15.244  67.201  1.00  0.00    -0.167 C  
HETATM    4  C   UNL     1      -7.891  14.558  68.508  1.00  0.00    -0.136 C  
HETATM    5  N   UNL     1      -8.842  13.446  68.304  1.00  0.00    -0.181 NA 
HETATM    6  C   UNL     1      -9.972  13.940  67.482  1.00  0.00    -0.240 C  
HETATM    7  C   UNL     1      -9.547  14.662  66.178  1.00  0.00    -0.307 C  
ENDROOT
BRANCH   5   8
HETATM    8  C   UNL     1      -8.228  12.275  67.657  1.00  0.00    -0.166 C  
BRANCH   8   9
HETATM    9  C   UNL     1      -8.458  10.962  68.403  1.00  0.00    -0.141 C  
BRANCH   9  10
HETATM   10  C   UNL     1      -9.667  10.156  67.902  1.00  0.00    -0.146 C  
BRANCH  10  11
HETATM   11  N   UNL     1     -10.477   9.563  69.002  1.00  0.00    -0.208 NA 
HETATM   12  C   UNL     1     -11.335  10.486  69.689  1.00  0.00    -0.281 A  
HETATM   13  C   UNL     1     -11.681  11.745  69.138  1.00  0.00    -0.388 A  
HETATM   14  C   UNL     1     -12.396  12.714  69.847  1.00  0.00    -0.126 A  
HETATM   15  C   UNL     1     -12.851  12.435  71.122  1.00  0.00    -0.299 A  
HETATM   16  C   UNL     1     -12.604  11.179  71.666  1.00  0.00    -0.386 A  
HETATM   17  C   UNL     1     -11.860  10.209  70.963  1.00  0.00    -0.383 A  
HETATM   18  S   UNL     1     -11.635   8.672  71.814  1.00  0.00    -0.360 SA 
HETATM   19  C   UNL     1     -10.605   7.755  70.696  1.00  0.00    -0.222 A  
HETATM   20  C   UNL     1     -10.132   8.257  69.465  1.00  0.00    -0.197 A  
HETATM   21  C   UNL     1      -9.312   7.368  68.725  1.00  0.00    -0.144 A  
HETATM   22  C   UNL     1      -8.942   6.083  69.177  1.00  0.00    -0.124 A  
HETATM   23  C   UNL     1      -8.030   5.198  68.364  1.00  0.00    -0.087 C  
HETATM   24  C   UNL     1      -9.430   5.635  70.400  1.00  0.00    -0.206 A  
HETATM   25  F   UNL     1      -6.898   4.853  69.042  1.00  0.00    -0.045 F  
HETATM   26  F   UNL     1      -8.622   4.022  68.013  1.00  0.00    -0.091 F  
HETATM   27  F   UNL     1      -7.605   5.760  67.198  1.00  0.00    -0.091 F  
HETATM   28  C   UNL     1     -10.258   6.464  71.148  1.00  0.00    -0.224 A  
ENDBRANCH  10  11
ENDBRANCH   9  10
ENDBRANCH   8   9
ENDBRANCH   5   8
TORSDOF 4
ENDMDL
MODEL      155
REMARK 921   NORMALIZED FREE ENERGY PREDICTED BY IDOCK:   -4.66 KCAL/MOL
REMARK 922        TOTAL FREE ENERGY PREDICTED BY IDOCK:   -6.16 KCAL/MOL
REMARK 923 INTER-LIGAND FREE ENERGY PREDICTED BY IDOCK:   -5.86 KCAL/MOL
REMARK 924 INTRA-LIGAND FREE ENERGY PREDICTED BY IDOCK:   -0.30 KCAL/MOL
REMARK 927      BINDING AFFINITY PREDICTED BY RF-SCORE:    0.00 PKD
ROOT
HETATM    1  C   UNL     1     -10.761  15.857  65.364  1.00  0.00    -0.399 C  
HETATM    2  N   UNL     1      -9.579  15.041  65.637  1.00  0.00    -0.306 NA 
HETATM    3  C   UNL     1      -8.956  15.432  66.920  1.00  0.00    -0.247 C  
HETATM    4  C   UNL     1      -9.738  14.970  68.170  1.00  0.00    -0.215 C  
HETATM    5  N   UNL     1     -10.010  13.518  68.211  1.00  0.00    -0.234 NA 
HETATM    6  C   UNL     1     -10.666  13.128  66.940  1.00  0.00    -0.263 C  
HETATM    7  C   UNL     1      -9.924  13.602  65.665  1.00  0.00    -0.243 C  
ENDROOT
BRANCH   5   8
HETATM    8  C   UNL     1      -8.795  12.711  68.414  1.00  0.00    -0.119 C  
BRANCH   8   9
HETATM    9  C   UNL     1      -8.965  11.576  69.422  1.00  0.00     0.631 C  
BRANCH   9  10
HETATM   10  C   UNL     1      -9.821  10.405  68.913  1.00  0.00    -0.200 C  
BRANCH  10  11
HETATM   11  N   UNL     1     -10.396   9.576  70.009  1.00  0.00    -0.228 NA 
HETATM   12  C   UNL     1     -10.073   8.180  69.947  1.00  0.00    -0.195 A  
HETATM   13  C   UNL     1      -9.000   7.690  69.161  1.00  0.00    -0.135 A  
HETATM   14  C   UNL     1      -8.756   6.326  68.974  1.00  0.00    -0.125 A  
HETATM   15  C   UNL     1      -9.542   5.393  69.622  1.00  0.00    -0.217 A  
HETATM   16  C   UNL     1     -10.551   5.836  70.470  1.00  0.00    -0.359 A  
HETATM   17  C   UNL     1     -10.817   7.210  70.640  1.00  0.00    -0.245 A  
HETATM   18  S   UNL     1     -12.147   7.588  71.748  1.00  0.00    -0.321 SA 
HETATM   19  C   UNL     1     -12.248   9.357  71.646  1.00  0.00    -0.390 A  
HETATM   20  C   UNL     1     -11.421  10.150  70.821  1.00  0.00    -0.357 A  
HETATM   21  C   UNL     1     -11.672  11.544  70.877  1.00  0.00     0.169 A  
HETATM   22  C   UNL     1     -12.694  12.127  71.656  1.00  0.00    -0.314 A  
HETATM   23  C   UNL     1     -12.942  13.615  71.641  1.00  0.00    -0.362 C  
HETATM   24  C   UNL     1     -13.487  11.302  72.448  1.00  0.00     0.217 A  
HETATM   25  F   UNL     1     -14.208  13.928  71.244  1.00  0.00    -0.289 F  
HETATM   26  F   UNL     1     -12.790  14.181  72.871  1.00  0.00    -0.467 F  
HETATM   27  F   UNL     1     -12.113  14.307  70.810  1.00  0.00    -0.335 F  
HETATM   28  C   UNL     1     -13.260   9.931  72.444  1.00  0.00    -0.315 A  
ENDBRANCH  10  11
ENDBRANCH   9  10
ENDBRANCH   8   9
ENDBRANCH   5   8
TORSDOF 4
ENDMDL
MODEL      156
REMARK 921   NORMALIZED FREE ENERGY PREDICTED BY IDOCK:   -4.64 KCAL/MOL
REMARK 922        TOTAL FREE ENERGY PREDICTED BY IDOCK:   -6.15 KCAL/MOL
REMARK 923 INTER-LIGAND FREE ENERGY PREDICTED BY IDOCK:   -5.68 KCAL/MOL
REMARK 924 INTRA-LIGAND FREE ENERGY PREDICTED BY IDOCK:   -0.47 KCAL/MOL
REMARK 927      BINDING AFFINITY PREDICTED BY RF-SCORE:    0.00 PKD
ROOT
HETATM    1  C   UNL     1      -5.525   6.868  70.976  1.00  0.00    -0.027 C  
HETATM    2  N   UNL     1      -6.286   7.181  69.767  1.00  0.00    -0.034 NA 
HETATM    3  C   UNL     1      -7.662   7.598  70.107  1.00  0.00    -0.091 C  
HETATM    4  C   UNL     1      -7.762   9.019  70.708  1.00  0.00    -0.128 C  
HETATM    5  N   UNL     1      -7.152  10.073  69.872  1.00  0.00    -0.112 NA 
HETATM    6  C   UNL     1      -5.759   9.674  69.558  1.00  0.00    -0.033 C  
HETATM    7  C   UNL     1      -5.619   8.242  68.981  1.00  0.00    -0.035 C  
ENDROOT
BRANCH   5   8
HETATM    8  C   UNL     1      -7.895  10.320  68.624  1.00  0.00    -0.101 C  
BRANCH   8   9
HETATM    9  C   UNL     1      -9.379  10.613  68.834  1.00  0.00    -0.191 C  
BRANCH   9  10
HETATM   10  C   UNL     1     -10.321   9.695  68.038  1.00  0.00    -0.218 C  
BRANCH  10  11
HETATM   11  N   UNL     1     -10.001   9.640  66.585  1.00  0.00    -0.220 NA 
HETATM   12  C   UNL     1      -9.201   8.519  66.182  1.00  0.00    -0.211 A  
HETATM   13  C   UNL     1      -9.054   7.368  66.996  1.00  0.00    -0.155 A  
HETATM   14  C   UNL     1      -8.171   6.328  66.690  1.00  0.00    -0.111 A  
HETATM   15  C   UNL     1      -7.442   6.370  65.517  1.00  0.00    -0.083 A  
HETATM   16  C   UNL     1      -7.621   7.443  64.651  1.00  0.00    -0.105 A  
HETATM   17  C   UNL     1      -8.491   8.506  64.969  1.00  0.00    -0.164 A  
HETATM   18  S   UNL     1      -8.585   9.791  63.753  1.00  0.00    -0.218 SA 
HETATM   19  C   UNL     1      -9.674  10.968  64.515  1.00  0.00    -0.273 A  
HETATM   20  C   UNL     1     -10.244  10.806  65.797  1.00  0.00    -0.257 A  
HETATM   21  C   UNL     1     -11.077  11.869  66.227  1.00  0.00    -0.364 A  
HETATM   22  C   UNL     1     -11.311  13.037  65.471  1.00  0.00    -0.330 A  
HETATM   23  C   UNL     1     -12.174  14.155  66.001  1.00  0.00    -0.443 C  
HETATM   24  C   UNL     1     -10.722  13.153  64.215  1.00  0.00    -0.431 A  
HETATM   25  F   UNL     1     -11.503  15.339  66.080  1.00  0.00    -0.326 F  
HETATM   26  F   UNL     1     -13.256  14.397  65.209  1.00  0.00    -0.422 F  
HETATM   27  F   UNL     1     -12.672  13.928  67.248  1.00  0.00    -0.251 F  
HETATM   28  C   UNL     1      -9.917  12.124  63.743  1.00  0.00    -0.343 A  
ENDBRANCH  10  11
ENDBRANCH   9  10
ENDBRANCH   8   9
ENDBRANCH   5   8
TORSDOF 4
ENDMDL
MODEL      157
REMARK 921   NORMALIZED FREE ENERGY PREDICTED BY IDOCK:   -4.64 KCAL/MOL
REMARK 922        TOTAL FREE ENERGY PREDICTED BY IDOCK:   -6.14 KCAL/MOL
REMARK 923 INTER-LIGAND FREE ENERGY PREDICTED BY IDOCK:   -5.45 KCAL/MOL
REMARK 924 INTRA-LIGAND FREE ENERGY PREDICTED BY IDOCK:   -0.69 KCAL/MOL
REMARK 927      BINDING AFFINITY PREDICTED BY RF-SCORE:    0.00 PKD
ROOT
HETATM    1  C   UNL     1     -12.340   7.768  71.637  1.00  0.00    -0.321 C  
HETATM    2  N   UNL     1     -11.649   9.053  71.735  1.00  0.00    -0.352 NA 
HETATM    3  C   UNL     1     -10.183   8.864  71.702  1.00  0.00    -0.345 C  
HETATM    4  C   UNL     1      -9.622   8.508  70.307  1.00  0.00    -0.167 C  
HETATM    5  N   UNL     1      -9.989   9.467  69.245  1.00  0.00    -0.178 NA 
HETATM    6  C   UNL     1     -11.462   9.633  69.252  1.00  0.00     0.136 C  
HETATM    7  C   UNL     1     -12.063   9.960  70.642  1.00  0.00    -0.257 C  
ENDROOT
BRANCH   5   8
HETATM    8  C   UNL     1      -9.338  10.778  69.404  1.00  0.00     0.003 C  
BRANCH   8   9
HETATM    9  C   UNL     1      -9.938  11.879  68.532  1.00  0.00    -0.196 C  
BRANCH   9  10
HETATM   10  C   UNL     1      -8.928  12.562  67.596  1.00  0.00    -0.185 C  
BRANCH  10  11
HETATM   11  N   UNL     1      -9.182  12.288  66.154  1.00  0.00    -0.181 NA 
HETATM   12  C   UNL     1     -10.131  13.162  65.528  1.00  0.00    -0.261 A  
HETATM   13  C   UNL     1     -10.500  14.406  66.100  1.00  0.00    -0.295 A  
HETATM   14  C   UNL     1     -11.523  15.206  65.583  1.00  0.00    -0.192 A  
HETATM   15  C   UNL     1     -12.178  14.821  64.429  1.00  0.00    -0.447 A  
HETATM   16  C   UNL     1     -11.787  13.650  63.790  1.00  0.00    -0.373 A  
HETATM   17  C   UNL     1     -10.773  12.827  64.324  1.00  0.00    -0.394 A  
HETATM   18  S   UNL     1     -10.415  11.369  63.383  1.00  0.00    -0.358 SA 
HETATM   19  C   UNL     1      -9.189  10.557  64.377  1.00  0.00    -0.245 A  
HETATM   20  C   UNL     1      -8.716  11.051  65.612  1.00  0.00    -0.157 A  
HETATM   21  C   UNL     1      -7.744  10.243  66.254  1.00  0.00    -0.116 A  
HETATM   22  C   UNL     1      -7.289   9.009  65.744  1.00  0.00    -0.089 A  
HETATM   23  C   UNL     1      -6.284   8.172  66.495  1.00  0.00    -0.050 C  
HETATM   24  C   UNL     1      -7.789   8.561  64.525  1.00  0.00    -0.138 A  
HETATM   25  F   UNL     1      -6.759   6.929  66.792  1.00  0.00    -0.040 F  
HETATM   26  F   UNL     1      -5.140   7.969  65.783  1.00  0.00    -0.024 F  
HETATM   27  F   UNL     1      -5.890   8.711  67.683  1.00  0.00    -0.040 F  
HETATM   28  C   UNL     1      -8.726   9.333  63.848  1.00  0.00    -0.193 A  
ENDBRANCH  10  11
ENDBRANCH   9  10
ENDBRANCH   8   9
ENDBRANCH   5   8
TORSDOF 4
ENDMDL
MODEL      158
REMARK 921   NORMALIZED FREE ENERGY PREDICTED BY IDOCK:   -4.63 KCAL/MOL
REMARK 922        TOTAL FREE ENERGY PREDICTED BY IDOCK:   -6.13 KCAL/MOL
REMARK 923 INTER-LIGAND FREE ENERGY PREDICTED BY IDOCK:   -5.64 KCAL/MOL
REMARK 924 INTRA-LIGAND FREE ENERGY PREDICTED BY IDOCK:   -0.49 KCAL/MOL
REMARK 927      BINDING AFFINITY PREDICTED BY RF-SCORE:    0.00 PKD
ROOT
HETATM    1  C   UNL     1     -10.033   3.245  72.763  1.00  0.00    -0.148 C  
HETATM    2  N   UNL     1      -9.107   3.833  71.797  1.00  0.00    -0.106 NA 
HETATM    3  C   UNL     1      -9.814   4.214  70.556  1.00  0.00    -0.182 C  
HETATM    4  C   UNL     1     -10.696   5.476  70.692  1.00  0.00    -0.233 C  
HETATM    5  N   UNL     1      -9.978   6.663  71.198  1.00  0.00    -0.182 NA 
HETATM    6  C   UNL     1      -9.295   6.295  72.462  1.00  0.00    -0.146 C  
HETATM    7  C   UNL     1      -8.426   5.015  72.369  1.00  0.00    -0.121 C  
ENDROOT
BRANCH   5   8
HETATM    8  C   UNL     1      -8.997   7.195  70.237  1.00  0.00    -0.152 C  
BRANCH   8   9
HETATM    9  C   UNL     1      -9.510   8.379  69.418  1.00  0.00    -0.158 C  
BRANCH   9  10
HETATM   10  C   UNL     1     -10.526   7.998  68.329  1.00  0.00    -0.161 C  
BRANCH  10  11
HETATM   11  N   UNL     1      -9.974   8.094  66.949  1.00  0.00    -0.246 NA 
HETATM   12  C   UNL     1      -9.220   6.952  66.516  1.00  0.00    -0.163 A  
HETATM   13  C   UNL     1      -9.314   5.697  67.168  1.00  0.00    -0.115 A  
HETATM   14  C   UNL     1      -8.488   4.614  66.855  1.00  0.00    -0.105 A  
HETATM   15  C   UNL     1      -7.572   4.725  65.826  1.00  0.00    -0.086 A  
HETATM   16  C   UNL     1      -7.509   5.913  65.106  1.00  0.00    -0.079 A  
HETATM   17  C   UNL     1      -8.322   7.016  65.437  1.00  0.00    -0.118 A  
HETATM   18  S   UNL     1      -8.098   8.449  64.420  1.00  0.00    -0.139 SA 
HETATM   19  C   UNL     1      -9.190   9.632  65.167  1.00  0.00    -0.246 A  
HETATM   20  C   UNL     1      -9.977   9.371  66.310  1.00  0.00    -0.283 A  
HETATM   21  C   UNL     1     -10.773  10.456  66.755  1.00  0.00    -0.235 A  
HETATM   22  C   UNL     1     -10.773  11.730  66.149  1.00  0.00    -0.320 A  
HETATM   23  C   UNL     1     -11.610  12.860  66.696  1.00  0.00    -0.372 C  
HETATM   24  C   UNL     1      -9.975  11.940  65.029  1.00  0.00    -0.276 A  
HETATM   25  F   UNL     1     -10.859  13.942  67.047  1.00  0.00    -0.276 F  
HETATM   26  F   UNL     1     -12.519  13.319  65.791  1.00  0.00    -0.447 F  
HETATM   27  F   UNL     1     -12.328  12.531  67.807  1.00  0.00    -0.318 F  
HETATM   28  C   UNL     1      -9.197  10.896  64.542  1.00  0.00    -0.226 A  
ENDBRANCH  10  11
ENDBRANCH   9  10
ENDBRANCH   8   9
ENDBRANCH   5   8
TORSDOF 4
ENDMDL
MODEL      159
REMARK 921   NORMALIZED FREE ENERGY PREDICTED BY IDOCK:   -4.63 KCAL/MOL
REMARK 922        TOTAL FREE ENERGY PREDICTED BY IDOCK:   -6.13 KCAL/MOL
REMARK 923 INTER-LIGAND FREE ENERGY PREDICTED BY IDOCK:   -5.62 KCAL/MOL
REMARK 924 INTRA-LIGAND FREE ENERGY PREDICTED BY IDOCK:   -0.51 KCAL/MOL
REMARK 927      BINDING AFFINITY PREDICTED BY RF-SCORE:    0.00 PKD
ROOT
HETATM    1  C   UNL     1      -9.103   2.868  63.337  1.00  0.00    -0.095 C  
HETATM    2  N   UNL     1      -9.423   4.168  63.926  1.00  0.00    -0.155 NA 
HETATM    3  C   UNL     1      -9.891   4.011  65.319  1.00  0.00    -0.197 C  
HETATM    4  C   UNL     1      -8.770   3.672  66.328  1.00  0.00    -0.120 C  
HETATM    5  N   UNL     1      -7.643   4.627  66.322  1.00  0.00    -0.089 NA 
HETATM    6  C   UNL     1      -7.148   4.760  64.931  1.00  0.00    -0.062 C  
HETATM    7  C   UNL     1      -8.252   5.069  63.887  1.00  0.00    -0.125 C  
ENDROOT
BRANCH   5   8
HETATM    8  C   UNL     1      -8.008   5.951  66.852  1.00  0.00    -0.102 C  
BRANCH   8   9
HETATM    9  C   UNL     1      -8.574   5.918  68.271  1.00  0.00    -0.113 C  
BRANCH   9  10
HETATM   10  C   UNL     1     -10.103   6.055  68.342  1.00  0.00    -0.164 C  
BRANCH  10  11
HETATM   11  N   UNL     1     -10.560   7.040  69.361  1.00  0.00    -0.224 NA 
HETATM   12  C   UNL     1     -10.635   8.398  68.903  1.00  0.00    -0.140 A  
HETATM   13  C   UNL     1     -10.657   8.726  67.524  1.00  0.00    -0.298 A  
HETATM   14  C   UNL     1     -10.587  10.041  67.055  1.00  0.00    -0.279 A  
HETATM   15  C   UNL     1     -10.556  11.090  67.954  1.00  0.00    -0.244 A  
HETATM   16  C   UNL     1     -10.619  10.812  69.315  1.00  0.00    -0.261 A  
HETATM   17  C   UNL     1     -10.663   9.486  69.792  1.00  0.00    -0.239 A  
HETATM   18  S   UNL     1     -10.728   9.322  71.555  1.00  0.00    -0.297 SA 
HETATM   19  C   UNL     1     -10.682   7.562  71.784  1.00  0.00    -0.211 A  
HETATM   20  C   UNL     1     -10.593   6.628  70.728  1.00  0.00    -0.226 A  
HETATM   21  C   UNL     1     -10.557   5.268  71.126  1.00  0.00    -0.243 A  
HETATM   22  C   UNL     1     -10.566   4.844  72.472  1.00  0.00    -0.271 A  
HETATM   23  C   UNL     1     -10.482   3.382  72.835  1.00  0.00    -0.153 C  
HETATM   24  C   UNL     1     -10.649   5.803  73.477  1.00  0.00    -0.295 A  
HETATM   25  F   UNL     1      -9.404   3.102  73.621  1.00  0.00    -0.089 F  
HETATM   26  F   UNL     1     -11.570   2.957  73.535  1.00  0.00    -0.319 F  
HETATM   27  F   UNL     1     -10.383   2.549  71.762  1.00  0.00    -0.224 F  
HETATM   28  C   UNL     1     -10.712   7.148  73.132  1.00  0.00    -0.385 A  
ENDBRANCH  10  11
ENDBRANCH   9  10
ENDBRANCH   8   9
ENDBRANCH   5   8
TORSDOF 4
ENDMDL
MODEL      160
REMARK 921   NORMALIZED FREE ENERGY PREDICTED BY IDOCK:   -4.62 KCAL/MOL
REMARK 922        TOTAL FREE ENERGY PREDICTED BY IDOCK:   -6.12 KCAL/MOL
REMARK 923 INTER-LIGAND FREE ENERGY PREDICTED BY IDOCK:   -6.28 KCAL/MOL
REMARK 924 INTRA-LIGAND FREE ENERGY PREDICTED BY IDOCK:    0.16 KCAL/MOL
REMARK 927      BINDING AFFINITY PREDICTED BY RF-SCORE:    0.00 PKD
ROOT
HETATM    1  C   UNL     1      -9.927  17.541  68.774  1.00  0.00    -0.342 C  
HETATM    2  N   UNL     1     -10.331  16.137  68.699  1.00  0.00    -0.240 NA 
HETATM    3  C   UNL     1     -11.198  15.903  67.525  1.00  0.00    -0.171 C  
HETATM    4  C   UNL     1     -10.448  15.905  66.174  1.00  0.00    -0.326 C  
HETATM    5  N   UNL     1      -9.316  14.959  66.110  1.00  0.00    -0.292 NA 
HETATM    6  C   UNL     1      -8.425  15.214  67.267  1.00  0.00    -0.198 C  
HETATM    7  C   UNL     1      -9.150  15.249  68.637  1.00  0.00    -0.193 C  
ENDROOT
BRANCH   5   8
HETATM    8  C   UNL     1      -9.743  13.550  66.109  1.00  0.00    -0.252 C  
BRANCH   8   9
HETATM    9  C   UNL     1     -10.643  13.175  64.933  1.00  0.00    -0.366 C  
BRANCH   9  10
HETATM   10  C   UNL     1     -11.124  11.715  64.949  1.00  0.00    -0.253 C  
BRANCH  10  11
HETATM   11  N   UNL     1     -10.220  10.805  65.705  1.00  0.00    -0.258 NA 
HETATM   12  C   UNL     1      -9.433   9.920  64.894  1.00  0.00    -0.291 A  
HETATM   13  C   UNL     1      -9.233  10.146  63.509  1.00  0.00    -0.322 A  
HETATM   14  C   UNL     1      -8.592   9.227  62.674  1.00  0.00    -0.224 A  
HETATM   15  C   UNL     1      -8.066   8.066  63.208  1.00  0.00    -0.107 A  
HETATM   16  C   UNL     1      -8.168   7.847  64.577  1.00  0.00    -0.073 A  
HETATM   17  C   UNL     1      -8.837   8.760  65.418  1.00  0.00    -0.178 A  
HETATM   18  S   UNL     1      -8.879   8.313  67.132  1.00  0.00    -0.140 SA 
HETATM   19  C   UNL     1      -9.853   9.612  67.849  1.00  0.00    -0.154 A  
HETATM   20  C   UNL     1     -10.418  10.676  67.113  1.00  0.00    -0.245 A  
HETATM   21  C   UNL     1     -11.173  11.603  67.875  1.00  0.00    -0.334 A  
HETATM   22  C   UNL     1     -11.397  11.480  69.263  1.00  0.00    -0.353 A  
HETATM   23  C   UNL     1     -12.247  12.477  70.012  1.00  0.00    -0.192 C  
HETATM   24  C   UNL     1     -10.823  10.410  69.943  1.00  0.00    -0.353 A  
HETATM   25  F   UNL     1     -13.313  11.892  70.629  1.00  0.00     0.017 F  
HETATM   26  F   UNL     1     -11.554  13.113  70.997  1.00  0.00    -0.084 F  
HETATM   27  F   UNL     1     -12.767  13.462  69.229  1.00  0.00    -0.149 F  
HETATM   28  C   UNL     1     -10.055   9.490  69.240  1.00  0.00    -0.203 A  
ENDBRANCH  10  11
ENDBRANCH   9  10
ENDBRANCH   8   9
ENDBRANCH   5   8
TORSDOF 4
ENDMDL
MODEL      161
REMARK 921   NORMALIZED FREE ENERGY PREDICTED BY IDOCK:   -4.61 KCAL/MOL
REMARK 922        TOTAL FREE ENERGY PREDICTED BY IDOCK:   -6.10 KCAL/MOL
REMARK 923 INTER-LIGAND FREE ENERGY PREDICTED BY IDOCK:   -5.92 KCAL/MOL
REMARK 924 INTRA-LIGAND FREE ENERGY PREDICTED BY IDOCK:   -0.18 KCAL/MOL
REMARK 927      BINDING AFFINITY PREDICTED BY RF-SCORE:    0.00 PKD
ROOT
HETATM    1  C   UNL     1     -13.259   9.471  71.344  1.00  0.00    -0.372 C  
HETATM    2  N   UNL     1     -11.823   9.746  71.385  1.00  0.00    -0.389 NA 
HETATM    3  C   UNL     1     -11.047   8.538  71.034  1.00  0.00    -0.260 C  
HETATM    4  C   UNL     1     -11.079   8.180  69.531  1.00  0.00     0.052 C  
HETATM    5  N   UNL     1     -10.654   9.279  68.640  1.00  0.00    -0.209 NA 
HETATM    6  C   UNL     1     -11.455  10.483  68.965  1.00  0.00    -0.237 C  
HETATM    7  C   UNL     1     -11.470  10.853  70.470  1.00  0.00    -0.220 C  
ENDROOT
BRANCH   5   8
HETATM    8  C   UNL     1      -9.218   9.588  68.751  1.00  0.00    -0.140 C  
BRANCH   8   9
HETATM    9  C   UNL     1      -8.922  11.047  69.095  1.00  0.00    -0.000 C  
BRANCH   9  10
HETATM   10  C   UNL     1      -8.154  11.808  68.003  1.00  0.00    -0.145 C  
BRANCH  10  11
HETATM   11  N   UNL     1      -9.045  12.489  67.023  1.00  0.00    -0.207 NA 
HETATM   12  C   UNL     1      -9.803  13.586  67.551  1.00  0.00    -0.227 A  
HETATM   13  C   UNL     1      -9.460  14.218  68.773  1.00  0.00    -0.131 A  
HETATM   14  C   UNL     1     -10.263  15.191  69.376  1.00  0.00    -0.244 A  
HETATM   15  C   UNL     1     -11.416  15.618  68.745  1.00  0.00    -0.382 A  
HETATM   16  C   UNL     1     -11.742  15.082  67.504  1.00  0.00    -0.270 A  
HETATM   17  C   UNL     1     -10.949  14.082  66.905  1.00  0.00    -0.298 A  
HETATM   18  S   UNL     1     -11.522  13.509  65.330  1.00  0.00    -0.308 SA 
HETATM   19  C   UNL     1     -10.360  12.227  64.935  1.00  0.00    -0.290 A  
HETATM   20  C   UNL     1      -9.292  11.841  65.774  1.00  0.00    -0.185 A  
HETATM   21  C   UNL     1      -8.485  10.787  65.278  1.00  0.00    -0.116 A  
HETATM   22  C   UNL     1      -8.727  10.120  64.058  1.00  0.00    -0.224 A  
HETATM   23  C   UNL     1      -7.858   8.974  63.603  1.00  0.00    -0.137 C  
HETATM   24  C   UNL     1      -9.796  10.534  63.269  1.00  0.00    -0.309 A  
HETATM   25  F   UNL     1      -8.567   7.826  63.414  1.00  0.00    -0.014 F  
HETATM   26  F   UNL     1      -7.243   9.228  62.414  1.00  0.00    -0.103 F  
HETATM   27  F   UNL     1      -6.861   8.655  64.474  1.00  0.00    -0.068 F  
HETATM   28  C   UNL     1     -10.599  11.581  63.704  1.00  0.00    -0.491 A  
ENDBRANCH  10  11
ENDBRANCH   9  10
ENDBRANCH   8   9
ENDBRANCH   5   8
TORSDOF 4
ENDMDL
MODEL      162
REMARK 921   NORMALIZED FREE ENERGY PREDICTED BY IDOCK:   -4.60 KCAL/MOL
REMARK 922        TOTAL FREE ENERGY PREDICTED BY IDOCK:   -6.09 KCAL/MOL
REMARK 923 INTER-LIGAND FREE ENERGY PREDICTED BY IDOCK:   -5.60 KCAL/MOL
REMARK 924 INTRA-LIGAND FREE ENERGY PREDICTED BY IDOCK:   -0.49 KCAL/MOL
REMARK 927      BINDING AFFINITY PREDICTED BY RF-SCORE:    0.00 PKD
ROOT
HETATM    1  C   UNL     1     -12.752  13.961  65.120  1.00  0.00    -0.398 C  
HETATM    2  N   UNL     1     -12.636  12.505  65.194  1.00  0.00    -0.650 NA 
HETATM    3  C   UNL     1     -12.185  11.949  63.902  1.00  0.00    -0.392 C  
HETATM    4  C   UNL     1     -10.690  12.194  63.594  1.00  0.00    -0.467 C  
HETATM    5  N   UNL     1      -9.770  11.721  64.648  1.00  0.00    -0.196 NA 
HETATM    6  C   UNL     1     -10.199  12.305  65.941  1.00  0.00    -0.249 C  
HETATM    7  C   UNL     1     -11.700  12.104  66.268  1.00  0.00    -0.320 C  
ENDROOT
BRANCH   5   8
HETATM    8  C   UNL     1      -9.724  10.253  64.754  1.00  0.00    -0.332 C  
BRANCH   8   9
HETATM    9  C   UNL     1      -8.523   9.618  64.055  1.00  0.00    -0.190 C  
BRANCH   9  10
HETATM   10  C   UNL     1      -7.434   9.107  65.012  1.00  0.00    -0.105 C  
BRANCH  10  11
HETATM   11  N   UNL     1      -7.898   8.992  66.423  1.00  0.00    -0.099 NA 
HETATM   12  C   UNL     1      -7.470  10.050  67.291  1.00  0.00    -0.091 A  
HETATM   13  C   UNL     1      -6.989  11.286  66.791  1.00  0.00    -0.141 A  
HETATM   14  C   UNL     1      -6.436  12.274  67.610  1.00  0.00    -0.120 A  
HETATM   15  C   UNL     1      -6.401  12.090  68.979  1.00  0.00    -0.085 A  
HETATM   16  C   UNL     1      -6.941  10.927  69.516  1.00  0.00    -0.131 A  
HETATM   17  C   UNL     1      -7.475   9.916  68.691  1.00  0.00    -0.075 A  
HETATM   18  S   UNL     1      -8.107   8.500  69.547  1.00  0.00    -0.113 SA 
HETATM   19  C   UNL     1      -8.600   7.430  68.219  1.00  0.00    -0.124 A  
HETATM   20  C   UNL     1      -8.448   7.745  66.851  1.00  0.00    -0.125 A  
HETATM   21  C   UNL     1      -8.894   6.747  65.949  1.00  0.00    -0.127 A  
HETATM   22  C   UNL     1      -9.420   5.501  66.354  1.00  0.00    -0.167 A  
HETATM   23  C   UNL     1      -9.838   4.460  65.345  1.00  0.00    -0.210 C  
HETATM   24  C   UNL     1      -9.544   5.236  67.714  1.00  0.00    -0.157 A  
HETATM   25  F   UNL     1      -9.161   3.287  65.496  1.00  0.00    -0.128 F  
HETATM   26  F   UNL     1     -11.158   4.140  65.446  1.00  0.00    -0.189 F  
HETATM   27  F   UNL     1      -9.646   4.835  64.049  1.00  0.00    -0.095 F  
HETATM   28  C   UNL     1      -9.142   6.196  68.635  1.00  0.00    -0.125 A  
ENDBRANCH  10  11
ENDBRANCH   9  10
ENDBRANCH   8   9
ENDBRANCH   5   8
TORSDOF 4
ENDMDL
MODEL      163
REMARK 921   NORMALIZED FREE ENERGY PREDICTED BY IDOCK:   -4.60 KCAL/MOL
REMARK 922        TOTAL FREE ENERGY PREDICTED BY IDOCK:   -6.08 KCAL/MOL
REMARK 923 INTER-LIGAND FREE ENERGY PREDICTED BY IDOCK:   -5.64 KCAL/MOL
REMARK 924 INTRA-LIGAND FREE ENERGY PREDICTED BY IDOCK:   -0.44 KCAL/MOL
REMARK 927      BINDING AFFINITY PREDICTED BY RF-SCORE:    0.00 PKD
ROOT
HETATM    1  C   UNL     1     -11.975  15.122  64.205  1.00  0.00    -0.262 C  
HETATM    2  N   UNL     1     -12.402  13.914  64.909  1.00  0.00    -0.500 NA 
HETATM    3  C   UNL     1     -12.129  12.710  64.097  1.00  0.00    -0.439 C  
HETATM    4  C   UNL     1     -10.636  12.315  64.033  1.00  0.00    -0.400 C  
HETATM    5  N   UNL     1     -10.001  12.137  65.355  1.00  0.00    -0.255 NA 
HETATM    6  C   UNL     1     -10.243  13.357  66.160  1.00  0.00    -0.301 C  
HETATM    7  C   UNL     1     -11.727  13.800  66.220  1.00  0.00    -0.376 C  
ENDROOT
BRANCH   5   8
HETATM    8  C   UNL     1     -10.499  10.954  66.077  1.00  0.00    -0.225 C  
BRANCH   8   9
HETATM    9  C   UNL     1      -9.868   9.639  65.625  1.00  0.00    -0.369 C  
BRANCH   9  10
HETATM   10  C   UNL     1      -8.696   9.168  66.502  1.00  0.00    -0.128 C  
BRANCH  10  11
HETATM   11  N   UNL     1      -8.328   7.743  66.277  1.00  0.00    -0.124 NA 
HETATM   12  C   UNL     1      -7.573   7.492  65.083  1.00  0.00    -0.096 A  
HETATM   13  C   UNL     1      -6.902   8.527  64.385  1.00  0.00    -0.070 A  
HETATM   14  C   UNL     1      -6.282   8.332  63.148  1.00  0.00    -0.081 A  
HETATM   15  C   UNL     1      -6.253   7.070  62.586  1.00  0.00    -0.048 A  
HETATM   16  C   UNL     1      -6.827   6.010  63.280  1.00  0.00    -0.044 A  
HETATM   17  C   UNL     1      -7.477   6.209  64.516  1.00  0.00    -0.083 A  
HETATM   18  S   UNL     1      -8.159   4.748  65.251  1.00  0.00    -0.109 SA 
HETATM   19  C   UNL     1      -8.954   5.380  66.707  1.00  0.00    -0.112 A  
HETATM   20  C   UNL     1      -8.980   6.746  67.065  1.00  0.00    -0.116 A  
HETATM   21  C   UNL     1      -9.679   7.043  68.262  1.00  0.00    -0.136 A  
HETATM   22  C   UNL     1     -10.348   6.075  69.041  1.00  0.00    -0.283 A  
HETATM   23  C   UNL     1     -11.113   6.459  70.283  1.00  0.00    -0.354 C  
HETATM   24  C   UNL     1     -10.298   4.743  68.643  1.00  0.00     0.033 A  
HETATM   25  F   UNL     1     -12.428   6.106  70.214  1.00  0.00    -0.052 F  
HETATM   26  F   UNL     1     -10.627   5.853  71.402  1.00  0.00    -0.258 F  
HETATM   27  F   UNL     1     -11.102   7.794  70.551  1.00  0.00    -0.243 F  
HETATM   28  C   UNL     1      -9.602   4.402  67.489  1.00  0.00    -0.213 A  
ENDBRANCH  10  11
ENDBRANCH   9  10
ENDBRANCH   8   9
ENDBRANCH   5   8
TORSDOF 4
ENDMDL
MODEL      164
REMARK 921   NORMALIZED FREE ENERGY PREDICTED BY IDOCK:   -4.59 KCAL/MOL
REMARK 922        TOTAL FREE ENERGY PREDICTED BY IDOCK:   -6.07 KCAL/MOL
REMARK 923 INTER-LIGAND FREE ENERGY PREDICTED BY IDOCK:   -6.00 KCAL/MOL
REMARK 924 INTRA-LIGAND FREE ENERGY PREDICTED BY IDOCK:   -0.08 KCAL/MOL
REMARK 927      BINDING AFFINITY PREDICTED BY RF-SCORE:    0.00 PKD
ROOT
HETATM    1  C   UNL     1      -9.627  10.010  64.797  1.00  0.00    -0.308 C  
HETATM    2  N   UNL     1     -10.112   9.510  66.083  1.00  0.00    -0.281 NA 
HETATM    3  C   UNL     1      -9.782   8.079  66.248  1.00  0.00    -0.126 C  
HETATM    4  C   UNL     1      -8.291   7.804  66.544  1.00  0.00    -0.128 C  
HETATM    5  N   UNL     1      -7.760   8.539  67.710  1.00  0.00    -0.101 NA 
HETATM    6  C   UNL     1      -8.058   9.980  67.531  1.00  0.00    -0.110 C  
HETATM    7  C   UNL     1      -9.540  10.290  67.203  1.00  0.00    -0.168 C  
ENDROOT
BRANCH   5   8
HETATM    8  C   UNL     1      -8.317   8.068  68.989  1.00  0.00    -0.129 C  
BRANCH   8   9
HETATM    9  C   UNL     1      -8.345   9.133  70.084  1.00  0.00    -0.174 C  
BRANCH   9  10
HETATM   10  C   UNL     1      -7.929   8.620  71.472  1.00  0.00    -0.136 C  
BRANCH  10  11
HETATM   11  N   UNL     1      -8.820   7.547  71.995  1.00  0.00    -0.116 NA 
HETATM   12  C   UNL     1      -8.169   6.300  72.274  1.00  0.00    -0.108 A  
HETATM   13  C   UNL     1      -6.762   6.202  72.419  1.00  0.00    -0.069 A  
HETATM   14  C   UNL     1      -6.095   4.980  72.550  1.00  0.00    -0.030 A  
HETATM   15  C   UNL     1      -6.821   3.805  72.606  1.00  0.00    -0.042 A  
HETATM   16  C   UNL     1      -8.209   3.867  72.553  1.00  0.00    -0.093 A  
HETATM   17  C   UNL     1      -8.883   5.095  72.394  1.00  0.00    -0.128 A  
HETATM   18  S   UNL     1     -10.650   4.982  72.335  1.00  0.00    -0.198 SA 
HETATM   19  C   UNL     1     -11.138   6.664  72.045  1.00  0.00    -0.255 A  
HETATM   20  C   UNL     1     -10.232   7.736  71.894  1.00  0.00    -0.202 A  
HETATM   21  C   UNL     1     -10.827   9.001  71.657  1.00  0.00    -0.437 A  
HETATM   22  C   UNL     1     -12.219   9.202  71.533  1.00  0.00    -0.422 A  
HETATM   23  C   UNL     1     -12.791  10.566  71.236  1.00  0.00    -0.431 C  
HETATM   24  C   UNL     1     -13.070   8.112  71.683  1.00  0.00    -0.358 A  
HETATM   25  F   UNL     1     -13.525  10.584  70.087  1.00  0.00    -0.249 F  
HETATM   26  F   UNL     1     -13.630  11.003  72.216  1.00  0.00    -0.505 F  
HETATM   27  F   UNL     1     -11.852  11.542  71.090  1.00  0.00    -0.342 F  
HETATM   28  C   UNL     1     -12.532   6.858  71.942  1.00  0.00    -0.350 A  
ENDBRANCH  10  11
ENDBRANCH   9  10
ENDBRANCH   8   9
ENDBRANCH   5   8
TORSDOF 4
ENDMDL
MODEL      165
REMARK 921   NORMALIZED FREE ENERGY PREDICTED BY IDOCK:   -4.56 KCAL/MOL
REMARK 922        TOTAL FREE ENERGY PREDICTED BY IDOCK:   -6.04 KCAL/MOL
REMARK 923 INTER-LIGAND FREE ENERGY PREDICTED BY IDOCK:   -5.45 KCAL/MOL
REMARK 924 INTRA-LIGAND FREE ENERGY PREDICTED BY IDOCK:   -0.59 KCAL/MOL
REMARK 927      BINDING AFFINITY PREDICTED BY RF-SCORE:    0.00 PKD
ROOT
HETATM    1  C   UNL     1      -5.130   7.371  63.601  1.00  0.00    -0.033 C  
HETATM    2  N   UNL     1      -6.564   7.092  63.554  1.00  0.00    -0.044 NA 
HETATM    3  C   UNL     1      -6.851   5.732  64.055  1.00  0.00    -0.049 C  
HETATM    4  C   UNL     1      -6.728   5.583  65.589  1.00  0.00    -0.045 C  
HETATM    5  N   UNL     1      -7.549   6.541  66.356  1.00  0.00    -0.089 NA 
HETATM    6  C   UNL     1      -7.240   7.911  65.881  1.00  0.00    -0.072 C  
HETATM    7  C   UNL     1      -7.323   8.088  64.343  1.00  0.00    -0.090 C  
ENDROOT
BRANCH   5   8
HETATM    8  C   UNL     1      -8.995   6.285  66.236  1.00  0.00    -0.155 C  
BRANCH   8   9
HETATM    9  C   UNL     1      -9.597   5.551  67.432  1.00  0.00    -0.128 C  
BRANCH   9  10
HETATM   10  C   UNL     1     -10.832   6.238  68.036  1.00  0.00    -0.326 C  
BRANCH  10  11
HETATM   11  N   UNL     1     -10.499   7.194  69.129  1.00  0.00    -0.207 NA 
HETATM   12  C   UNL     1     -10.532   6.639  70.452  1.00  0.00    -0.211 A  
HETATM   13  C   UNL     1     -10.496   5.241  70.682  1.00  0.00    -0.306 A  
HETATM   14  C   UNL     1     -10.670   4.675  71.949  1.00  0.00    -0.026 A  
HETATM   15  C   UNL     1     -10.824   5.495  73.051  1.00  0.00    -0.316 A  
HETATM   16  C   UNL     1     -10.779   6.873  72.877  1.00  0.00    -0.308 A  
HETATM   17  C   UNL     1     -10.631   7.447  71.598  1.00  0.00    -0.205 A  
HETATM   18  S   UNL     1     -10.608   9.218  71.565  1.00  0.00    -0.261 SA 
HETATM   19  C   UNL     1     -10.502   9.574  69.829  1.00  0.00    -0.231 A  
HETATM   20  C   UNL     1     -10.473   8.588  68.819  1.00  0.00    -0.184 A  
HETATM   21  C   UNL     1     -10.399   9.084  67.493  1.00  0.00    -0.328 A  
HETATM   22  C   UNL     1     -10.394  10.457  67.168  1.00  0.00    -0.290 A  
HETATM   23  C   UNL     1     -10.357  10.923  65.734  1.00  0.00    -0.241 C  
HETATM   24  C   UNL     1     -10.429  11.390  68.199  1.00  0.00    -0.212 A  
HETATM   25  F   UNL     1     -11.430  11.701  65.412  1.00  0.00    -0.353 F  
HETATM   26  F   UNL     1      -9.258  11.680  65.461  1.00  0.00    -0.217 F  
HETATM   27  F   UNL     1     -10.346   9.912  64.821  1.00  0.00    -0.345 F  
HETATM   28  C   UNL     1     -10.478  10.950  69.516  1.00  0.00    -0.176 A  
ENDBRANCH  10  11
ENDBRANCH   9  10
ENDBRANCH   8   9
ENDBRANCH   5   8
TORSDOF 4
ENDMDL
MODEL      166
REMARK 921   NORMALIZED FREE ENERGY PREDICTED BY IDOCK:   -4.53 KCAL/MOL
REMARK 922        TOTAL FREE ENERGY PREDICTED BY IDOCK:   -6.00 KCAL/MOL
REMARK 923 INTER-LIGAND FREE ENERGY PREDICTED BY IDOCK:   -5.71 KCAL/MOL
REMARK 924 INTRA-LIGAND FREE ENERGY PREDICTED BY IDOCK:   -0.30 KCAL/MOL
REMARK 927      BINDING AFFINITY PREDICTED BY RF-SCORE:    0.00 PKD
ROOT
HETATM    1  C   UNL     1      -5.942  20.032  67.350  1.00  0.00    -0.182 C  
HETATM    2  N   UNL     1      -7.167  19.602  68.025  1.00  0.00    -0.277 NA 
HETATM    3  C   UNL     1      -7.993  18.765  67.129  1.00  0.00    -0.245 C  
HETATM    4  C   UNL     1      -7.443  17.337  66.912  1.00  0.00    -0.207 C  
HETATM    5  N   UNL     1      -7.206  16.585  68.161  1.00  0.00    -0.148 NA 
HETATM    6  C   UNL     1      -6.348  17.406  69.048  1.00  0.00    -0.220 C  
HETATM    7  C   UNL     1      -6.854  18.856  69.263  1.00  0.00    -0.266 C  
ENDROOT
BRANCH   5   8
HETATM    8  C   UNL     1      -8.451  16.226  68.862  1.00  0.00    -0.253 C  
BRANCH   8   9
HETATM    9  C   UNL     1      -8.644  14.722  69.053  1.00  0.00    -0.137 C  
BRANCH   9  10
HETATM   10  C   UNL     1     -10.053  14.219  68.701  1.00  0.00    -0.238 C  
BRANCH  10  11
HETATM   11  N   UNL     1     -10.131  13.575  67.361  1.00  0.00    -0.235 NA 
HETATM   12  C   UNL     1     -10.568  14.436  66.299  1.00  0.00    -0.292 A  
HETATM   13  C   UNL     1     -10.553  15.848  66.420  1.00  0.00    -0.298 A  
HETATM   14  C   UNL     1     -11.105  16.699  65.458  1.00  0.00     0.072 A  
HETATM   15  C   UNL     1     -11.640  16.169  64.299  1.00  0.00    -0.062 A  
HETATM   16  C   UNL     1     -11.597  14.793  64.105  1.00  0.00    -0.094 A  
HETATM   17  C   UNL     1     -11.066  13.930  65.085  1.00  0.00    -0.334 A  
HETATM   18  S   UNL     1     -11.104  12.207  64.672  1.00  0.00    -0.332 SA 
HETATM   19  C   UNL     1     -10.456  11.442  66.136  1.00  0.00    -0.255 A  
HETATM   20  C   UNL     1     -10.061  12.150  67.292  1.00  0.00    -0.202 A  
HETATM   21  C   UNL     1      -9.581  11.349  68.358  1.00  0.00    -0.197 A  
HETATM   22  C   UNL     1      -9.526   9.939  68.316  1.00  0.00    -0.147 A  
HETATM   23  C   UNL     1      -9.045   9.137  69.500  1.00  0.00    -0.155 C  
HETATM   24  C   UNL     1      -9.931   9.286  67.157  1.00  0.00    -0.276 A  
HETATM   25  F   UNL     1      -9.986   8.259  69.951  1.00  0.00    -0.181 F  
HETATM   26  F   UNL     1      -7.948   8.384  69.207  1.00  0.00    -0.102 F  
HETATM   27  F   UNL     1      -8.698   9.893  70.579  1.00  0.00    -0.221 F  
HETATM   28  C   UNL     1     -10.386  10.034  66.077  1.00  0.00    -0.222 A  
ENDBRANCH  10  11
ENDBRANCH   9  10
ENDBRANCH   8   9
ENDBRANCH   5   8
TORSDOF 4
ENDMDL
MODEL      167
REMARK 921   NORMALIZED FREE ENERGY PREDICTED BY IDOCK:   -4.52 KCAL/MOL
REMARK 922        TOTAL FREE ENERGY PREDICTED BY IDOCK:   -5.99 KCAL/MOL
REMARK 923 INTER-LIGAND FREE ENERGY PREDICTED BY IDOCK:   -5.45 KCAL/MOL
REMARK 924 INTRA-LIGAND FREE ENERGY PREDICTED BY IDOCK:   -0.55 KCAL/MOL
REMARK 927      BINDING AFFINITY PREDICTED BY RF-SCORE:    0.00 PKD
ROOT
HETATM    1  C   UNL     1      -7.251   2.088  65.735  1.00  0.00    -0.056 C  
HETATM    2  N   UNL     1      -7.454   3.535  65.690  1.00  0.00    -0.076 NA 
HETATM    3  C   UNL     1      -8.627   3.875  64.857  1.00  0.00    -0.114 C  
HETATM    4  C   UNL     1      -9.987   3.562  65.521  1.00  0.00     0.068 C  
HETATM    5  N   UNL     1     -10.168   4.182  66.849  1.00  0.00     0.027 NA 
HETATM    6  C   UNL     1      -9.010   3.815  67.699  1.00  0.00    -0.134 C  
HETATM    7  C   UNL     1      -7.629   4.087  67.051  1.00  0.00    -0.084 C  
ENDROOT
BRANCH   5   8
HETATM    8  C   UNL     1     -10.297   5.648  66.786  1.00  0.00    -0.262 C  
BRANCH   8   9
HETATM    9  C   UNL     1     -10.632   6.299  68.127  1.00  0.00    -0.318 C  
BRANCH   9  10
HETATM   10  C   UNL     1      -9.598   7.334  68.599  1.00  0.00    -0.141 C  
BRANCH  10  11
HETATM   11  N   UNL     1     -10.011   8.741  68.335  1.00  0.00    -0.173 NA 
HETATM   12  C   UNL     1     -10.791   9.350  69.374  1.00  0.00    -0.189 A  
HETATM   13  C   UNL     1     -10.839   8.820  70.688  1.00  0.00    -0.273 A  
HETATM   14  C   UNL     1     -11.699   9.312  71.674  1.00  0.00    -0.462 A  
HETATM   15  C   UNL     1     -12.505  10.401  71.401  1.00  0.00    -0.521 A  
HETATM   16  C   UNL     1     -12.424  11.002  70.150  1.00  0.00    -0.344 A  
HETATM   17  C   UNL     1     -11.577  10.492  69.144  1.00  0.00    -0.224 A  
HETATM   18  S   UNL     1     -11.613  11.377  67.610  1.00  0.00    -0.175 SA 
HETATM   19  C   UNL     1     -10.523  10.423  66.584  1.00  0.00    -0.215 A  
HETATM   20  C   UNL     1      -9.866   9.247  67.008  1.00  0.00    -0.198 A  
HETATM   21  C   UNL     1      -9.048   8.627  66.030  1.00  0.00    -0.255 A  
HETATM   22  C   UNL     1      -8.910   9.101  64.708  1.00  0.00    -0.200 A  
HETATM   23  C   UNL     1      -8.057   8.373  63.698  1.00  0.00    -0.142 C  
HETATM   24  C   UNL     1      -9.583  10.261  64.337  1.00  0.00    -0.378 A  
HETATM   25  F   UNL     1      -8.768   7.983  62.601  1.00  0.00    -0.110 F  
HETATM   26  F   UNL     1      -7.040   9.144  63.223  1.00  0.00    -0.091 F  
HETATM   27  F   UNL     1      -7.471   7.242  64.180  1.00  0.00    -0.071 F  
HETATM   28  C   UNL     1     -10.377  10.916  65.271  1.00  0.00    -0.334 A  
ENDBRANCH  10  11
ENDBRANCH   9  10
ENDBRANCH   8   9
ENDBRANCH   5   8
TORSDOF 4
ENDMDL
MODEL      168
REMARK 921   NORMALIZED FREE ENERGY PREDICTED BY IDOCK:   -4.52 KCAL/MOL
REMARK 922        TOTAL FREE ENERGY PREDICTED BY IDOCK:   -5.99 KCAL/MOL
REMARK 923 INTER-LIGAND FREE ENERGY PREDICTED BY IDOCK:   -5.50 KCAL/MOL
REMARK 924 INTRA-LIGAND FREE ENERGY PREDICTED BY IDOCK:   -0.49 KCAL/MOL
REMARK 927      BINDING AFFINITY PREDICTED BY RF-SCORE:    0.00 PKD
ROOT
HETATM    1  C   UNL     1      -6.733   8.234  73.649  1.00  0.00    -0.122 C  
HETATM    2  N   UNL     1      -6.618   7.853  72.242  1.00  0.00    -0.059 NA 
HETATM    3  C   UNL     1      -7.107   6.475  72.031  1.00  0.00    -0.081 C  
HETATM    4  C   UNL     1      -8.645   6.333  72.090  1.00  0.00    -0.126 C  
HETATM    5  N   UNL     1      -9.370   7.228  71.166  1.00  0.00    -0.156 NA 
HETATM    6  C   UNL     1      -8.908   8.617  71.399  1.00  0.00    -0.215 C  
HETATM    7  C   UNL     1      -7.368   8.790  71.377  1.00  0.00    -0.097 C  
ENDROOT
BRANCH   5   8
HETATM    8  C   UNL     1      -9.182   6.870  69.750  1.00  0.00    -0.147 C  
BRANCH   8   9
HETATM    9  C   UNL     1     -10.186   5.842  69.231  1.00  0.00    -0.292 C  
BRANCH   9  10
HETATM   10  C   UNL     1     -11.041   6.336  68.054  1.00  0.00    -0.265 C  
BRANCH  10  11
HETATM   11  N   UNL     1     -10.234   6.748  66.871  1.00  0.00    -0.221 NA 
HETATM   12  C   UNL     1      -9.511   5.687  66.231  1.00  0.00    -0.155 A  
HETATM   13  C   UNL     1      -9.829   4.323  66.445  1.00  0.00    -0.236 A  
HETATM   14  C   UNL     1      -9.052   3.274  65.946  1.00  0.00    -0.152 A  
HETATM   15  C   UNL     1      -7.954   3.550  65.154  1.00  0.00    -0.086 A  
HETATM   16  C   UNL     1      -7.658   4.875  64.851  1.00  0.00    -0.077 A  
HETATM   17  C   UNL     1      -8.424   5.936  65.374  1.00  0.00    -0.153 A  
HETATM   18  S   UNL     1      -7.895   7.556  64.892  1.00  0.00    -0.132 SA 
HETATM   19  C   UNL     1      -9.006   8.612  65.788  1.00  0.00    -0.197 A  
HETATM   20  C   UNL     1     -10.012   8.143  66.661  1.00  0.00    -0.269 A  
HETATM   21  C   UNL     1     -10.785   9.152  67.289  1.00  0.00    -0.224 A  
HETATM   22  C   UNL     1     -10.565  10.534  67.110  1.00  0.00    -0.319 A  
HETATM   23  C   UNL     1     -11.393  11.562  67.841  1.00  0.00    -0.303 C  
HETATM   24  C   UNL     1      -9.557  10.946  66.244  1.00  0.00    -0.234 A  
HETATM   25  F   UNL     1     -10.633  12.386  68.617  1.00  0.00    -0.214 F  
HETATM   26  F   UNL     1     -12.074  12.380  66.991  1.00  0.00    -0.429 F  
HETATM   27  F   UNL     1     -12.330  11.029  68.673  1.00  0.00    -0.356 F  
HETATM   28  C   UNL     1      -8.791   9.991  65.586  1.00  0.00    -0.184 A  
ENDBRANCH  10  11
ENDBRANCH   9  10
ENDBRANCH   8   9
ENDBRANCH   5   8
TORSDOF 4
ENDMDL
MODEL      169
REMARK 921   NORMALIZED FREE ENERGY PREDICTED BY IDOCK:   -4.51 KCAL/MOL
REMARK 922        TOTAL FREE ENERGY PREDICTED BY IDOCK:   -5.99 KCAL/MOL
REMARK 923 INTER-LIGAND FREE ENERGY PREDICTED BY IDOCK:   -5.60 KCAL/MOL
REMARK 924 INTRA-LIGAND FREE ENERGY PREDICTED BY IDOCK:   -0.38 KCAL/MOL
REMARK 927      BINDING AFFINITY PREDICTED BY RF-SCORE:    0.00 PKD
ROOT
HETATM    1  C   UNL     1     -14.239  15.327  72.154  1.00  0.00    -0.571 C  
HETATM    2  N   UNL     1     -12.919  14.708  72.271  1.00  0.00    -0.335 NA 
HETATM    3  C   UNL     1     -12.779  13.588  71.317  1.00  0.00    -0.348 C  
HETATM    4  C   UNL     1     -12.598  14.027  69.846  1.00  0.00    -0.142 C  
HETATM    5  N   UNL     1     -11.477  14.964  69.629  1.00  0.00    -0.277 NA 
HETATM    6  C   UNL     1     -11.633  16.107  70.560  1.00  0.00    -0.301 C  
HETATM    7  C   UNL     1     -11.847  15.701  72.040  1.00  0.00    -0.459 C  
ENDROOT
BRANCH   5   8
HETATM    8  C   UNL     1     -10.158  14.337  69.823  1.00  0.00     0.483 C  
BRANCH   8   9
HETATM    9  C   UNL     1      -9.593  13.679  68.566  1.00  0.00    -0.165 C  
BRANCH   9  10
HETATM   10  C   UNL     1      -8.784  14.629  67.668  1.00  0.00    -0.177 C  
BRANCH  10  11
HETATM   11  N   UNL     1      -9.590  15.759  67.128  1.00  0.00    -0.216 NA 
HETATM   12  C   UNL     1     -10.572  15.391  66.149  1.00  0.00    -0.316 A  
HETATM   13  C   UNL     1     -11.011  14.053  65.989  1.00  0.00    -0.298 A  
HETATM   14  C   UNL     1     -11.857  13.650  64.952  1.00  0.00    -0.398 A  
HETATM   15  C   UNL     1     -12.351  14.587  64.065  1.00  0.00    -0.207 A  
HETATM   16  C   UNL     1     -12.010  15.924  64.240  1.00  0.00     0.008 A  
HETATM   17  C   UNL     1     -11.136  16.330  65.268  1.00  0.00    -0.151 A  
HETATM   18  S   UNL     1     -10.806  18.070  65.332  1.00  0.00     0.638 SA 
HETATM   19  C   UNL     1      -9.630  18.195  66.656  1.00  0.00    -0.306 A  
HETATM   20  C   UNL     1      -9.142  17.090  67.388  1.00  0.00    -0.222 A  
HETATM   21  C   UNL     1      -8.198  17.404  68.398  1.00  0.00    -0.262 A  
HETATM   22  C   UNL     1      -7.728  18.710  68.654  1.00  0.00    -0.344 A  
HETATM   23  C   UNL     1      -6.689  18.976  69.715  1.00  0.00    -0.066 C  
HETATM   24  C   UNL     1      -8.235  19.765  67.902  1.00  0.00    -0.336 A  
HETATM   25  F   UNL     1      -5.568  19.565  69.209  1.00  0.00    -0.210 F  
HETATM   26  F   UNL     1      -7.141  19.817  70.686  1.00  0.00    -0.056 F  
HETATM   27  F   UNL     1      -6.259  17.858  70.363  1.00  0.00    -0.161 F  
HETATM   28  C   UNL     1      -9.181  19.506  66.917  1.00  0.00    -0.408 A  
ENDBRANCH  10  11
ENDBRANCH   9  10
ENDBRANCH   8   9
ENDBRANCH   5   8
TORSDOF 4
ENDMDL
MODEL      170
REMARK 921   NORMALIZED FREE ENERGY PREDICTED BY IDOCK:   -4.51 KCAL/MOL
REMARK 922        TOTAL FREE ENERGY PREDICTED BY IDOCK:   -5.98 KCAL/MOL
REMARK 923 INTER-LIGAND FREE ENERGY PREDICTED BY IDOCK:   -5.50 KCAL/MOL
REMARK 924 INTRA-LIGAND FREE ENERGY PREDICTED BY IDOCK:   -0.48 KCAL/MOL
REMARK 927      BINDING AFFINITY PREDICTED BY RF-SCORE:    0.00 PKD
ROOT
HETATM    1  C   UNL     1      -6.036   7.864  72.675  1.00  0.00    -0.052 C  
HETATM    2  N   UNL     1      -6.119   7.987  71.220  1.00  0.00    -0.034 NA 
HETATM    3  C   UNL     1      -6.879   6.860  70.641  1.00  0.00    -0.058 C  
HETATM    4  C   UNL     1      -8.405   6.938  70.876  1.00  0.00    -0.130 C  
HETATM    5  N   UNL     1      -9.023   8.198  70.416  1.00  0.00    -0.144 NA 
HETATM    6  C   UNL     1      -8.285   9.331  71.023  1.00  0.00    -0.068 C  
HETATM    7  C   UNL     1      -6.748   9.269  70.833  1.00  0.00    -0.094 C  
ENDROOT
BRANCH   5   8
HETATM    8  C   UNL     1      -9.030   8.334  68.950  1.00  0.00    -0.144 C  
BRANCH   8   9
HETATM    9  C   UNL     1      -9.400   9.732  68.458  1.00  0.00    -0.142 C  
BRANCH   9  10
HETATM   10  C   UNL     1     -10.561   9.759  67.451  1.00  0.00    -0.267 C  
BRANCH  10  11
HETATM   11  N   UNL     1     -10.258  10.545  66.223  1.00  0.00    -0.237 NA 
HETATM   12  C   UNL     1     -10.936  11.806  66.127  1.00  0.00    -0.307 A  
HETATM   13  C   UNL     1     -11.528  12.430  67.253  1.00  0.00    -0.421 A  
HETATM   14  C   UNL     1     -12.313  13.583  67.158  1.00  0.00    -0.220 A  
HETATM   15  C   UNL     1     -12.485  14.196  65.932  1.00  0.00    -0.479 A  
HETATM   16  C   UNL     1     -11.850  13.662  64.816  1.00  0.00    -0.414 A  
HETATM   17  C   UNL     1     -11.080  12.484  64.904  1.00  0.00    -0.299 A  
HETATM   18  S   UNL     1     -10.356  11.942  63.380  1.00  0.00    -0.407 SA 
HETATM   19  C   UNL     1      -9.558  10.427  63.846  1.00  0.00    -0.312 A  
HETATM   20  C   UNL     1      -9.589   9.884  65.149  1.00  0.00    -0.300 A  
HETATM   21  C   UNL     1      -8.897   8.657  65.308  1.00  0.00    -0.178 A  
HETATM   22  C   UNL     1      -8.249   7.979  64.253  1.00  0.00    -0.070 A  
HETATM   23  C   UNL     1      -7.566   6.652  64.476  1.00  0.00    -0.103 C  
HETATM   24  C   UNL     1      -8.252   8.552  62.986  1.00  0.00    -0.165 A  
HETATM   25  F   UNL     1      -8.079   5.664  63.689  1.00  0.00    -0.101 F  
HETATM   26  F   UNL     1      -6.235   6.698  64.189  1.00  0.00    -0.032 F  
HETATM   27  F   UNL     1      -7.654   6.190  65.754  1.00  0.00    -0.076 F  
HETATM   28  C   UNL     1      -8.897   9.767  62.789  1.00  0.00    -0.250 A  
ENDBRANCH  10  11
ENDBRANCH   9  10
ENDBRANCH   8   9
ENDBRANCH   5   8
TORSDOF 4
ENDMDL
MODEL      171
REMARK 921   NORMALIZED FREE ENERGY PREDICTED BY IDOCK:   -4.49 KCAL/MOL
REMARK 922        TOTAL FREE ENERGY PREDICTED BY IDOCK:   -5.96 KCAL/MOL
REMARK 923 INTER-LIGAND FREE ENERGY PREDICTED BY IDOCK:   -5.89 KCAL/MOL
REMARK 924 INTRA-LIGAND FREE ENERGY PREDICTED BY IDOCK:   -0.07 KCAL/MOL
REMARK 927      BINDING AFFINITY PREDICTED BY RF-SCORE:    0.00 PKD
ROOT
HETATM    1  C   UNL     1      -5.664  11.159  70.448  1.00  0.00    -0.137 C  
HETATM    2  N   UNL     1      -5.600  11.379  69.004  1.00  0.00    -0.040 NA 
HETATM    3  C   UNL     1      -6.618  10.568  68.304  1.00  0.00    -0.059 C  
HETATM    4  C   UNL     1      -8.064  11.091  68.463  1.00  0.00    -0.140 C  
HETATM    5  N   UNL     1      -8.242  12.502  68.064  1.00  0.00    -0.156 NA 
HETATM    6  C   UNL     1      -7.246  13.325  68.791  1.00  0.00    -0.088 C  
HETATM    7  C   UNL     1      -5.788  12.810  68.679  1.00  0.00    -0.064 C  
ENDROOT
BRANCH   5   8
HETATM    8  C   UNL     1      -8.101  12.713  66.613  1.00  0.00     0.193 C  
BRANCH   8   9
HETATM    9  C   UNL     1      -9.327  13.344  65.956  1.00  0.00    -0.010 C  
BRANCH   9  10
HETATM   10  C   UNL     1     -10.667  12.899  66.564  1.00  0.00    -0.269 C  
BRANCH  10  11
HETATM   11  N   UNL     1     -11.236  13.886  67.522  1.00  0.00    -0.292 NA 
HETATM   12  C   UNL     1     -11.064  15.261  67.152  1.00  0.00    -0.323 A  
HETATM   13  C   UNL     1     -10.739  15.649  65.828  1.00  0.00    -0.350 A  
HETATM   14  C   UNL     1     -10.428  16.965  65.476  1.00  0.00    -0.220 A  
HETATM   15  C   UNL     1     -10.492  17.964  66.429  1.00  0.00    -0.318 A  
HETATM   16  C   UNL     1     -10.889  17.637  67.721  1.00  0.00    -0.241 A  
HETATM   17  C   UNL     1     -11.178  16.306  68.086  1.00  0.00    -0.298 A  
HETATM   18  S   UNL     1     -11.656  16.075  69.776  1.00  0.00    -0.252 SA 
HETATM   19  C   UNL     1     -11.847  14.314  69.889  1.00  0.00    -0.322 A  
HETATM   20  C   UNL     1     -11.620  13.422  68.818  1.00  0.00    -0.325 A  
HETATM   21  C   UNL     1     -11.817  12.052  69.120  1.00  0.00    -0.369 A  
HETATM   22  C   UNL     1     -12.174  11.574  70.399  1.00  0.00    -0.442 A  
HETATM   23  C   UNL     1     -12.328  10.098  70.672  1.00  0.00    -0.293 C  
HETATM   24  C   UNL     1     -12.382  12.492  71.424  1.00  0.00    -0.049 A  
HETATM   25  F   UNL     1     -11.490   9.660  71.655  1.00  0.00    -0.415 F  
HETATM   26  F   UNL     1     -13.584   9.773  71.086  1.00  0.00    -0.416 F  
HETATM   27  F   UNL     1     -12.077   9.306  69.592  1.00  0.00     0.192 F  
HETATM   28  C   UNL     1     -12.224  13.848  71.166  1.00  0.00    -0.390 A  
ENDBRANCH  10  11
ENDBRANCH   9  10
ENDBRANCH   8   9
ENDBRANCH   5   8
TORSDOF 4
ENDMDL
MODEL      172
REMARK 921   NORMALIZED FREE ENERGY PREDICTED BY IDOCK:   -4.48 KCAL/MOL
REMARK 922        TOTAL FREE ENERGY PREDICTED BY IDOCK:   -5.94 KCAL/MOL
REMARK 923 INTER-LIGAND FREE ENERGY PREDICTED BY IDOCK:   -5.12 KCAL/MOL
REMARK 924 INTRA-LIGAND FREE ENERGY PREDICTED BY IDOCK:   -0.81 KCAL/MOL
REMARK 927      BINDING AFFINITY PREDICTED BY RF-SCORE:    0.00 PKD
ROOT
HETATM    1  C   UNL     1     -12.393  15.110  64.325  1.00  0.00    -0.178 C  
HETATM    2  N   UNL     1     -12.704  13.841  64.981  1.00  0.00    -0.688 NA 
HETATM    3  C   UNL     1     -12.146  12.705  64.217  1.00  0.00    -0.426 C  
HETATM    4  C   UNL     1     -10.612  12.554  64.339  1.00  0.00    -0.350 C  
HETATM    5  N   UNL     1     -10.123  12.463  65.729  1.00  0.00    -0.251 NA 
HETATM    6  C   UNL     1     -10.652  13.620  66.490  1.00  0.00    -0.282 C  
HETATM    7  C   UNL     1     -12.184  13.820  66.366  1.00  0.00    -0.436 C  
ENDROOT
BRANCH   5   8
HETATM    8  C   UNL     1     -10.510  11.207  66.394  1.00  0.00    -0.260 C  
BRANCH   8   9
HETATM    9  C   UNL     1      -9.423  10.620  67.293  1.00  0.00    -0.178 C  
BRANCH   9  10
HETATM   10  C   UNL     1      -7.994  10.808  66.759  1.00  0.00    -0.138 C  
BRANCH  10  11
HETATM   11  N   UNL     1      -6.976  10.948  67.836  1.00  0.00    -0.072 NA 
HETATM   12  C   UNL     1      -6.526   9.713  68.410  1.00  0.00    -0.052 A  
HETATM   13  C   UNL     1      -6.724   8.467  67.764  1.00  0.00    -0.066 A  
HETATM   14  C   UNL     1      -6.422   7.242  68.367  1.00  0.00    -0.044 A  
HETATM   15  C   UNL     1      -5.847   7.218  69.623  1.00  0.00    -0.023 A  
HETATM   16  C   UNL     1      -5.559   8.423  70.255  1.00  0.00    -0.021 A  
HETATM   17  C   UNL     1      -5.887   9.660  69.661  1.00  0.00    -0.033 A  
HETATM   18  S   UNL     1      -5.457  11.090  70.614  1.00  0.00    -0.126 SA 
HETATM   19  C   UNL     1      -6.083  12.422  69.622  1.00  0.00    -0.135 A  
HETATM   20  C   UNL     1      -6.762  12.244  68.396  1.00  0.00    -0.064 A  
HETATM   21  C   UNL     1      -7.192  13.439  67.766  1.00  0.00    -0.156 A  
HETATM   22  C   UNL     1      -7.009  14.726  68.316  1.00  0.00    -0.119 A  
HETATM   23  C   UNL     1      -7.529  15.958  67.618  1.00  0.00    -0.152 C  
HETATM   24  C   UNL     1      -6.339  14.848  69.529  1.00  0.00    -0.131 A  
HETATM   25  F   UNL     1      -8.407  16.661  68.388  1.00  0.00    -0.177 F  
HETATM   26  F   UNL     1      -6.535  16.834  67.299  1.00  0.00    -0.137 F  
HETATM   27  F   UNL     1      -8.184  15.701  66.451  1.00  0.00    -0.283 F  
HETATM   28  C   UNL     1      -5.877  13.705  70.170  1.00  0.00    -0.145 A  
ENDBRANCH  10  11
ENDBRANCH   9  10
ENDBRANCH   8   9
ENDBRANCH   5   8
TORSDOF 4
ENDMDL
MODEL      173
REMARK 921   NORMALIZED FREE ENERGY PREDICTED BY IDOCK:   -4.44 KCAL/MOL
REMARK 922        TOTAL FREE ENERGY PREDICTED BY IDOCK:   -5.89 KCAL/MOL
REMARK 923 INTER-LIGAND FREE ENERGY PREDICTED BY IDOCK:   -5.73 KCAL/MOL
REMARK 924 INTRA-LIGAND FREE ENERGY PREDICTED BY IDOCK:   -0.16 KCAL/MOL
REMARK 927      BINDING AFFINITY PREDICTED BY RF-SCORE:    0.00 PKD
ROOT
HETATM    1  C   UNL     1     -12.273  14.927  64.296  1.00  0.00    -0.344 C  
HETATM    2  N   UNL     1     -12.936  13.967  65.177  1.00  0.00    -0.773 NA 
HETATM    3  C   UNL     1     -12.784  12.590  64.661  1.00  0.00    -0.349 C  
HETATM    4  C   UNL     1     -11.368  11.998  64.845  1.00  0.00    -0.310 C  
HETATM    5  N   UNL     1     -10.878  12.026  66.238  1.00  0.00    -0.267 NA 
HETATM    6  C   UNL     1     -10.996  13.413  66.748  1.00  0.00    -0.288 C  
HETATM    7  C   UNL     1     -12.395  14.050  66.552  1.00  0.00    -0.404 C  
ENDROOT
BRANCH   5   8
HETATM    8  C   UNL     1     -11.608  11.104  67.124  1.00  0.00     0.053 C  
BRANCH   8   9
HETATM    9  C   UNL     1     -10.813  10.663  68.352  1.00  0.00    -0.282 C  
BRANCH   9  10
HETATM   10  C   UNL     1     -10.672   9.140  68.497  1.00  0.00    -0.116 C  
BRANCH  10  11
HETATM   11  N   UNL     1      -9.620   8.736  69.472  1.00  0.00    -0.165 NA 
HETATM   12  C   UNL     1     -10.088   7.955  70.581  1.00  0.00    -0.194 A  
HETATM   13  C   UNL     1     -11.342   7.295  70.560  1.00  0.00    -0.308 A  
HETATM   14  C   UNL     1     -11.879   6.649  71.677  1.00  0.00    -0.383 A  
HETATM   15  C   UNL     1     -11.149   6.582  72.849  1.00  0.00    -0.257 A  
HETATM   16  C   UNL     1      -9.877   7.145  72.882  1.00  0.00    -0.221 A  
HETATM   17  C   UNL     1      -9.344   7.820  71.766  1.00  0.00    -0.141 A  
HETATM   18  S   UNL     1      -7.717   8.483  71.993  1.00  0.00    -0.055 SA 
HETATM   19  C   UNL     1      -7.418   9.317  70.455  1.00  0.00    -0.130 A  
HETATM   20  C   UNL     1      -8.348   9.380  69.395  1.00  0.00    -0.125 A  
HETATM   21  C   UNL     1      -7.917  10.106  68.256  1.00  0.00    -0.101 A  
HETATM   22  C   UNL     1      -6.673  10.767  68.171  1.00  0.00    -0.063 A  
HETATM   23  C   UNL     1      -6.289  11.562  66.948  1.00  0.00    -0.146 C  
HETATM   24  C   UNL     1      -5.793  10.681  69.245  1.00  0.00    -0.041 A  
HETATM   25  F   UNL     1      -6.024  12.868  67.238  1.00  0.00    -0.148 F  
HETATM   26  F   UNL     1      -5.164  11.082  66.348  1.00  0.00    -0.054 F  
HETATM   27  F   UNL     1      -7.245  11.585  65.978  1.00  0.00    -0.025 F  
HETATM   28  C   UNL     1      -6.163   9.957  70.373  1.00  0.00    -0.094 A  
ENDBRANCH  10  11
ENDBRANCH   9  10
ENDBRANCH   8   9
ENDBRANCH   5   8
TORSDOF 4
ENDMDL
MODEL      174
REMARK 921   NORMALIZED FREE ENERGY PREDICTED BY IDOCK:   -4.44 KCAL/MOL
REMARK 922        TOTAL FREE ENERGY PREDICTED BY IDOCK:   -5.89 KCAL/MOL
REMARK 923 INTER-LIGAND FREE ENERGY PREDICTED BY IDOCK:   -5.18 KCAL/MOL
REMARK 924 INTRA-LIGAND FREE ENERGY PREDICTED BY IDOCK:   -0.70 KCAL/MOL
REMARK 927      BINDING AFFINITY PREDICTED BY RF-SCORE:    0.00 PKD
ROOT
HETATM    1  C   UNL     1      -5.739  13.973  72.009  1.00  0.00    -0.112 C  
HETATM    2  N   UNL     1      -5.128  14.311  70.725  1.00  0.00    -0.105 NA 
HETATM    3  C   UNL     1      -5.350  13.233  69.738  1.00  0.00    -0.092 C  
HETATM    4  C   UNL     1      -6.794  13.162  69.193  1.00  0.00    -0.062 C  
HETATM    5  N   UNL     1      -7.284  14.428  68.612  1.00  0.00    -0.115 NA 
HETATM    6  C   UNL     1      -7.095  15.507  69.612  1.00  0.00    -0.170 C  
HETATM    7  C   UNL     1      -5.664  15.587  70.203  1.00  0.00    -0.146 C  
ENDROOT
BRANCH   5   8
HETATM    8  C   UNL     1      -6.603  14.786  67.356  1.00  0.00     0.016 C  
BRANCH   8   9
HETATM    9  C   UNL     1      -6.948  16.182  66.839  1.00  0.00    -0.187 C  
BRANCH   9  10
HETATM   10  C   UNL     1      -8.174  16.226  65.914  1.00  0.00     0.292 C  
BRANCH  10  11
HETATM   11  N   UNL     1      -9.468  16.247  66.651  1.00  0.00    -0.233 NA 
HETATM   12  C   UNL     1      -9.637  17.354  67.549  1.00  0.00    -0.257 A  
HETATM   13  C   UNL     1      -8.838  18.521  67.463  1.00  0.00    -0.276 A  
HETATM   14  C   UNL     1      -8.888  19.548  68.411  1.00  0.00    -0.389 A  
HETATM   15  C   UNL     1      -9.791  19.475  69.454  1.00  0.00    -0.243 A  
HETATM   16  C   UNL     1     -10.651  18.385  69.526  1.00  0.00     0.825 A  
HETATM   17  C   UNL     1     -10.585  17.335  68.587  1.00  0.00    -0.329 A  
HETATM   18  S   UNL     1     -11.749  16.024  68.840  1.00  0.00    -0.215 SA 
HETATM   19  C   UNL     1     -11.323  14.871  67.559  1.00  0.00    -0.342 A  
HETATM   20  C   UNL     1     -10.270  15.066  66.638  1.00  0.00    -0.268 A  
HETATM   21  C   UNL     1     -10.087  14.018  65.701  1.00  0.00    -0.342 A  
HETATM   22  C   UNL     1     -10.855  12.835  65.686  1.00  0.00    -0.300 A  
HETATM   23  C   UNL     1     -10.584  11.735  64.690  1.00  0.00    -0.308 C  
HETATM   24  C   UNL     1     -11.878  12.688  66.619  1.00  0.00    -0.449 A  
HETATM   25  F   UNL     1     -10.287  10.548  65.292  1.00  0.00    -0.337 F  
HETATM   26  F   UNL     1     -11.657  11.483  63.889  1.00  0.00    -0.447 F  
HETATM   27  F   UNL     1      -9.545  11.993  63.848  1.00  0.00    -0.239 F  
HETATM   28  C   UNL     1     -12.110  13.701  67.541  1.00  0.00    -0.352 A  
ENDBRANCH  10  11
ENDBRANCH   9  10
ENDBRANCH   8   9
ENDBRANCH   5   8
TORSDOF 4
ENDMDL
MODEL      175
REMARK 921   NORMALIZED FREE ENERGY PREDICTED BY IDOCK:   -4.43 KCAL/MOL
REMARK 922        TOTAL FREE ENERGY PREDICTED BY IDOCK:   -5.88 KCAL/MOL
REMARK 923 INTER-LIGAND FREE ENERGY PREDICTED BY IDOCK:   -5.26 KCAL/MOL
REMARK 924 INTRA-LIGAND FREE ENERGY PREDICTED BY IDOCK:   -0.62 KCAL/MOL
REMARK 927      BINDING AFFINITY PREDICTED BY RF-SCORE:    0.00 PKD
ROOT
HETATM    1  C   UNL     1      -8.623   3.153  71.232  1.00  0.00    -0.068 C  
HETATM    2  N   UNL     1      -7.862   4.331  70.817  1.00  0.00    -0.059 NA 
HETATM    3  C   UNL     1      -8.429   4.914  69.583  1.00  0.00    -0.083 C  
HETATM    4  C   UNL     1      -9.759   5.673  69.795  1.00  0.00    -0.167 C  
HETATM    5  N   UNL     1      -9.692   6.734  70.821  1.00  0.00    -0.179 NA 
HETATM    6  C   UNL     1      -9.157   6.145  72.071  1.00  0.00    -0.143 C  
HETATM    7  C   UNL     1      -7.839   5.350  71.890  1.00  0.00    -0.112 C  
ENDROOT
BRANCH   5   8
HETATM    8  C   UNL     1      -8.861   7.879  70.411  1.00  0.00    -0.142 C  
BRANCH   8   9
HETATM    9  C   UNL     1      -9.592   9.220  70.445  1.00  0.00    -0.292 C  
BRANCH   9  10
HETATM   10  C   UNL     1     -10.717   9.350  69.406  1.00  0.00    -0.217 C  
BRANCH  10  11
HETATM   11  N   UNL     1     -10.452  10.394  68.378  1.00  0.00    -0.178 NA 
HETATM   12  C   UNL     1     -11.036  11.676  68.649  1.00  0.00    -0.234 A  
HETATM   13  C   UNL     1     -11.488  12.039  69.942  1.00  0.00    -0.239 A  
HETATM   14  C   UNL     1     -12.187  13.222  70.199  1.00  0.00    -0.376 A  
HETATM   15  C   UNL     1     -12.407  14.125  69.177  1.00  0.00    -0.173 A  
HETATM   16  C   UNL     1     -11.904  13.844  67.911  1.00  0.00    -0.413 A  
HETATM   17  C   UNL     1     -11.222  12.640  67.643  1.00  0.00    -0.283 A  
HETATM   18  S   UNL     1     -10.663  12.447  65.972  1.00  0.00    -0.270 SA 
HETATM   19  C   UNL     1      -9.950  10.822  65.985  1.00  0.00    -0.242 A  
HETATM   20  C   UNL     1      -9.921   9.980  67.118  1.00  0.00    -0.201 A  
HETATM   21  C   UNL     1      -9.315   8.714  66.914  1.00  0.00    -0.216 A  
HETATM   22  C   UNL     1      -8.806   8.279  65.672  1.00  0.00    -0.172 A  
HETATM   23  C   UNL     1      -8.211   6.902  65.506  1.00  0.00    -0.135 C  
HETATM   24  C   UNL     1      -8.863   9.144  64.584  1.00  0.00    -0.183 A  
HETATM   25  F   UNL     1      -8.859   6.167  64.559  1.00  0.00    -0.006 F  
HETATM   26  F   UNL     1      -6.907   6.943  65.115  1.00  0.00    -0.046 F  
HETATM   27  F   UNL     1      -8.234   6.148  66.640  1.00  0.00    -0.105 F  
HETATM   28  C   UNL     1      -9.426  10.405  64.744  1.00  0.00    -0.329 A  
ENDBRANCH  10  11
ENDBRANCH   9  10
ENDBRANCH   8   9
ENDBRANCH   5   8
TORSDOF 4
ENDMDL
MODEL      176
REMARK 921   NORMALIZED FREE ENERGY PREDICTED BY IDOCK:   -4.42 KCAL/MOL
REMARK 922        TOTAL FREE ENERGY PREDICTED BY IDOCK:   -5.86 KCAL/MOL
REMARK 923 INTER-LIGAND FREE ENERGY PREDICTED BY IDOCK:   -5.24 KCAL/MOL
REMARK 924 INTRA-LIGAND FREE ENERGY PREDICTED BY IDOCK:   -0.62 KCAL/MOL
REMARK 927      BINDING AFFINITY PREDICTED BY RF-SCORE:    0.00 PKD
ROOT
HETATM    1  C   UNL     1     -12.272  10.343  69.029  1.00  0.00     0.346 C  
HETATM    2  N   UNL     1     -11.585  11.020  67.930  1.00  0.00    -0.545 NA 
HETATM    3  C   UNL     1     -11.602  12.485  68.124  1.00  0.00    -0.340 C  
HETATM    4  C   UNL     1     -10.640  12.989  69.223  1.00  0.00     0.150 C  
HETATM    5  N   UNL     1      -9.238  12.562  69.041  1.00  0.00     0.337 NA 
HETATM    6  C   UNL     1      -9.213  11.089  68.882  1.00  0.00    -0.129 C  
HETATM    7  C   UNL     1     -10.189  10.545  67.807  1.00  0.00    -0.190 C  
ENDROOT
BRANCH   5   8
HETATM    8  C   UNL     1      -8.587  13.202  67.885  1.00  0.00    -0.185 C  
BRANCH   8   9
HETATM    9  C   UNL     1      -8.166  14.649  68.132  1.00  0.00    -0.142 C  
BRANCH   9  10
HETATM   10  C   UNL     1      -7.571  15.351  66.900  1.00  0.00    -0.076 C  
BRANCH  10  11
HETATM   11  N   UNL     1      -8.475  16.379  66.315  1.00  0.00    -0.326 NA 
HETATM   12  C   UNL     1      -8.214  17.726  66.734  1.00  0.00    -0.250 A  
HETATM   13  C   UNL     1      -6.985  18.104  67.332  1.00  0.00    -0.207 A  
HETATM   14  C   UNL     1      -6.763  19.372  67.875  1.00  0.00    -0.266 A  
HETATM   15  C   UNL     1      -7.745  20.340  67.785  1.00  0.00    -0.297 A  
HETATM   16  C   UNL     1      -8.933  20.034  67.131  1.00  0.00    -0.441 A  
HETATM   17  C   UNL     1      -9.171  18.747  66.605  1.00  0.00    -0.329 A  
HETATM   18  S   UNL     1     -10.744  18.535  65.817  1.00  0.00     0.085 SA 
HETATM   19  C   UNL     1     -10.727  16.818  65.370  1.00  0.00    -0.189 A  
HETATM   20  C   UNL     1      -9.661  15.936  65.655  1.00  0.00    -0.271 A  
HETATM   21  C   UNL     1      -9.851  14.599  65.223  1.00  0.00    -0.228 A  
HETATM   22  C   UNL     1     -11.025  14.139  64.589  1.00  0.00    -0.393 A  
HETATM   23  C   UNL     1     -11.187  12.693  64.192  1.00  0.00    -0.386 C  
HETATM   24  C   UNL     1     -12.050  15.045  64.336  1.00  0.00    -0.373 A  
HETATM   25  F   UNL     1     -12.270  12.109  64.780  1.00  0.00    -0.430 F  
HETATM   26  F   UNL     1     -11.368  12.539  62.850  1.00  0.00    -0.419 F  
HETATM   27  F   UNL     1     -10.122  11.906  64.514  1.00  0.00    -0.265 F  
HETATM   28  C   UNL     1     -11.897  16.372  64.720  1.00  0.00     0.516 A  
ENDBRANCH  10  11
ENDBRANCH   9  10
ENDBRANCH   8   9
ENDBRANCH   5   8
TORSDOF 4
ENDMDL
MODEL      177
REMARK 921   NORMALIZED FREE ENERGY PREDICTED BY IDOCK:   -4.34 KCAL/MOL
REMARK 922        TOTAL FREE ENERGY PREDICTED BY IDOCK:   -5.77 KCAL/MOL
REMARK 923 INTER-LIGAND FREE ENERGY PREDICTED BY IDOCK:   -5.44 KCAL/MOL
REMARK 924 INTRA-LIGAND FREE ENERGY PREDICTED BY IDOCK:   -0.34 KCAL/MOL
REMARK 927      BINDING AFFINITY PREDICTED BY RF-SCORE:    0.00 PKD
ROOT
HETATM    1  C   UNL     1     -12.188  14.269  64.486  1.00  0.00    -0.455 C  
HETATM    2  N   UNL     1     -12.412  12.853  64.777  1.00  0.00    -0.566 NA 
HETATM    3  C   UNL     1     -11.752  12.000  63.766  1.00  0.00    -0.481 C  
HETATM    4  C   UNL     1     -10.214  11.931  63.903  1.00  0.00    -0.389 C  
HETATM    5  N   UNL     1      -9.745  11.513  65.240  1.00  0.00    -0.236 NA 
HETATM    6  C   UNL     1     -10.378  12.390  66.254  1.00  0.00    -0.244 C  
HETATM    7  C   UNL     1     -11.918  12.506  66.127  1.00  0.00    -0.366 C  
ENDROOT
BRANCH   5   8
HETATM    8  C   UNL     1     -10.045  10.103  65.540  1.00  0.00    -0.268 C  
BRANCH   8   9
HETATM    9  C   UNL     1      -9.041   9.115  64.948  1.00  0.00    -0.190 C  
BRANCH   9  10
HETATM   10  C   UNL     1      -7.950   8.662  65.931  1.00  0.00    -0.105 C  
BRANCH  10  11
HETATM   11  N   UNL     1      -8.429   7.660  66.923  1.00  0.00    -0.123 NA 
HETATM   12  C   UNL     1      -8.284   8.048  68.296  1.00  0.00    -0.123 A  
HETATM   13  C   UNL     1      -8.075   9.397  68.679  1.00  0.00    -0.104 A  
HETATM   14  C   UNL     1      -7.790   9.778  69.994  1.00  0.00    -0.188 A  
HETATM   15  C   UNL     1      -7.767   8.825  70.995  1.00  0.00    -0.137 A  
HETATM   16  C   UNL     1      -8.051   7.503  70.673  1.00  0.00    -0.109 A  
HETATM   17  C   UNL     1      -8.312   7.111  69.344  1.00  0.00    -0.133 A  
HETATM   18  S   UNL     1      -8.643   5.385  69.119  1.00  0.00    -0.102 SA 
HETATM   19  C   UNL     1      -8.830   5.250  67.359  1.00  0.00    -0.105 A  
HETATM   20  C   UNL     1      -8.701   6.335  66.464  1.00  0.00    -0.131 A  
HETATM   21  C   UNL     1      -8.876   6.012  65.095  1.00  0.00     0.046 A  
HETATM   22  C   UNL     1      -9.123   4.706  64.622  1.00  0.00    -0.141 A  
HETATM   23  C   UNL     1      -9.258   4.417  63.147  1.00  0.00    -0.125 C  
HETATM   24  C   UNL     1      -9.237   3.669  65.544  1.00  0.00    -0.155 A  
HETATM   25  F   UNL     1      -8.340   3.509  62.709  1.00  0.00    -0.076 F  
HETATM   26  F   UNL     1     -10.475   3.894  62.829  1.00  0.00    -0.168 F  
HETATM   27  F   UNL     1      -9.105   5.512  62.352  1.00  0.00    -0.097 F  
HETATM   28  C   UNL     1      -9.096   3.944  66.899  1.00  0.00    -0.164 A  
ENDBRANCH  10  11
ENDBRANCH   9  10
ENDBRANCH   8   9
ENDBRANCH   5   8
TORSDOF 4
ENDMDL
MODEL      178
REMARK 921   NORMALIZED FREE ENERGY PREDICTED BY IDOCK:   -4.32 KCAL/MOL
REMARK 922        TOTAL FREE ENERGY PREDICTED BY IDOCK:   -5.75 KCAL/MOL
REMARK 923 INTER-LIGAND FREE ENERGY PREDICTED BY IDOCK:   -6.90 KCAL/MOL
REMARK 924 INTRA-LIGAND FREE ENERGY PREDICTED BY IDOCK:    1.15 KCAL/MOL
REMARK 927      BINDING AFFINITY PREDICTED BY RF-SCORE:    0.00 PKD
ROOT
HETATM    1  C   UNL     1     -10.741   8.045  69.130  1.00  0.00    -0.106 C  
HETATM    2  N   UNL     1     -10.044   9.316  69.329  1.00  0.00    -0.192 NA 
HETATM    3  C   UNL     1      -9.784   9.980  68.035  1.00  0.00    -0.139 C  
HETATM    4  C   UNL     1     -11.036  10.607  67.382  1.00  0.00    -0.272 C  
HETATM    5  N   UNL     1     -11.760  11.556  68.251  1.00  0.00    -0.474 NA 
HETATM    6  C   UNL     1     -12.054  10.882  69.538  1.00  0.00    -0.309 C  
HETATM    7  C   UNL     1     -10.825  10.215  70.207  1.00  0.00    -0.310 C  
ENDROOT
BRANCH   5   8
HETATM    8  C   UNL     1     -11.009  12.798  68.498  1.00  0.00    -0.258 C  
BRANCH   8   9
HETATM    9  C   UNL     1      -9.906  13.070  67.476  1.00  0.00    -0.209 C  
BRANCH   9  10
HETATM   10  C   UNL     1      -9.728  14.555  67.122  1.00  0.00    -0.240 C  
BRANCH  10  11
HETATM   11  N   UNL     1      -8.354  15.064  67.390  1.00  0.00    -0.176 NA 
HETATM   12  C   UNL     1      -7.343  14.052  67.503  1.00  0.00    -0.170 A  
HETATM   13  C   UNL     1      -7.541  12.734  67.023  1.00  0.00     0.032 A  
HETATM   14  C   UNL     1      -6.630  11.698  67.248  1.00  0.00    -0.122 A  
HETATM   15  C   UNL     1      -5.446  11.958  67.913  1.00  0.00    -0.055 A  
HETATM   16  C   UNL     1      -5.177  13.258  68.326  1.00  0.00    -0.092 A  
HETATM   17  C   UNL     1      -6.106  14.299  68.124  1.00  0.00    -0.137 A  
HETATM   18  S   UNL     1      -5.600  15.887  68.725  1.00  0.00    -0.106 SA 
HETATM   19  C   UNL     1      -7.017  16.901  68.387  1.00  0.00    -0.173 A  
HETATM   20  C   UNL     1      -8.208  16.426  67.796  1.00  0.00    -0.154 A  
HETATM   21  C   UNL     1      -9.226  17.397  67.623  1.00  0.00    -0.234 A  
HETATM   22  C   UNL     1      -9.107  18.740  68.038  1.00  0.00    -0.328 A  
HETATM   23  C   UNL     1     -10.244  19.718  67.867  1.00  0.00    -0.444 C  
HETATM   24  C   UNL     1      -7.916  19.159  68.621  1.00  0.00    -0.398 A  
HETATM   25  F   UNL     1     -10.650  20.257  69.052  1.00  0.00    -0.511 F  
HETATM   26  F   UNL     1      -9.905  20.775  67.078  1.00  0.00    -0.587 F  
HETATM   27  F   UNL     1     -11.360  19.178  67.304  1.00  0.00    -0.467 F  
HETATM   28  C   UNL     1      -6.881  18.247  68.788  1.00  0.00    -0.268 A  
ENDBRANCH  10  11
ENDBRANCH   9  10
ENDBRANCH   8   9
ENDBRANCH   5   8
TORSDOF 4
ENDMDL
MODEL      179
REMARK 921   NORMALIZED FREE ENERGY PREDICTED BY IDOCK:   -4.32 KCAL/MOL
REMARK 922        TOTAL FREE ENERGY PREDICTED BY IDOCK:   -5.75 KCAL/MOL
REMARK 923 INTER-LIGAND FREE ENERGY PREDICTED BY IDOCK:   -5.40 KCAL/MOL
REMARK 924 INTRA-LIGAND FREE ENERGY PREDICTED BY IDOCK:   -0.35 KCAL/MOL
REMARK 927      BINDING AFFINITY PREDICTED BY RF-SCORE:    0.00 PKD
ROOT
HETATM    1  C   UNL     1      -7.939   2.091  62.595  1.00  0.00    -0.059 C  
HETATM    2  N   UNL     1      -8.619   3.376  62.752  1.00  0.00    -0.081 NA 
HETATM    3  C   UNL     1      -9.801   3.241  63.629  1.00  0.00    -0.149 C  
HETATM    4  C   UNL     1      -9.461   3.077  65.128  1.00  0.00    -0.103 C  
HETATM    5  N   UNL     1      -8.601   4.146  65.673  1.00  0.00    -0.113 NA 
HETATM    6  C   UNL     1      -7.397   4.262  64.816  1.00  0.00    -0.071 C  
HETATM    7  C   UNL     1      -7.700   4.397  63.302  1.00  0.00    -0.066 C  
ENDROOT
BRANCH   5   8
HETATM    8  C   UNL     1      -9.284   5.449  65.754  1.00  0.00    -0.138 C  
BRANCH   8   9
HETATM    9  C   UNL     1     -10.530   5.442  66.638  1.00  0.00    -0.356 C  
BRANCH   9  10
HETATM   10  C   UNL     1     -11.120   6.836  66.904  1.00  0.00    -0.213 C  
BRANCH  10  11
HETATM   11  N   UNL     1     -10.273   7.674  67.797  1.00  0.00    -0.188 NA 
HETATM   12  C   UNL     1     -10.324   7.325  69.187  1.00  0.00    -0.205 A  
HETATM   13  C   UNL     1     -10.815   6.071  69.630  1.00  0.00    -0.439 A  
HETATM   14  C   UNL     1     -11.007   5.764  70.980  1.00  0.00    -0.300 A  
HETATM   15  C   UNL     1     -10.652   6.682  71.950  1.00  0.00    -0.237 A  
HETATM   16  C   UNL     1     -10.087   7.891  71.558  1.00  0.00    -0.221 A  
HETATM   17  C   UNL     1      -9.918   8.214  70.197  1.00  0.00    -0.187 A  
HETATM   18  S   UNL     1      -9.194   9.801  69.884  1.00  0.00    -0.220 SA 
HETATM   19  C   UNL     1      -9.218   9.898  68.112  1.00  0.00    -0.128 A  
HETATM   20  C   UNL     1      -9.738   8.890  67.271  1.00  0.00    -0.181 A  
HETATM   21  C   UNL     1      -9.673   9.169  65.883  1.00  0.00    -0.336 A  
HETATM   22  C   UNL     1      -9.169  10.373  65.347  1.00  0.00    -0.233 A  
HETATM   23  C   UNL     1      -9.167  10.630  63.860  1.00  0.00    -0.243 C  
HETATM   24  C   UNL     1      -8.673  11.339  66.217  1.00  0.00    -0.184 A  
HETATM   25  F   UNL     1      -9.874  11.746  63.524  1.00  0.00    -0.297 F  
HETATM   26  F   UNL     1      -7.911  10.828  63.369  1.00  0.00    -0.129 F  
HETATM   27  F   UNL     1      -9.698   9.617  63.121  1.00  0.00    -0.190 F  
HETATM   28  C   UNL     1      -8.694  11.097  67.586  1.00  0.00    -0.129 A  
ENDBRANCH  10  11
ENDBRANCH   9  10
ENDBRANCH   8   9
ENDBRANCH   5   8
TORSDOF 4
ENDMDL
MODEL      180
REMARK 921   NORMALIZED FREE ENERGY PREDICTED BY IDOCK:   -4.28 KCAL/MOL
REMARK 922        TOTAL FREE ENERGY PREDICTED BY IDOCK:   -5.69 KCAL/MOL
REMARK 923 INTER-LIGAND FREE ENERGY PREDICTED BY IDOCK:   -5.36 KCAL/MOL
REMARK 924 INTRA-LIGAND FREE ENERGY PREDICTED BY IDOCK:   -0.34 KCAL/MOL
REMARK 927      BINDING AFFINITY PREDICTED BY RF-SCORE:    0.00 PKD
ROOT
HETATM    1  C   UNL     1      -6.942  19.437  66.191  1.00  0.00    -0.248 C  
HETATM    2  N   UNL     1      -7.001  18.495  67.307  1.00  0.00    -0.202 NA 
HETATM    3  C   UNL     1      -8.194  18.746  68.143  1.00  0.00    -0.304 C  
HETATM    4  C   UNL     1      -9.524  18.289  67.502  1.00  0.00    -0.266 C  
HETATM    5  N   UNL     1      -9.539  16.871  67.088  1.00  0.00    -0.239 NA 
HETATM    6  C   UNL     1      -8.363  16.623  66.221  1.00  0.00    -0.325 C  
HETATM    7  C   UNL     1      -7.014  17.098  66.820  1.00  0.00    -0.225 C  
ENDROOT
BRANCH   5   8
HETATM    8  C   UNL     1      -9.525  15.939  68.228  1.00  0.00    -0.201 C  
BRANCH   8   9
HETATM    9  C   UNL     1      -9.831  14.491  67.850  1.00  0.00    -0.222 C  
BRANCH   9  10
HETATM   10  C   UNL     1      -9.261  13.451  68.827  1.00  0.00     0.112 C  
BRANCH  10  11
HETATM   11  N   UNL     1     -10.090  12.217  68.923  1.00  0.00    -0.071 NA 
HETATM   12  C   UNL     1     -11.201  12.301  69.827  1.00  0.00     0.030 A  
HETATM   13  C   UNL     1     -11.703  13.543  70.289  1.00  0.00    -0.244 A  
HETATM   14  C   UNL     1     -12.688  13.645  71.275  1.00  0.00    -0.443 A  
HETATM   15  C   UNL     1     -13.258  12.499  71.797  1.00  0.00    -0.444 A  
HETATM   16  C   UNL     1     -12.852  11.263  71.308  1.00  0.00    -0.491 A  
HETATM   17  C   UNL     1     -11.840  11.155  70.333  1.00  0.00    -0.369 A  
HETATM   18  S   UNL     1     -11.443   9.501  69.838  1.00  0.00     0.019 SA 
HETATM   19  C   UNL     1     -10.104   9.746  68.698  1.00  0.00    -0.169 A  
HETATM   20  C   UNL     1      -9.566  11.009  68.370  1.00  0.00    -0.181 A  
HETATM   21  C   UNL     1      -8.490  10.985  67.447  1.00  0.00    -0.132 A  
HETATM   22  C   UNL     1      -7.945   9.800  66.907  1.00  0.00    -0.105 A  
HETATM   23  C   UNL     1      -6.771   9.836  65.961  1.00  0.00    -0.087 C  
HETATM   24  C   UNL     1      -8.508   8.579  67.266  1.00  0.00    -0.123 A  
HETATM   25  F   UNL     1      -5.704   9.129  66.429  1.00  0.00    -0.048 F  
HETATM   26  F   UNL     1      -7.066   9.298  64.745  1.00  0.00    -0.088 F  
HETATM   27  F   UNL     1      -6.301  11.090  65.707  1.00  0.00    -0.129 F  
HETATM   28  C   UNL     1      -9.580   8.557  68.150  1.00  0.00    -0.158 A  
ENDBRANCH  10  11
ENDBRANCH   9  10
ENDBRANCH   8   9
ENDBRANCH   5   8
TORSDOF 4
ENDMDL
MODEL      181
REMARK 921   NORMALIZED FREE ENERGY PREDICTED BY IDOCK:   -4.26 KCAL/MOL
REMARK 922        TOTAL FREE ENERGY PREDICTED BY IDOCK:   -5.67 KCAL/MOL
REMARK 923 INTER-LIGAND FREE ENERGY PREDICTED BY IDOCK:   -5.86 KCAL/MOL
REMARK 924 INTRA-LIGAND FREE ENERGY PREDICTED BY IDOCK:    0.19 KCAL/MOL
REMARK 927      BINDING AFFINITY PREDICTED BY RF-SCORE:    0.00 PKD
ROOT
HETATM    1  C   UNL     1     -12.891  15.843  73.882  1.00  0.00    -0.539 C  
HETATM    2  N   UNL     1     -13.377  15.807  72.503  1.00  0.00    -0.492 NA 
HETATM    3  C   UNL     1     -12.260  15.973  71.549  1.00  0.00    -0.422 C  
HETATM    4  C   UNL     1     -11.354  14.728  71.412  1.00  0.00    -0.074 C  
HETATM    5  N   UNL     1     -12.079  13.489  71.066  1.00  0.00    -0.248 NA 
HETATM    6  C   UNL     1     -13.179  13.300  72.042  1.00  0.00    -0.446 C  
HETATM    7  C   UNL     1     -14.090  14.541  72.227  1.00  0.00    -0.500 C  
ENDROOT
BRANCH   5   8
HETATM    8  C   UNL     1     -12.623  13.504  69.697  1.00  0.00     0.103 C  
BRANCH   8   9
HETATM    9  C   UNL     1     -11.975  12.485  68.761  1.00  0.00    -0.283 C  
BRANCH   9  10
HETATM   10  C   UNL     1     -11.221  11.357  69.483  1.00  0.00    -0.256 C  
BRANCH  10  11
HETATM   11  N   UNL     1      -9.859  11.112  68.933  1.00  0.00    -0.191 NA 
HETATM   12  C   UNL     1      -9.405   9.754  69.018  1.00  0.00    -0.161 A  
HETATM   13  C   UNL     1     -10.296   8.675  69.238  1.00  0.00    -0.228 A  
HETATM   14  C   UNL     1      -9.863   7.365  69.465  1.00  0.00    -0.165 A  
HETATM   15  C   UNL     1      -8.514   7.071  69.417  1.00  0.00    -0.133 A  
HETATM   16  C   UNL     1      -7.613   8.088  69.120  1.00  0.00    -0.097 A  
HETATM   17  C   UNL     1      -8.044   9.414  68.917  1.00  0.00    -0.103 A  
HETATM   18  S   UNL     1      -6.757  10.578  68.561  1.00  0.00    -0.057 SA 
HETATM   19  C   UNL     1      -7.640  12.115  68.458  1.00  0.00    -0.124 A  
HETATM   20  C   UNL     1      -9.032  12.243  68.655  1.00  0.00     0.020 A  
HETATM   21  C   UNL     1      -9.540  13.562  68.541  1.00  0.00    -0.151 A  
HETATM   22  C   UNL     1      -8.735  14.693  68.290  1.00  0.00    -0.173 A  
HETATM   23  C   UNL     1      -9.327  16.079  68.222  1.00  0.00    -0.199 C  
HETATM   24  C   UNL     1      -7.367  14.516  68.108  1.00  0.00    -0.129 A  
HETATM   25  F   UNL     1      -8.779  16.925  69.140  1.00  0.00    -0.250 F  
HETATM   26  F   UNL     1      -9.129  16.671  67.011  1.00  0.00    -0.202 F  
HETATM   27  F   UNL     1     -10.672  16.118  68.438  1.00  0.00    -0.246 F  
HETATM   28  C   UNL     1      -6.829  13.237  68.186  1.00  0.00    -0.114 A  
ENDBRANCH  10  11
ENDBRANCH   9  10
ENDBRANCH   8   9
ENDBRANCH   5   8
TORSDOF 4
ENDMDL
MODEL      182
REMARK 921   NORMALIZED FREE ENERGY PREDICTED BY IDOCK:   -4.20 KCAL/MOL
REMARK 922        TOTAL FREE ENERGY PREDICTED BY IDOCK:   -5.60 KCAL/MOL
REMARK 923 INTER-LIGAND FREE ENERGY PREDICTED BY IDOCK:   -4.89 KCAL/MOL
REMARK 924 INTRA-LIGAND FREE ENERGY PREDICTED BY IDOCK:   -0.70 KCAL/MOL
REMARK 927      BINDING AFFINITY PREDICTED BY RF-SCORE:    0.00 PKD
ROOT
HETATM    1  C   UNL     1      -8.173   4.672  65.750  1.00  0.00    -0.111 C  
HETATM    2  N   UNL     1      -9.180   5.733  65.771  1.00  0.00    -0.117 NA 
HETATM    3  C   UNL     1     -10.335   5.344  66.607  1.00  0.00    -0.275 C  
HETATM    4  C   UNL     1     -10.057   5.383  68.127  1.00  0.00    -0.166 C  
HETATM    5  N   UNL     1      -9.548   6.681  68.615  1.00  0.00    -0.130 NA 
HETATM    6  C   UNL     1      -8.368   7.058  67.802  1.00  0.00    -0.117 C  
HETATM    7  C   UNL     1      -8.602   7.000  66.270  1.00  0.00    -0.139 C  
ENDROOT
BRANCH   5   8
HETATM    8  C   UNL     1     -10.557   7.753  68.559  1.00  0.00    -0.114 C  
BRANCH   8   9
HETATM    9  C   UNL     1     -11.027   8.235  69.930  1.00  0.00    -0.166 C  
BRANCH   9  10
HETATM   10  C   UNL     1     -10.514   9.631  70.317  1.00  0.00    -0.283 C  
BRANCH  10  11
HETATM   11  N   UNL     1      -9.137   9.910  69.822  1.00  0.00    -0.225 NA 
HETATM   12  C   UNL     1      -8.080   9.393  70.643  1.00  0.00    -0.161 A  
HETATM   13  C   UNL     1      -8.305   8.385  71.613  1.00  0.00    -0.202 A  
HETATM   14  C   UNL     1      -7.325   7.968  72.519  1.00  0.00    -0.122 A  
HETATM   15  C   UNL     1      -6.053   8.504  72.447  1.00  0.00    -0.071 A  
HETATM   16  C   UNL     1      -5.769   9.435  71.454  1.00  0.00    -0.073 A  
HETATM   17  C   UNL     1      -6.763   9.876  70.556  1.00  0.00    -0.123 A  
HETATM   18  S   UNL     1      -6.224  11.073  69.366  1.00  0.00    -0.083 SA 
HETATM   19  C   UNL     1      -7.721  11.452  68.490  1.00  0.00    -0.133 A  
HETATM   20  C   UNL     1      -8.978  10.881  68.787  1.00  0.00    -0.164 A  
HETATM   21  C   UNL     1     -10.051  11.328  67.975  1.00  0.00    -0.192 A  
HETATM   22  C   UNL     1      -9.916  12.302  66.963  1.00  0.00    -0.220 A  
HETATM   23  C   UNL     1     -11.105  12.769  66.161  1.00  0.00    -0.290 C  
HETATM   24  C   UNL     1      -8.658  12.839  66.712  1.00  0.00    -0.084 A  
HETATM   25  F   UNL     1     -11.313  14.112  66.272  1.00  0.00    -0.311 F  
HETATM   26  F   UNL     1     -10.961  12.528  64.828  1.00  0.00    -0.299 F  
HETATM   27  F   UNL     1     -12.281  12.182  66.518  1.00  0.00    -0.367 F  
HETATM   28  C   UNL     1      -7.572  12.412  67.467  1.00  0.00    -0.155 A  
ENDBRANCH  10  11
ENDBRANCH   9  10
ENDBRANCH   8   9
ENDBRANCH   5   8
TORSDOF 4
ENDMDL
MODEL      183
REMARK 921   NORMALIZED FREE ENERGY PREDICTED BY IDOCK:   -4.18 KCAL/MOL
REMARK 922        TOTAL FREE ENERGY PREDICTED BY IDOCK:   -5.57 KCAL/MOL
REMARK 923 INTER-LIGAND FREE ENERGY PREDICTED BY IDOCK:   -5.18 KCAL/MOL
REMARK 924 INTRA-LIGAND FREE ENERGY PREDICTED BY IDOCK:   -0.39 KCAL/MOL
REMARK 927      BINDING AFFINITY PREDICTED BY RF-SCORE:    0.00 PKD
ROOT
HETATM    1  C   UNL     1     -11.469  14.509  67.835  1.00  0.00    -0.325 C  
HETATM    2  N   UNL     1     -10.396  13.570  67.512  1.00  0.00    -0.236 NA 
HETATM    3  C   UNL     1     -10.433  12.401  68.416  1.00  0.00    -0.235 C  
HETATM    4  C   UNL     1     -11.582  11.409  68.121  1.00  0.00    -0.294 C  
HETATM    5  N   UNL     1     -11.614  10.919  66.728  1.00  0.00    -0.148 NA 
HETATM    6  C   UNL     1     -11.612  12.090  65.819  1.00  0.00    -0.290 C  
HETATM    7  C   UNL     1     -10.491  13.121  66.106  1.00  0.00    -0.281 C  
ENDROOT
BRANCH   5   8
HETATM    8  C   UNL     1     -10.483  10.032  66.404  1.00  0.00    -0.129 C  
BRANCH   8   9
HETATM    9  C   UNL     1     -10.065   9.115  67.552  1.00  0.00    -0.284 C  
BRANCH   9  10
HETATM   10  C   UNL     1     -10.250   7.617  67.260  1.00  0.00    -0.272 C  
BRANCH  10  11
HETATM   11  N   UNL     1      -9.306   6.749  68.016  1.00  0.00    -0.120 NA 
HETATM   12  C   UNL     1      -8.183   6.271  67.262  1.00  0.00    -0.109 A  
HETATM   13  C   UNL     1      -7.788   6.870  66.040  1.00  0.00    -0.104 A  
HETATM   14  C   UNL     1      -6.790   6.336  65.220  1.00  0.00    -0.048 A  
HETATM   15  C   UNL     1      -6.099   5.209  65.624  1.00  0.00    -0.033 A  
HETATM   16  C   UNL     1      -6.400   4.641  66.857  1.00  0.00    -0.037 A  
HETATM   17  C   UNL     1      -7.424   5.162  67.674  1.00  0.00    -0.083 A  
HETATM   18  S   UNL     1      -7.676   4.303  69.203  1.00  0.00    -0.054 SA 
HETATM   19  C   UNL     1      -9.064   5.159  69.906  1.00  0.00    -0.123 A  
HETATM   20  C   UNL     1      -9.729   6.236  69.281  1.00  0.00    -0.136 A  
HETATM   21  C   UNL     1     -10.822   6.773  70.005  1.00  0.00    -0.311 A  
HETATM   22  C   UNL     1     -11.267   6.266  71.245  1.00  0.00    -0.355 A  
HETATM   23  C   UNL     1     -12.466   6.852  71.948  1.00  0.00    -0.311 C  
HETATM   24  C   UNL     1     -10.582   5.199  71.818  1.00  0.00    -0.238 A  
HETATM   25  F   UNL     1     -13.448   5.930  72.160  1.00  0.00    -0.065 F  
HETATM   26  F   UNL     1     -12.156   7.350  73.178  1.00  0.00    -0.012 F  
HETATM   27  F   UNL     1     -13.059   7.876  71.273  1.00  0.00    -0.326 F  
HETATM   28  C   UNL     1      -9.488   4.657  71.154  1.00  0.00    -0.220 A  
ENDBRANCH  10  11
ENDBRANCH   9  10
ENDBRANCH   8   9
ENDBRANCH   5   8
TORSDOF 4
ENDMDL
MODEL      184
REMARK 921   NORMALIZED FREE ENERGY PREDICTED BY IDOCK:   -4.14 KCAL/MOL
REMARK 922        TOTAL FREE ENERGY PREDICTED BY IDOCK:   -5.53 KCAL/MOL
REMARK 923 INTER-LIGAND FREE ENERGY PREDICTED BY IDOCK:   -5.11 KCAL/MOL
REMARK 924 INTRA-LIGAND FREE ENERGY PREDICTED BY IDOCK:   -0.42 KCAL/MOL
REMARK 927      BINDING AFFINITY PREDICTED BY RF-SCORE:    0.00 PKD
ROOT
HETATM    1  C   UNL     1      -8.578  10.328  62.934  1.00  0.00    -0.190 C  
HETATM    2  N   UNL     1      -9.439   9.755  63.967  1.00  0.00    -0.173 NA 
HETATM    3  C   UNL     1      -8.781   8.604  64.620  1.00  0.00    -0.029 C  
HETATM    4  C   UNL     1      -7.640   8.991  65.587  1.00  0.00    -0.086 C  
HETATM    5  N   UNL     1      -8.037   9.953  66.636  1.00  0.00    -0.116 NA 
HETATM    6  C   UNL     1      -8.666  11.125  65.983  1.00  0.00    -0.183 C  
HETATM    7  C   UNL     1      -9.796  10.771  64.982  1.00  0.00    -0.288 C  
ENDROOT
BRANCH   5   8
HETATM    8  C   UNL     1      -8.963   9.375  67.625  1.00  0.00    -0.118 C  
BRANCH   8   9
HETATM    9  C   UNL     1      -9.496  10.384  68.640  1.00  0.00    -0.167 C  
BRANCH   9  10
HETATM   10  C   UNL     1      -9.162  10.045  70.101  1.00  0.00    -0.026 C  
BRANCH  10  11
HETATM   11  N   UNL     1     -10.110   9.073  70.712  1.00  0.00    -0.220 NA 
HETATM   12  C   UNL     1      -9.740   7.694  70.572  1.00  0.00    -0.182 A  
HETATM   13  C   UNL     1      -8.420   7.299  70.239  1.00  0.00    -0.137 A  
HETATM   14  C   UNL     1      -8.070   5.975  69.959  1.00  0.00    -0.114 A  
HETATM   15  C   UNL     1      -9.020   4.977  70.065  1.00  0.00    -0.146 A  
HETATM   16  C   UNL     1     -10.307   5.313  70.472  1.00  0.00    -0.336 A  
HETATM   17  C   UNL     1     -10.669   6.651  70.729  1.00  0.00    -0.238 A  
HETATM   18  S   UNL     1     -12.353   6.893  71.226  1.00  0.00    -0.351 SA 
HETATM   19  C   UNL     1     -12.467   8.658  71.369  1.00  0.00    -0.301 A  
HETATM   20  C   UNL     1     -11.401   9.545  71.101  1.00  0.00    -0.370 A  
HETATM   21  C   UNL     1     -11.703  10.920  71.265  1.00  0.00     0.097 A  
HETATM   22  C   UNL     1     -12.978  11.405  71.628  1.00  0.00    -0.523 A  
HETATM   23  C   UNL     1     -13.251  12.885  71.744  1.00  0.00    -0.384 C  
HETATM   24  C   UNL     1     -13.998  10.492  71.876  1.00  0.00     0.284 A  
HETATM   25  F   UNL     1     -14.247  13.297  70.909  1.00  0.00     0.534 F  
HETATM   26  F   UNL     1     -13.646  13.244  72.997  1.00  0.00    -0.490 F  
HETATM   27  F   UNL     1     -12.177  13.671  71.455  1.00  0.00    -0.386 F  
HETATM   28  C   UNL     1     -13.739   9.132  71.752  1.00  0.00    -0.465 A  
ENDBRANCH  10  11
ENDBRANCH   9  10
ENDBRANCH   8   9
ENDBRANCH   5   8
TORSDOF 4
ENDMDL
MODEL      185
REMARK 921   NORMALIZED FREE ENERGY PREDICTED BY IDOCK:   -4.13 KCAL/MOL
REMARK 922        TOTAL FREE ENERGY PREDICTED BY IDOCK:   -5.51 KCAL/MOL
REMARK 923 INTER-LIGAND FREE ENERGY PREDICTED BY IDOCK:   -5.07 KCAL/MOL
REMARK 924 INTRA-LIGAND FREE ENERGY PREDICTED BY IDOCK:   -0.44 KCAL/MOL
REMARK 927      BINDING AFFINITY PREDICTED BY RF-SCORE:    0.00 PKD
ROOT
HETATM    1  C   UNL     1      -8.276   1.747  73.728  1.00  0.00    -0.046 C  
HETATM    2  N   UNL     1      -8.898   3.036  73.428  1.00  0.00    -0.079 NA 
HETATM    3  C   UNL     1      -7.873   4.055  73.122  1.00  0.00    -0.084 C  
HETATM    4  C   UNL     1      -7.212   3.890  71.734  1.00  0.00    -0.053 C  
HETATM    5  N   UNL     1      -8.170   3.845  70.610  1.00  0.00    -0.064 NA 
HETATM    6  C   UNL     1      -9.181   2.799  70.898  1.00  0.00    -0.136 C  
HETATM    7  C   UNL     1      -9.842   2.916  72.295  1.00  0.00    -0.164 C  
ENDROOT
BRANCH   5   8
HETATM    8  C   UNL     1      -8.839   5.135  70.372  1.00  0.00    -0.125 C  
BRANCH   8   9
HETATM    9  C   UNL     1      -8.299   5.901  69.166  1.00  0.00    -0.106 C  
BRANCH   9  10
HETATM   10  C   UNL     1      -9.343   6.168  68.070  1.00  0.00    -0.114 C  
BRANCH  10  11
HETATM   11  N   UNL     1      -9.608   7.616  67.848  1.00  0.00    -0.142 NA 
HETATM   12  C   UNL     1      -8.896   8.203  66.749  1.00  0.00    -0.138 A  
HETATM   13  C   UNL     1      -8.305   7.415  65.730  1.00  0.00    -0.141 A  
HETATM   14  C   UNL     1      -7.489   7.953  64.731  1.00  0.00    -0.095 A  
HETATM   15  C   UNL     1      -7.283   9.319  64.674  1.00  0.00    -0.100 A  
HETATM   16  C   UNL     1      -7.915  10.134  65.606  1.00  0.00    -0.147 A  
HETATM   17  C   UNL     1      -8.717   9.592  66.631  1.00  0.00    -0.134 A  
HETATM   18  S   UNL     1      -9.433  10.779  67.734  1.00  0.00    -0.157 SA 
HETATM   19  C   UNL     1     -10.277   9.755  68.914  1.00  0.00    -0.200 A  
HETATM   20  C   UNL     1     -10.279   8.344  68.878  1.00  0.00    -0.210 A  
HETATM   21  C   UNL     1     -11.004   7.714  69.921  1.00  0.00    -0.208 A  
HETATM   22  C   UNL     1     -11.654   8.416  70.959  1.00  0.00    -0.307 A  
HETATM   23  C   UNL     1     -12.375   7.688  72.067  1.00  0.00    -0.280 C  
HETATM   24  C   UNL     1     -11.619   9.807  70.953  1.00  0.00    -0.441 A  
HETATM   25  F   UNL     1     -11.876   7.992  73.299  1.00  0.00    -0.337 F  
HETATM   26  F   UNL     1     -13.699   8.000  72.118  1.00  0.00    -0.325 F  
HETATM   27  F   UNL     1     -12.317   6.331  71.968  1.00  0.00    -0.375 F  
HETATM   28  C   UNL     1     -10.940  10.467  69.936  1.00  0.00    -0.364 A  
ENDBRANCH  10  11
ENDBRANCH   9  10
ENDBRANCH   8   9
ENDBRANCH   5   8
TORSDOF 4
ENDMDL
MODEL      186
REMARK 921   NORMALIZED FREE ENERGY PREDICTED BY IDOCK:   -4.12 KCAL/MOL
REMARK 922        TOTAL FREE ENERGY PREDICTED BY IDOCK:   -5.49 KCAL/MOL
REMARK 923 INTER-LIGAND FREE ENERGY PREDICTED BY IDOCK:   -4.82 KCAL/MOL
REMARK 924 INTRA-LIGAND FREE ENERGY PREDICTED BY IDOCK:   -0.68 KCAL/MOL
REMARK 927      BINDING AFFINITY PREDICTED BY RF-SCORE:    0.00 PKD
ROOT
HETATM    1  C   UNL     1      -7.465   4.268  65.364  1.00  0.00    -0.077 C  
HETATM    2  N   UNL     1      -8.619   5.162  65.448  1.00  0.00    -0.141 NA 
HETATM    3  C   UNL     1      -9.813   4.435  65.928  1.00  0.00    -0.228 C  
HETATM    4  C   UNL     1      -9.786   4.099  67.436  1.00  0.00    -0.154 C  
HETATM    5  N   UNL     1      -9.574   5.269  68.312  1.00  0.00    -0.124 NA 
HETATM    6  C   UNL     1      -8.357   5.982  67.856  1.00  0.00    -0.116 C  
HETATM    7  C   UNL     1      -8.337   6.308  66.340  1.00  0.00    -0.118 C  
ENDROOT
BRANCH   5   8
HETATM    8  C   UNL     1     -10.720   6.194  68.324  1.00  0.00    -0.290 C  
BRANCH   8   9
HETATM    9  C   UNL     1     -11.472   6.233  69.653  1.00  0.00    -0.425 C  
BRANCH   9  10
HETATM   10  C   UNL     1     -11.123   7.440  70.539  1.00  0.00    -0.261 C  
BRANCH  10  11
HETATM   11  N   UNL     1      -9.661   7.720  70.604  1.00  0.00    -0.177 NA 
HETATM   12  C   UNL     1      -8.935   6.937  71.562  1.00  0.00    -0.140 A  
HETATM   13  C   UNL     1      -9.464   5.745  72.117  1.00  0.00    -0.164 A  
HETATM   14  C   UNL     1      -8.838   5.046  73.152  1.00  0.00    -0.111 A  
HETATM   15  C   UNL     1      -7.618   5.480  73.634  1.00  0.00    -0.098 A  
HETATM   16  C   UNL     1      -7.025   6.598  73.057  1.00  0.00    -0.076 A  
HETATM   17  C   UNL     1      -7.666   7.321  72.031  1.00  0.00    -0.089 A  
HETATM   18  S   UNL     1      -6.769   8.723  71.424  1.00  0.00    -0.082 SA 
HETATM   19  C   UNL     1      -7.892   9.420  70.239  1.00  0.00    -0.156 A  
HETATM   20  C   UNL     1      -9.172   8.896  69.958  1.00  0.00    -0.174 A  
HETATM   21  C   UNL     1      -9.917   9.610  68.986  1.00  0.00    -0.189 A  
HETATM   22  C   UNL     1      -9.459  10.786  68.355  1.00  0.00    -0.174 A  
HETATM   23  C   UNL     1     -10.316  11.527  67.358  1.00  0.00    -0.207 C  
HETATM   24  C   UNL     1      -8.191  11.266  68.669  1.00  0.00    -0.146 A  
HETATM   25  F   UNL     1     -10.556  12.815  67.735  1.00  0.00    -0.210 F  
HETATM   26  F   UNL     1      -9.735  11.605  66.129  1.00  0.00    -0.214 F  
HETATM   27  F   UNL     1     -11.540  10.966  67.155  1.00  0.00    -0.333 F  
HETATM   28  C   UNL     1      -7.416  10.584  69.599  1.00  0.00    -0.145 A  
ENDBRANCH  10  11
ENDBRANCH   9  10
ENDBRANCH   8   9
ENDBRANCH   5   8
TORSDOF 4
ENDMDL
MODEL      187
REMARK 921   NORMALIZED FREE ENERGY PREDICTED BY IDOCK:   -4.11 KCAL/MOL
REMARK 922        TOTAL FREE ENERGY PREDICTED BY IDOCK:   -5.49 KCAL/MOL
REMARK 923 INTER-LIGAND FREE ENERGY PREDICTED BY IDOCK:   -5.26 KCAL/MOL
REMARK 924 INTRA-LIGAND FREE ENERGY PREDICTED BY IDOCK:   -0.22 KCAL/MOL
REMARK 927      BINDING AFFINITY PREDICTED BY RF-SCORE:    0.00 PKD
ROOT
HETATM    1  C   UNL     1      -6.001  10.653  67.772  1.00  0.00    -0.043 C  
HETATM    2  N   UNL     1      -7.158   9.905  68.262  1.00  0.00    -0.076 NA 
HETATM    3  C   UNL     1      -6.856   8.460  68.332  1.00  0.00    -0.065 C  
HETATM    4  C   UNL     1      -5.926   8.064  69.502  1.00  0.00    -0.033 C  
HETATM    5  N   UNL     1      -6.405   8.502  70.829  1.00  0.00    -0.036 NA 
HETATM    6  C   UNL     1      -6.675   9.959  70.772  1.00  0.00    -0.047 C  
HETATM    7  C   UNL     1      -7.580  10.395  69.592  1.00  0.00    -0.153 C  
ENDROOT
BRANCH   5   8
HETATM    8  C   UNL     1      -7.613   7.786  71.270  1.00  0.00    -0.080 C  
BRANCH   8   9
HETATM    9  C   UNL     1      -8.694   8.694  71.854  1.00  0.00    -0.256 C  
BRANCH   9  10
HETATM   10  C   UNL     1     -10.114   8.108  71.785  1.00  0.00    -0.205 C  
BRANCH  10  11
HETATM   11  N   UNL     1     -10.352   7.284  70.568  1.00  0.00    -0.204 NA 
HETATM   12  C   UNL     1     -10.157   5.873  70.742  1.00  0.00    -0.199 A  
HETATM   13  C   UNL     1     -10.127   5.271  72.024  1.00  0.00    -0.247 A  
HETATM   14  C   UNL     1      -9.799   3.927  72.225  1.00  0.00    -0.228 A  
HETATM   15  C   UNL     1      -9.549   3.112  71.137  1.00  0.00    -0.230 A  
HETATM   16  C   UNL     1      -9.652   3.646  69.858  1.00  0.00    -0.238 A  
HETATM   17  C   UNL     1      -9.956   5.007  69.653  1.00  0.00    -0.241 A  
HETATM   18  S   UNL     1     -10.035   5.515  67.957  1.00  0.00    -0.159 SA 
HETATM   19  C   UNL     1     -10.341   7.258  68.086  1.00  0.00    -0.194 A  
HETATM   20  C   UNL     1     -10.453   7.954  69.310  1.00  0.00    -0.216 A  
HETATM   21  C   UNL     1     -10.687   9.347  69.194  1.00  0.00    -0.216 A  
HETATM   22  C   UNL     1     -10.768  10.029  67.960  1.00  0.00    -0.303 A  
HETATM   23  C   UNL     1     -10.975  11.522  67.901  1.00  0.00    -0.233 C  
HETATM   24  C   UNL     1     -10.646   9.300  66.782  1.00  0.00    -0.207 A  
HETATM   25  F   UNL     1      -9.968  12.162  67.243  1.00  0.00    -0.198 F  
HETATM   26  F   UNL     1     -12.120  11.862  67.245  1.00  0.00    -0.324 F  
HETATM   27  F   UNL     1     -11.058  12.119  69.123  1.00  0.00    -0.247 F  
HETATM   28  C   UNL     1     -10.440   7.927  66.848  1.00  0.00    -0.388 A  
ENDBRANCH  10  11
ENDBRANCH   9  10
ENDBRANCH   8   9
ENDBRANCH   5   8
TORSDOF 4
ENDMDL
MODEL      188
REMARK 921   NORMALIZED FREE ENERGY PREDICTED BY IDOCK:   -4.09 KCAL/MOL
REMARK 922        TOTAL FREE ENERGY PREDICTED BY IDOCK:   -5.46 KCAL/MOL
REMARK 923 INTER-LIGAND FREE ENERGY PREDICTED BY IDOCK:   -4.99 KCAL/MOL
REMARK 924 INTRA-LIGAND FREE ENERGY PREDICTED BY IDOCK:   -0.48 KCAL/MOL
REMARK 927      BINDING AFFINITY PREDICTED BY RF-SCORE:    0.00 PKD
ROOT
HETATM    1  C   UNL     1      -5.735   8.714  73.394  1.00  0.00    -0.095 C  
HETATM    2  N   UNL     1      -5.381   8.858  71.982  1.00  0.00    -0.047 NA 
HETATM    3  C   UNL     1      -5.310   7.538  71.322  1.00  0.00    -0.031 C  
HETATM    4  C   UNL     1      -6.687   6.888  71.056  1.00  0.00    -0.054 C  
HETATM    5  N   UNL     1      -7.619   7.740  70.290  1.00  0.00    -0.086 NA 
HETATM    6  C   UNL     1      -7.721   9.054  70.969  1.00  0.00    -0.125 C  
HETATM    7  C   UNL     1      -6.356   9.720  71.279  1.00  0.00     0.070 C  
ENDROOT
BRANCH   5   8
HETATM    8  C   UNL     1      -7.205   7.932  68.890  1.00  0.00    -0.076 C  
BRANCH   8   9
HETATM    9  C   UNL     1      -7.582   6.774  67.967  1.00  0.00    -0.107 C  
BRANCH   9  10
HETATM   10  C   UNL     1      -9.085   6.678  67.659  1.00  0.00    -0.112 C  
BRANCH  10  11
HETATM   11  N   UNL     1      -9.729   8.003  67.446  1.00  0.00    -0.155 NA 
HETATM   12  C   UNL     1      -9.295   8.708  66.274  1.00  0.00    -0.220 A  
HETATM   13  C   UNL     1      -8.620   8.056  65.211  1.00  0.00    -0.112 A  
HETATM   14  C   UNL     1      -8.065   8.744  64.128  1.00  0.00    -0.162 A  
HETATM   15  C   UNL     1      -8.220  10.114  64.034  1.00  0.00    -0.164 A  
HETATM   16  C   UNL     1      -8.949  10.779  65.013  1.00  0.00    -0.211 A  
HETATM   17  C   UNL     1      -9.487  10.092  66.120  1.00  0.00    -0.190 A  
HETATM   18  S   UNL     1     -10.375  11.101  67.274  1.00  0.00    -0.218 SA 
HETATM   19  C   UNL     1     -10.817   9.943  68.545  1.00  0.00    -0.217 A  
HETATM   20  C   UNL     1     -10.464   8.577  68.528  1.00  0.00    -0.167 A  
HETATM   21  C   UNL     1     -10.905   7.825  69.646  1.00  0.00    -0.185 A  
HETATM   22  C   UNL     1     -11.612   8.379  70.734  1.00  0.00    -0.252 A  
HETATM   23  C   UNL     1     -12.018   7.536  71.918  1.00  0.00    -0.301 C  
HETATM   24  C   UNL     1     -11.932   9.733  70.707  1.00  0.00    -0.382 A  
HETATM   25  F   UNL     1     -11.500   8.001  73.090  1.00  0.00    -0.459 F  
HETATM   26  F   UNL     1     -13.368   7.506  72.097  1.00  0.00    -0.282 F  
HETATM   27  F   UNL     1     -11.626   6.234  71.832  1.00  0.00    -0.305 F  
HETATM   28  C   UNL     1     -11.542  10.503  69.618  1.00  0.00    -0.342 A  
ENDBRANCH  10  11
ENDBRANCH   9  10
ENDBRANCH   8   9
ENDBRANCH   5   8
TORSDOF 4
ENDMDL
MODEL      189
REMARK 921   NORMALIZED FREE ENERGY PREDICTED BY IDOCK:   -4.09 KCAL/MOL
REMARK 922        TOTAL FREE ENERGY PREDICTED BY IDOCK:   -5.46 KCAL/MOL
REMARK 923 INTER-LIGAND FREE ENERGY PREDICTED BY IDOCK:   -4.77 KCAL/MOL
REMARK 924 INTRA-LIGAND FREE ENERGY PREDICTED BY IDOCK:   -0.69 KCAL/MOL
REMARK 927      BINDING AFFINITY PREDICTED BY RF-SCORE:    0.00 PKD
ROOT
HETATM    1  C   UNL     1     -10.267  13.153  66.409  1.00  0.00    -0.286 C  
HETATM    2  N   UNL     1      -9.351  12.869  67.513  1.00  0.00    -0.183 NA 
HETATM    3  C   UNL     1      -9.926  11.856  68.424  1.00  0.00    -0.203 C  
HETATM    4  C   UNL     1      -9.915  10.418  67.858  1.00  0.00    -0.167 C  
HETATM    5  N   UNL     1      -8.583   9.949  67.425  1.00  0.00    -0.125 NA 
HETATM    6  C   UNL     1      -8.018  10.945  66.484  1.00  0.00    -0.152 C  
HETATM    7  C   UNL     1      -8.041  12.404  67.008  1.00  0.00    -0.124 C  
ENDROOT
BRANCH   5   8
HETATM    8  C   UNL     1      -7.654   9.739  68.548  1.00  0.00    -0.080 C  
BRANCH   8   9
HETATM    9  C   UNL     1      -6.577   8.691  68.275  1.00  0.00    -0.061 C  
BRANCH   9  10
HETATM   10  C   UNL     1      -6.755   7.384  69.065  1.00  0.00    -0.052 C  
BRANCH  10  11
HETATM   11  N   UNL     1      -7.898   6.558  68.587  1.00  0.00    -0.108 NA 
HETATM   12  C   UNL     1      -7.715   5.956  67.297  1.00  0.00    -0.101 A  
HETATM   13  C   UNL     1      -6.435   5.827  66.702  1.00  0.00    -0.050 A  
HETATM   14  C   UNL     1      -6.248   5.376  65.393  1.00  0.00    -0.034 A  
HETATM   15  C   UNL     1      -7.337   4.973  64.643  1.00  0.00    -0.063 A  
HETATM   16  C   UNL     1      -8.601   5.005  65.222  1.00  0.00    -0.145 A  
HETATM   17  C   UNL     1      -8.796   5.484  66.533  1.00  0.00    -0.121 A  
HETATM   18  S   UNL     1     -10.474   5.462  67.101  1.00  0.00    -0.206 SA 
HETATM   19  C   UNL     1     -10.351   6.200  68.710  1.00  0.00    -0.209 A  
HETATM   20  C   UNL     1      -9.145   6.670  69.275  1.00  0.00    -0.138 A  
HETATM   21  C   UNL     1      -9.265   7.237  70.569  1.00  0.00    -0.158 A  
HETATM   22  C   UNL     1     -10.490   7.376  71.254  1.00  0.00    -0.221 A  
HETATM   23  C   UNL     1     -10.561   8.028  72.613  1.00  0.00    -0.350 C  
HETATM   24  C   UNL     1     -11.652   6.902  70.653  1.00  0.00    -0.402 A  
HETATM   25  F   UNL     1     -11.382   9.116  72.625  1.00  0.00    -0.215 F  
HETATM   26  F   UNL     1     -11.046   7.188  73.569  1.00  0.00    -0.343 F  
HETATM   27  F   UNL     1      -9.359   8.467  73.080  1.00  0.00    -0.308 F  
HETATM   28  C   UNL     1     -11.578   6.316  69.395  1.00  0.00    -0.172 A  
ENDBRANCH  10  11
ENDBRANCH   9  10
ENDBRANCH   8   9
ENDBRANCH   5   8
TORSDOF 4
ENDMDL
MODEL      190
REMARK 921   NORMALIZED FREE ENERGY PREDICTED BY IDOCK:   -4.07 KCAL/MOL
REMARK 922        TOTAL FREE ENERGY PREDICTED BY IDOCK:   -5.43 KCAL/MOL
REMARK 923 INTER-LIGAND FREE ENERGY PREDICTED BY IDOCK:   -4.81 KCAL/MOL
REMARK 924 INTRA-LIGAND FREE ENERGY PREDICTED BY IDOCK:   -0.62 KCAL/MOL
REMARK 927      BINDING AFFINITY PREDICTED BY RF-SCORE:    0.00 PKD
ROOT
HETATM    1  C   UNL     1      -7.241   8.293  69.706  1.00  0.00    -0.060 C  
HETATM    2  N   UNL     1      -7.741   9.571  70.213  1.00  0.00    -0.145 NA 
HETATM    3  C   UNL     1      -6.645  10.361  70.813  1.00  0.00     0.109 C  
HETATM    4  C   UNL     1      -5.678  10.987  69.782  1.00  0.00    -0.062 C  
HETATM    5  N   UNL     1      -6.343  11.818  68.758  1.00  0.00    -0.057 NA 
HETATM    6  C   UNL     1      -7.420  11.017  68.130  1.00  0.00    -0.092 C  
HETATM    7  C   UNL     1      -8.391  10.349  69.136  1.00  0.00    -0.158 C  
ENDROOT
BRANCH   5   8
HETATM    8  C   UNL     1      -6.902  13.066  69.305  1.00  0.00    -0.019 C  
BRANCH   8   9
HETATM    9  C   UNL     1      -7.305  14.085  68.240  1.00  0.00    -0.115 C  
BRANCH   9  10
HETATM   10  C   UNL     1      -8.682  14.729  68.474  1.00  0.00    -0.174 C  
BRANCH  10  11
HETATM   11  N   UNL     1      -9.145  15.560  67.328  1.00  0.00    -0.197 NA 
HETATM   12  C   UNL     1      -9.115  16.976  67.554  1.00  0.00    -0.223 A  
HETATM   13  C   UNL     1      -8.357  17.555  68.604  1.00  0.00    -0.258 A  
HETATM   14  C   UNL     1      -8.424  18.912  68.930  1.00  0.00    -0.269 A  
HETATM   15  C   UNL     1      -9.209  19.762  68.174  1.00  0.00    -0.406 A  
HETATM   16  C   UNL     1      -9.902  19.247  67.084  1.00  0.00    -0.425 A  
HETATM   17  C   UNL     1      -9.857  17.874  66.768  1.00  0.00    -0.333 A  
HETATM   18  S   UNL     1     -10.810  17.396  65.353  1.00  0.00     0.257 SA 
HETATM   19  C   UNL     1     -10.594  15.634  65.315  1.00  0.00    -0.426 A  
HETATM   20  C   UNL     1      -9.835  14.910  66.260  1.00  0.00    -0.294 A  
HETATM   21  C   UNL     1      -9.798  13.507  66.057  1.00  0.00    -0.277 A  
HETATM   22  C   UNL     1     -10.491  12.846  65.021  1.00  0.00    -0.337 A  
HETATM   23  C   UNL     1     -10.449  11.344  64.882  1.00  0.00    -0.305 C  
HETATM   24  C   UNL     1     -11.230  13.604  64.118  1.00  0.00    -0.294 A  
HETATM   25  F   UNL     1     -11.689  10.780  64.945  1.00  0.00     0.267 F  
HETATM   26  F   UNL     1      -9.923  10.947  63.690  1.00  0.00    -0.282 F  
HETATM   27  F   UNL     1      -9.709  10.719  65.840  1.00  0.00    -0.217 F  
HETATM   28  C   UNL     1     -11.274  14.985  64.264  1.00  0.00    -0.021 A  
ENDBRANCH  10  11
ENDBRANCH   9  10
ENDBRANCH   8   9
ENDBRANCH   5   8
TORSDOF 4
ENDMDL
MODEL      191
REMARK 921   NORMALIZED FREE ENERGY PREDICTED BY IDOCK:   -4.06 KCAL/MOL
REMARK 922        TOTAL FREE ENERGY PREDICTED BY IDOCK:   -5.43 KCAL/MOL
REMARK 923 INTER-LIGAND FREE ENERGY PREDICTED BY IDOCK:   -4.88 KCAL/MOL
REMARK 924 INTRA-LIGAND FREE ENERGY PREDICTED BY IDOCK:   -0.55 KCAL/MOL
REMARK 927      BINDING AFFINITY PREDICTED BY RF-SCORE:    0.00 PKD
ROOT
HETATM    1  C   UNL     1     -13.778   9.084  72.671  1.00  0.00    -0.359 C  
HETATM    2  N   UNL     1     -13.269   8.673  71.363  1.00  0.00    -0.280 NA 
HETATM    3  C   UNL     1     -12.041   9.420  71.019  1.00  0.00    -0.298 C  
HETATM    4  C   UNL     1     -10.788   8.973  71.804  1.00  0.00    -0.367 C  
HETATM    5  N   UNL     1     -10.495   7.528  71.703  1.00  0.00    -0.200 NA 
HETATM    6  C   UNL     1     -11.714   6.775  72.082  1.00  0.00    -0.297 C  
HETATM    7  C   UNL     1     -12.998   7.219  71.335  1.00  0.00    -0.373 C  
ENDROOT
BRANCH   5   8
HETATM    8  C   UNL     1     -10.055   7.124  70.358  1.00  0.00    -0.191 C  
BRANCH   8   9
HETATM    9  C   UNL     1      -8.907   7.964  69.801  1.00  0.00    -0.141 C  
BRANCH   9  10
HETATM   10  C   UNL     1      -9.227   8.666  68.472  1.00  0.00    -0.138 C  
BRANCH  10  11
HETATM   11  N   UNL     1      -8.080   8.682  67.522  1.00  0.00    -0.106 NA 
HETATM   12  C   UNL     1      -7.274   9.868  67.563  1.00  0.00    -0.089 A  
HETATM   13  C   UNL     1      -7.315  10.768  68.657  1.00  0.00    -0.097 A  
HETATM   14  C   UNL     1      -6.648  11.997  68.655  1.00  0.00    -0.075 A  
HETATM   15  C   UNL     1      -5.857  12.347  67.577  1.00  0.00    -0.142 A  
HETATM   16  C   UNL     1      -5.724  11.452  66.520  1.00  0.00    -0.142 A  
HETATM   17  C   UNL     1      -6.417  10.224  66.507  1.00  0.00    -0.080 A  
HETATM   18  S   UNL     1      -6.136   9.217  65.077  1.00  0.00    -0.067 SA 
HETATM   19  C   UNL     1      -7.210   7.832  65.359  1.00  0.00    -0.068 A  
HETATM   20  C   UNL     1      -8.051   7.699  66.486  1.00  0.00    -0.119 A  
HETATM   21  C   UNL     1      -8.840   6.522  66.515  1.00  0.00    -0.142 A  
HETATM   22  C   UNL     1      -8.841   5.552  65.490  1.00  0.00    -0.147 A  
HETATM   23  C   UNL     1      -9.736   4.340  65.557  1.00  0.00    -0.203 C  
HETATM   24  C   UNL     1      -7.999   5.731  64.397  1.00  0.00    -0.126 A  
HETATM   25  F   UNL     1     -10.586   4.261  64.493  1.00  0.00    -0.226 F  
HETATM   26  F   UNL     1      -9.033   3.173  65.554  1.00  0.00    -0.121 F  
HETATM   27  F   UNL     1     -10.526   4.294  66.666  1.00  0.00    -0.221 F  
HETATM   28  C   UNL     1      -7.189   6.859  64.338  1.00  0.00    -0.067 A  
ENDBRANCH  10  11
ENDBRANCH   9  10
ENDBRANCH   8   9
ENDBRANCH   5   8
TORSDOF 4
ENDMDL
MODEL      192
REMARK 921   NORMALIZED FREE ENERGY PREDICTED BY IDOCK:   -4.04 KCAL/MOL
REMARK 922        TOTAL FREE ENERGY PREDICTED BY IDOCK:   -5.40 KCAL/MOL
REMARK 923 INTER-LIGAND FREE ENERGY PREDICTED BY IDOCK:   -4.96 KCAL/MOL
REMARK 924 INTRA-LIGAND FREE ENERGY PREDICTED BY IDOCK:   -0.45 KCAL/MOL
REMARK 927      BINDING AFFINITY PREDICTED BY RF-SCORE:    0.00 PKD
ROOT
HETATM    1  C   UNL     1     -13.007  11.837  71.805  1.00  0.00    -0.361 C  
HETATM    2  N   UNL     1     -13.148  10.786  70.799  1.00  0.00    -0.252 NA 
HETATM    3  C   UNL     1     -11.905  10.641  70.013  1.00  0.00    -0.322 C  
HETATM    4  C   UNL     1     -10.751   9.952  70.776  1.00  0.00    -0.280 C  
HETATM    5  N   UNL     1     -11.101   8.631  71.336  1.00  0.00    -0.255 NA 
HETATM    6  C   UNL     1     -12.329   8.778  72.154  1.00  0.00    -0.389 C  
HETATM    7  C   UNL     1     -13.497   9.494  71.429  1.00  0.00    -0.333 C  
ENDROOT
BRANCH   5   8
HETATM    8  C   UNL     1     -11.310   7.604  70.301  1.00  0.00    -0.181 C  
BRANCH   8   9
HETATM    9  C   UNL     1     -10.155   6.614  70.166  1.00  0.00    -0.200 C  
BRANCH   9  10
HETATM   10  C   UNL     1     -10.585   5.138  70.185  1.00  0.00    -0.155 C  
BRANCH  10  11
HETATM   11  N   UNL     1      -9.437   4.190  70.162  1.00  0.00    -0.166 NA 
HETATM   12  C   UNL     1      -8.794   3.983  71.428  1.00  0.00    -0.104 A  
HETATM   13  C   UNL     1      -9.417   4.330  72.653  1.00  0.00    -0.165 A  
HETATM   14  C   UNL     1      -8.757   4.270  73.884  1.00  0.00    -0.097 A  
HETATM   15  C   UNL     1      -7.460   3.797  73.946  1.00  0.00    -0.069 A  
HETATM   16  C   UNL     1      -6.844   3.367  72.776  1.00  0.00    -0.038 A  
HETATM   17  C   UNL     1      -7.497   3.451  71.529  1.00  0.00    -0.047 A  
HETATM   18  S   UNL     1      -6.556   2.869  70.146  1.00  0.00    -0.033 SA 
HETATM   19  C   UNL     1      -7.631   3.204  68.774  1.00  0.00    -0.048 A  
HETATM   20  C   UNL     1      -8.900   3.814  68.893  1.00  0.00    -0.109 A  
HETATM   21  C   UNL     1      -9.596   4.003  67.673  1.00  0.00    -0.210 A  
HETATM   22  C   UNL     1      -9.071   3.658  66.409  1.00  0.00    -0.162 A  
HETATM   23  C   UNL     1      -9.843   3.925  65.140  1.00  0.00    -0.184 C  
HETATM   24  C   UNL     1      -7.814   3.065  66.343  1.00  0.00    -0.077 A  
HETATM   25  F   UNL     1      -9.163   4.733  64.278  1.00  0.00    -0.157 F  
HETATM   26  F   UNL     1     -10.109   2.785  64.444  1.00  0.00    -0.152 F  
HETATM   27  F   UNL     1     -11.048   4.528  65.340  1.00  0.00    -0.356 F  
HETATM   28  C   UNL     1      -7.106   2.837  67.517  1.00  0.00    -0.053 A  
ENDBRANCH  10  11
ENDBRANCH   9  10
ENDBRANCH   8   9
ENDBRANCH   5   8
TORSDOF 4
ENDMDL
MODEL      193
REMARK 921   NORMALIZED FREE ENERGY PREDICTED BY IDOCK:   -4.00 KCAL/MOL
REMARK 922        TOTAL FREE ENERGY PREDICTED BY IDOCK:   -5.35 KCAL/MOL
REMARK 923 INTER-LIGAND FREE ENERGY PREDICTED BY IDOCK:   -5.62 KCAL/MOL
REMARK 924 INTRA-LIGAND FREE ENERGY PREDICTED BY IDOCK:    0.27 KCAL/MOL
REMARK 927      BINDING AFFINITY PREDICTED BY RF-SCORE:    0.00 PKD
ROOT
HETATM    1  C   UNL     1      -9.930  10.152  65.175  1.00  0.00    -0.309 C  
HETATM    2  N   UNL     1     -10.001   9.989  66.626  1.00  0.00    -0.205 NA 
HETATM    3  C   UNL     1     -10.625   8.697  66.979  1.00  0.00    -0.223 C  
HETATM    4  C   UNL     1      -9.715   7.470  66.743  1.00  0.00    -0.216 C  
HETATM    5  N   UNL     1      -8.404   7.551  67.420  1.00  0.00    -0.112 NA 
HETATM    6  C   UNL     1      -7.760   8.831  67.041  1.00  0.00    -0.095 C  
HETATM    7  C   UNL     1      -8.656  10.080  67.235  1.00  0.00    -0.125 C  
ENDROOT
BRANCH   5   8
HETATM    8  C   UNL     1      -8.507   7.457  68.886  1.00  0.00    -0.129 C  
BRANCH   8   9
HETATM    9  C   UNL     1      -8.169   8.756  69.616  1.00  0.00    -0.113 C  
BRANCH   9  10
HETATM   10  C   UNL     1      -8.167   8.636  71.148  1.00  0.00    -0.153 C  
BRANCH  10  11
HETATM   11  N   UNL     1      -9.507   8.317  71.715  1.00  0.00    -0.187 NA 
HETATM   12  C   UNL     1      -9.572   7.099  72.471  1.00  0.00    -0.146 A  
HETATM   13  C   UNL     1      -8.409   6.459  72.968  1.00  0.00    -0.116 A  
HETATM   14  C   UNL     1      -8.436   5.203  73.582  1.00  0.00    -0.112 A  
HETATM   15  C   UNL     1      -9.644   4.563  73.782  1.00  0.00    -0.140 A  
HETATM   16  C   UNL     1     -10.816   5.198  73.385  1.00  0.00    -0.359 A  
HETATM   17  C   UNL     1     -10.790   6.452  72.741  1.00  0.00    -0.248 A  
HETATM   18  S   UNL     1     -12.376   7.103  72.296  1.00  0.00    -0.023 SA 
HETATM   19  C   UNL     1     -11.957   8.606  71.450  1.00  0.00    -0.304 A  
HETATM   20  C   UNL     1     -10.634   9.050  71.233  1.00  0.00    -0.308 A  
HETATM   21  C   UNL     1     -10.515  10.272  70.525  1.00  0.00    -0.053 A  
HETATM   22  C   UNL     1     -11.616  10.998  70.023  1.00  0.00    -0.427 A  
HETATM   23  C   UNL     1     -11.424  12.272  69.238  1.00  0.00    -0.292 C  
HETATM   24  C   UNL     1     -12.900  10.516  70.257  1.00  0.00    -0.192 A  
HETATM   25  F   UNL     1     -11.962  12.199  67.987  1.00  0.00    -0.383 F  
HETATM   26  F   UNL     1     -12.018  13.344  69.833  1.00  0.00    -0.335 F  
HETATM   27  F   UNL     1     -10.120  12.623  69.060  1.00  0.00    -0.144 F  
HETATM   28  C   UNL     1     -13.065   9.334  70.969  1.00  0.00    -0.164 A  
ENDBRANCH  10  11
ENDBRANCH   9  10
ENDBRANCH   8   9
ENDBRANCH   5   8
TORSDOF 4
ENDMDL
MODEL      194
REMARK 921   NORMALIZED FREE ENERGY PREDICTED BY IDOCK:   -3.97 KCAL/MOL
REMARK 922        TOTAL FREE ENERGY PREDICTED BY IDOCK:   -5.31 KCAL/MOL
REMARK 923 INTER-LIGAND FREE ENERGY PREDICTED BY IDOCK:   -5.03 KCAL/MOL
REMARK 924 INTRA-LIGAND FREE ENERGY PREDICTED BY IDOCK:   -0.28 KCAL/MOL
REMARK 927      BINDING AFFINITY PREDICTED BY RF-SCORE:    0.00 PKD
ROOT
HETATM    1  C   UNL     1      -6.005   7.742  63.023  1.00  0.00    -0.066 C  
HETATM    2  N   UNL     1      -7.331   7.641  63.632  1.00  0.00    -0.086 NA 
HETATM    3  C   UNL     1      -7.395   8.429  64.881  1.00  0.00    -0.087 C  
HETATM    4  C   UNL     1      -7.457   9.958  64.662  1.00  0.00    -0.140 C  
HETATM    5  N   UNL     1      -8.556  10.398  63.779  1.00  0.00    -0.175 NA 
HETATM    6  C   UNL     1      -8.474   9.634  62.511  1.00  0.00    -0.176 C  
HETATM    7  C   UNL     1      -8.379   8.098  62.695  1.00  0.00    -0.102 C  
ENDROOT
BRANCH   5   8
HETATM    8  C   UNL     1      -9.886  10.219  64.385  1.00  0.00    -0.305 C  
BRANCH   8   9
HETATM    9  C   UNL     1     -10.516  11.515  64.893  1.00  0.00    -0.345 C  
BRANCH   9  10
HETATM   10  C   UNL     1     -10.680  11.579  66.420  1.00  0.00    -0.273 C  
BRANCH  10  11
HETATM   11  N   UNL     1      -9.402  11.378  67.159  1.00  0.00    -0.171 NA 
HETATM   12  C   UNL     1      -9.213  10.063  67.699  1.00  0.00    -0.137 A  
HETATM   13  C   UNL     1      -9.968   8.950  67.250  1.00  0.00    -0.277 A  
HETATM   14  C   UNL     1      -9.902   7.693  67.858  1.00  0.00    -0.190 A  
HETATM   15  C   UNL     1      -9.025   7.481  68.905  1.00  0.00    -0.134 A  
HETATM   16  C   UNL     1      -8.206   8.526  69.318  1.00  0.00    -0.115 A  
HETATM   17  C   UNL     1      -8.289   9.802  68.725  1.00  0.00    -0.113 A  
HETATM   18  S   UNL     1      -7.178  11.013  69.387  1.00  0.00    -0.081 SA 
HETATM   19  C   UNL     1      -7.617  12.478  68.486  1.00  0.00    -0.119 A  
HETATM   20  C   UNL     1      -8.642  12.534  67.516  1.00  0.00    -0.183 A  
HETATM   21  C   UNL     1      -8.842  13.804  66.920  1.00  0.00    -0.203 A  
HETATM   22  C   UNL     1      -8.116  14.961  67.277  1.00  0.00    -0.234 A  
HETATM   23  C   UNL     1      -8.404  16.297  66.637  1.00  0.00    -0.280 C  
HETATM   24  C   UNL     1      -7.120  14.856  68.242  1.00  0.00    -0.112 A  
HETATM   25  F   UNL     1      -8.756  17.246  67.551  1.00  0.00    -0.204 F  
HETATM   26  F   UNL     1      -7.325  16.802  65.978  1.00  0.00    -0.291 F  
HETATM   27  F   UNL     1      -9.415  16.268  65.725  1.00  0.00    -0.326 F  
HETATM   28  C   UNL     1      -6.872  13.624  68.835  1.00  0.00    -0.110 A  
ENDBRANCH  10  11
ENDBRANCH   9  10
ENDBRANCH   8   9
ENDBRANCH   5   8
TORSDOF 4
ENDMDL
MODEL      195
REMARK 921   NORMALIZED FREE ENERGY PREDICTED BY IDOCK:   -3.95 KCAL/MOL
REMARK 922        TOTAL FREE ENERGY PREDICTED BY IDOCK:   -5.29 KCAL/MOL
REMARK 923 INTER-LIGAND FREE ENERGY PREDICTED BY IDOCK:   -4.82 KCAL/MOL
REMARK 924 INTRA-LIGAND FREE ENERGY PREDICTED BY IDOCK:   -0.47 KCAL/MOL
REMARK 927      BINDING AFFINITY PREDICTED BY RF-SCORE:    0.00 PKD
ROOT
HETATM    1  C   UNL     1      -5.478   7.478  63.638  1.00  0.00    -0.041 C  
HETATM    2  N   UNL     1      -6.893   7.836  63.549  1.00  0.00    -0.062 NA 
HETATM    3  C   UNL     1      -7.739   6.788  64.157  1.00  0.00    -0.113 C  
HETATM    4  C   UNL     1      -7.698   6.759  65.702  1.00  0.00    -0.102 C  
HETATM    5  N   UNL     1      -8.030   8.050  66.339  1.00  0.00    -0.099 NA 
HETATM    6  C   UNL     1      -7.159   9.098  65.757  1.00  0.00    -0.085 C  
HETATM    7  C   UNL     1      -7.152   9.136  64.207  1.00  0.00    -0.095 C  
ENDROOT
BRANCH   5   8
HETATM    8  C   UNL     1      -9.444   8.426  66.174  1.00  0.00    -0.194 C  
BRANCH   8   9
HETATM    9  C   UNL     1     -10.313   8.123  67.394  1.00  0.00    -0.351 C  
BRANCH   9  10
HETATM   10  C   UNL     1     -10.602   9.345  68.280  1.00  0.00    -0.210 C  
BRANCH  10  11
HETATM   11  N   UNL     1      -9.487  10.331  68.307  1.00  0.00    -0.140 NA 
HETATM   12  C   UNL     1      -8.403   9.998  69.186  1.00  0.00    -0.146 A  
HETATM   13  C   UNL     1      -8.214   8.685  69.684  1.00  0.00    -0.114 A  
HETATM   14  C   UNL     1      -7.254   8.369  70.649  1.00  0.00    -0.051 A  
HETATM   15  C   UNL     1      -6.396   9.349  71.110  1.00  0.00    -0.074 A  
HETATM   16  C   UNL     1      -6.494  10.632  70.583  1.00  0.00     0.045 A  
HETATM   17  C   UNL     1      -7.479  10.960  69.629  1.00  0.00    -0.022 A  
HETATM   18  S   UNL     1      -7.462  12.644  69.078  1.00  0.00     0.186 SA 
HETATM   19  C   UNL     1      -8.857  12.709  67.982  1.00  0.00    -0.195 A  
HETATM   20  C   UNL     1      -9.708  11.614  67.718  1.00  0.00    -0.173 A  
HETATM   21  C   UNL     1     -10.773  11.879  66.821  1.00  0.00    -0.282 A  
HETATM   22  C   UNL     1     -11.020  13.145  66.248  1.00  0.00    -0.295 A  
HETATM   23  C   UNL     1     -12.197  13.376  65.333  1.00  0.00    -0.452 C  
HETATM   24  C   UNL     1     -10.156  14.194  66.544  1.00  0.00    -0.283 A  
HETATM   25  F   UNL     1     -13.034  14.346  65.799  1.00  0.00    -0.469 F  
HETATM   26  F   UNL     1     -11.817  13.782  64.090  1.00  0.00    -0.396 F  
HETATM   27  F   UNL     1     -12.976  12.275  65.142  1.00  0.00    -0.400 F  
HETATM   28  C   UNL     1      -9.083  13.974  67.399  1.00  0.00    -0.209 A  
ENDBRANCH  10  11
ENDBRANCH   9  10
ENDBRANCH   8   9
ENDBRANCH   5   8
TORSDOF 4
ENDMDL
MODEL      196
REMARK 921   NORMALIZED FREE ENERGY PREDICTED BY IDOCK:   -3.95 KCAL/MOL
REMARK 922        TOTAL FREE ENERGY PREDICTED BY IDOCK:   -5.29 KCAL/MOL
REMARK 923 INTER-LIGAND FREE ENERGY PREDICTED BY IDOCK:   -5.65 KCAL/MOL
REMARK 924 INTRA-LIGAND FREE ENERGY PREDICTED BY IDOCK:    0.37 KCAL/MOL
REMARK 927      BINDING AFFINITY PREDICTED BY RF-SCORE:    0.00 PKD
ROOT
HETATM    1  C   UNL     1      -9.118   4.790  64.964  1.00  0.00    -0.150 C  
HETATM    2  N   UNL     1      -8.286   5.191  66.098  1.00  0.00    -0.113 NA 
HETATM    3  C   UNL     1      -8.765   6.466  66.674  1.00  0.00    -0.127 C  
HETATM    4  C   UNL     1     -10.069   6.340  67.493  1.00  0.00    -0.154 C  
HETATM    5  N   UNL     1     -10.009   5.337  68.575  1.00  0.00    -0.159 NA 
HETATM    6  C   UNL     1      -9.563   4.048  67.996  1.00  0.00    -0.136 C  
HETATM    7  C   UNL     1      -8.273   4.143  67.142  1.00  0.00    -0.100 C  
ENDROOT
BRANCH   5   8
HETATM    8  C   UNL     1      -9.110   5.729  69.674  1.00  0.00    -0.135 C  
BRANCH   8   9
HETATM    9  C   UNL     1      -8.076   6.785  69.283  1.00  0.00    -0.120 C  
BRANCH   9  10
HETATM   10  C   UNL     1      -8.199   8.105  70.060  1.00  0.00    -0.120 C  
BRANCH  10  11
HETATM   11  N   UNL     1      -8.840   9.194  69.273  1.00  0.00    -0.140 NA 
HETATM   12  C   UNL     1      -7.966   9.886  68.370  1.00  0.00    -0.096 A  
HETATM   13  C   UNL     1      -6.719   9.345  67.967  1.00  0.00    -0.063 A  
HETATM   14  C   UNL     1      -5.792  10.060  67.204  1.00  0.00    -0.050 A  
HETATM   15  C   UNL     1      -6.105  11.330  66.756  1.00  0.00    -0.131 A  
HETATM   16  C   UNL     1      -7.353  11.862  67.059  1.00  0.00    -0.118 A  
HETATM   17  C   UNL     1      -8.280  11.154  67.851  1.00  0.00    -0.121 A  
HETATM   18  S   UNL     1      -9.814  11.991  68.144  1.00  0.00    -0.204 SA 
HETATM   19  C   UNL     1     -10.670  10.870  69.221  1.00  0.00    -0.231 A  
HETATM   20  C   UNL     1     -10.134   9.646  69.677  1.00  0.00    -0.224 A  
HETATM   21  C   UNL     1     -10.976   8.902  70.542  1.00  0.00    -0.280 A  
HETATM   22  C   UNL     1     -12.247   9.343  70.969  1.00  0.00    -0.354 A  
HETATM   23  C   UNL     1     -13.080   8.526  71.926  1.00  0.00    -0.362 C  
HETATM   24  C   UNL     1     -12.729  10.559  70.496  1.00  0.00    -0.385 A  
HETATM   25  F   UNL     1     -13.378   9.207  73.068  1.00  0.00    -0.454 F  
HETATM   26  F   UNL     1     -14.278   8.161  71.391  1.00  0.00    -0.405 F  
HETATM   27  F   UNL     1     -12.486   7.368  72.329  1.00  0.00    -0.297 F  
HETATM   28  C   UNL     1     -11.947  11.310  69.626  1.00  0.00    -0.423 A  
ENDBRANCH  10  11
ENDBRANCH   9  10
ENDBRANCH   8   9
ENDBRANCH   5   8
TORSDOF 4
ENDMDL
MODEL      197
REMARK 921   NORMALIZED FREE ENERGY PREDICTED BY IDOCK:   -3.95 KCAL/MOL
REMARK 922        TOTAL FREE ENERGY PREDICTED BY IDOCK:   -5.28 KCAL/MOL
REMARK 923 INTER-LIGAND FREE ENERGY PREDICTED BY IDOCK:   -4.74 KCAL/MOL
REMARK 924 INTRA-LIGAND FREE ENERGY PREDICTED BY IDOCK:   -0.55 KCAL/MOL
REMARK 927      BINDING AFFINITY PREDICTED BY RF-SCORE:    0.00 PKD
ROOT
HETATM    1  C   UNL     1      -7.976   4.783  65.440  1.00  0.00    -0.099 C  
HETATM    2  N   UNL     1      -9.171   5.578  65.724  1.00  0.00    -0.149 NA 
HETATM    3  C   UNL     1     -10.197   4.758  66.400  1.00  0.00    -0.275 C  
HETATM    4  C   UNL     1      -9.882   4.442  67.880  1.00  0.00    -0.080 C  
HETATM    5  N   UNL     1      -9.623   5.636  68.710  1.00  0.00    -0.125 NA 
HETATM    6  C   UNL     1      -8.568   6.444  68.053  1.00  0.00    -0.117 C  
HETATM    7  C   UNL     1      -8.837   6.753  66.558  1.00  0.00    -0.143 C  
ENDROOT
BRANCH   5   8
HETATM    8  C   UNL     1     -10.824   6.461  68.923  1.00  0.00    -0.325 C  
BRANCH   8   9
HETATM    9  C   UNL     1     -11.413   6.348  70.328  1.00  0.00    -0.468 C  
BRANCH   9  10
HETATM   10  C   UNL     1     -11.431   7.670  71.112  1.00  0.00    -0.275 C  
BRANCH  10  11
HETATM   11  N   UNL     1     -10.229   8.514  70.871  1.00  0.00    -0.193 NA 
HETATM   12  C   UNL     1     -10.442   9.645  70.013  1.00  0.00    -0.261 A  
HETATM   13  C   UNL     1     -11.740  10.144  69.736  1.00  0.00    -0.205 A  
HETATM   14  C   UNL     1     -11.981  11.150  68.796  1.00  0.00    -0.337 A  
HETATM   15  C   UNL     1     -10.921  11.745  68.139  1.00  0.00    -0.275 A  
HETATM   16  C   UNL     1      -9.626  11.341  68.447  1.00  0.00    -0.195 A  
HETATM   17  C   UNL     1      -9.381  10.308  69.374  1.00  0.00    -0.199 A  
HETATM   18  S   UNL     1      -7.672   9.919  69.632  1.00  0.00    -0.166 SA 
HETATM   19  C   UNL     1      -7.750   8.551  70.761  1.00  0.00    -0.087 A  
HETATM   20  C   UNL     1      -8.953   7.991  71.244  1.00  0.00    -0.139 A  
HETATM   21  C   UNL     1      -8.796   6.895  72.129  1.00  0.00    -0.136 A  
HETATM   22  C   UNL     1      -7.545   6.351  72.491  1.00  0.00    -0.100 A  
HETATM   23  C   UNL     1      -7.444   5.155  73.404  1.00  0.00    -0.095 C  
HETATM   24  C   UNL     1      -6.388   6.935  71.984  1.00  0.00    -0.045 A  
HETATM   25  F   UNL     1      -6.797   4.107  72.819  1.00  0.00    -0.039 F  
HETATM   26  F   UNL     1      -6.749   5.428  74.543  1.00  0.00    -0.070 F  
HETATM   27  F   UNL     1      -8.648   4.665  73.813  1.00  0.00    -0.102 F  
HETATM   28  C   UNL     1      -6.494   8.028  71.132  1.00  0.00    -0.038 A  
ENDBRANCH  10  11
ENDBRANCH   9  10
ENDBRANCH   8   9
ENDBRANCH   5   8
TORSDOF 4
ENDMDL
MODEL      198
REMARK 921   NORMALIZED FREE ENERGY PREDICTED BY IDOCK:   -3.91 KCAL/MOL
REMARK 922        TOTAL FREE ENERGY PREDICTED BY IDOCK:   -5.24 KCAL/MOL
REMARK 923 INTER-LIGAND FREE ENERGY PREDICTED BY IDOCK:   -4.88 KCAL/MOL
REMARK 924 INTRA-LIGAND FREE ENERGY PREDICTED BY IDOCK:   -0.36 KCAL/MOL
REMARK 927      BINDING AFFINITY PREDICTED BY RF-SCORE:    0.00 PKD
ROOT
HETATM    1  C   UNL     1      -7.384  13.517  67.801  1.00  0.00    -0.163 C  
HETATM    2  N   UNL     1      -8.015  12.467  68.599  1.00  0.00    -0.090 NA 
HETATM    3  C   UNL     1      -9.389  12.201  68.123  1.00  0.00    -0.204 C  
HETATM    4  C   UNL     1      -9.457  11.424  66.789  1.00  0.00    -0.182 C  
HETATM    5  N   UNL     1      -8.713  10.148  66.794  1.00  0.00    -0.126 NA 
HETATM    6  C   UNL     1      -7.324  10.416  67.237  1.00  0.00    -0.090 C  
HETATM    7  C   UNL     1      -7.219  11.221  68.558  1.00  0.00    -0.094 C  
ENDROOT
BRANCH   5   8
HETATM    8  C   UNL     1      -9.326   9.128  67.661  1.00  0.00    -0.135 C  
BRANCH   8   9
HETATM    9  C   UNL     1      -9.600   7.799  66.959  1.00  0.00    -0.238 C  
BRANCH   9  10
HETATM   10  C   UNL     1     -10.505   6.843  67.752  1.00  0.00    -0.223 C  
BRANCH  10  11
HETATM   11  N   UNL     1      -9.783   5.656  68.288  1.00  0.00    -0.124 NA 
HETATM   12  C   UNL     1      -9.568   4.598  67.343  1.00  0.00    -0.167 A  
HETATM   13  C   UNL     1      -9.674   4.805  65.945  1.00  0.00    -0.203 A  
HETATM   14  C   UNL     1      -9.610   3.763  65.015  1.00  0.00    -0.177 A  
HETATM   15  C   UNL     1      -9.371   2.472  65.447  1.00  0.00    -0.042 A  
HETATM   16  C   UNL     1      -9.177   2.241  66.804  1.00  0.00    -0.048 A  
HETATM   17  C   UNL     1      -9.268   3.285  67.747  1.00  0.00    -0.195 A  
HETATM   18  S   UNL     1      -9.003   2.804  69.431  1.00  0.00    -0.122 SA 
HETATM   19  C   UNL     1      -9.278   4.319  70.316  1.00  0.00    -0.133 A  
HETATM   20  C   UNL     1      -9.637   5.539  69.704  1.00  0.00    -0.158 A  
HETATM   21  C   UNL     1      -9.822   6.629  70.592  1.00  0.00    -0.198 A  
HETATM   22  C   UNL     1      -9.703   6.527  71.994  1.00  0.00    -0.156 A  
HETATM   23  C   UNL     1      -9.954   7.714  72.891  1.00  0.00    -0.261 C  
HETATM   24  C   UNL     1      -9.353   5.301  72.550  1.00  0.00    -0.154 A  
HETATM   25  F   UNL     1     -10.953   7.484  73.791  1.00  0.00    -0.390 F  
HETATM   26  F   UNL     1      -8.860   8.047  73.631  1.00  0.00    -0.253 F  
HETATM   27  F   UNL     1     -10.310   8.847  72.225  1.00  0.00    -0.382 F  
HETATM   28  C   UNL     1      -9.138   4.211  71.716  1.00  0.00    -0.168 A  
ENDBRANCH  10  11
ENDBRANCH   9  10
ENDBRANCH   8   9
ENDBRANCH   5   8
TORSDOF 4
ENDMDL
MODEL      199
REMARK 921   NORMALIZED FREE ENERGY PREDICTED BY IDOCK:   -3.88 KCAL/MOL
REMARK 922        TOTAL FREE ENERGY PREDICTED BY IDOCK:   -5.20 KCAL/MOL
REMARK 923 INTER-LIGAND FREE ENERGY PREDICTED BY IDOCK:   -4.91 KCAL/MOL
REMARK 924 INTRA-LIGAND FREE ENERGY PREDICTED BY IDOCK:   -0.29 KCAL/MOL
REMARK 927      BINDING AFFINITY PREDICTED BY RF-SCORE:    0.00 PKD
ROOT
HETATM    1  C   UNL     1      -7.431   6.608  62.361  1.00  0.00    -0.071 C  
HETATM    2  N   UNL     1      -6.582   7.264  63.354  1.00  0.00    -0.052 NA 
HETATM    3  C   UNL     1      -7.051   8.641  63.618  1.00  0.00    -0.089 C  
HETATM    4  C   UNL     1      -8.343   8.718  64.464  1.00  0.00    -0.162 C  
HETATM    5  N   UNL     1      -8.265   8.000  65.752  1.00  0.00    -0.124 NA 
HETATM    6  C   UNL     1      -7.828   6.608  65.488  1.00  0.00    -0.108 C  
HETATM    7  C   UNL     1      -6.552   6.493  64.616  1.00  0.00    -0.038 C  
ENDROOT
BRANCH   5   8
HETATM    8  C   UNL     1      -7.349   8.638  66.712  1.00  0.00    -0.079 C  
BRANCH   8   9
HETATM    9  C   UNL     1      -7.873   8.665  68.147  1.00  0.00    -0.103 C  
BRANCH   9  10
HETATM   10  C   UNL     1      -8.832   7.514  68.489  1.00  0.00    -0.126 C  
BRANCH  10  11
HETATM   11  N   UNL     1      -8.786   7.114  69.922  1.00  0.00    -0.141 NA 
HETATM   12  C   UNL     1      -7.870   6.052  70.228  1.00  0.00    -0.102 A  
HETATM   13  C   UNL     1      -6.828   5.680  69.343  1.00  0.00    -0.061 A  
HETATM   14  C   UNL     1      -6.016   4.561  69.552  1.00  0.00    -0.018 A  
HETATM   15  C   UNL     1      -6.176   3.803  70.697  1.00  0.00    -0.019 A  
HETATM   16  C   UNL     1      -7.132   4.186  71.630  1.00  0.00    -0.046 A  
HETATM   17  C   UNL     1      -7.970   5.298  71.409  1.00  0.00    -0.114 A  
HETATM   18  S   UNL     1      -9.136   5.630  72.701  1.00  0.00    -0.130 SA 
HETATM   19  C   UNL     1     -10.054   7.005  72.052  1.00  0.00    -0.185 A  
HETATM   20  C   UNL     1      -9.821   7.585  70.786  1.00  0.00    -0.178 A  
HETATM   21  C   UNL     1     -10.673   8.667  70.453  1.00  0.00    -0.248 A  
HETATM   22  C   UNL     1     -11.715   9.131  71.284  1.00  0.00    -0.396 A  
HETATM   23  C   UNL     1     -12.618  10.261  70.854  1.00  0.00    -0.371 C  
HETATM   24  C   UNL     1     -11.908   8.523  72.520  1.00  0.00    -0.398 A  
HETATM   25  F   UNL     1     -13.930   9.893  70.818  1.00  0.00    -0.327 F  
HETATM   26  F   UNL     1     -12.556  11.326  71.701  1.00  0.00    -0.446 F  
HETATM   27  F   UNL     1     -12.338  10.755  69.616  1.00  0.00    -0.356 F  
HETATM   28  C   UNL     1     -11.080   7.473  72.900  1.00  0.00    -0.426 A  
ENDBRANCH  10  11
ENDBRANCH   9  10
ENDBRANCH   8   9
ENDBRANCH   5   8
TORSDOF 4
ENDMDL
MODEL      200
REMARK 921   NORMALIZED FREE ENERGY PREDICTED BY IDOCK:   -3.87 KCAL/MOL
REMARK 922        TOTAL FREE ENERGY PREDICTED BY IDOCK:   -5.20 KCAL/MOL
REMARK 923 INTER-LIGAND FREE ENERGY PREDICTED BY IDOCK:   -5.27 KCAL/MOL
REMARK 924 INTRA-LIGAND FREE ENERGY PREDICTED BY IDOCK:    0.08 KCAL/MOL
REMARK 927      BINDING AFFINITY PREDICTED BY RF-SCORE:    0.00 PKD
ROOT
HETATM    1  C   UNL     1      -5.843   9.627  64.545  1.00  0.00    -0.083 C  
HETATM    2  N   UNL     1      -6.419   9.278  65.843  1.00  0.00    -0.070 NA 
HETATM    3  C   UNL     1      -7.521  10.198  66.193  1.00  0.00    -0.115 C  
HETATM    4  C   UNL     1      -8.822   9.961  65.393  1.00  0.00    -0.168 C  
HETATM    5  N   UNL     1      -9.333   8.577  65.467  1.00  0.00    -0.057 NA 
HETATM    6  C   UNL     1      -8.241   7.652  65.083  1.00  0.00    -0.128 C  
HETATM    7  C   UNL     1      -6.910   7.882  65.845  1.00  0.00    -0.057 C  
ENDROOT
BRANCH   5   8
HETATM    8  C   UNL     1      -9.841   8.223  66.804  1.00  0.00    -0.263 C  
BRANCH   8   9
HETATM    9  C   UNL     1      -9.870   9.392  67.787  1.00  0.00    -0.207 C  
BRANCH   9  10
HETATM   10  C   UNL     1      -9.400   9.034  69.205  1.00  0.00    -0.150 C  
BRANCH  10  11
HETATM   11  N   UNL     1     -10.416   8.278  69.989  1.00  0.00    -0.226 NA 
HETATM   12  C   UNL     1     -11.449   9.080  70.578  1.00  0.00    -0.212 A  
HETATM   13  C   UNL     1     -11.714  10.403  70.144  1.00  0.00    -0.394 A  
HETATM   14  C   UNL     1     -12.616  11.250  70.794  1.00  0.00    -0.425 A  
HETATM   15  C   UNL     1     -13.340  10.782  71.874  1.00  0.00    -0.445 A  
HETATM   16  C   UNL     1     -13.170   9.463  72.277  1.00  0.00    -0.528 A  
HETATM   17  C   UNL     1     -12.242   8.614  71.641  1.00  0.00    -0.333 A  
HETATM   18  S   UNL     1     -12.152   6.970  72.296  1.00  0.00    -0.115 SA 
HETATM   19  C   UNL     1     -10.852   6.238  71.334  1.00  0.00    -0.261 A  
HETATM   20  C   UNL     1     -10.129   6.921  70.331  1.00  0.00    -0.187 A  
HETATM   21  C   UNL     1      -9.122   6.158  69.688  1.00  0.00    -0.139 A  
HETATM   22  C   UNL     1      -8.810   4.825  70.029  1.00  0.00    -0.122 A  
HETATM   23  C   UNL     1      -7.696   4.078  69.337  1.00  0.00    -0.053 C  
HETATM   24  C   UNL     1      -9.548   4.197  71.027  1.00  0.00    -0.253 A  
HETATM   25  F   UNL     1      -6.738   3.649  70.207  1.00  0.00    -0.030 F  
HETATM   26  F   UNL     1      -8.139   2.961  68.695  1.00  0.00    -0.056 F  
HETATM   27  F   UNL     1      -7.039   4.810  68.395  1.00  0.00    -0.053 F  
HETATM   28  C   UNL     1     -10.562   4.899  71.668  1.00  0.00    -0.143 A  
ENDBRANCH  10  11
ENDBRANCH   9  10
ENDBRANCH   8   9
ENDBRANCH   5   8
TORSDOF 4
ENDMDL
MODEL      201
REMARK 921   NORMALIZED FREE ENERGY PREDICTED BY IDOCK:   -3.85 KCAL/MOL
REMARK 922        TOTAL FREE ENERGY PREDICTED BY IDOCK:   -5.17 KCAL/MOL
REMARK 923 INTER-LIGAND FREE ENERGY PREDICTED BY IDOCK:   -5.52 KCAL/MOL
REMARK 924 INTRA-LIGAND FREE ENERGY PREDICTED BY IDOCK:    0.35 KCAL/MOL
REMARK 927      BINDING AFFINITY PREDICTED BY RF-SCORE:    0.00 PKD
ROOT
HETATM    1  C   UNL     1      -8.006   8.453  63.438  1.00  0.00    -0.160 C  
HETATM    2  N   UNL     1      -7.796   9.837  63.859  1.00  0.00    -0.137 NA 
HETATM    3  C   UNL     1      -8.261  10.778  62.817  1.00  0.00    -0.119 C  
HETATM    4  C   UNL     1      -9.798  10.894  62.711  1.00  0.00    -0.215 C  
HETATM    5  N   UNL     1     -10.467  11.242  63.981  1.00  0.00    -0.351 NA 
HETATM    6  C   UNL     1     -10.030  10.279  65.020  1.00  0.00    -0.323 C  
HETATM    7  C   UNL     1      -8.493  10.115  65.133  1.00  0.00    -0.161 C  
ENDROOT
BRANCH   5   8
HETATM    8  C   UNL     1     -10.183  12.618  64.423  1.00  0.00    -0.318 C  
BRANCH   8   9
HETATM    9  C   UNL     1     -10.285  12.818  65.934  1.00  0.00    -0.300 C  
BRANCH   9  10
HETATM   10  C   UNL     1     -10.684  14.241  66.355  1.00  0.00    -0.297 C  
BRANCH  10  11
HETATM   11  N   UNL     1      -9.708  14.875  67.285  1.00  0.00    -0.226 NA 
HETATM   12  C   UNL     1      -9.561  16.295  67.136  1.00  0.00    -0.233 A  
HETATM   13  C   UNL     1     -10.521  17.083  66.453  1.00  0.00    -0.252 A  
HETATM   14  C   UNL     1     -10.330  18.439  66.172  1.00  0.00    -0.431 A  
HETATM   15  C   UNL     1      -9.192  19.079  66.624  1.00  0.00    -0.351 A  
HETATM   16  C   UNL     1      -8.266  18.360  67.371  1.00  0.00    -0.248 A  
HETATM   17  C   UNL     1      -8.443  16.986  67.633  1.00  0.00    -0.205 A  
HETATM   18  S   UNL     1      -7.158  16.230  68.590  1.00  0.00    -0.166 SA 
HETATM   19  C   UNL     1      -7.659  14.528  68.641  1.00  0.00    -0.131 A  
HETATM   20  C   UNL     1      -8.817  14.025  68.008  1.00  0.00    -0.181 A  
HETATM   21  C   UNL     1      -9.031  12.632  68.160  1.00  0.00    -0.199 A  
HETATM   22  C   UNL     1      -8.150  11.774  68.852  1.00  0.00     0.029 A  
HETATM   23  C   UNL     1      -8.410  10.290  68.942  1.00  0.00    -0.136 C  
HETATM   24  C   UNL     1      -7.019  12.317  69.453  1.00  0.00     0.067 A  
HETATM   25  F   UNL     1      -7.392   9.551  68.416  1.00  0.00    -0.073 F  
HETATM   26  F   UNL     1      -8.548   9.864  70.229  1.00  0.00    -0.197 F  
HETATM   27  F   UNL     1      -9.537   9.884  68.294  1.00  0.00    -0.137 F  
HETATM   28  C   UNL     1      -6.782  13.682  69.351  1.00  0.00    -0.063 A  
ENDBRANCH  10  11
ENDBRANCH   9  10
ENDBRANCH   8   9
ENDBRANCH   5   8
TORSDOF 4
ENDMDL
MODEL      202
REMARK 921   NORMALIZED FREE ENERGY PREDICTED BY IDOCK:   -3.84 KCAL/MOL
REMARK 922        TOTAL FREE ENERGY PREDICTED BY IDOCK:   -5.15 KCAL/MOL
REMARK 923 INTER-LIGAND FREE ENERGY PREDICTED BY IDOCK:   -4.39 KCAL/MOL
REMARK 924 INTRA-LIGAND FREE ENERGY PREDICTED BY IDOCK:   -0.76 KCAL/MOL
REMARK 927      BINDING AFFINITY PREDICTED BY RF-SCORE:    0.00 PKD
ROOT
HETATM    1  C   UNL     1     -10.162   3.044  72.375  1.00  0.00    -0.130 C  
HETATM    2  N   UNL     1      -9.846   4.225  73.177  1.00  0.00    -0.131 NA 
HETATM    3  C   UNL     1      -8.399   4.522  73.127  1.00  0.00    -0.099 C  
HETATM    4  C   UNL     1      -7.923   5.129  71.787  1.00  0.00    -0.111 C  
HETATM    5  N   UNL     1      -8.659   6.343  71.379  1.00  0.00    -0.130 NA 
HETATM    6  C   UNL     1     -10.109   6.039  71.394  1.00  0.00    -0.193 C  
HETATM    7  C   UNL     1     -10.616   5.400  72.713  1.00  0.00    -0.229 C  
ENDROOT
BRANCH   5   8
HETATM    8  C   UNL     1      -8.381   7.502  72.245  1.00  0.00    -0.103 C  
BRANCH   8   9
HETATM    9  C   UNL     1      -8.254   8.824  71.490  1.00  0.00    -0.190 C  
BRANCH   9  10
HETATM   10  C   UNL     1      -7.082   8.870  70.496  1.00  0.00    -0.064 C  
BRANCH  10  11
HETATM   11  N   UNL     1      -7.302   9.820  69.370  1.00  0.00    -0.079 NA 
HETATM   12  C   UNL     1      -6.767  11.136  69.572  1.00  0.00    -0.132 A  
HETATM   13  C   UNL     1      -5.788  11.407  70.561  1.00  0.00    -0.131 A  
HETATM   14  C   UNL     1      -5.358  12.700  70.871  1.00  0.00    -0.172 A  
HETATM   15  C   UNL     1      -5.847  13.776  70.153  1.00  0.00    -0.142 A  
HETATM   16  C   UNL     1      -6.745  13.542  69.118  1.00  0.00    -0.103 A  
HETATM   17  C   UNL     1      -7.201  12.242  68.821  1.00  0.00    -0.098 A  
HETATM   18  S   UNL     1      -8.351  12.136  67.478  1.00  0.00    -0.177 SA 
HETATM   19  C   UNL     1      -8.763  10.409  67.453  1.00  0.00    -0.125 A  
HETATM   20  C   UNL     1      -8.243   9.458  68.359  1.00  0.00    -0.117 A  
HETATM   21  C   UNL     1      -8.709   8.132  68.176  1.00  0.00    -0.136 A  
HETATM   22  C   UNL     1      -9.655   7.761  67.196  1.00  0.00    -0.220 A  
HETATM   23  C   UNL     1     -10.146   6.339  67.078  1.00  0.00    -0.176 C  
HETATM   24  C   UNL     1     -10.142   8.736  66.331  1.00  0.00    -0.313 A  
HETATM   25  F   UNL     1     -11.497   6.241  67.229  1.00  0.00    -0.366 F  
HETATM   26  F   UNL     1      -9.870   5.793  65.861  1.00  0.00    -0.158 F  
HETATM   27  F   UNL     1      -9.608   5.489  67.996  1.00  0.00    -0.114 F  
HETATM   28  C   UNL     1      -9.694  10.045  66.458  1.00  0.00    -0.254 A  
ENDBRANCH  10  11
ENDBRANCH   9  10
ENDBRANCH   8   9
ENDBRANCH   5   8
TORSDOF 4
ENDMDL
MODEL      203
REMARK 921   NORMALIZED FREE ENERGY PREDICTED BY IDOCK:   -3.83 KCAL/MOL
REMARK 922        TOTAL FREE ENERGY PREDICTED BY IDOCK:   -5.14 KCAL/MOL
REMARK 923 INTER-LIGAND FREE ENERGY PREDICTED BY IDOCK:   -4.87 KCAL/MOL
REMARK 924 INTRA-LIGAND FREE ENERGY PREDICTED BY IDOCK:   -0.27 KCAL/MOL
REMARK 927      BINDING AFFINITY PREDICTED BY RF-SCORE:    0.00 PKD
ROOT
HETATM    1  C   UNL     1      -5.319   3.291  73.357  1.00  0.00     0.000 C  
HETATM    2  N   UNL     1      -5.326   3.665  71.943  1.00  0.00     0.000 NA 
HETATM    3  C   UNL     1      -6.395   2.948  71.217  1.00  0.00    -0.019 C  
HETATM    4  C   UNL     1      -7.819   3.472  71.509  1.00  0.00    -0.057 C  
HETATM    5  N   UNL     1      -7.990   4.920  71.273  1.00  0.00    -0.098 NA 
HETATM    6  C   UNL     1      -6.941   5.645  72.028  1.00  0.00    -0.080 C  
HETATM    7  C   UNL     1      -5.502   5.125  71.783  1.00  0.00    -0.005 C  
ENDROOT
BRANCH   5   8
HETATM    8  C   UNL     1      -7.921   5.283  69.847  1.00  0.00    -0.083 C  
BRANCH   8   9
HETATM    9  C   UNL     1      -8.823   6.454  69.461  1.00  0.00    -0.136 C  
BRANCH   9  10
HETATM   10  C   UNL     1      -8.342   7.818  69.983  1.00  0.00    -0.130 C  
BRANCH  10  11
HETATM   11  N   UNL     1      -8.893   8.969  69.216  1.00  0.00    -0.137 NA 
HETATM   12  C   UNL     1      -7.966   9.605  68.325  1.00  0.00    -0.096 A  
HETATM   13  C   UNL     1      -6.766   8.974  67.911  1.00  0.00    -0.068 A  
HETATM   14  C   UNL     1      -5.784   9.626  67.160  1.00  0.00    -0.051 A  
HETATM   15  C   UNL     1      -5.994  10.925  66.736  1.00  0.00    -0.087 A  
HETATM   16  C   UNL     1      -7.196  11.550  67.050  1.00  0.00    -0.146 A  
HETATM   17  C   UNL     1      -8.177  10.904  67.830  1.00  0.00    -0.116 A  
HETATM   18  S   UNL     1      -9.639  11.856  68.140  1.00  0.00    -0.197 SA 
HETATM   19  C   UNL     1     -10.583  10.787  69.197  1.00  0.00    -0.222 A  
HETATM   20  C   UNL     1     -10.146   9.516  69.630  1.00  0.00    -0.212 A  
HETATM   21  C   UNL     1     -11.046   8.826  70.482  1.00  0.00    -0.278 A  
HETATM   22  C   UNL     1     -12.277   9.359  70.919  1.00  0.00    -0.297 A  
HETATM   23  C   UNL     1     -13.173   8.594  71.861  1.00  0.00    -0.375 C  
HETATM   24  C   UNL     1     -12.660  10.619  70.469  1.00  0.00    -0.433 A  
HETATM   25  F   UNL     1     -13.416   9.276  73.017  1.00  0.00    -0.426 F  
HETATM   26  F   UNL     1     -14.397   8.336  71.321  1.00  0.00    -0.422 F  
HETATM   27  F   UNL     1     -12.674   7.386  72.243  1.00  0.00    -0.272 F  
HETATM   28  C   UNL     1     -11.821  11.321  69.612  1.00  0.00    -0.430 A  
ENDBRANCH  10  11
ENDBRANCH   9  10
ENDBRANCH   8   9
ENDBRANCH   5   8
TORSDOF 4
ENDMDL
MODEL      204
REMARK 921   NORMALIZED FREE ENERGY PREDICTED BY IDOCK:   -3.83 KCAL/MOL
REMARK 922        TOTAL FREE ENERGY PREDICTED BY IDOCK:   -5.14 KCAL/MOL
REMARK 923 INTER-LIGAND FREE ENERGY PREDICTED BY IDOCK:   -4.64 KCAL/MOL
REMARK 924 INTRA-LIGAND FREE ENERGY PREDICTED BY IDOCK:   -0.50 KCAL/MOL
REMARK 927      BINDING AFFINITY PREDICTED BY RF-SCORE:    0.00 PKD
ROOT
HETATM    1  C   UNL     1      -5.147   5.963  69.267  1.00  0.00    -0.004 C  
HETATM    2  N   UNL     1      -5.455   7.223  69.944  1.00  0.00    -0.023 NA 
HETATM    3  C   UNL     1      -5.719   8.295  68.961  1.00  0.00    -0.035 C  
HETATM    4  C   UNL     1      -7.087   8.178  68.251  1.00  0.00    -0.081 C  
HETATM    5  N   UNL     1      -8.240   8.097  69.170  1.00  0.00    -0.121 NA 
HETATM    6  C   UNL     1      -7.995   7.000  70.136  1.00  0.00    -0.114 C  
HETATM    7  C   UNL     1      -6.618   7.069  70.845  1.00  0.00    -0.048 C  
ENDROOT
BRANCH   5   8
HETATM    8  C   UNL     1      -8.487   9.355  69.895  1.00  0.00    -0.177 C  
BRANCH   8   9
HETATM    9  C   UNL     1      -9.964   9.631  70.174  1.00  0.00    -0.309 C  
BRANCH   9  10
HETATM   10  C   UNL     1     -10.816   9.836  68.911  1.00  0.00    -0.192 C  
BRANCH  10  11
HETATM   11  N   UNL     1     -10.619  11.170  68.278  1.00  0.00    -0.180 NA 
HETATM   12  C   UNL     1     -11.250  12.264  68.957  1.00  0.00    -0.265 A  
HETATM   13  C   UNL     1     -11.687  12.164  70.302  1.00  0.00    -0.240 A  
HETATM   14  C   UNL     1     -12.429  13.164  70.936  1.00  0.00    -0.407 A  
HETATM   15  C   UNL     1     -12.711  14.340  70.266  1.00  0.00    -0.305 A  
HETATM   16  C   UNL     1     -12.226  14.510  68.974  1.00  0.00    -0.215 A  
HETATM   17  C   UNL     1     -11.500  13.493  68.322  1.00  0.00    -0.310 A  
HETATM   18  S   UNL     1     -10.973  13.881  66.676  1.00  0.00    -0.305 SA 
HETATM   19  C   UNL     1     -10.191  12.376  66.152  1.00  0.00    -0.242 A  
HETATM   20  C   UNL     1     -10.100  11.213  66.948  1.00  0.00    -0.214 A  
HETATM   21  C   UNL     1      -9.447  10.113  66.337  1.00  0.00    -0.223 A  
HETATM   22  C   UNL     1      -8.948  10.131  65.017  1.00  0.00    -0.227 A  
HETATM   23  C   UNL     1      -8.300   8.913  64.406  1.00  0.00    -0.168 C  
HETATM   24  C   UNL     1      -9.067  11.299  64.271  1.00  0.00     0.024 A  
HETATM   25  F   UNL     1      -8.938   8.496  63.276  1.00  0.00    -0.033 F  
HETATM   26  F   UNL     1      -7.008   9.141  64.038  1.00  0.00    -0.087 F  
HETATM   27  F   UNL     1      -8.265   7.831  65.232  1.00  0.00    -0.117 F  
HETATM   28  C   UNL     1      -9.679  12.411  64.838  1.00  0.00    -0.019 A  
ENDBRANCH  10  11
ENDBRANCH   9  10
ENDBRANCH   8   9
ENDBRANCH   5   8
TORSDOF 4
ENDMDL
MODEL      205
REMARK 921   NORMALIZED FREE ENERGY PREDICTED BY IDOCK:   -3.82 KCAL/MOL
REMARK 922        TOTAL FREE ENERGY PREDICTED BY IDOCK:   -5.13 KCAL/MOL
REMARK 923 INTER-LIGAND FREE ENERGY PREDICTED BY IDOCK:   -4.60 KCAL/MOL
REMARK 924 INTRA-LIGAND FREE ENERGY PREDICTED BY IDOCK:   -0.53 KCAL/MOL
REMARK 927      BINDING AFFINITY PREDICTED BY RF-SCORE:    0.00 PKD
ROOT
HETATM    1  C   UNL     1     -10.732  14.516  66.174  1.00  0.00    -0.310 C  
HETATM    2  N   UNL     1     -10.144  14.089  67.443  1.00  0.00    -0.242 NA 
HETATM    3  C   UNL     1     -11.100  13.269  68.215  1.00  0.00    -0.266 C  
HETATM    4  C   UNL     1     -11.296  11.838  67.663  1.00  0.00    -0.302 C  
HETATM    5  N   UNL     1     -10.043  11.071  67.514  1.00  0.00    -0.177 NA 
HETATM    6  C   UNL     1      -9.093  11.876  66.710  1.00  0.00    -0.197 C  
HETATM    7  C   UNL     1      -8.896  13.327  67.217  1.00  0.00    -0.216 C  
ENDROOT
BRANCH   5   8
HETATM    8  C   UNL     1      -9.429  10.715  68.804  1.00  0.00    -0.183 C  
BRANCH   8   9
HETATM    9  C   UNL     1      -7.933  10.416  68.718  1.00  0.00    -0.122 C  
BRANCH   9  10
HETATM   10  C   UNL     1      -7.548   8.998  69.167  1.00  0.00    -0.073 C  
BRANCH  10  11
HETATM   11  N   UNL     1      -8.406   7.937  68.571  1.00  0.00    -0.127 NA 
HETATM   12  C   UNL     1      -9.159   7.163  69.515  1.00  0.00    -0.146 A  
HETATM   13  C   UNL     1      -9.378   7.604  70.845  1.00  0.00    -0.158 A  
HETATM   14  C   UNL     1      -9.984   6.806  71.819  1.00  0.00    -0.184 A  
HETATM   15  C   UNL     1     -10.456   5.551  71.483  1.00  0.00    -0.298 A  
HETATM   16  C   UNL     1     -10.335   5.116  70.168  1.00  0.00    -0.340 A  
HETATM   17  C   UNL     1      -9.701   5.908  69.189  1.00  0.00    -0.140 A  
HETATM   18  S   UNL     1      -9.629   5.189  67.571  1.00  0.00    -0.148 SA 
HETATM   19  C   UNL     1      -8.707   6.395  66.650  1.00  0.00    -0.127 A  
HETATM   20  C   UNL     1      -8.194   7.589  67.202  1.00  0.00    -0.114 A  
HETATM   21  C   UNL     1      -7.475   8.412  66.298  1.00  0.00    -0.089 A  
HETATM   22  C   UNL     1      -7.236   8.073  64.949  1.00  0.00    -0.073 A  
HETATM   23  C   UNL     1      -6.426   8.971  64.047  1.00  0.00    -0.087 C  
HETATM   24  C   UNL     1      -7.759   6.883  64.454  1.00  0.00    -0.113 A  
HETATM   25  F   UNL     1      -5.331   8.341  63.533  1.00  0.00    -0.052 F  
HETATM   26  F   UNL     1      -7.139   9.407  62.971  1.00  0.00    -0.097 F  
HETATM   27  F   UNL     1      -5.955  10.093  64.658  1.00  0.00    -0.088 F  
HETATM   28  C   UNL     1      -8.491   6.057  65.298  1.00  0.00    -0.131 A  
ENDBRANCH  10  11
ENDBRANCH   9  10
ENDBRANCH   8   9
ENDBRANCH   5   8
TORSDOF 4
ENDMDL
MODEL      206
REMARK 921   NORMALIZED FREE ENERGY PREDICTED BY IDOCK:   -3.80 KCAL/MOL
REMARK 922        TOTAL FREE ENERGY PREDICTED BY IDOCK:   -5.11 KCAL/MOL
REMARK 923 INTER-LIGAND FREE ENERGY PREDICTED BY IDOCK:   -4.38 KCAL/MOL
REMARK 924 INTRA-LIGAND FREE ENERGY PREDICTED BY IDOCK:   -0.73 KCAL/MOL
REMARK 927      BINDING AFFINITY PREDICTED BY RF-SCORE:    0.00 PKD
ROOT
HETATM    1  C   UNL     1      -6.987   2.204  70.011  1.00  0.00    -0.033 C  
HETATM    2  N   UNL     1      -6.667   3.562  70.449  1.00  0.00    -0.033 NA 
HETATM    3  C   UNL     1      -5.341   3.978  69.947  1.00  0.00    -0.008 C  
HETATM    4  C   UNL     1      -5.311   4.306  68.437  1.00  0.00    -0.012 C  
HETATM    5  N   UNL     1      -6.302   5.318  68.019  1.00  0.00    -0.038 NA 
HETATM    6  C   UNL     1      -7.639   4.888  68.491  1.00  0.00    -0.077 C  
HETATM    7  C   UNL     1      -7.699   4.521  69.996  1.00  0.00    -0.057 C  
ENDROOT
BRANCH   5   8
HETATM    8  C   UNL     1      -6.000   6.665  68.533  1.00  0.00    -0.022 C  
BRANCH   8   9
HETATM    9  C   UNL     1      -7.231   7.554  68.703  1.00  0.00    -0.086 C  
BRANCH   9  10
HETATM   10  C   UNL     1      -7.053   8.686  69.728  1.00  0.00    -0.051 C  
BRANCH  10  11
HETATM   11  N   UNL     1      -8.114   8.708  70.772  1.00  0.00    -0.114 NA 
HETATM   12  C   UNL     1      -7.913   7.795  71.861  1.00  0.00    -0.103 A  
HETATM   13  C   UNL     1      -6.650   7.212  72.131  1.00  0.00    -0.055 A  
HETATM   14  C   UNL     1      -6.463   6.216  73.094  1.00  0.00    -0.068 A  
HETATM   15  C   UNL     1      -7.528   5.807  73.874  1.00  0.00    -0.093 A  
HETATM   16  C   UNL     1      -8.765   6.416  73.697  1.00  0.00    -0.131 A  
HETATM   17  C   UNL     1      -8.964   7.402  72.709  1.00  0.00    -0.140 A  
HETATM   18  S   UNL     1     -10.607   8.058  72.619  1.00  0.00    -0.354 SA 
HETATM   19  C   UNL     1     -10.506   9.174  71.242  1.00  0.00    -0.328 A  
HETATM   20  C   UNL     1      -9.339   9.379  70.474  1.00  0.00    -0.262 A  
HETATM   21  C   UNL     1      -9.472  10.305  69.408  1.00  0.00    -0.225 A  
HETATM   22  C   UNL     1     -10.680  10.960  69.085  1.00  0.00    -0.265 A  
HETATM   23  C   UNL     1     -10.771  11.903  67.911  1.00  0.00    -0.204 C  
HETATM   24  C   UNL     1     -11.804  10.720  69.869  1.00  0.00    -0.413 A  
HETATM   25  F   UNL     1     -11.707  11.511  67.000  1.00  0.00    -0.358 F  
HETATM   26  F   UNL     1     -11.125  13.165  68.283  1.00  0.00    -0.243 F  
HETATM   27  F   UNL     1      -9.608  12.035  67.214  1.00  0.00    -0.177 F  
HETATM   28  C   UNL     1     -11.713   9.839  70.940  1.00  0.00    -0.429 A  
ENDBRANCH  10  11
ENDBRANCH   9  10
ENDBRANCH   8   9
ENDBRANCH   5   8
TORSDOF 4
ENDMDL
MODEL      207
REMARK 921   NORMALIZED FREE ENERGY PREDICTED BY IDOCK:   -3.79 KCAL/MOL
REMARK 922        TOTAL FREE ENERGY PREDICTED BY IDOCK:   -5.09 KCAL/MOL
REMARK 923 INTER-LIGAND FREE ENERGY PREDICTED BY IDOCK:   -4.43 KCAL/MOL
REMARK 924 INTRA-LIGAND FREE ENERGY PREDICTED BY IDOCK:   -0.66 KCAL/MOL
REMARK 927      BINDING AFFINITY PREDICTED BY RF-SCORE:    0.00 PKD
ROOT
HETATM    1  C   UNL     1      -8.176   2.271  74.323  1.00  0.00    -0.058 C  
HETATM    2  N   UNL     1      -8.852   3.396  73.679  1.00  0.00    -0.084 NA 
HETATM    3  C   UNL     1      -7.980   4.019  72.662  1.00  0.00    -0.086 C  
HETATM    4  C   UNL     1      -7.826   3.189  71.367  1.00  0.00    -0.055 C  
HETATM    5  N   UNL     1      -9.105   2.829  70.724  1.00  0.00    -0.107 NA 
HETATM    6  C   UNL     1      -9.970   2.172  71.733  1.00  0.00    -0.139 C  
HETATM    7  C   UNL     1     -10.122   2.964  73.057  1.00  0.00    -0.136 C  
ENDROOT
BRANCH   5   8
HETATM    8  C   UNL     1      -9.805   3.989  70.146  1.00  0.00    -0.137 C  
BRANCH   8   9
HETATM    9  C   UNL     1      -9.192   4.496  68.841  1.00  0.00    -0.190 C  
BRANCH   9  10
HETATM   10  C   UNL     1     -10.211   5.094  67.857  1.00  0.00    -0.119 C  
BRANCH  10  11
HETATM   11  N   UNL     1      -9.745   6.357  67.222  1.00  0.00    -0.125 NA 
HETATM   12  C   UNL     1      -8.999   6.187  66.008  1.00  0.00    -0.145 A  
HETATM   13  C   UNL     1      -9.031   4.979  65.268  1.00  0.00    -0.151 A  
HETATM   14  C   UNL     1      -8.206   4.741  64.165  1.00  0.00    -0.118 A  
HETATM   15  C   UNL     1      -7.356   5.735  63.717  1.00  0.00    -0.060 A  
HETATM   16  C   UNL     1      -7.358   6.965  64.365  1.00  0.00    -0.088 A  
HETATM   17  C   UNL     1      -8.169   7.199  65.494  1.00  0.00    -0.139 A  
HETATM   18  S   UNL     1      -8.033   8.819  66.197  1.00  0.00    -0.105 SA 
HETATM   19  C   UNL     1      -9.099   8.721  67.613  1.00  0.00    -0.134 A  
HETATM   20  C   UNL     1      -9.810   7.560  67.988  1.00  0.00    -0.151 A  
HETATM   21  C   UNL     1     -10.598   7.688  69.160  1.00  0.00    -0.195 A  
HETATM   22  C   UNL     1     -10.656   8.861  69.942  1.00  0.00    -0.229 A  
HETATM   23  C   UNL     1     -11.479   8.922  71.205  1.00  0.00    -0.299 C  
HETATM   24  C   UNL     1      -9.932   9.977  69.533  1.00  0.00    -0.249 A  
HETATM   25  F   UNL     1     -10.728   9.224  72.302  1.00  0.00    -0.371 F  
HETATM   26  F   UNL     1     -12.449   9.877  71.149  1.00  0.00    -0.349 F  
HETATM   27  F   UNL     1     -12.122   7.759  71.506  1.00  0.00    -0.280 F  
HETATM   28  C   UNL     1      -9.166   9.905  68.376  1.00  0.00    -0.130 A  
ENDBRANCH  10  11
ENDBRANCH   9  10
ENDBRANCH   8   9
ENDBRANCH   5   8
TORSDOF 4
ENDMDL
MODEL      208
REMARK 921   NORMALIZED FREE ENERGY PREDICTED BY IDOCK:   -3.76 KCAL/MOL
REMARK 922        TOTAL FREE ENERGY PREDICTED BY IDOCK:   -5.05 KCAL/MOL
REMARK 923 INTER-LIGAND FREE ENERGY PREDICTED BY IDOCK:   -4.54 KCAL/MOL
REMARK 924 INTRA-LIGAND FREE ENERGY PREDICTED BY IDOCK:   -0.51 KCAL/MOL
REMARK 927      BINDING AFFINITY PREDICTED BY RF-SCORE:    0.00 PKD
ROOT
HETATM    1  C   UNL     1      -6.473   7.123  62.910  1.00  0.00    -0.052 C  
HETATM    2  N   UNL     1      -7.760   7.367  63.560  1.00  0.00    -0.121 NA 
HETATM    3  C   UNL     1      -7.602   7.434  65.028  1.00  0.00    -0.103 C  
HETATM    4  C   UNL     1      -6.940   8.736  65.534  1.00  0.00    -0.076 C  
HETATM    5  N   UNL     1      -7.613   9.971  65.083  1.00  0.00    -0.133 NA 
HETATM    6  C   UNL     1      -7.743   9.923  63.607  1.00  0.00    -0.141 C  
HETATM    7  C   UNL     1      -8.375   8.617  63.063  1.00  0.00    -0.153 C  
ENDROOT
BRANCH   5   8
HETATM    8  C   UNL     1      -8.939  10.159  65.696  1.00  0.00    -0.171 C  
BRANCH   8   9
HETATM    9  C   UNL     1      -9.200  11.583  66.185  1.00  0.00    -0.230 C  
BRANCH   9  10
HETATM   10  C   UNL     1      -9.211  11.730  67.715  1.00  0.00    -0.181 C  
BRANCH  10  11
HETATM   11  N   UNL     1      -8.039  12.482  68.243  1.00  0.00    -0.161 NA 
HETATM   12  C   UNL     1      -7.044  11.678  68.893  1.00  0.00    -0.115 A  
HETATM   13  C   UNL     1      -6.977  10.273  68.714  1.00  0.00    -0.067 A  
HETATM   14  C   UNL     1      -6.111   9.454  69.444  1.00  0.00    -0.037 A  
HETATM   15  C   UNL     1      -5.227  10.020  70.342  1.00  0.00    -0.044 A  
HETATM   16  C   UNL     1      -5.203  11.403  70.484  1.00  0.00    -0.110 A  
HETATM   17  C   UNL     1      -6.094  12.229  69.769  1.00  0.00    -0.141 A  
HETATM   18  S   UNL     1      -5.928  13.965  70.085  1.00  0.00    -0.153 SA 
HETATM   19  C   UNL     1      -7.234  14.664  69.107  1.00  0.00    -0.142 A  
HETATM   20  C   UNL     1      -8.133  13.905  68.327  1.00  0.00    -0.150 A  
HETATM   21  C   UNL     1      -9.112  14.656  67.630  1.00  0.00    -0.193 A  
HETATM   22  C   UNL     1      -9.234  16.059  67.718  1.00  0.00    -0.205 A  
HETATM   23  C   UNL     1     -10.325  16.800  66.986  1.00  0.00    -0.300 C  
HETATM   24  C   UNL     1      -8.327  16.763  68.505  1.00  0.00    -0.243 A  
HETATM   25  F   UNL     1     -11.129  17.509  67.829  1.00  0.00    -0.356 F  
HETATM   26  F   UNL     1      -9.832  17.707  66.097  1.00  0.00    -0.289 F  
HETATM   27  F   UNL     1     -11.158  15.995  66.270  1.00  0.00    -0.266 F  
HETATM   28  C   UNL     1      -7.335  16.069  69.187  1.00  0.00    -0.209 A  
ENDBRANCH  10  11
ENDBRANCH   9  10
ENDBRANCH   8   9
ENDBRANCH   5   8
TORSDOF 4
ENDMDL
MODEL      209
REMARK 921   NORMALIZED FREE ENERGY PREDICTED BY IDOCK:   -3.74 KCAL/MOL
REMARK 922        TOTAL FREE ENERGY PREDICTED BY IDOCK:   -5.03 KCAL/MOL
REMARK 923 INTER-LIGAND FREE ENERGY PREDICTED BY IDOCK:   -5.69 KCAL/MOL
REMARK 924 INTRA-LIGAND FREE ENERGY PREDICTED BY IDOCK:    0.66 KCAL/MOL
REMARK 927      BINDING AFFINITY PREDICTED BY RF-SCORE:    0.00 PKD
ROOT
HETATM    1  C   UNL     1      -7.281   6.165  69.179  1.00  0.00    -0.083 C  
HETATM    2  N   UNL     1      -7.824   7.501  69.420  1.00  0.00    -0.118 NA 
HETATM    3  C   UNL     1      -7.001   8.233  70.405  1.00  0.00    -0.037 C  
HETATM    4  C   UNL     1      -5.646   8.730  69.851  1.00  0.00    -0.028 C  
HETATM    5  N   UNL     1      -5.758   9.559  68.634  1.00  0.00    -0.040 NA 
HETATM    6  C   UNL     1      -6.554   8.813  67.630  1.00  0.00    -0.062 C  
HETATM    7  C   UNL     1      -7.907   8.274  68.161  1.00  0.00    -0.118 C  
ENDROOT
BRANCH   5   8
HETATM    8  C   UNL     1      -6.375  10.872  68.887  1.00  0.00    -0.046 C  
BRANCH   8   9
HETATM    9  C   UNL     1      -7.750  11.045  68.245  1.00  0.00    -0.113 C  
BRANCH   9  10
HETATM   10  C   UNL     1      -7.733  11.820  66.918  1.00  0.00    -0.129 C  
BRANCH  10  11
HETATM   11  N   UNL     1      -8.937  11.574  66.076  1.00  0.00    -0.202 NA 
HETATM   12  C   UNL     1      -8.718  10.730  64.937  1.00  0.00    -0.126 A  
HETATM   13  C   UNL     1      -7.580   9.892  64.828  1.00  0.00    -0.139 A  
HETATM   14  C   UNL     1      -7.275   9.172  63.670  1.00  0.00    -0.093 A  
HETATM   15  C   UNL     1      -8.137   9.211  62.590  1.00  0.00    -0.148 A  
HETATM   16  C   UNL     1      -9.308   9.955  62.689  1.00  0.00    -0.249 A  
HETATM   17  C   UNL     1      -9.605  10.704  63.846  1.00  0.00    -0.306 A  
HETATM   18  S   UNL     1     -11.133  11.600  63.791  1.00  0.00    -0.405 SA 
HETATM   19  C   UNL     1     -11.129  12.472  65.337  1.00  0.00    -0.302 A  
HETATM   20  C   UNL     1     -10.084  12.399  66.285  1.00  0.00    -0.240 A  
HETATM   21  C   UNL     1     -10.270  13.183  67.450  1.00  0.00    -0.232 A  
HETATM   22  C   UNL     1     -11.386  14.021  67.663  1.00  0.00    -0.336 A  
HETATM   23  C   UNL     1     -11.507  14.867  68.906  1.00  0.00    -0.299 C  
HETATM   24  C   UNL     1     -12.386  14.063  66.697  1.00  0.00    -0.408 A  
HETATM   25  F   UNL     1     -11.610  16.196  68.623  1.00  0.00    -0.347 F  
HETATM   26  F   UNL     1     -12.614  14.559  69.639  1.00  0.00    -0.347 F  
HETATM   27  F   UNL     1     -10.453  14.750  69.761  1.00  0.00    -0.233 F  
HETATM   28  C   UNL     1     -12.258  13.291  65.549  1.00  0.00    -0.506 A  
ENDBRANCH  10  11
ENDBRANCH   9  10
ENDBRANCH   8   9
ENDBRANCH   5   8
TORSDOF 4
ENDMDL
MODEL      210
REMARK 921   NORMALIZED FREE ENERGY PREDICTED BY IDOCK:   -3.74 KCAL/MOL
REMARK 922        TOTAL FREE ENERGY PREDICTED BY IDOCK:   -5.03 KCAL/MOL
REMARK 923 INTER-LIGAND FREE ENERGY PREDICTED BY IDOCK:   -5.74 KCAL/MOL
REMARK 924 INTRA-LIGAND FREE ENERGY PREDICTED BY IDOCK:    0.71 KCAL/MOL
REMARK 927      BINDING AFFINITY PREDICTED BY RF-SCORE:    0.00 PKD
ROOT
HETATM    1  C   UNL     1      -5.572  13.542  67.672  1.00  0.00    -0.027 C  
HETATM    2  N   UNL     1      -6.873  12.885  67.790  1.00  0.00    -0.121 NA 
HETATM    3  C   UNL     1      -6.911  11.648  66.982  1.00  0.00    -0.144 C  
HETATM    4  C   UNL     1      -6.106  10.474  67.583  1.00  0.00    -0.052 C  
HETATM    5  N   UNL     1      -6.480  10.133  68.970  1.00  0.00    -0.044 NA 
HETATM    6  C   UNL     1      -6.409  11.364  69.792  1.00  0.00    -0.139 C  
HETATM    7  C   UNL     1      -7.181  12.572  69.202  1.00  0.00     0.070 C  
ENDROOT
BRANCH   5   8
HETATM    8  C   UNL     1      -7.824   9.539  69.074  1.00  0.00    -0.077 C  
BRANCH   8   9
HETATM    9  C   UNL     1      -8.932  10.403  68.473  1.00  0.00    -0.139 C  
BRANCH   9  10
HETATM   10  C   UNL     1     -10.027   9.606  67.747  1.00  0.00    -0.171 C  
BRANCH  10  11
HETATM   11  N   UNL     1      -9.860   9.587  66.267  1.00  0.00    -0.246 NA 
HETATM   12  C   UNL     1      -9.051   8.515  65.761  1.00  0.00    -0.167 A  
HETATM   13  C   UNL     1      -8.762   7.362  66.533  1.00  0.00    -0.149 A  
HETATM   14  C   UNL     1      -7.865   6.375  66.116  1.00  0.00    -0.102 A  
HETATM   15  C   UNL     1      -7.266   6.471  64.874  1.00  0.00    -0.067 A  
HETATM   16  C   UNL     1      -7.590   7.545  64.052  1.00  0.00    -0.114 A  
HETATM   17  C   UNL     1      -8.474   8.556  64.480  1.00  0.00    -0.090 A  
HETATM   18  S   UNL     1      -8.760   9.852  63.307  1.00  0.00    -0.244 SA 
HETATM   19  C   UNL     1      -9.821  10.960  64.200  1.00  0.00    -0.314 A  
HETATM   20  C   UNL     1     -10.243  10.750  65.532  1.00  0.00    -0.266 A  
HETATM   21  C   UNL     1     -11.079  11.762  66.067  1.00  0.00    -0.363 A  
HETATM   22  C   UNL     1     -11.449  12.927  65.362  1.00  0.00    -0.360 A  
HETATM   23  C   UNL     1     -12.307  13.991  66.001  1.00  0.00    -0.473 C  
HETATM   24  C   UNL     1     -11.003  13.091  64.055  1.00  0.00    -0.422 A  
HETATM   25  F   UNL     1     -11.691  15.207  66.033  1.00  0.00    -0.297 F  
HETATM   26  F   UNL     1     -13.477  14.187  65.331  1.00  0.00    -0.436 F  
HETATM   27  F   UNL     1     -12.659  13.721  67.289  1.00  0.00    -0.332 F  
HETATM   28  C   UNL     1     -10.201  12.112  63.481  1.00  0.00    -0.453 A  
ENDBRANCH  10  11
ENDBRANCH   9  10
ENDBRANCH   8   9
ENDBRANCH   5   8
TORSDOF 4
ENDMDL
MODEL      211
REMARK 921   NORMALIZED FREE ENERGY PREDICTED BY IDOCK:   -3.66 KCAL/MOL
REMARK 922        TOTAL FREE ENERGY PREDICTED BY IDOCK:   -4.93 KCAL/MOL
REMARK 923 INTER-LIGAND FREE ENERGY PREDICTED BY IDOCK:   -6.05 KCAL/MOL
REMARK 924 INTRA-LIGAND FREE ENERGY PREDICTED BY IDOCK:    1.12 KCAL/MOL
REMARK 927      BINDING AFFINITY PREDICTED BY RF-SCORE:    0.00 PKD
ROOT
HETATM    1  C   UNL     1      -7.598   3.420  72.443  1.00  0.00    -0.058 C  
HETATM    2  N   UNL     1      -8.596   4.456  72.179  1.00  0.00    -0.111 NA 
HETATM    3  C   UNL     1      -7.986   5.605  71.478  1.00  0.00    -0.117 C  
HETATM    4  C   UNL     1      -7.662   5.340  69.990  1.00  0.00    -0.076 C  
HETATM    5  N   UNL     1      -8.815   4.872  69.195  1.00  0.00    -0.091 NA 
HETATM    6  C   UNL     1      -9.409   3.697  69.877  1.00  0.00    -0.176 C  
HETATM    7  C   UNL     1      -9.718   3.918  71.380  1.00  0.00    -0.176 C  
ENDROOT
BRANCH   5   8
HETATM    8  C   UNL     1      -9.842   5.910  69.004  1.00  0.00    -0.152 C  
BRANCH   8   9
HETATM    9  C   UNL     1      -9.274   7.300  68.723  1.00  0.00    -0.137 C  
BRANCH   9  10
HETATM   10  C   UNL     1      -9.742   7.915  67.394  1.00  0.00    -0.161 C  
BRANCH  10  11
HETATM   11  N   UNL     1     -10.544   9.157  67.570  1.00  0.00    -0.273 NA 
HETATM   12  C   UNL     1     -10.407  10.122  66.517  1.00  0.00    -0.202 A  
HETATM   13  C   UNL     1      -9.878   9.781  65.248  1.00  0.00    -0.335 A  
HETATM   14  C   UNL     1      -9.604  10.730  64.259  1.00  0.00    -0.333 A  
HETATM   15  C   UNL     1      -9.910  12.059  64.479  1.00  0.00    -0.179 A  
HETATM   16  C   UNL     1     -10.509  12.422  65.680  1.00  0.00    -0.290 A  
HETATM   17  C   UNL     1     -10.763  11.471  66.690  1.00  0.00    -0.268 A  
HETATM   18  S   UNL     1     -11.520  12.115  68.157  1.00  0.00    -0.340 SA 
HETATM   19  C   UNL     1     -11.602  10.689  69.211  1.00  0.00    -0.275 A  
HETATM   20  C   UNL     1     -11.121   9.410  68.852  1.00  0.00     0.033 A  
HETATM   21  C   UNL     1     -11.271   8.408  69.843  1.00  0.00    -0.029 A  
HETATM   22  C   UNL     1     -11.818   8.646  71.122  1.00  0.00    -0.331 A  
HETATM   23  C   UNL     1     -11.912   7.547  72.152  1.00  0.00    -0.285 C  
HETATM   24  C   UNL     1     -12.273   9.924  71.431  1.00  0.00    -0.499 A  
HETATM   25  F   UNL     1     -11.236   7.849  73.297  1.00  0.00    -0.449 F  
HETATM   26  F   UNL     1     -13.196   7.301  72.535  1.00  0.00    -0.003 F  
HETATM   27  F   UNL     1     -11.414   6.350  71.733  1.00  0.00    -0.283 F  
HETATM   28  C   UNL     1     -12.168  10.932  70.480  1.00  0.00    -0.459 A  
ENDBRANCH  10  11
ENDBRANCH   9  10
ENDBRANCH   8   9
ENDBRANCH   5   8
TORSDOF 4
ENDMDL
MODEL      212
REMARK 921   NORMALIZED FREE ENERGY PREDICTED BY IDOCK:   -3.66 KCAL/MOL
REMARK 922        TOTAL FREE ENERGY PREDICTED BY IDOCK:   -4.93 KCAL/MOL
REMARK 923 INTER-LIGAND FREE ENERGY PREDICTED BY IDOCK:   -4.53 KCAL/MOL
REMARK 924 INTRA-LIGAND FREE ENERGY PREDICTED BY IDOCK:   -0.40 KCAL/MOL
REMARK 927      BINDING AFFINITY PREDICTED BY RF-SCORE:    0.00 PKD
ROOT
HETATM    1  C   UNL     1      -8.695  13.362  67.171  1.00  0.00    -0.215 C  
HETATM    2  N   UNL     1      -8.865  12.497  68.338  1.00  0.00    -0.161 NA 
HETATM    3  C   UNL     1     -10.183  11.828  68.307  1.00  0.00    -0.205 C  
HETATM    4  C   UNL     1     -10.289  10.687  67.270  1.00  0.00    -0.220 C  
HETATM    5  N   UNL     1      -9.245   9.651  67.403  1.00  0.00    -0.130 NA 
HETATM    6  C   UNL     1      -7.920  10.315  67.400  1.00  0.00    -0.107 C  
HETATM    7  C   UNL     1      -7.789  11.485  68.408  1.00  0.00    -0.136 C  
ENDROOT
BRANCH   5   8
HETATM    8  C   UNL     1      -9.394   8.839  68.623  1.00  0.00    -0.141 C  
BRANCH   8   9
HETATM    9  C   UNL     1      -9.306   7.333  68.381  1.00  0.00    -0.143 C  
BRANCH   9  10
HETATM   10  C   UNL     1     -10.553   6.550  68.823  1.00  0.00    -0.243 C  
BRANCH  10  11
HETATM   11  N   UNL     1     -10.244   5.182  69.322  1.00  0.00    -0.222 NA 
HETATM   12  C   UNL     1     -10.212   5.050  70.751  1.00  0.00    -0.229 A  
HETATM   13  C   UNL     1     -10.798   6.014  71.609  1.00  0.00    -0.314 A  
HETATM   14  C   UNL     1     -10.657   5.979  72.999  1.00  0.00    -0.265 A  
HETATM   15  C   UNL     1      -9.972   4.936  73.594  1.00  0.00    -0.186 A  
HETATM   16  C   UNL     1      -9.455   3.926  72.791  1.00  0.00    -0.162 A  
HETATM   17  C   UNL     1      -9.573   3.971  71.387  1.00  0.00    -0.171 A  
HETATM   18  S   UNL     1      -8.844   2.605  70.525  1.00  0.00    -0.092 SA 
HETATM   19  C   UNL     1      -9.100   3.037  68.823  1.00  0.00    -0.152 A  
HETATM   20  C   UNL     1      -9.729   4.226  68.394  1.00  0.00    -0.097 A  
HETATM   21  C   UNL     1      -9.823   4.387  66.989  1.00  0.00    -0.227 A  
HETATM   22  C   UNL     1      -9.301   3.465  66.057  1.00  0.00    -0.148 A  
HETATM   23  C   UNL     1      -9.393   3.712  64.571  1.00  0.00    -0.149 C  
HETATM   24  C   UNL     1      -8.685   2.310  66.529  1.00  0.00    -0.125 A  
HETATM   25  F   UNL     1      -8.169   3.745  63.972  1.00  0.00    -0.086 F  
HETATM   26  F   UNL     1     -10.094   2.739  63.925  1.00  0.00    -0.142 F  
HETATM   27  F   UNL     1      -9.999   4.886  64.241  1.00  0.00     0.042 F  
HETATM   28  C   UNL     1      -8.592   2.099  67.900  1.00  0.00    -0.106 A  
ENDBRANCH  10  11
ENDBRANCH   9  10
ENDBRANCH   8   9
ENDBRANCH   5   8
TORSDOF 4
ENDMDL
MODEL      213
REMARK 921   NORMALIZED FREE ENERGY PREDICTED BY IDOCK:   -3.56 KCAL/MOL
REMARK 922        TOTAL FREE ENERGY PREDICTED BY IDOCK:   -4.81 KCAL/MOL
REMARK 923 INTER-LIGAND FREE ENERGY PREDICTED BY IDOCK:   -4.07 KCAL/MOL
REMARK 924 INTRA-LIGAND FREE ENERGY PREDICTED BY IDOCK:   -0.74 KCAL/MOL
REMARK 927      BINDING AFFINITY PREDICTED BY RF-SCORE:    0.00 PKD
ROOT
HETATM    1  C   UNL     1      -7.277  11.574  68.832  1.00  0.00    -0.117 C  
HETATM    2  N   UNL     1      -6.533  10.648  69.685  1.00  0.00    -0.080 NA 
HETATM    3  C   UNL     1      -7.442   9.666  70.312  1.00  0.00    -0.158 C  
HETATM    4  C   UNL     1      -7.963   8.579  69.345  1.00  0.00    -0.107 C  
HETATM    5  N   UNL     1      -6.898   7.839  68.638  1.00  0.00    -0.061 NA 
HETATM    6  C   UNL     1      -6.003   8.820  67.979  1.00  0.00    -0.046 C  
HETATM    7  C   UNL     1      -5.486   9.943  68.913  1.00  0.00    -0.035 C  
ENDROOT
BRANCH   5   8
HETATM    8  C   UNL     1      -6.114   6.967  69.530  1.00  0.00    -0.030 C  
BRANCH   8   9
HETATM    9  C   UNL     1      -5.904   5.554  68.988  1.00  0.00    -0.023 C  
BRANCH   9  10
HETATM   10  C   UNL     1      -6.975   4.545  69.430  1.00  0.00    -0.050 C  
BRANCH  10  11
HETATM   11  N   UNL     1      -8.259   4.686  68.689  1.00  0.00    -0.082 NA 
HETATM   12  C   UNL     1      -8.182   4.412  67.282  1.00  0.00    -0.100 A  
HETATM   13  C   UNL     1      -7.097   3.699  66.713  1.00  0.00    -0.063 A  
HETATM   14  C   UNL     1      -6.930   3.544  65.334  1.00  0.00    -0.057 A  
HETATM   15  C   UNL     1      -7.882   4.045  64.467  1.00  0.00    -0.085 A  
HETATM   16  C   UNL     1      -9.004   4.678  64.991  1.00  0.00    -0.152 A  
HETATM   17  C   UNL     1      -9.163   4.859  66.380  1.00  0.00    -0.138 A  
HETATM   18  S   UNL     1     -10.647   5.695  66.865  1.00  0.00    -0.273 SA 
HETATM   19  C   UNL     1     -10.465   5.821  68.627  1.00  0.00    -0.229 A  
HETATM   20  C   UNL     1      -9.345   5.345  69.342  1.00  0.00    -0.124 A  
HETATM   21  C   UNL     1      -9.390   5.554  70.744  1.00  0.00    -0.199 A  
HETATM   22  C   UNL     1     -10.444   6.222  71.403  1.00  0.00    -0.264 A  
HETATM   23  C   UNL     1     -10.415   6.454  72.894  1.00  0.00    -0.220 C  
HETATM   24  C   UNL     1     -11.524   6.678  70.653  1.00  0.00    -0.420 A  
HETATM   25  F   UNL     1     -10.482   7.777  73.217  1.00  0.00    -0.347 F  
HETATM   26  F   UNL     1     -11.465   5.865  73.532  1.00  0.00    -0.167 F  
HETATM   27  F   UNL     1      -9.295   5.979  73.508  1.00  0.00    -0.134 F  
HETATM   28  C   UNL     1     -11.533   6.472  69.279  1.00  0.00    -0.307 A  
ENDBRANCH  10  11
ENDBRANCH   9  10
ENDBRANCH   8   9
ENDBRANCH   5   8
TORSDOF 4
ENDMDL
MODEL      214
REMARK 921   NORMALIZED FREE ENERGY PREDICTED BY IDOCK:   -3.55 KCAL/MOL
REMARK 922        TOTAL FREE ENERGY PREDICTED BY IDOCK:   -4.80 KCAL/MOL
REMARK 923 INTER-LIGAND FREE ENERGY PREDICTED BY IDOCK:   -5.43 KCAL/MOL
REMARK 924 INTRA-LIGAND FREE ENERGY PREDICTED BY IDOCK:    0.64 KCAL/MOL
REMARK 927      BINDING AFFINITY PREDICTED BY RF-SCORE:    0.00 PKD
ROOT
HETATM    1  C   UNL     1     -12.352  15.018  64.224  1.00  0.00    -0.226 C  
HETATM    2  N   UNL     1     -12.140  14.106  65.346  1.00  0.00    -0.392 NA 
HETATM    3  C   UNL     1     -12.777  12.798  65.086  1.00  0.00    -0.329 C  
HETATM    4  C   UNL     1     -12.030  11.925  64.052  1.00  0.00    -0.356 C  
HETATM    5  N   UNL     1     -10.607  11.691  64.373  1.00  0.00    -0.300 NA 
HETATM    6  C   UNL     1      -9.957  13.004  64.600  1.00  0.00    -0.126 C  
HETATM    7  C   UNL     1     -10.696  13.918  65.610  1.00  0.00    -0.290 C  
ENDROOT
BRANCH   5   8
HETATM    8  C   UNL     1     -10.417  10.828  65.551  1.00  0.00    -0.194 C  
BRANCH   8   9
HETATM    9  C   UNL     1      -9.497  11.424  66.615  1.00  0.00    -0.206 C  
BRANCH   9  10
HETATM   10  C   UNL     1      -9.879  11.055  68.057  1.00  0.00    -0.171 C  
BRANCH  10  11
HETATM   11  N   UNL     1      -8.701  10.850  68.945  1.00  0.00    -0.160 NA 
HETATM   12  C   UNL     1      -7.657  11.824  68.802  1.00  0.00    -0.104 A  
HETATM   13  C   UNL     1      -7.876  13.075  68.174  1.00  0.00    -0.145 A  
HETATM   14  C   UNL     1      -6.845  13.978  67.898  1.00  0.00    -0.172 A  
HETATM   15  C   UNL     1      -5.555  13.689  68.300  1.00  0.00    -0.104 A  
HETATM   16  C   UNL     1      -5.314  12.509  68.995  1.00  0.00    -0.067 A  
HETATM   17  C   UNL     1      -6.347  11.585  69.251  1.00  0.00    -0.091 A  
HETATM   18  S   UNL     1      -5.855  10.132  70.138  1.00  0.00    -0.069 SA 
HETATM   19  C   UNL     1      -7.354   9.184  70.197  1.00  0.00    -0.077 A  
HETATM   20  C   UNL     1      -8.574   9.596  69.616  1.00  0.00    -0.187 A  
HETATM   21  C   UNL     1      -9.651   8.686  69.764  1.00  0.00    -0.171 A  
HETATM   22  C   UNL     1      -9.537   7.434  70.404  1.00  0.00    -0.165 A  
HETATM   23  C   UNL     1     -10.710   6.488  70.493  1.00  0.00    -0.254 C  
HETATM   24  C   UNL     1      -8.312   7.071  70.956  1.00  0.00    -0.125 A  
HETATM   25  F   UNL     1     -10.452   5.283  69.912  1.00  0.00    -0.316 F  
HETATM   26  F   UNL     1     -11.057   6.210  71.781  1.00  0.00    -0.272 F  
HETATM   27  F   UNL     1     -11.843   6.952  69.896  1.00  0.00    -0.312 F  
HETATM   28  C   UNL     1      -7.235   7.943  70.856  1.00  0.00    -0.053 A  
ENDBRANCH  10  11
ENDBRANCH   9  10
ENDBRANCH   8   9
ENDBRANCH   5   8
TORSDOF 4
ENDMDL
MODEL      215
REMARK 921   NORMALIZED FREE ENERGY PREDICTED BY IDOCK:   -3.54 KCAL/MOL
REMARK 922        TOTAL FREE ENERGY PREDICTED BY IDOCK:   -4.78 KCAL/MOL
REMARK 923 INTER-LIGAND FREE ENERGY PREDICTED BY IDOCK:   -5.68 KCAL/MOL
REMARK 924 INTRA-LIGAND FREE ENERGY PREDICTED BY IDOCK:    0.90 KCAL/MOL
REMARK 927      BINDING AFFINITY PREDICTED BY RF-SCORE:    0.00 PKD
ROOT
HETATM    1  C   UNL     1     -13.322  14.863  71.029  1.00  0.00    -0.393 C  
HETATM    2  N   UNL     1     -11.959  14.501  70.644  1.00  0.00    -0.301 NA 
HETATM    3  C   UNL     1     -11.818  13.034  70.529  1.00  0.00    -0.084 C  
HETATM    4  C   UNL     1     -12.484  12.432  69.271  1.00  0.00     0.345 C  
HETATM    5  N   UNL     1     -12.038  13.041  68.001  1.00  0.00    -0.265 NA 
HETATM    6  C   UNL     1     -12.210  14.510  68.100  1.00  0.00    -0.085 C  
HETATM    7  C   UNL     1     -11.581  15.144  69.367  1.00  0.00    -0.323 C  
ENDROOT
BRANCH   5   8
HETATM    8  C   UNL     1     -10.639  12.723  67.670  1.00  0.00    -0.219 C  
BRANCH   8   9
HETATM    9  C   UNL     1      -9.617  13.619  68.368  1.00  0.00    -0.203 C  
BRANCH   9  10
HETATM   10  C   UNL     1      -8.594  14.264  67.420  1.00  0.00    -0.213 C  
BRANCH  10  11
HETATM   11  N   UNL     1      -7.521  15.012  68.131  1.00  0.00    -0.105 NA 
HETATM   12  C   UNL     1      -6.666  14.209  68.958  1.00  0.00    -0.107 A  
HETATM   13  C   UNL     1      -6.590  12.800  68.816  1.00  0.00    -0.090 A  
HETATM   14  C   UNL     1      -5.876  11.986  69.700  1.00  0.00    -0.106 A  
HETATM   15  C   UNL     1      -5.154  12.558  70.730  1.00  0.00    -0.131 A  
HETATM   16  C   UNL     1      -5.135  13.943  70.851  1.00  0.00    -0.116 A  
HETATM   17  C   UNL     1      -5.876  14.766  69.978  1.00  0.00    -0.131 A  
HETATM   18  S   UNL     1      -5.743  16.505  70.289  1.00  0.00    -0.107 SA 
HETATM   19  C   UNL     1      -6.848  17.201  69.087  1.00  0.00    -0.236 A  
HETATM   20  C   UNL     1      -7.608  16.437  68.174  1.00  0.00    -0.155 A  
HETATM   21  C   UNL     1      -8.439  17.186  67.305  1.00  0.00    -0.211 A  
HETATM   22  C   UNL     1      -8.555  18.592  67.348  1.00  0.00    -0.281 A  
HETATM   23  C   UNL     1      -9.491  19.332  66.424  1.00  0.00    -0.365 C  
HETATM   24  C   UNL     1      -7.789  19.300  68.269  1.00  0.00    -0.354 A  
HETATM   25  F   UNL     1     -10.419  20.065  67.102  1.00  0.00    -0.519 F  
HETATM   26  F   UNL     1      -8.837  20.216  65.621  1.00  0.00    -0.330 F  
HETATM   27  F   UNL     1     -10.198  18.523  65.587  1.00  0.00    -0.325 F  
HETATM   28  C   UNL     1      -6.941  18.608  69.125  1.00  0.00    -0.275 A  
ENDBRANCH  10  11
ENDBRANCH   9  10
ENDBRANCH   8   9
ENDBRANCH   5   8
TORSDOF 4
ENDMDL
MODEL      216
REMARK 921   NORMALIZED FREE ENERGY PREDICTED BY IDOCK:   -3.51 KCAL/MOL
REMARK 922        TOTAL FREE ENERGY PREDICTED BY IDOCK:   -4.75 KCAL/MOL
REMARK 923 INTER-LIGAND FREE ENERGY PREDICTED BY IDOCK:   -4.80 KCAL/MOL
REMARK 924 INTRA-LIGAND FREE ENERGY PREDICTED BY IDOCK:    0.05 KCAL/MOL
REMARK 927      BINDING AFFINITY PREDICTED BY RF-SCORE:    0.00 PKD
ROOT
HETATM    1  C   UNL     1     -11.939  14.455  67.214  1.00  0.00    -0.377 C  
HETATM    2  N   UNL     1     -11.538  13.399  66.285  1.00  0.00    -0.330 NA 
HETATM    3  C   UNL     1     -10.110  13.530  65.926  1.00  0.00    -0.303 C  
HETATM    4  C   UNL     1      -9.135  13.107  67.048  1.00  0.00    -0.231 C  
HETATM    5  N   UNL     1      -9.360  11.741  67.562  1.00  0.00    -0.171 NA 
HETATM    6  C   UNL     1     -10.784  11.617  67.956  1.00  0.00    -0.208 C  
HETATM    7  C   UNL     1     -11.790  12.062  66.864  1.00  0.00    -0.173 C  
ENDROOT
BRANCH   5   8
HETATM    8  C   UNL     1      -9.019  10.695  66.583  1.00  0.00    -0.150 C  
BRANCH   8   9
HETATM    9  C   UNL     1     -10.170   9.740  66.269  1.00  0.00    -0.282 C  
BRANCH   9  10
HETATM   10  C   UNL     1      -9.765   8.258  66.227  1.00  0.00    -0.183 C  
BRANCH  10  11
HETATM   11  N   UNL     1      -8.543   7.958  67.025  1.00  0.00    -0.126 NA 
HETATM   12  C   UNL     1      -7.372   7.659  66.252  1.00  0.00    -0.079 A  
HETATM   13  C   UNL     1      -7.270   7.995  64.879  1.00  0.00    -0.073 A  
HETATM   14  C   UNL     1      -6.202   7.589  64.075  1.00  0.00    -0.049 A  
HETATM   15  C   UNL     1      -5.154   6.880  64.632  1.00  0.00    -0.027 A  
HETATM   16  C   UNL     1      -5.177   6.605  65.994  1.00  0.00    -0.018 A  
HETATM   17  C   UNL     1      -6.265   6.990  66.803  1.00  0.00    -0.042 A  
HETATM   18  S   UNL     1      -6.128   6.545  68.512  1.00  0.00    -0.026 SA 
HETATM   19  C   UNL     1      -7.676   7.095  69.184  1.00  0.00    -0.109 A  
HETATM   20  C   UNL     1      -8.697   7.706  68.422  1.00  0.00    -0.127 A  
HETATM   21  C   UNL     1      -9.862   8.059  69.148  1.00  0.00    -0.178 A  
HETATM   22  C   UNL     1     -10.040   7.797  70.523  1.00  0.00    -0.192 A  
HETATM   23  C   UNL     1     -11.322   8.159  71.232  1.00  0.00    -0.265 C  
HETATM   24  C   UNL     1      -9.007   7.188  71.229  1.00  0.00    -0.147 A  
HETATM   25  F   UNL     1     -11.928   7.076  71.796  1.00  0.00    -0.296 F  
HETATM   26  F   UNL     1     -11.122   9.042  72.250  1.00  0.00    -0.421 F  
HETATM   27  F   UNL     1     -12.260   8.729  70.425  1.00  0.00    -0.110 F  
HETATM   28  C   UNL     1      -7.836   6.846  70.563  1.00  0.00    -0.105 A  
ENDBRANCH  10  11
ENDBRANCH   9  10
ENDBRANCH   8   9
ENDBRANCH   5   8
TORSDOF 4
ENDMDL
MODEL      217
REMARK 921   NORMALIZED FREE ENERGY PREDICTED BY IDOCK:   -3.51 KCAL/MOL
REMARK 922        TOTAL FREE ENERGY PREDICTED BY IDOCK:   -4.74 KCAL/MOL
REMARK 923 INTER-LIGAND FREE ENERGY PREDICTED BY IDOCK:   -4.56 KCAL/MOL
REMARK 924 INTRA-LIGAND FREE ENERGY PREDICTED BY IDOCK:   -0.19 KCAL/MOL
REMARK 927      BINDING AFFINITY PREDICTED BY RF-SCORE:    0.00 PKD
ROOT
HETATM    1  C   UNL     1     -12.966  11.528  71.771  1.00  0.00    -0.394 C  
HETATM    2  N   UNL     1     -13.180  10.387  70.881  1.00  0.00    -0.334 NA 
HETATM    3  C   UNL     1     -11.949  10.073  70.126  1.00  0.00    -0.131 C  
HETATM    4  C   UNL     1     -10.847   9.391  70.967  1.00  0.00    -0.336 C  
HETATM    5  N   UNL     1     -11.289   8.165  71.662  1.00  0.00    -0.253 NA 
HETATM    6  C   UNL     1     -12.503   8.484  72.450  1.00  0.00    -0.353 C  
HETATM    7  C   UNL     1     -13.619   9.197  71.643  1.00  0.00    -0.390 C  
ENDROOT
BRANCH   5   8
HETATM    8  C   UNL     1     -11.568   7.051  70.741  1.00  0.00    -0.338 C  
BRANCH   8   9
HETATM    9  C   UNL     1     -10.327   6.494  70.045  1.00  0.00    -0.238 C  
BRANCH   9  10
HETATM   10  C   UNL     1     -10.272   6.778  68.536  1.00  0.00    -0.175 C  
BRANCH  10  11
HETATM   11  N   UNL     1      -9.009   6.316  67.896  1.00  0.00    -0.115 NA 
HETATM   12  C   UNL     1      -9.180   5.405  66.801  1.00  0.00    -0.128 A  
HETATM   13  C   UNL     1     -10.421   5.257  66.132  1.00  0.00    -0.259 A  
HETATM   14  C   UNL     1     -10.649   4.278  65.161  1.00  0.00    -0.169 A  
HETATM   15  C   UNL     1      -9.618   3.445  64.772  1.00  0.00    -0.159 A  
HETATM   16  C   UNL     1      -8.362   3.615  65.344  1.00  0.00    -0.105 A  
HETATM   17  C   UNL     1      -8.136   4.583  66.343  1.00  0.00    -0.103 A  
HETATM   18  S   UNL     1      -6.478   4.650  66.965  1.00  0.00    -0.042 SA 
HETATM   19  C   UNL     1      -6.588   5.887  68.234  1.00  0.00    -0.052 A  
HETATM   20  C   UNL     1      -7.779   6.563  68.579  1.00  0.00    -0.105 A  
HETATM   21  C   UNL     1      -7.655   7.507  69.630  1.00  0.00    -0.094 A  
HETATM   22  C   UNL     1      -6.453   7.748  70.330  1.00  0.00    -0.037 A  
HETATM   23  C   UNL     1      -6.394   8.734  71.470  1.00  0.00    -0.071 C  
HETATM   24  C   UNL     1      -5.308   7.051  69.956  1.00  0.00    -0.019 A  
HETATM   25  F   UNL     1      -5.986   8.157  72.636  1.00  0.00    -0.045 F  
HETATM   26  F   UNL     1      -5.516   9.749  71.234  1.00  0.00    -0.050 F  
HETATM   27  F   UNL     1      -7.585   9.332  71.749  1.00  0.00    -0.056 F  
HETATM   28  C   UNL     1      -5.377   6.134  68.914  1.00  0.00    -0.004 A  
ENDBRANCH  10  11
ENDBRANCH   9  10
ENDBRANCH   8   9
ENDBRANCH   5   8
TORSDOF 4
ENDMDL
MODEL      218
REMARK 921   NORMALIZED FREE ENERGY PREDICTED BY IDOCK:   -3.44 KCAL/MOL
REMARK 922        TOTAL FREE ENERGY PREDICTED BY IDOCK:   -4.66 KCAL/MOL
REMARK 923 INTER-LIGAND FREE ENERGY PREDICTED BY IDOCK:   -4.44 KCAL/MOL
REMARK 924 INTRA-LIGAND FREE ENERGY PREDICTED BY IDOCK:   -0.22 KCAL/MOL
REMARK 927      BINDING AFFINITY PREDICTED BY RF-SCORE:    0.00 PKD
ROOT
HETATM    1  C   UNL     1      -9.179   4.974  66.070  1.00  0.00    -0.153 C  
HETATM    2  N   UNL     1      -8.774   6.053  66.971  1.00  0.00    -0.110 NA 
HETATM    3  C   UNL     1      -8.023   7.094  66.239  1.00  0.00    -0.110 C  
HETATM    4  C   UNL     1      -8.900   7.988  65.334  1.00  0.00    -0.014 C  
HETATM    5  N   UNL     1     -10.026   8.637  66.035  1.00  0.00    -0.149 NA 
HETATM    6  C   UNL     1     -10.803   7.592  66.742  1.00  0.00     0.048 C  
HETATM    7  C   UNL     1      -9.950   6.656  67.636  1.00  0.00    -0.131 C  
ENDROOT
BRANCH   5   8
HETATM    8  C   UNL     1      -9.591   9.669  66.991  1.00  0.00    -0.173 C  
BRANCH   8   9
HETATM    9  C   UNL     1     -10.575   9.911  68.134  1.00  0.00    -0.270 C  
BRANCH   9  10
HETATM   10  C   UNL     1     -10.022  10.792  69.266  1.00  0.00    -0.159 C  
BRANCH  10  11
HETATM   11  N   UNL     1      -8.637  11.276  69.012  1.00  0.00    -0.045 NA 
HETATM   12  C   UNL     1      -7.611  10.593  69.745  1.00  0.00    -0.043 A  
HETATM   13  C   UNL     1      -7.832   9.330  70.350  1.00  0.00    -0.158 A  
HETATM   14  C   UNL     1      -6.896   8.714  71.185  1.00  0.00    -0.071 A  
HETATM   15  C   UNL     1      -5.668   9.311  71.398  1.00  0.00    -0.067 A  
HETATM   16  C   UNL     1      -5.381  10.509  70.754  1.00  0.00    -0.089 A  
HETATM   17  C   UNL     1      -6.332  11.147  69.932  1.00  0.00    -0.141 A  
HETATM   18  S   UNL     1      -5.797  12.670  69.204  1.00  0.00    -0.087 SA 
HETATM   19  C   UNL     1      -7.246  13.216  68.335  1.00  0.00    -0.107 A  
HETATM   20  C   UNL     1      -8.473  12.519  68.327  1.00  0.00    -0.165 A  
HETATM   21  C   UNL     1      -9.511  13.132  67.581  1.00  0.00    -0.207 A  
HETATM   22  C   UNL     1      -9.374  14.370  66.916  1.00  0.00    -0.269 A  
HETATM   23  C   UNL     1     -10.530  14.994  66.174  1.00  0.00    -0.305 C  
HETATM   24  C   UNL     1      -8.145  15.021  66.959  1.00  0.00    -0.225 A  
HETATM   25  F   UNL     1     -10.849  16.230  66.653  1.00  0.00    -0.312 F  
HETATM   26  F   UNL     1     -10.262  15.170  64.849  1.00  0.00    -0.384 F  
HETATM   27  F   UNL     1     -11.680  14.267  66.226  1.00  0.00    -0.341 F  
HETATM   28  C   UNL     1      -7.092  14.444  67.658  1.00  0.00    -0.202 A  
ENDBRANCH  10  11
ENDBRANCH   9  10
ENDBRANCH   8   9
ENDBRANCH   5   8
TORSDOF 4
ENDMDL
MODEL      219
REMARK 921   NORMALIZED FREE ENERGY PREDICTED BY IDOCK:   -3.44 KCAL/MOL
REMARK 922        TOTAL FREE ENERGY PREDICTED BY IDOCK:   -4.65 KCAL/MOL
REMARK 923 INTER-LIGAND FREE ENERGY PREDICTED BY IDOCK:   -4.41 KCAL/MOL
REMARK 924 INTRA-LIGAND FREE ENERGY PREDICTED BY IDOCK:   -0.24 KCAL/MOL
REMARK 927      BINDING AFFINITY PREDICTED BY RF-SCORE:    0.00 PKD
ROOT
HETATM    1  C   UNL     1     -10.926   6.124  70.432  1.00  0.00    -0.337 C  
HETATM    2  N   UNL     1     -10.418   7.216  69.603  1.00  0.00    -0.222 NA 
HETATM    3  C   UNL     1     -10.732   8.526  70.210  1.00  0.00    -0.230 C  
HETATM    4  C   UNL     1      -9.870   8.874  71.445  1.00  0.00    -0.306 C  
HETATM    5  N   UNL     1      -8.414   8.813  71.202  1.00  0.00    -0.172 NA 
HETATM    6  C   UNL     1      -8.090   7.487  70.625  1.00  0.00    -0.109 C  
HETATM    7  C   UNL     1      -8.957   7.092  69.402  1.00  0.00    -0.139 C  
ENDROOT
BRANCH   5   8
HETATM    8  C   UNL     1      -7.936   9.879  70.305  1.00  0.00    -0.109 C  
BRANCH   8   9
HETATM    9  C   UNL     1      -6.417   9.922  70.147  1.00  0.00    -0.093 C  
BRANCH   9  10
HETATM   10  C   UNL     1      -5.934  10.696  68.910  1.00  0.00    -0.040 C  
BRANCH  10  11
HETATM   11  N   UNL     1      -7.023  11.442  68.220  1.00  0.00    -0.068 NA 
HETATM   12  C   UNL     1      -7.231  12.783  68.688  1.00  0.00    -0.104 A  
HETATM   13  C   UNL     1      -6.256  13.473  69.451  1.00  0.00    -0.107 A  
HETATM   14  C   UNL     1      -6.493  14.721  70.035  1.00  0.00    -0.169 A  
HETATM   15  C   UNL     1      -7.701  15.360  69.825  1.00  0.00    -0.078 A  
HETATM   16  C   UNL     1      -8.651  14.752  69.012  1.00  0.00    -0.137 A  
HETATM   17  C   UNL     1      -8.426  13.482  68.443  1.00  0.00    -0.143 A  
HETATM   18  S   UNL     1      -9.751  12.858  67.445  1.00  0.00    -0.206 SA 
HETATM   19  C   UNL     1      -9.166  11.247  66.984  1.00  0.00    -0.165 A  
HETATM   20  C   UNL     1      -7.930  10.705  67.400  1.00  0.00    -0.111 A  
HETATM   21  C   UNL     1      -7.656   9.396  66.930  1.00  0.00    -0.091 A  
HETATM   22  C   UNL     1      -8.550   8.644  66.137  1.00  0.00    -0.158 A  
HETATM   23  C   UNL     1      -8.220   7.237  65.703  1.00  0.00    -0.138 C  
HETATM   24  C   UNL     1      -9.758   9.220  65.758  1.00  0.00    -0.339 A  
HETATM   25  F   UNL     1      -9.145   6.330  66.132  1.00  0.00    -0.148 F  
HETATM   26  F   UNL     1      -8.178   7.107  64.348  1.00  0.00    -0.131 F  
HETATM   27  F   UNL     1      -7.019   6.783  66.157  1.00  0.00    -0.055 F  
HETATM   28  C   UNL     1     -10.057  10.511  66.176  1.00  0.00    -0.306 A  
ENDBRANCH  10  11
ENDBRANCH   9  10
ENDBRANCH   8   9
ENDBRANCH   5   8
TORSDOF 4
ENDMDL
MODEL      220
REMARK 921   NORMALIZED FREE ENERGY PREDICTED BY IDOCK:   -3.42 KCAL/MOL
REMARK 922        TOTAL FREE ENERGY PREDICTED BY IDOCK:   -4.63 KCAL/MOL
REMARK 923 INTER-LIGAND FREE ENERGY PREDICTED BY IDOCK:   -3.86 KCAL/MOL
REMARK 924 INTRA-LIGAND FREE ENERGY PREDICTED BY IDOCK:   -0.77 KCAL/MOL
REMARK 927      BINDING AFFINITY PREDICTED BY RF-SCORE:    0.00 PKD
ROOT
HETATM    1  C   UNL     1     -11.104   2.138  62.809  1.00  0.00    -0.235 C  
HETATM    2  N   UNL     1      -9.680   2.026  63.122  1.00  0.00    -0.093 NA 
HETATM    3  C   UNL     1      -8.895   3.016  62.353  1.00  0.00    -0.077 C  
HETATM    4  C   UNL     1      -9.038   4.469  62.861  1.00  0.00    -0.124 C  
HETATM    5  N   UNL     1      -8.725   4.641  64.294  1.00  0.00    -0.145 NA 
HETATM    6  C   UNL     1      -9.536   3.674  65.071  1.00  0.00    -0.171 C  
HETATM    7  C   UNL     1      -9.441   2.211  64.570  1.00  0.00    -0.112 C  
ENDROOT
BRANCH   5   8
HETATM    8  C   UNL     1      -7.296   4.453  64.598  1.00  0.00    -0.071 C  
BRANCH   8   9
HETATM    9  C   UNL     1      -6.514   5.758  64.734  1.00  0.00    -0.041 C  
BRANCH   9  10
HETATM   10  C   UNL     1      -6.052   6.068  66.167  1.00  0.00    -0.032 C  
BRANCH  10  11
HETATM   11  N   UNL     1      -7.128   5.900  67.182  1.00  0.00    -0.069 NA 
HETATM   12  C   UNL     1      -7.062   4.685  67.942  1.00  0.00    -0.061 A  
HETATM   13  C   UNL     1      -5.882   3.902  68.007  1.00  0.00    -0.026 A  
HETATM   14  C   UNL     1      -5.836   2.647  68.621  1.00  0.00    -0.023 A  
HETATM   15  C   UNL     1      -6.960   2.151  69.255  1.00  0.00    -0.033 A  
HETATM   16  C   UNL     1      -8.113   2.928  69.286  1.00  0.00    -0.066 A  
HETATM   17  C   UNL     1      -8.170   4.182  68.644  1.00  0.00    -0.082 A  
HETATM   18  S   UNL     1      -9.723   5.025  68.778  1.00  0.00    -0.165 SA 
HETATM   19  C   UNL     1      -9.459   6.483  67.801  1.00  0.00    -0.119 A  
HETATM   20  C   UNL     1      -8.258   6.771  67.116  1.00  0.00    -0.121 A  
HETATM   21  C   UNL     1      -8.257   7.983  66.382  1.00  0.00    -0.113 A  
HETATM   22  C   UNL     1      -9.371   8.844  66.287  1.00  0.00    -0.279 A  
HETATM   23  C   UNL     1      -9.324  10.101  65.454  1.00  0.00    -0.216 C  
HETATM   24  C   UNL     1     -10.534   8.515  66.976  1.00  0.00    -0.362 A  
HETATM   25  F   UNL     1     -10.277  10.116  64.479  1.00  0.00    -0.404 F  
HETATM   26  F   UNL     1      -9.536  11.224  66.194  1.00  0.00    -0.194 F  
HETATM   27  F   UNL     1      -8.137  10.298  64.814  1.00  0.00    -0.143 F  
HETATM   28  C   UNL     1     -10.572   7.347  67.729  1.00  0.00    -0.278 A  
ENDBRANCH  10  11
ENDBRANCH   9  10
ENDBRANCH   8   9
ENDBRANCH   5   8
TORSDOF 4
ENDMDL
MODEL      221
REMARK 921   NORMALIZED FREE ENERGY PREDICTED BY IDOCK:   -3.37 KCAL/MOL
REMARK 922        TOTAL FREE ENERGY PREDICTED BY IDOCK:   -4.58 KCAL/MOL
REMARK 923 INTER-LIGAND FREE ENERGY PREDICTED BY IDOCK:   -4.24 KCAL/MOL
REMARK 924 INTRA-LIGAND FREE ENERGY PREDICTED BY IDOCK:   -0.34 KCAL/MOL
REMARK 927      BINDING AFFINITY PREDICTED BY RF-SCORE:    0.00 PKD
ROOT
HETATM    1  C   UNL     1     -10.674   6.997  73.553  1.00  0.00    -0.332 C  
HETATM    2  N   UNL     1     -10.651   6.047  72.441  1.00  0.00    -0.208 NA 
HETATM    3  C   UNL     1     -11.537   6.499  71.348  1.00  0.00    -0.318 C  
HETATM    4  C   UNL     1     -10.978   7.687  70.531  1.00  0.00    -0.249 C  
HETATM    5  N   UNL     1      -9.632   7.454  69.970  1.00  0.00    -0.168 NA 
HETATM    6  C   UNL     1      -8.732   7.034  71.071  1.00  0.00    -0.139 C  
HETATM    7  C   UNL     1      -9.275   5.865  71.930  1.00  0.00    -0.147 C  
ENDROOT
BRANCH   5   8
HETATM    8  C   UNL     1      -9.621   6.441  68.901  1.00  0.00    -0.126 C  
BRANCH   8   9
HETATM    9  C   UNL     1     -10.820   6.521  67.958  1.00  0.00    -0.372 C  
BRANCH   9  10
HETATM   10  C   UNL     1     -10.609   7.444  66.748  1.00  0.00    -0.211 C  
BRANCH  10  11
HETATM   11  N   UNL     1      -9.176   7.757  66.488  1.00  0.00    -0.175 NA 
HETATM   12  C   UNL     1      -8.804   9.125  66.707  1.00  0.00    -0.127 A  
HETATM   13  C   UNL     1      -9.608  10.011  67.467  1.00  0.00    -0.178 A  
HETATM   14  C   UNL     1      -9.339  11.379  67.574  1.00  0.00    -0.166 A  
HETATM   15  C   UNL     1      -8.212  11.906  66.974  1.00  0.00    -0.170 A  
HETATM   16  C   UNL     1      -7.352  11.053  66.290  1.00  0.00    -0.097 A  
HETATM   17  C   UNL     1      -7.635   9.678  66.157  1.00  0.00    -0.102 A  
HETATM   18  S   UNL     1      -6.435   8.748  65.244  1.00  0.00    -0.064 SA 
HETATM   19  C   UNL     1      -7.148   7.123  65.206  1.00  0.00    -0.060 A  
HETATM   20  C   UNL     1      -8.392   6.791  65.786  1.00  0.00    -0.143 A  
HETATM   21  C   UNL     1      -8.788   5.438  65.634  1.00  0.00    -0.153 A  
HETATM   22  C   UNL     1      -8.038   4.476  64.925  1.00  0.00    -0.100 A  
HETATM   23  C   UNL     1      -8.532   3.061  64.760  1.00  0.00    -0.095 C  
HETATM   24  C   UNL     1      -6.820   4.854  64.367  1.00  0.00    -0.048 A  
HETATM   25  F   UNL     1      -8.668   2.706  63.450  1.00  0.00    -0.084 F  
HETATM   26  F   UNL     1      -7.682   2.146  65.303  1.00  0.00    -0.067 F  
HETATM   27  F   UNL     1      -9.745   2.826  65.334  1.00  0.00    -0.106 F  
HETATM   28  C   UNL     1      -6.381   6.164  64.513  1.00  0.00    -0.030 A  
ENDBRANCH  10  11
ENDBRANCH   9  10
ENDBRANCH   8   9
ENDBRANCH   5   8
TORSDOF 4
ENDMDL
MODEL      222
REMARK 921   NORMALIZED FREE ENERGY PREDICTED BY IDOCK:   -3.36 KCAL/MOL
REMARK 922        TOTAL FREE ENERGY PREDICTED BY IDOCK:   -4.56 KCAL/MOL
REMARK 923 INTER-LIGAND FREE ENERGY PREDICTED BY IDOCK:   -5.02 KCAL/MOL
REMARK 924 INTRA-LIGAND FREE ENERGY PREDICTED BY IDOCK:    0.46 KCAL/MOL
REMARK 927      BINDING AFFINITY PREDICTED BY RF-SCORE:    0.00 PKD
ROOT
HETATM    1  C   UNL     1      -7.437   3.969  66.253  1.00  0.00    -0.088 C  
HETATM    2  N   UNL     1      -7.752   4.876  67.356  1.00  0.00    -0.090 NA 
HETATM    3  C   UNL     1      -7.053   6.167  67.190  1.00  0.00    -0.070 C  
HETATM    4  C   UNL     1      -7.650   7.072  66.088  1.00  0.00    -0.095 C  
HETATM    5  N   UNL     1      -9.093   7.344  66.246  1.00  0.00    -0.169 NA 
HETATM    6  C   UNL     1      -9.802   6.049  66.378  1.00  0.00    -0.110 C  
HETATM    7  C   UNL     1      -9.211   5.103  67.453  1.00  0.00    -0.116 C  
ENDROOT
BRANCH   5   8
HETATM    8  C   UNL     1      -9.394   8.200  67.406  1.00  0.00    -0.141 C  
BRANCH   8   9
HETATM    9  C   UNL     1      -8.159   8.648  68.184  1.00  0.00    -0.115 C  
BRANCH   9  10
HETATM   10  C   UNL     1      -8.350   8.673  69.709  1.00  0.00    -0.123 C  
BRANCH  10  11
HETATM   11  N   UNL     1      -9.780   8.678  70.123  1.00  0.00    -0.169 NA 
HETATM   12  C   UNL     1     -10.447   9.942  69.991  1.00  0.00    -0.284 A  
HETATM   13  C   UNL     1      -9.927  10.985  69.185  1.00  0.00    -0.142 A  
HETATM   14  C   UNL     1     -10.482  12.268  69.153  1.00  0.00     0.043 A  
HETATM   15  C   UNL     1     -11.623  12.541  69.883  1.00  0.00    -0.242 A  
HETATM   16  C   UNL     1     -12.211  11.519  70.621  1.00  0.00    -0.473 A  
HETATM   17  C   UNL     1     -11.639  10.232  70.676  1.00  0.00    -0.347 A  
HETATM   18  S   UNL     1     -12.518   9.061  71.674  1.00  0.00    -0.373 SA 
HETATM   19  C   UNL     1     -11.486   7.619  71.582  1.00  0.00    -0.260 A  
HETATM   20  C   UNL     1     -10.269   7.561  70.868  1.00  0.00    -0.192 A  
HETATM   21  C   UNL     1      -9.590   6.319  70.932  1.00  0.00    -0.192 A  
HETATM   22  C   UNL     1     -10.047   5.212  71.680  1.00  0.00    -0.262 A  
HETATM   23  C   UNL     1      -9.257   3.929  71.745  1.00  0.00    -0.125 C  
HETATM   24  C   UNL     1     -11.249   5.321  72.372  1.00  0.00    -0.229 A  
HETATM   25  F   UNL     1      -8.912   3.594  73.021  1.00  0.00    -0.093 F  
HETATM   26  F   UNL     1      -9.954   2.864  71.259  1.00  0.00    -0.231 F  
HETATM   27  F   UNL     1      -8.090   3.959  71.042  1.00  0.00    -0.062 F  
HETATM   28  C   UNL     1     -11.961   6.513  72.317  1.00  0.00    -0.272 A  
ENDBRANCH  10  11
ENDBRANCH   9  10
ENDBRANCH   8   9
ENDBRANCH   5   8
TORSDOF 4
ENDMDL
MODEL      223
REMARK 921   NORMALIZED FREE ENERGY PREDICTED BY IDOCK:   -3.08 KCAL/MOL
REMARK 922        TOTAL FREE ENERGY PREDICTED BY IDOCK:   -4.21 KCAL/MOL
REMARK 923 INTER-LIGAND FREE ENERGY PREDICTED BY IDOCK:   -4.63 KCAL/MOL
REMARK 924 INTRA-LIGAND FREE ENERGY PREDICTED BY IDOCK:    0.42 KCAL/MOL
REMARK 927      BINDING AFFINITY PREDICTED BY RF-SCORE:    0.00 PKD
ROOT
HETATM    1  C   UNL     1     -13.619  14.725  71.257  1.00  0.00    -0.412 C  
HETATM    2  N   UNL     1     -12.246  14.223  71.262  1.00  0.00    -0.347 NA 
HETATM    3  C   UNL     1     -12.224  12.756  71.084  1.00  0.00     0.003 C  
HETATM    4  C   UNL     1     -12.540  12.288  69.645  1.00  0.00     0.382 C  
HETATM    5  N   UNL     1     -11.678  12.893  68.610  1.00  0.00    -0.306 NA 
HETATM    6  C   UNL     1     -11.726  14.367  68.763  1.00  0.00    -0.337 C  
HETATM    7  C   UNL     1     -11.443  14.870  70.201  1.00  0.00    -0.279 C  
ENDROOT
BRANCH   5   8
HETATM    8  C   UNL     1     -10.283  12.428  68.679  1.00  0.00    -0.157 C  
BRANCH   8   9
HETATM    9  C   UNL     1      -9.257  13.555  68.778  1.00  0.00     0.078 C  
BRANCH   9  10
HETATM   10  C   UNL     1      -8.371  13.712  67.532  1.00  0.00    -0.188 C  
BRANCH  10  11
HETATM   11  N   UNL     1      -9.138  13.680  66.256  1.00  0.00    -0.058 NA 
HETATM   12  C   UNL     1      -9.683  14.942  65.843  1.00  0.00    -0.333 A  
HETATM   13  C   UNL     1      -9.219  16.172  66.373  1.00  0.00    -0.334 A  
HETATM   14  C   UNL     1      -9.828  17.398  66.094  1.00  0.00    -0.260 A  
HETATM   15  C   UNL     1     -10.895  17.450  65.216  1.00  0.00     0.052 A  
HETATM   16  C   UNL     1     -11.326  16.275  64.610  1.00  0.00    -0.237 A  
HETATM   17  C   UNL     1     -10.730  15.033  64.910  1.00  0.00    -0.397 A  
HETATM   18  S   UNL     1     -11.416  13.643  64.052  1.00  0.00    -0.189 SA 
HETATM   19  C   UNL     1     -10.505  12.279  64.730  1.00  0.00    -0.296 A  
HETATM   20  C   UNL     1      -9.512  12.407  65.726  1.00  0.00    -0.086 A  
HETATM   21  C   UNL     1      -8.911  11.192  66.140  1.00  0.00    -0.205 A  
HETATM   22  C   UNL     1      -9.283   9.924  65.645  1.00  0.00    -0.245 A  
HETATM   23  C   UNL     1      -8.636   8.661  66.156  1.00  0.00    -0.142 C  
HETATM   24  C   UNL     1     -10.271   9.849  64.668  1.00  0.00     0.322 A  
HETATM   25  F   UNL     1      -9.541   7.795  66.695  1.00  0.00    -0.209 F  
HETATM   26  F   UNL     1      -8.001   7.966  65.172  1.00  0.00    -0.100 F  
HETATM   27  F   UNL     1      -7.701   8.869  67.125  1.00  0.00    -0.091 F  
HETATM   28  C   UNL     1     -10.870  11.018  64.214  1.00  0.00    -0.262 A  
ENDBRANCH  10  11
ENDBRANCH   9  10
ENDBRANCH   8   9
ENDBRANCH   5   8
TORSDOF 4
ENDMDL
MODEL      224
REMARK 921   NORMALIZED FREE ENERGY PREDICTED BY IDOCK:   -3.04 KCAL/MOL
REMARK 922        TOTAL FREE ENERGY PREDICTED BY IDOCK:   -4.17 KCAL/MOL
REMARK 923 INTER-LIGAND FREE ENERGY PREDICTED BY IDOCK:   -3.36 KCAL/MOL
REMARK 924 INTRA-LIGAND FREE ENERGY PREDICTED BY IDOCK:   -0.81 KCAL/MOL
REMARK 927      BINDING AFFINITY PREDICTED BY RF-SCORE:    0.00 PKD
ROOT
HETATM    1  C   UNL     1      -9.552   1.652  73.074  1.00  0.00    -0.077 C  
HETATM    2  N   UNL     1      -8.987   2.926  73.515  1.00  0.00    -0.082 NA 
HETATM    3  C   UNL     1      -7.527   2.958  73.292  1.00  0.00    -0.047 C  
HETATM    4  C   UNL     1      -7.117   3.128  71.811  1.00  0.00    -0.038 C  
HETATM    5  N   UNL     1      -7.713   4.307  71.150  1.00  0.00    -0.065 NA 
HETATM    6  C   UNL     1      -9.182   4.260  71.342  1.00  0.00    -0.134 C  
HETATM    7  C   UNL     1      -9.628   4.060  72.813  1.00  0.00    -0.132 C  
ENDROOT
BRANCH   5   8
HETATM    8  C   UNL     1      -7.182   5.582  71.661  1.00  0.00    -0.085 C  
BRANCH   8   9
HETATM    9  C   UNL     1      -7.737   6.815  70.949  1.00  0.00    -0.093 C  
BRANCH   9  10
HETATM   10  C   UNL     1      -7.020   7.158  69.633  1.00  0.00    -0.051 C  
BRANCH  10  11
HETATM   11  N   UNL     1      -7.952   7.543  68.538  1.00  0.00    -0.122 NA 
HETATM   12  C   UNL     1      -8.219   8.949  68.433  1.00  0.00    -0.117 A  
HETATM   13  C   UNL     1      -7.387   9.920  69.046  1.00  0.00    -0.080 A  
HETATM   14  C   UNL     1      -7.705  11.280  69.077  1.00  0.00    -0.095 A  
HETATM   15  C   UNL     1      -8.843  11.735  68.438  1.00  0.00    -0.161 A  
HETATM   16  C   UNL     1      -9.640  10.824  67.754  1.00  0.00    -0.176 A  
HETATM   17  C   UNL     1      -9.337   9.447  67.743  1.00  0.00    -0.128 A  
HETATM   18  S   UNL     1     -10.469   8.435  66.831  1.00  0.00    -0.218 SA 
HETATM   19  C   UNL     1      -9.838   6.799  67.107  1.00  0.00    -0.161 A  
HETATM   20  C   UNL     1      -8.707   6.510  67.902  1.00  0.00    -0.116 A  
HETATM   21  C   UNL     1      -8.375   5.136  68.004  1.00  0.00    -0.097 A  
HETATM   22  C   UNL     1      -9.123   4.102  67.402  1.00  0.00    -0.163 A  
HETATM   23  C   UNL     1      -8.744   2.652  67.583  1.00  0.00    -0.114 C  
HETATM   24  C   UNL     1     -10.232   4.436  66.632  1.00  0.00    -0.127 A  
HETATM   25  F   UNL     1      -9.747   1.919  68.147  1.00  0.00    -0.251 F  
HETATM   26  F   UNL     1      -8.458   2.038  66.401  1.00  0.00    -0.082 F  
HETATM   27  F   UNL     1      -7.653   2.458  68.375  1.00  0.00    -0.052 F  
HETATM   28  C   UNL     1     -10.580   5.774  66.484  1.00  0.00    -0.294 A  
ENDBRANCH  10  11
ENDBRANCH   9  10
ENDBRANCH   8   9
ENDBRANCH   5   8
TORSDOF 4
ENDMDL
MODEL      225
REMARK 921   NORMALIZED FREE ENERGY PREDICTED BY IDOCK:   -2.95 KCAL/MOL
REMARK 922        TOTAL FREE ENERGY PREDICTED BY IDOCK:   -4.06 KCAL/MOL
REMARK 923 INTER-LIGAND FREE ENERGY PREDICTED BY IDOCK:   -3.52 KCAL/MOL
REMARK 924 INTRA-LIGAND FREE ENERGY PREDICTED BY IDOCK:   -0.54 KCAL/MOL
REMARK 927      BINDING AFFINITY PREDICTED BY RF-SCORE:    0.00 PKD
ROOT
HETATM    1  C   UNL     1      -5.559   7.353  63.727  1.00  0.00    -0.037 C  
HETATM    2  N   UNL     1      -6.802   8.118  63.814  1.00  0.00    -0.074 NA 
HETATM    3  C   UNL     1      -7.972   7.216  63.838  1.00  0.00    -0.076 C  
HETATM    4  C   UNL     1      -8.171   6.473  65.178  1.00  0.00    -0.126 C  
HETATM    5  N   UNL     1      -8.246   7.361  66.356  1.00  0.00    -0.117 NA 
HETATM    6  C   UNL     1      -7.056   8.244  66.354  1.00  0.00    -0.071 C  
HETATM    7  C   UNL     1      -6.809   8.982  65.014  1.00  0.00    -0.076 C  
ENDROOT
BRANCH   5   8
HETATM    8  C   UNL     1      -9.473   8.175  66.384  1.00  0.00    -0.218 C  
BRANCH   8   9
HETATM    9  C   UNL     1     -10.616   7.548  67.181  1.00  0.00    -0.415 C  
BRANCH   9  10
HETATM   10  C   UNL     1     -10.963   8.295  68.479  1.00  0.00     0.217 C  
BRANCH  10  11
HETATM   11  N   UNL     1      -9.792   8.978  69.096  1.00  0.00    -0.171 NA 
HETATM   12  C   UNL     1      -9.553  10.313  68.630  1.00  0.00    -0.168 A  
HETATM   13  C   UNL     1     -10.546  11.061  67.948  1.00  0.00    -0.244 A  
HETATM   14  C   UNL     1     -10.291  12.304  67.362  1.00  0.00    -0.219 A  
HETATM   15  C   UNL     1      -9.042  12.882  67.492  1.00  0.00    -0.191 A  
HETATM   16  C   UNL     1      -8.066  12.217  68.227  1.00  0.00    -0.166 A  
HETATM   17  C   UNL     1      -8.311  10.951  68.796  1.00  0.00    -0.151 A  
HETATM   18  S   UNL     1      -6.950  10.250  69.687  1.00  0.00    -0.131 SA 
HETATM   19  C   UNL     1      -7.578   8.661  70.171  1.00  0.00    -0.069 A  
HETATM   20  C   UNL     1      -8.866   8.185  69.840  1.00  0.00    -0.139 A  
HETATM   21  C   UNL     1      -9.168   6.884  70.314  1.00  0.00    -0.156 A  
HETATM   22  C   UNL     1      -8.258   6.078  71.031  1.00  0.00    -0.123 A  
HETATM   23  C   UNL     1      -8.623   4.682  71.471  1.00  0.00    -0.116 C  
HETATM   24  C   UNL     1      -6.998   6.590  71.327  1.00  0.00    -0.075 A  
HETATM   25  F   UNL     1      -7.777   3.739  70.966  1.00  0.00    -0.045 F  
HETATM   26  F   UNL     1      -8.574   4.534  72.824  1.00  0.00    -0.108 F  
HETATM   27  F   UNL     1      -9.874   4.293  71.100  1.00  0.00    -0.218 F  
HETATM   28  C   UNL     1      -6.667   7.872  70.904  1.00  0.00    -0.037 A  
ENDBRANCH  10  11
ENDBRANCH   9  10
ENDBRANCH   8   9
ENDBRANCH   5   8
TORSDOF 4
ENDMDL
MODEL      226
REMARK 921   NORMALIZED FREE ENERGY PREDICTED BY IDOCK:   -2.91 KCAL/MOL
REMARK 922        TOTAL FREE ENERGY PREDICTED BY IDOCK:   -4.01 KCAL/MOL
REMARK 923 INTER-LIGAND FREE ENERGY PREDICTED BY IDOCK:   -4.00 KCAL/MOL
REMARK 924 INTRA-LIGAND FREE ENERGY PREDICTED BY IDOCK:   -0.01 KCAL/MOL
REMARK 927      BINDING AFFINITY PREDICTED BY RF-SCORE:    0.00 PKD
ROOT
HETATM    1  C   UNL     1      -7.984  10.394  62.507  1.00  0.00    -0.159 C  
HETATM    2  N   UNL     1      -8.229  10.132  63.925  1.00  0.00    -0.160 NA 
HETATM    3  C   UNL     1      -8.679   8.739  64.130  1.00  0.00     0.008 C  
HETATM    4  C   UNL     1      -7.560   7.684  63.983  1.00  0.00    -0.114 C  
HETATM    5  N   UNL     1      -6.386   7.923  64.847  1.00  0.00    -0.048 NA 
HETATM    6  C   UNL     1      -5.910   9.308  64.618  1.00  0.00    -0.065 C  
HETATM    7  C   UNL     1      -7.014  10.390  64.728  1.00  0.00    -0.032 C  
ENDROOT
BRANCH   5   8
HETATM    8  C   UNL     1      -6.675   7.724  66.277  1.00  0.00    -0.054 C  
BRANCH   8   9
HETATM    9  C   UNL     1      -7.357   6.394  66.593  1.00  0.00    -0.078 C  
BRANCH   9  10
HETATM   10  C   UNL     1      -8.790   6.535  67.133  1.00  0.00    -0.110 C  
BRANCH  10  11
HETATM   11  N   UNL     1      -8.867   6.488  68.619  1.00  0.00    -0.122 NA 
HETATM   12  C   UNL     1      -8.422   5.260  69.212  1.00  0.00    -0.101 A  
HETATM   13  C   UNL     1      -7.622   4.329  68.503  1.00  0.00    -0.063 A  
HETATM   14  C   UNL     1      -7.296   3.067  69.008  1.00  0.00    -0.048 A  
HETATM   15  C   UNL     1      -7.707   2.709  70.278  1.00  0.00    -0.044 A  
HETATM   16  C   UNL     1      -8.422   3.628  71.038  1.00  0.00    -0.100 A  
HETATM   17  C   UNL     1      -8.775   4.891  70.521  1.00  0.00    -0.108 A  
HETATM   18  S   UNL     1      -9.696   5.926  71.626  1.00  0.00    -0.161 SA 
HETATM   19  C   UNL     1     -10.031   7.357  70.631  1.00  0.00    -0.186 A  
HETATM   20  C   UNL     1      -9.623   7.499  69.286  1.00  0.00    -0.158 A  
HETATM   21  C   UNL     1     -10.003   8.716  68.666  1.00  0.00    -0.197 A  
HETATM   22  C   UNL     1     -10.769   9.716  69.302  1.00  0.00    -0.246 A  
HETATM   23  C   UNL     1     -11.180  10.972  68.574  1.00  0.00    -0.268 C  
HETATM   24  C   UNL     1     -11.152   9.526  70.626  1.00  0.00    -0.364 A  
HETATM   25  F   UNL     1     -12.533  11.130  68.532  1.00  0.00    -0.261 F  
HETATM   26  F   UNL     1     -10.696  12.098  69.167  1.00  0.00    -0.235 F  
HETATM   27  F   UNL     1     -10.760  11.025  67.279  1.00  0.00    -0.242 F  
HETATM   28  C   UNL     1     -10.780   8.359  71.283  1.00  0.00    -0.286 A  
ENDBRANCH  10  11
ENDBRANCH   9  10
ENDBRANCH   8   9
ENDBRANCH   5   8
TORSDOF 4
ENDMDL
MODEL      227
REMARK 921   NORMALIZED FREE ENERGY PREDICTED BY IDOCK:   -2.87 KCAL/MOL
REMARK 922        TOTAL FREE ENERGY PREDICTED BY IDOCK:   -3.95 KCAL/MOL
REMARK 923 INTER-LIGAND FREE ENERGY PREDICTED BY IDOCK:   -3.99 KCAL/MOL
REMARK 924 INTRA-LIGAND FREE ENERGY PREDICTED BY IDOCK:    0.04 KCAL/MOL
REMARK 927      BINDING AFFINITY PREDICTED BY RF-SCORE:    0.00 PKD
ROOT
HETATM    1  C   UNL     1     -11.321   5.865  72.099  1.00  0.00    -0.288 C  
HETATM    2  N   UNL     1     -11.005   6.569  70.857  1.00  0.00    -0.259 NA 
HETATM    3  C   UNL     1     -11.555   7.941  70.876  1.00  0.00    -0.273 C  
HETATM    4  C   UNL     1     -10.785   8.919  71.792  1.00  0.00    -0.362 C  
HETATM    5  N   UNL     1      -9.339   9.004  71.505  1.00  0.00    -0.285 NA 
HETATM    6  C   UNL     1      -8.776   7.633  71.519  1.00  0.00    -0.120 C  
HETATM    7  C   UNL     1      -9.543   6.618  70.634  1.00  0.00    -0.169 C  
ENDROOT
BRANCH   5   8
HETATM    8  C   UNL     1      -9.046   9.652  70.215  1.00  0.00    -0.225 C  
BRANCH   8   9
HETATM    9  C   UNL     1      -7.589  10.079  70.052  1.00  0.00    -0.182 C  
BRANCH   9  10
HETATM   10  C   UNL     1      -7.391  11.316  69.161  1.00  0.00    -0.104 C  
BRANCH  10  11
HETATM   11  N   UNL     1      -7.853  11.112  67.760  1.00  0.00    -0.111 NA 
HETATM   12  C   UNL     1      -7.186  10.062  67.047  1.00  0.00    -0.090 A  
HETATM   13  C   UNL     1      -6.442   9.056  67.712  1.00  0.00    -0.057 A  
HETATM   14  C   UNL     1      -5.669   8.108  67.034  1.00  0.00    -0.038 A  
HETATM   15  C   UNL     1      -5.662   8.091  65.652  1.00  0.00    -0.037 A  
HETATM   16  C   UNL     1      -6.447   9.008  64.963  1.00  0.00    -0.065 A  
HETATM   17  C   UNL     1      -7.206   9.982  65.643  1.00  0.00    -0.120 A  
HETATM   18  S   UNL     1      -8.136  11.074  64.603  1.00  0.00     0.505 SA 
HETATM   19  C   UNL     1      -8.873  12.190  65.771  1.00  0.00     0.269 A  
HETATM   20  C   UNL     1      -8.669  12.124  67.166  1.00  0.00    -0.190 A  
HETATM   21  C   UNL     1      -9.340  13.117  67.923  1.00  0.00    -0.215 A  
HETATM   22  C   UNL     1     -10.131  14.137  67.352  1.00  0.00    -0.240 A  
HETATM   23  C   UNL     1     -10.787  15.193  68.206  1.00  0.00    -0.262 C  
HETATM   24  C   UNL     1     -10.298  14.162  65.971  1.00  0.00    -0.316 A  
HETATM   25  F   UNL     1     -10.393  16.454  67.869  1.00  0.00    -0.252 F  
HETATM   26  F   UNL     1     -12.144  15.187  68.090  1.00  0.00    -0.322 F  
HETATM   27  F   UNL     1     -10.529  15.069  69.538  1.00  0.00    -0.223 F  
HETATM   28  C   UNL     1      -9.678  13.193  65.191  1.00  0.00     0.036 A  
ENDBRANCH  10  11
ENDBRANCH   9  10
ENDBRANCH   8   9
ENDBRANCH   5   8
TORSDOF 4
ENDMDL
MODEL      228
REMARK 921   NORMALIZED FREE ENERGY PREDICTED BY IDOCK:   -2.87 KCAL/MOL
REMARK 922        TOTAL FREE ENERGY PREDICTED BY IDOCK:   -3.95 KCAL/MOL
REMARK 923 INTER-LIGAND FREE ENERGY PREDICTED BY IDOCK:   -4.07 KCAL/MOL
REMARK 924 INTRA-LIGAND FREE ENERGY PREDICTED BY IDOCK:    0.12 KCAL/MOL
REMARK 927      BINDING AFFINITY PREDICTED BY RF-SCORE:    0.00 PKD
ROOT
HETATM    1  C   UNL     1      -5.960  15.281  67.663  1.00  0.00    -0.094 C  
HETATM    2  N   UNL     1      -7.071  14.336  67.767  1.00  0.00    -0.162 NA 
HETATM    3  C   UNL     1      -6.924  13.243  66.783  1.00  0.00     1.119 C  
HETATM    4  C   UNL     1      -5.828  12.212  67.141  1.00  0.00    -0.139 C  
HETATM    5  N   UNL     1      -5.979  11.612  68.482  1.00  0.00    -0.049 NA 
HETATM    6  C   UNL     1      -6.093  12.705  69.476  1.00  0.00    -0.119 C  
HETATM    7  C   UNL     1      -7.162  13.774  69.132  1.00  0.00    -0.016 C  
ENDROOT
BRANCH   5   8
HETATM    8  C   UNL     1      -7.147  10.720  68.585  1.00  0.00    -0.078 C  
BRANCH   8   9
HETATM    9  C   UNL     1      -8.333  11.334  69.326  1.00  0.00     0.167 C  
BRANCH   9  10
HETATM   10  C   UNL     1      -9.706  10.918  68.772  1.00  0.00    -0.189 C  
BRANCH  10  11
HETATM   11  N   UNL     1     -10.178  11.785  67.658  1.00  0.00    -0.197 NA 
HETATM   12  C   UNL     1      -9.810  11.341  66.344  1.00  0.00    -0.211 A  
HETATM   13  C   UNL     1      -9.383  10.014  66.091  1.00  0.00    -0.220 A  
HETATM   14  C   UNL     1      -8.886   9.599  64.852  1.00  0.00    -0.234 A  
HETATM   15  C   UNL     1      -8.857  10.486  63.792  1.00  0.00    -0.208 A  
HETATM   16  C   UNL     1      -9.347  11.774  63.978  1.00  0.00     0.081 A  
HETATM   17  C   UNL     1      -9.824  12.203  65.234  1.00  0.00    -0.196 A  
HETATM   18  S   UNL     1     -10.398  13.878  65.288  1.00  0.00    -0.378 SA 
HETATM   19  C   UNL     1     -10.825  14.088  66.998  1.00  0.00    -0.290 A  
HETATM   20  C   UNL     1     -10.674  13.086  67.980  1.00  0.00    -0.232 A  
HETATM   21  C   UNL     1     -11.063  13.461  69.291  1.00  0.00    -0.216 A  
HETATM   22  C   UNL     1     -11.533  14.747  69.632  1.00  0.00    -0.327 A  
HETATM   23  C   UNL     1     -11.891  15.100  71.055  1.00  0.00    -0.333 C  
HETATM   24  C   UNL     1     -11.659  15.703  68.629  1.00  0.00    -0.391 A  
HETATM   25  F   UNL     1     -11.161  16.148  71.530  1.00  0.00    -0.325 F  
HETATM   26  F   UNL     1     -13.196  15.470  71.186  1.00  0.00    -0.451 F  
HETATM   27  F   UNL     1     -11.703  14.084  71.942  1.00  0.00    -0.159 F  
HETATM   28  C   UNL     1     -11.313  15.371  67.324  1.00  0.00    -0.220 A  
ENDBRANCH  10  11
ENDBRANCH   9  10
ENDBRANCH   8   9
ENDBRANCH   5   8
TORSDOF 4
ENDMDL
MODEL      229
REMARK 921   NORMALIZED FREE ENERGY PREDICTED BY IDOCK:   -2.86 KCAL/MOL
REMARK 922        TOTAL FREE ENERGY PREDICTED BY IDOCK:   -3.94 KCAL/MOL
REMARK 923 INTER-LIGAND FREE ENERGY PREDICTED BY IDOCK:   -4.08 KCAL/MOL
REMARK 924 INTRA-LIGAND FREE ENERGY PREDICTED BY IDOCK:    0.14 KCAL/MOL
REMARK 927      BINDING AFFINITY PREDICTED BY RF-SCORE:    0.00 PKD
ROOT
HETATM    1  C   UNL     1     -13.995  16.284  73.172  1.00  0.00     0.222 C  
HETATM    2  N   UNL     1     -14.011  14.995  72.483  1.00  0.00    -0.467 NA 
HETATM    3  C   UNL     1     -14.100  15.183  71.020  1.00  0.00    -0.261 C  
HETATM    4  C   UNL     1     -12.789  15.676  70.365  1.00  0.00    -0.206 C  
HETATM    5  N   UNL     1     -11.614  14.829  70.653  1.00  0.00    -0.280 NA 
HETATM    6  C   UNL     1     -11.502  14.667  72.122  1.00  0.00     0.301 C  
HETATM    7  C   UNL     1     -12.808  14.202  72.816  1.00  0.00    -0.351 C  
ENDROOT
BRANCH   5   8
HETATM    8  C   UNL     1     -11.686  13.507  70.007  1.00  0.00    -0.241 C  
BRANCH   8   9
HETATM    9  C   UNL     1     -10.948  13.428  68.672  1.00  0.00    -0.288 C  
BRANCH   9  10
HETATM   10  C   UNL     1      -9.417  13.469  68.795  1.00  0.00     0.043 C  
BRANCH  10  11
HETATM   11  N   UNL     1      -8.803  14.651  68.129  1.00  0.00    -0.167 NA 
HETATM   12  C   UNL     1      -7.760  15.295  68.874  1.00  0.00    -0.167 A  
HETATM   13  C   UNL     1      -7.101  14.654  69.953  1.00  0.00    -0.056 A  
HETATM   14  C   UNL     1      -6.185  15.310  70.781  1.00  0.00     0.191 A  
HETATM   15  C   UNL     1      -5.842  16.623  70.521  1.00  0.00     0.059 A  
HETATM   16  C   UNL     1      -6.404  17.260  69.420  1.00  0.00    -0.244 A  
HETATM   17  C   UNL     1      -7.349  16.611  68.599  1.00  0.00    -0.203 A  
HETATM   18  S   UNL     1      -7.967  17.579  67.251  1.00  0.00    -0.210 SA 
HETATM   19  C   UNL     1      -9.165  16.498  66.512  1.00  0.00    -0.272 A  
HETATM   20  C   UNL     1      -9.472  15.208  66.996  1.00  0.00    -0.226 A  
HETATM   21  C   UNL     1     -10.469  14.511  66.269  1.00  0.00    -0.303 A  
HETATM   22  C   UNL     1     -11.156  15.054  65.161  1.00  0.00    -0.408 A  
HETATM   23  C   UNL     1     -12.240  14.279  64.453  1.00  0.00    -0.447 C  
HETATM   24  C   UNL     1     -10.821  16.332  64.726  1.00  0.00    -0.245 A  
HETATM   25  F   UNL     1     -13.436  14.933  64.461  1.00  0.00     0.466 F  
HETATM   26  F   UNL     1     -11.948  14.058  63.141  1.00  0.00    -0.221 F  
HETATM   27  F   UNL     1     -12.485  13.051  64.990  1.00  0.00    -0.425 F  
HETATM   28  C   UNL     1      -9.831  17.042  65.394  1.00  0.00     0.329 A  
ENDBRANCH  10  11
ENDBRANCH   9  10
ENDBRANCH   8   9
ENDBRANCH   5   8
TORSDOF 4
ENDMDL
MODEL      230
REMARK 921   NORMALIZED FREE ENERGY PREDICTED BY IDOCK:   -2.82 KCAL/MOL
REMARK 922        TOTAL FREE ENERGY PREDICTED BY IDOCK:   -3.90 KCAL/MOL
REMARK 923 INTER-LIGAND FREE ENERGY PREDICTED BY IDOCK:   -4.80 KCAL/MOL
REMARK 924 INTRA-LIGAND FREE ENERGY PREDICTED BY IDOCK:    0.90 KCAL/MOL
REMARK 927      BINDING AFFINITY PREDICTED BY RF-SCORE:    0.00 PKD
ROOT
HETATM    1  C   UNL     1     -13.214   6.700  71.563  1.00  0.00     0.002 C  
HETATM    2  N   UNL     1     -11.812   6.525  71.184  1.00  0.00    -0.343 NA 
HETATM    3  C   UNL     1     -11.291   7.741  70.526  1.00  0.00    -0.241 C  
HETATM    4  C   UNL     1     -11.030   8.920  71.491  1.00  0.00    -0.328 C  
HETATM    5  N   UNL     1     -10.142   8.590  72.623  1.00  0.00    -0.252 NA 
HETATM    6  C   UNL     1     -10.681   7.390  73.308  1.00  0.00    -0.391 C  
HETATM    7  C   UNL     1     -10.983   6.198  72.365  1.00  0.00    -0.259 C  
ENDROOT
BRANCH   5   8
HETATM    8  C   UNL     1      -8.750   8.346  72.210  1.00  0.00    -0.209 C  
BRANCH   8   9
HETATM    9  C   UNL     1      -8.617   7.519  70.932  1.00  0.00    -0.130 C  
BRANCH   9  10
HETATM   10  C   UNL     1      -7.809   8.206  69.819  1.00  0.00    -0.105 C  
BRANCH  10  11
HETATM   11  N   UNL     1      -8.280   7.861  68.450  1.00  0.00    -0.123 NA 
HETATM   12  C   UNL     1      -7.805   6.606  67.942  1.00  0.00    -0.112 A  
HETATM   13  C   UNL     1      -7.264   5.607  68.790  1.00  0.00    -0.081 A  
HETATM   14  C   UNL     1      -6.667   4.440  68.305  1.00  0.00    -0.047 A  
HETATM   15  C   UNL     1      -6.643   4.196  66.945  1.00  0.00    -0.046 A  
HETATM   16  C   UNL     1      -7.239   5.112  66.085  1.00  0.00    -0.073 A  
HETATM   17  C   UNL     1      -7.819   6.302  66.569  1.00  0.00    -0.104 A  
HETATM   18  S   UNL     1      -8.520   7.356  65.330  1.00  0.00     0.006 SA 
HETATM   19  C   UNL     1      -9.060   8.760  66.273  1.00  0.00    -0.193 A  
HETATM   20  C   UNL     1      -8.890   8.889  67.669  1.00  0.00    -0.134 A  
HETATM   21  C   UNL     1      -9.382  10.095  68.228  1.00  0.00    -0.136 A  
HETATM   22  C   UNL     1      -9.966  11.131  67.469  1.00  0.00    -0.204 A  
HETATM   23  C   UNL     1     -10.432  12.412  68.116  1.00  0.00    -0.219 C  
HETATM   24  C   UNL     1     -10.107  10.959  66.095  1.00  0.00    -0.291 A  
HETATM   25  F   UNL     1      -9.811  13.511  67.600  1.00  0.00    -0.212 F  
HETATM   26  F   UNL     1     -11.766  12.627  67.944  1.00  0.00    -0.324 F  
HETATM   27  F   UNL     1     -10.219  12.464  69.460  1.00  0.00     0.134 F  
HETATM   28  C   UNL     1      -9.661   9.781  65.507  1.00  0.00    -0.382 A  
ENDBRANCH  10  11
ENDBRANCH   9  10
ENDBRANCH   8   9
ENDBRANCH   5   8
TORSDOF 4
ENDMDL
MODEL      231
REMARK 921   NORMALIZED FREE ENERGY PREDICTED BY IDOCK:   -2.80 KCAL/MOL
REMARK 922        TOTAL FREE ENERGY PREDICTED BY IDOCK:   -3.87 KCAL/MOL
REMARK 923 INTER-LIGAND FREE ENERGY PREDICTED BY IDOCK:   -3.36 KCAL/MOL
REMARK 924 INTRA-LIGAND FREE ENERGY PREDICTED BY IDOCK:   -0.52 KCAL/MOL
REMARK 927      BINDING AFFINITY PREDICTED BY RF-SCORE:    0.00 PKD
ROOT
HETATM    1  C   UNL     1      -5.499   8.306  73.060  1.00  0.00    -0.051 C  
HETATM    2  N   UNL     1      -5.126   8.445  71.653  1.00  0.00    -0.033 NA 
HETATM    3  C   UNL     1      -5.384   7.189  70.917  1.00  0.00    -0.027 C  
HETATM    4  C   UNL     1      -6.879   6.914  70.640  1.00  0.00    -0.058 C  
HETATM    5  N   UNL     1      -7.577   8.012  69.941  1.00  0.00    -0.085 NA 
HETATM    6  C   UNL     1      -7.350   9.267  70.696  1.00  0.00    -0.123 C  
HETATM    7  C   UNL     1      -5.862   9.560  71.018  1.00  0.00    -0.069 C  
ENDROOT
BRANCH   5   8
HETATM    8  C   UNL     1      -7.133   8.180  68.547  1.00  0.00    -0.076 C  
BRANCH   8   9
HETATM    9  C   UNL     1      -7.534   7.029  67.625  1.00  0.00    -0.098 C  
BRANCH   9  10
HETATM   10  C   UNL     1      -8.959   7.141  67.061  1.00  0.00    -0.129 C  
BRANCH  10  11
HETATM   11  N   UNL     1      -8.994   7.494  65.614  1.00  0.00    -0.041 NA 
HETATM   12  C   UNL     1      -8.520   6.470  64.728  1.00  0.00     0.062 A  
HETATM   13  C   UNL     1      -8.399   5.118  65.136  1.00  0.00    -0.141 A  
HETATM   14  C   UNL     1      -7.808   4.134  64.339  1.00  0.00    -0.085 A  
HETATM   15  C   UNL     1      -7.370   4.452  63.067  1.00  0.00    -0.049 A  
HETATM   16  C   UNL     1      -7.549   5.749  62.599  1.00  0.00    -0.074 A  
HETATM   17  C   UNL     1      -8.120   6.750  63.410  1.00  0.00    -0.006 A  
HETATM   18  S   UNL     1      -8.258   8.345  62.651  1.00  0.00    -0.149 SA 
HETATM   19  C   UNL     1      -8.918   9.344  63.962  1.00  0.00    -0.132 A  
HETATM   20  C   UNL     1      -9.199   8.862  65.259  1.00  0.00    -0.091 A  
HETATM   21  C   UNL     1      -9.710   9.827  66.164  1.00  0.00    -0.309 A  
HETATM   22  C   UNL     1      -9.897  11.187  65.838  1.00  0.00    -0.275 A  
HETATM   23  C   UNL     1     -10.404  12.176  66.858  1.00  0.00    -0.212 C  
HETATM   24  C   UNL     1      -9.600  11.614  64.547  1.00  0.00    -0.135 A  
HETATM   25  F   UNL     1      -9.533  13.204  67.064  1.00  0.00    -0.210 F  
HETATM   26  F   UNL     1     -11.577  12.757  66.481  1.00  0.00    -0.331 F  
HETATM   27  F   UNL     1     -10.637  11.636  68.087  1.00  0.00    -0.182 F  
HETATM   28  C   UNL     1      -9.120  10.697  63.620  1.00  0.00    -0.248 A  
ENDBRANCH  10  11
ENDBRANCH   9  10
ENDBRANCH   8   9
ENDBRANCH   5   8
TORSDOF 4
ENDMDL
MODEL      232
REMARK 921   NORMALIZED FREE ENERGY PREDICTED BY IDOCK:   -2.77 KCAL/MOL
REMARK 922        TOTAL FREE ENERGY PREDICTED BY IDOCK:   -3.83 KCAL/MOL
REMARK 923 INTER-LIGAND FREE ENERGY PREDICTED BY IDOCK:   -4.47 KCAL/MOL
REMARK 924 INTRA-LIGAND FREE ENERGY PREDICTED BY IDOCK:    0.64 KCAL/MOL
REMARK 927      BINDING AFFINITY PREDICTED BY RF-SCORE:    0.00 PKD
ROOT
HETATM    1  C   UNL     1     -10.538  10.356  67.110  1.00  0.00    -0.261 C  
HETATM    2  N   UNL     1     -10.467   8.949  66.716  1.00  0.00    -0.240 NA 
HETATM    3  C   UNL     1      -9.212   8.671  65.988  1.00  0.00    -0.216 C  
HETATM    4  C   UNL     1      -7.955   8.630  66.887  1.00  0.00    -0.095 C  
HETATM    5  N   UNL     1      -8.053   7.685  68.018  1.00  0.00    -0.122 NA 
HETATM    6  C   UNL     1      -9.294   7.984  68.772  1.00  0.00    -0.147 C  
HETATM    7  C   UNL     1     -10.570   8.063  67.896  1.00  0.00    -0.145 C  
ENDROOT
BRANCH   5   8
HETATM    8  C   UNL     1      -8.053   6.275  67.593  1.00  0.00    -0.117 C  
BRANCH   8   9
HETATM    9  C   UNL     1      -9.441   5.640  67.551  1.00  0.00    -0.117 C  
BRANCH   9  10
HETATM   10  C   UNL     1      -9.558   4.330  68.347  1.00  0.00    -0.133 C  
BRANCH  10  11
HETATM   11  N   UNL     1      -8.841   4.367  69.652  1.00  0.00    -0.084 NA 
HETATM   12  C   UNL     1      -7.611   3.630  69.690  1.00  0.00    -0.051 A  
HETATM   13  C   UNL     1      -6.936   3.231  68.509  1.00  0.00    -0.049 A  
HETATM   14  C   UNL     1      -5.816   2.394  68.520  1.00  0.00    -0.023 A  
HETATM   15  C   UNL     1      -5.286   1.973  69.724  1.00  0.00    -0.011 A  
HETATM   16  C   UNL     1      -5.869   2.413  70.907  1.00  0.00    -0.017 A  
HETATM   17  C   UNL     1      -7.014   3.235  70.900  1.00  0.00    -0.033 A  
HETATM   18  S   UNL     1      -7.627   3.687  72.499  1.00  0.00    -0.064 SA 
HETATM   19  C   UNL     1      -9.085   4.621  72.108  1.00  0.00    -0.127 A  
HETATM   20  C   UNL     1      -9.547   4.854  70.794  1.00  0.00    -0.184 A  
HETATM   21  C   UNL     1     -10.739   5.614  70.699  1.00  0.00    -0.333 A  
HETATM   22  C   UNL     1     -11.461   6.085  71.817  1.00  0.00    -0.314 A  
HETATM   23  C   UNL     1     -12.750   6.853  71.653  1.00  0.00    -0.352 C  
HETATM   24  C   UNL     1     -10.969   5.824  73.092  1.00  0.00    -0.309 A  
HETATM   25  F   UNL     1     -13.800   6.245  72.274  1.00  0.00    -0.249 F  
HETATM   26  F   UNL     1     -12.680   8.104  72.185  1.00  0.00    -0.316 F  
HETATM   27  F   UNL     1     -13.133   7.022  70.357  1.00  0.00    -0.184 F  
HETATM   28  C   UNL     1      -9.789   5.103  73.232  1.00  0.00    -0.171 A  
ENDBRANCH  10  11
ENDBRANCH   9  10
ENDBRANCH   8   9
ENDBRANCH   5   8
TORSDOF 4
ENDMDL
MODEL      233
REMARK 921   NORMALIZED FREE ENERGY PREDICTED BY IDOCK:   -2.59 KCAL/MOL
REMARK 922        TOTAL FREE ENERGY PREDICTED BY IDOCK:   -3.62 KCAL/MOL
REMARK 923 INTER-LIGAND FREE ENERGY PREDICTED BY IDOCK:   -3.15 KCAL/MOL
REMARK 924 INTRA-LIGAND FREE ENERGY PREDICTED BY IDOCK:   -0.47 KCAL/MOL
REMARK 927      BINDING AFFINITY PREDICTED BY RF-SCORE:    0.00 PKD
ROOT
HETATM    1  C   UNL     1     -12.543  14.710  70.494  1.00  0.00    -0.350 C  
HETATM    2  N   UNL     1     -12.341  14.302  69.104  1.00  0.00    -0.222 NA 
HETATM    3  C   UNL     1     -11.116  14.916  68.550  1.00  0.00    -0.266 C  
HETATM    4  C   UNL     1      -9.803  14.291  69.072  1.00  0.00    -0.067 C  
HETATM    5  N   UNL     1      -9.713  12.829  68.885  1.00  0.00     0.096 NA 
HETATM    6  C   UNL     1     -10.924  12.206  69.470  1.00  0.00     0.032 C  
HETATM    7  C   UNL     1     -12.259  12.829  68.991  1.00  0.00     0.002 C  
ENDROOT
BRANCH   5   8
HETATM    8  C   UNL     1      -9.583  12.438  67.471  1.00  0.00    -0.185 C  
BRANCH   8   9
HETATM    9  C   UNL     1      -8.509  13.212  66.709  1.00  0.00     0.001 C  
BRANCH   9  10
HETATM   10  C   UNL     1      -7.113  12.570  66.763  1.00  0.00     0.349 C  
BRANCH  10  11
HETATM   11  N   UNL     1      -6.326  12.973  67.961  1.00  0.00    -0.099 NA 
HETATM   12  C   UNL     1      -5.889  11.889  68.793  1.00  0.00    -0.050 A  
HETATM   13  C   UNL     1      -5.861  10.550  68.331  1.00  0.00    -0.043 A  
HETATM   14  C   UNL     1      -5.576   9.464  69.164  1.00  0.00    -0.036 A  
HETATM   15  C   UNL     1      -5.242   9.683  70.487  1.00  0.00    -0.037 A  
HETATM   16  C   UNL     1      -5.176  10.990  70.957  1.00  0.00    -0.113 A  
HETATM   17  C   UNL     1      -5.489  12.086  70.127  1.00  0.00    -0.117 A  
HETATM   18  S   UNL     1      -5.362  13.676  70.898  1.00  0.00    -0.179 SA 
HETATM   19  C   UNL     1      -5.903  14.775  69.614  1.00  0.00    -0.104 A  
HETATM   20  C   UNL     1      -6.327  14.352  68.335  1.00  0.00    -0.101 A  
HETATM   21  C   UNL     1      -6.731  15.390  67.458  1.00  0.00    -0.211 A  
HETATM   22  C   UNL     1      -6.759  16.754  67.818  1.00  0.00    -0.153 A  
HETATM   23  C   UNL     1      -7.241  17.810  66.854  1.00  0.00    -0.197 C  
HETATM   24  C   UNL     1      -6.336  17.121  69.092  1.00  0.00    -0.220 A  
HETATM   25  F   UNL     1      -8.301  18.515  67.342  1.00  0.00    -0.247 F  
HETATM   26  F   UNL     1      -6.281  18.735  66.573  1.00  0.00    -0.178 F  
HETATM   27  F   UNL     1      -7.646  17.319  65.650  1.00  0.00    -0.275 F  
HETATM   28  C   UNL     1      -5.908  16.139  69.977  1.00  0.00    -0.179 A  
ENDBRANCH  10  11
ENDBRANCH   9  10
ENDBRANCH   8   9
ENDBRANCH   5   8
TORSDOF 4
ENDMDL
MODEL      234
REMARK 921   NORMALIZED FREE ENERGY PREDICTED BY IDOCK:   -2.59 KCAL/MOL
REMARK 922        TOTAL FREE ENERGY PREDICTED BY IDOCK:   -3.62 KCAL/MOL
REMARK 923 INTER-LIGAND FREE ENERGY PREDICTED BY IDOCK:   -3.16 KCAL/MOL
REMARK 924 INTRA-LIGAND FREE ENERGY PREDICTED BY IDOCK:   -0.46 KCAL/MOL
REMARK 927      BINDING AFFINITY PREDICTED BY RF-SCORE:    0.00 PKD
ROOT
HETATM    1  C   UNL     1     -11.514  11.204  67.509  1.00  0.00    -0.216 C  
HETATM    2  N   UNL     1     -10.300  10.865  66.766  1.00  0.00    -0.232 NA 
HETATM    3  C   UNL     1      -9.129  11.575  67.322  1.00  0.00    -0.164 C  
HETATM    4  C   UNL     1      -8.630  11.012  68.672  1.00  0.00    -0.157 C  
HETATM    5  N   UNL     1      -8.327   9.567  68.649  1.00  0.00    -0.115 NA 
HETATM    6  C   UNL     1      -9.512   8.847  68.124  1.00  0.00    -0.143 C  
HETATM    7  C   UNL     1     -10.058   9.406  66.785  1.00  0.00    -0.256 C  
ENDROOT
BRANCH   5   8
HETATM    8  C   UNL     1      -7.143   9.240  67.835  1.00  0.00    -0.078 C  
BRANCH   8   9
HETATM    9  C   UNL     1      -7.065   7.774  67.413  1.00  0.00    -0.086 C  
BRANCH   9  10
HETATM   10  C   UNL     1      -6.152   6.912  68.299  1.00  0.00    -0.033 C  
BRANCH  10  11
HETATM   11  N   UNL     1      -6.849   5.744  68.904  1.00  0.00    -0.063 NA 
HETATM   12  C   UNL     1      -7.344   4.778  67.966  1.00  0.00    -0.070 A  
HETATM   13  C   UNL     1      -6.882   4.726  66.626  1.00  0.00    -0.058 A  
HETATM   14  C   UNL     1      -7.450   3.891  65.660  1.00  0.00    -0.081 A  
HETATM   15  C   UNL     1      -8.466   3.023  66.013  1.00  0.00    -0.111 A  
HETATM   16  C   UNL     1      -8.889   2.985  67.337  1.00  0.00    -0.162 A  
HETATM   17  C   UNL     1      -8.337   3.845  68.308  1.00  0.00    -0.091 A  
HETATM   18  S   UNL     1      -9.006   3.665  69.939  1.00  0.00    -0.120 SA 
HETATM   19  C   UNL     1      -8.162   4.934  70.848  1.00  0.00    -0.095 A  
HETATM   20  C   UNL     1      -7.221   5.822  70.281  1.00  0.00    -0.075 A  
HETATM   21  C   UNL     1      -6.670   6.771  71.178  1.00  0.00    -0.057 A  
HETATM   22  C   UNL     1      -7.042   6.877  72.535  1.00  0.00    -0.070 A  
HETATM   23  C   UNL     1      -6.451   7.938  73.430  1.00  0.00    -0.085 C  
HETATM   24  C   UNL     1      -7.977   5.983  73.046  1.00  0.00    -0.109 A  
HETATM   25  F   UNL     1      -7.402   8.755  73.966  1.00  0.00    -0.181 F  
HETATM   26  F   UNL     1      -5.780   7.409  74.491  1.00  0.00    -0.067 F  
HETATM   27  F   UNL     1      -5.565   8.762  72.804  1.00  0.00    -0.057 F  
HETATM   28  C   UNL     1      -8.526   5.018  72.209  1.00  0.00    -0.124 A  
ENDBRANCH  10  11
ENDBRANCH   9  10
ENDBRANCH   8   9
ENDBRANCH   5   8
TORSDOF 4
ENDMDL
MODEL      235
REMARK 921   NORMALIZED FREE ENERGY PREDICTED BY IDOCK:   -2.58 KCAL/MOL
REMARK 922        TOTAL FREE ENERGY PREDICTED BY IDOCK:   -3.60 KCAL/MOL
REMARK 923 INTER-LIGAND FREE ENERGY PREDICTED BY IDOCK:   -4.98 KCAL/MOL
REMARK 924 INTRA-LIGAND FREE ENERGY PREDICTED BY IDOCK:    1.38 KCAL/MOL
REMARK 927      BINDING AFFINITY PREDICTED BY RF-SCORE:    0.00 PKD
ROOT
HETATM    1  C   UNL     1     -12.038  15.401  64.230  1.00  0.00    -0.166 C  
HETATM    2  N   UNL     1     -10.751  14.909  64.719  1.00  0.00    -0.390 NA 
HETATM    3  C   UNL     1     -10.541  15.301  66.129  1.00  0.00    -0.313 C  
HETATM    4  C   UNL     1     -11.391  14.501  67.141  1.00  0.00    -0.350 C  
HETATM    5  N   UNL     1     -11.232  13.036  67.039  1.00  0.00    -0.278 NA 
HETATM    6  C   UNL     1     -11.477  12.634  65.634  1.00  0.00    -0.350 C  
HETATM    7  C   UNL     1     -10.662  13.438  64.588  1.00  0.00    -0.411 C  
ENDROOT
BRANCH   5   8
HETATM    8  C   UNL     1      -9.902  12.570  67.468  1.00  0.00    -0.198 C  
BRANCH   8   9
HETATM    9  C   UNL     1      -9.938  11.567  68.620  1.00  0.00    -0.207 C  
BRANCH   9  10
HETATM   10  C   UNL     1     -10.108  10.105  68.178  1.00  0.00    -0.152 C  
BRANCH  10  11
HETATM   11  N   UNL     1      -8.849   9.314  68.264  1.00  0.00    -0.129 NA 
HETATM   12  C   UNL     1      -9.015   7.894  68.142  1.00  0.00    -0.131 A  
HETATM   13  C   UNL     1     -10.192   7.317  67.602  1.00  0.00    -0.257 A  
HETATM   14  C   UNL     1     -10.434   5.941  67.605  1.00  0.00    -0.301 A  
HETATM   15  C   UNL     1      -9.473   5.076  68.093  1.00  0.00    -0.169 A  
HETATM   16  C   UNL     1      -8.269   5.598  68.553  1.00  0.00    -0.106 A  
HETATM   17  C   UNL     1      -8.033   6.987  68.577  1.00  0.00    -0.123 A  
HETATM   18  S   UNL     1      -6.449   7.471  69.206  1.00  0.00    -0.040 SA 
HETATM   19  C   UNL     1      -6.540   9.243  69.171  1.00  0.00    -0.049 A  
HETATM   20  C   UNL     1      -7.673   9.969  68.741  1.00  0.00    -0.085 A  
HETATM   21  C   UNL     1      -7.546  11.379  68.802  1.00  0.00    -0.132 A  
HETATM   22  C   UNL     1      -6.400  12.043  69.291  1.00  0.00    -0.102 A  
HETATM   23  C   UNL     1      -6.340  13.549  69.372  1.00  0.00    -0.110 C  
HETATM   24  C   UNL     1      -5.312  11.284  69.709  1.00  0.00    -0.054 A  
HETATM   25  F   UNL     1      -6.121  13.993  70.643  1.00  0.00    -0.156 F  
HETATM   26  F   UNL     1      -5.332  14.070  68.620  1.00  0.00    -0.076 F  
HETATM   27  F   UNL     1      -7.476  14.173  68.953  1.00  0.00    -0.113 F  
HETATM   28  C   UNL     1      -5.383   9.897  69.643  1.00  0.00    -0.034 A  
ENDBRANCH  10  11
ENDBRANCH   9  10
ENDBRANCH   8   9
ENDBRANCH   5   8
TORSDOF 4
ENDMDL
MODEL      236
REMARK 921   NORMALIZED FREE ENERGY PREDICTED BY IDOCK:   -2.57 KCAL/MOL
REMARK 922        TOTAL FREE ENERGY PREDICTED BY IDOCK:   -3.58 KCAL/MOL
REMARK 923 INTER-LIGAND FREE ENERGY PREDICTED BY IDOCK:   -3.19 KCAL/MOL
REMARK 924 INTRA-LIGAND FREE ENERGY PREDICTED BY IDOCK:   -0.40 KCAL/MOL
REMARK 927      BINDING AFFINITY PREDICTED BY RF-SCORE:    0.00 PKD
ROOT
HETATM    1  C   UNL     1     -12.396  14.557  70.668  1.00  0.00    -0.339 C  
HETATM    2  N   UNL     1     -12.558  13.980  69.334  1.00  0.00    -0.061 NA 
HETATM    3  C   UNL     1     -11.438  14.373  68.453  1.00  0.00    -0.301 C  
HETATM    4  C   UNL     1     -10.107  13.649  68.759  1.00  0.00    -0.122 C  
HETATM    5  N   UNL     1     -10.206  12.176  68.753  1.00  0.00    -0.167 NA 
HETATM    6  C   UNL     1     -11.306  11.775  69.662  1.00  0.00    -0.215 C  
HETATM    7  C   UNL     1     -12.648  12.505  69.403  1.00  0.00     0.526 C  
ENDROOT
BRANCH   5   8
HETATM    8  C   UNL     1     -10.442  11.621  67.409  1.00  0.00    -0.210 C  
BRANCH   8   9
HETATM    9  C   UNL     1      -9.453  12.112  66.353  1.00  0.00    -0.238 C  
BRANCH   9  10
HETATM   10  C   UNL     1      -8.320  11.121  66.043  1.00  0.00    -0.115 C  
BRANCH  10  11
HETATM   11  N   UNL     1      -7.404  10.893  67.195  1.00  0.00    -0.099 NA 
HETATM   12  C   UNL     1      -7.342   9.539  67.663  1.00  0.00    -0.083 A  
HETATM   13  C   UNL     1      -7.793   8.449  66.877  1.00  0.00    -0.095 A  
HETATM   14  C   UNL     1      -7.873   7.142  67.365  1.00  0.00    -0.112 A  
HETATM   15  C   UNL     1      -7.443   6.860  68.648  1.00  0.00    -0.099 A  
HETATM   16  C   UNL     1      -6.915   7.888  69.421  1.00  0.00    -0.059 A  
HETATM   17  C   UNL     1      -6.857   9.212  68.942  1.00  0.00    -0.056 A  
HETATM   18  S   UNL     1      -6.164  10.392  70.068  1.00  0.00    -0.109 SA 
HETATM   19  C   UNL     1      -6.332  11.921  69.183  1.00  0.00    -0.092 A  
HETATM   20  C   UNL     1      -6.917  12.034  67.903  1.00  0.00    -0.095 A  
HETATM   21  C   UNL     1      -6.966  13.349  67.376  1.00  0.00    -0.098 A  
HETATM   22  C   UNL     1      -6.510  14.490  68.070  1.00  0.00    -0.158 A  
HETATM   23  C   UNL     1      -6.628  15.871  67.473  1.00  0.00    -0.182 C  
HETATM   24  C   UNL     1      -5.946  14.327  69.331  1.00  0.00    -0.103 A  
HETATM   25  F   UNL     1      -7.364  16.714  68.253  1.00  0.00    -0.157 F  
HETATM   26  F   UNL     1      -5.418  16.476  67.317  1.00  0.00    -0.131 F  
HETATM   27  F   UNL     1      -7.216  15.896  66.245  1.00  0.00    -0.082 F  
HETATM   28  C   UNL     1      -5.855  13.053  69.878  1.00  0.00    -0.132 A  
ENDBRANCH  10  11
ENDBRANCH   9  10
ENDBRANCH   8   9
ENDBRANCH   5   8
TORSDOF 4
ENDMDL
MODEL      237
REMARK 921   NORMALIZED FREE ENERGY PREDICTED BY IDOCK:   -2.48 KCAL/MOL
REMARK 922        TOTAL FREE ENERGY PREDICTED BY IDOCK:   -3.47 KCAL/MOL
REMARK 923 INTER-LIGAND FREE ENERGY PREDICTED BY IDOCK:   -2.84 KCAL/MOL
REMARK 924 INTRA-LIGAND FREE ENERGY PREDICTED BY IDOCK:   -0.63 KCAL/MOL
REMARK 927      BINDING AFFINITY PREDICTED BY RF-SCORE:    0.00 PKD
ROOT
HETATM    1  C   UNL     1     -12.574   7.736  71.387  1.00  0.00    -0.317 C  
HETATM    2  N   UNL     1     -11.130   7.797  71.608  1.00  0.00    -0.234 NA 
HETATM    3  C   UNL     1     -10.431   6.780  70.794  1.00  0.00    -0.214 C  
HETATM    4  C   UNL     1     -10.357   7.116  69.288  1.00  0.00    -0.203 C  
HETATM    5  N   UNL     1      -9.762   8.435  68.992  1.00  0.00    -0.168 NA 
HETATM    6  C   UNL     1     -10.483   9.463  69.779  1.00  0.00    -0.226 C  
HETATM    7  C   UNL     1     -10.603   9.142  71.291  1.00  0.00    -0.329 C  
ENDROOT
BRANCH   5   8
HETATM    8  C   UNL     1      -8.321   8.496  69.291  1.00  0.00    -0.120 C  
BRANCH   8   9
HETATM    9  C   UNL     1      -7.735   9.906  69.235  1.00  0.00    -0.109 C  
BRANCH   9  10
HETATM   10  C   UNL     1      -6.931  10.204  67.960  1.00  0.00    -0.082 C  
BRANCH  10  11
HETATM   11  N   UNL     1      -7.769  10.233  66.729  1.00  0.00    -0.108 NA 
HETATM   12  C   UNL     1      -8.607  11.389  66.591  1.00  0.00    -0.170 A  
HETATM   13  C   UNL     1      -8.384  12.573  67.337  1.00  0.00    -0.182 A  
HETATM   14  C   UNL     1      -9.267  13.657  67.325  1.00  0.00    -0.232 A  
HETATM   15  C   UNL     1     -10.383  13.623  66.511  1.00  0.00    -0.282 A  
HETATM   16  C   UNL     1     -10.592  12.513  65.700  1.00  0.00    -0.298 A  
HETATM   17  C   UNL     1      -9.717  11.408  65.729  1.00  0.00    -0.233 A  
HETATM   18  S   UNL     1     -10.146  10.080  64.638  1.00  0.00     0.245 SA 
HETATM   19  C   UNL     1      -8.908   8.861  65.003  1.00  0.00    -0.140 A  
HETATM   20  C   UNL     1      -7.894   9.028  65.971  1.00  0.00    -0.102 A  
HETATM   21  C   UNL     1      -7.012   7.928  66.118  1.00  0.00    -0.062 A  
HETATM   22  C   UNL     1      -7.134   6.723  65.395  1.00  0.00    -0.064 A  
HETATM   23  C   UNL     1      -6.189   5.570  65.626  1.00  0.00    -0.034 C  
HETATM   24  C   UNL     1      -8.154   6.604  64.456  1.00  0.00    -0.073 A  
HETATM   25  F   UNL     1      -6.837   4.435  66.013  1.00  0.00    -0.051 F  
HETATM   26  F   UNL     1      -5.495   5.233  64.503  1.00  0.00    -0.014 F  
HETATM   27  F   UNL     1      -5.250   5.805  66.585  1.00  0.00    -0.005 F  
HETATM   28  C   UNL     1      -9.027   7.667  64.261  1.00  0.00     0.962 A  
ENDBRANCH  10  11
ENDBRANCH   9  10
ENDBRANCH   8   9
ENDBRANCH   5   8
TORSDOF 4
ENDMDL
MODEL      238
REMARK 921   NORMALIZED FREE ENERGY PREDICTED BY IDOCK:   -2.43 KCAL/MOL
REMARK 922        TOTAL FREE ENERGY PREDICTED BY IDOCK:   -3.41 KCAL/MOL
REMARK 923 INTER-LIGAND FREE ENERGY PREDICTED BY IDOCK:   -3.23 KCAL/MOL
REMARK 924 INTRA-LIGAND FREE ENERGY PREDICTED BY IDOCK:   -0.18 KCAL/MOL
REMARK 927      BINDING AFFINITY PREDICTED BY RF-SCORE:    0.00 PKD
ROOT
HETATM    1  C   UNL     1     -11.327  11.033  67.733  1.00  0.00    -0.292 C  
HETATM    2  N   UNL     1      -9.974  10.588  67.400  1.00  0.00    -0.174 NA 
HETATM    3  C   UNL     1      -9.009  11.030  68.428  1.00  0.00    -0.158 C  
HETATM    4  C   UNL     1      -9.093  10.241  69.755  1.00  0.00    -0.057 C  
HETATM    5  N   UNL     1      -8.966   8.778  69.597  1.00  0.00    -0.143 NA 
HETATM    6  C   UNL     1      -9.957   8.327  68.592  1.00  0.00    -0.190 C  
HETATM    7  C   UNL     1      -9.921   9.117  67.259  1.00  0.00    -0.211 C  
ENDROOT
BRANCH   5   8
HETATM    8  C   UNL     1      -7.614   8.359  69.190  1.00  0.00    -0.087 C  
BRANCH   8   9
HETATM    9  C   UNL     1      -7.597   7.354  68.039  1.00  0.00    -0.114 C  
BRANCH   9  10
HETATM   10  C   UNL     1      -6.942   6.008  68.388  1.00  0.00    -0.076 C  
BRANCH  10  11
HETATM   11  N   UNL     1      -7.889   4.860  68.334  1.00  0.00    -0.082 NA 
HETATM   12  C   UNL     1      -8.257   4.316  69.609  1.00  0.00    -0.059 A  
HETATM   13  C   UNL     1      -8.061   5.031  70.817  1.00  0.00    -0.095 A  
HETATM   14  C   UNL     1      -8.279   4.467  72.078  1.00  0.00    -0.101 A  
HETATM   15  C   UNL     1      -8.767   3.178  72.178  1.00  0.00    -0.107 A  
HETATM   16  C   UNL     1      -9.052   2.474  71.014  1.00  0.00    -0.179 A  
HETATM   17  C   UNL     1      -8.808   3.029  69.741  1.00  0.00    -0.086 A  
HETATM   18  S   UNL     1      -9.220   1.984  68.371  1.00  0.00    -0.194 SA 
HETATM   19  C   UNL     1      -8.708   2.953  66.975  1.00  0.00    -0.124 A  
HETATM   20  C   UNL     1      -8.108   4.227  67.072  1.00  0.00    -0.101 A  
HETATM   21  C   UNL     1      -7.762   4.828  65.836  1.00  0.00    -0.091 A  
HETATM   22  C   UNL     1      -7.951   4.209  64.582  1.00  0.00    -0.089 A  
HETATM   23  C   UNL     1      -7.522   4.881  63.302  1.00  0.00    -0.054 C  
HETATM   24  C   UNL     1      -8.541   2.949  64.539  1.00  0.00    -0.095 A  
HETATM   25  F   UNL     1      -6.618   4.139  62.602  1.00  0.00    -0.024 F  
HETATM   26  F   UNL     1      -8.564   5.092  62.451  1.00  0.00    -0.095 F  
HETATM   27  F   UNL     1      -6.939   6.099  63.483  1.00  0.00    -0.037 F  
HETATM   28  C   UNL     1      -8.920   2.333  65.725  1.00  0.00    -0.117 A  
ENDBRANCH  10  11
ENDBRANCH   9  10
ENDBRANCH   8   9
ENDBRANCH   5   8
TORSDOF 4
ENDMDL
MODEL      239
REMARK 921   NORMALIZED FREE ENERGY PREDICTED BY IDOCK:   -2.42 KCAL/MOL
REMARK 922        TOTAL FREE ENERGY PREDICTED BY IDOCK:   -3.40 KCAL/MOL
REMARK 923 INTER-LIGAND FREE ENERGY PREDICTED BY IDOCK:   -2.62 KCAL/MOL
REMARK 924 INTRA-LIGAND FREE ENERGY PREDICTED BY IDOCK:   -0.78 KCAL/MOL
REMARK 927      BINDING AFFINITY PREDICTED BY RF-SCORE:    0.00 PKD
ROOT
HETATM    1  C   UNL     1      -6.233  14.112  72.232  1.00  0.00     0.829 C  
HETATM    2  N   UNL     1      -5.374  14.246  71.056  1.00  0.00    -0.137 NA 
HETATM    3  C   UNL     1      -5.600  13.132  70.112  1.00  0.00    -0.130 C  
HETATM    4  C   UNL     1      -6.928  13.228  69.326  1.00  0.00     0.018 C  
HETATM    5  N   UNL     1      -7.107  14.499  68.596  1.00  0.00    -0.106 NA 
HETATM    6  C   UNL     1      -6.915  15.619  69.548  1.00  0.00    -0.193 C  
HETATM    7  C   UNL     1      -5.607  15.538  70.375  1.00  0.00    -0.139 C  
ENDROOT
BRANCH   5   8
HETATM    8  C   UNL     1      -6.181  14.645  67.460  1.00  0.00     0.021 C  
BRANCH   8   9
HETATM    9  C   UNL     1      -6.035  16.080  66.958  1.00  0.00     0.115 C  
BRANCH   9  10
HETATM   10  C   UNL     1      -7.122  16.512  65.960  1.00  0.00     0.701 C  
BRANCH  10  11
HETATM   11  N   UNL     1      -7.953  17.647  66.448  1.00  0.00    -0.289 NA 
HETATM   12  C   UNL     1      -7.281  18.914  66.495  1.00  0.00    -0.229 A  
HETATM   13  C   UNL     1      -6.078  19.155  65.785  1.00  0.00    -0.231 A  
HETATM   14  C   UNL     1      -5.334  20.330  65.929  1.00  0.00    -0.194 A  
HETATM   15  C   UNL     1      -5.800  21.343  66.745  1.00  0.00    -0.388 A  
HETATM   16  C   UNL     1      -7.020  21.178  67.392  1.00  0.00    -0.364 A  
HETATM   17  C   UNL     1      -7.760  19.984  67.271  1.00  0.00    -0.294 A  
HETATM   18  S   UNL     1      -9.283  19.948  68.175  1.00  0.00    -0.240 SA 
HETATM   19  C   UNL     1      -9.880  18.305  67.866  1.00  0.00    -0.317 A  
HETATM   20  C   UNL     1      -9.195  17.348  67.086  1.00  0.00    -0.237 A  
HETATM   21  C   UNL     1      -9.838  16.089  66.972  1.00  0.00    -0.240 A  
HETATM   22  C   UNL     1     -11.053  15.769  67.613  1.00  0.00    -0.283 A  
HETATM   23  C   UNL     1     -11.667  14.396  67.490  1.00  0.00    -0.387 C  
HETATM   24  C   UNL     1     -11.687  16.745  68.376  1.00  0.00     0.416 A  
HETATM   25  F   UNL     1     -11.829  13.788  68.700  1.00  0.00    -0.327 F  
HETATM   26  F   UNL     1     -12.906  14.429  66.925  1.00  0.00    -0.242 F  
HETATM   27  F   UNL     1     -10.939  13.528  66.734  1.00  0.00    -0.282 F  
HETATM   28  C   UNL     1     -11.105  18.001  68.495  1.00  0.00     0.530 A  
ENDBRANCH  10  11
ENDBRANCH   9  10
ENDBRANCH   8   9
ENDBRANCH   5   8
TORSDOF 4
ENDMDL
MODEL      240
REMARK 921   NORMALIZED FREE ENERGY PREDICTED BY IDOCK:   -2.38 KCAL/MOL
REMARK 922        TOTAL FREE ENERGY PREDICTED BY IDOCK:   -3.35 KCAL/MOL
REMARK 923 INTER-LIGAND FREE ENERGY PREDICTED BY IDOCK:   -3.08 KCAL/MOL
REMARK 924 INTRA-LIGAND FREE ENERGY PREDICTED BY IDOCK:   -0.26 KCAL/MOL
REMARK 927      BINDING AFFINITY PREDICTED BY RF-SCORE:    0.00 PKD
ROOT
HETATM    1  C   UNL     1      -7.757  17.799  66.496  1.00  0.00    -0.263 C  
HETATM    2  N   UNL     1      -7.313  16.903  67.563  1.00  0.00    -0.150 NA 
HETATM    3  C   UNL     1      -8.348  16.783  68.612  1.00  0.00    -0.252 C  
HETATM    4  C   UNL     1      -9.565  15.923  68.204  1.00  0.00    -0.208 C  
HETATM    5  N   UNL     1      -9.217  14.565  67.739  1.00  0.00    -0.190 NA 
HETATM    6  C   UNL     1      -8.205  14.683  66.662  1.00  0.00     0.187 C  
HETATM    7  C   UNL     1      -6.984  15.564  67.027  1.00  0.00     0.032 C  
ENDROOT
BRANCH   5   8
HETATM    8  C   UNL     1      -8.703  13.702  68.816  1.00  0.00     0.070 C  
BRANCH   8   9
HETATM    9  C   UNL     1      -8.126  12.375  68.326  1.00  0.00    -0.166 C  
BRANCH   9  10
HETATM   10  C   UNL     1      -9.186  11.326  67.953  1.00  0.00    -0.157 C  
BRANCH  10  11
HETATM   11  N   UNL     1      -8.728  10.372  66.906  1.00  0.00    -0.127 NA 
HETATM   12  C   UNL     1      -9.045  10.751  65.559  1.00  0.00    -0.199 A  
HETATM   13  C   UNL     1      -9.407  12.077  65.215  1.00  0.00     0.050 A  
HETATM   14  C   UNL     1      -9.857  12.437  63.941  1.00  0.00    -0.150 A  
HETATM   15  C   UNL     1      -9.902  11.489  62.937  1.00  0.00    -0.279 A  
HETATM   16  C   UNL     1      -9.474  10.195  63.212  1.00  0.00    -0.302 A  
HETATM   17  C   UNL     1      -9.046   9.823  64.503  1.00  0.00    -0.249 A  
HETATM   18  S   UNL     1      -8.549   8.130  64.672  1.00  0.00     0.160 SA 
HETATM   19  C   UNL     1      -8.171   8.007  66.402  1.00  0.00    -0.113 A  
HETATM   20  C   UNL     1      -8.299   9.074  67.319  1.00  0.00    -0.111 A  
HETATM   21  C   UNL     1      -7.957   8.763  68.659  1.00  0.00    -0.107 A  
HETATM   22  C   UNL     1      -7.553   7.481  69.088  1.00  0.00    -0.100 A  
HETATM   23  C   UNL     1      -7.243   7.201  70.538  1.00  0.00    -0.067 C  
HETATM   24  C   UNL     1      -7.447   6.461  68.148  1.00  0.00    -0.094 A  
HETATM   25  F   UNL     1      -8.031   6.216  71.057  1.00  0.00    -0.105 F  
HETATM   26  F   UNL     1      -5.960   6.783  70.724  1.00  0.00    -0.026 F  
HETATM   27  F   UNL     1      -7.406   8.276  71.358  1.00  0.00    -0.059 F  
HETATM   28  C   UNL     1      -7.749   6.727  66.818  1.00  0.00    -0.106 A  
ENDBRANCH  10  11
ENDBRANCH   9  10
ENDBRANCH   8   9
ENDBRANCH   5   8
TORSDOF 4
ENDMDL
MODEL      241
REMARK 921   NORMALIZED FREE ENERGY PREDICTED BY IDOCK:   -2.20 KCAL/MOL
REMARK 922        TOTAL FREE ENERGY PREDICTED BY IDOCK:   -3.13 KCAL/MOL
REMARK 923 INTER-LIGAND FREE ENERGY PREDICTED BY IDOCK:   -2.68 KCAL/MOL
REMARK 924 INTRA-LIGAND FREE ENERGY PREDICTED BY IDOCK:   -0.45 KCAL/MOL
REMARK 927      BINDING AFFINITY PREDICTED BY RF-SCORE:    0.00 PKD
ROOT
HETATM    1  C   UNL     1      -7.185   5.602  74.511  1.00  0.00    -0.085 C  
HETATM    2  N   UNL     1      -7.992   4.872  73.534  1.00  0.00    -0.106 NA 
HETATM    3  C   UNL     1      -8.644   5.804  72.591  1.00  0.00    -0.120 C  
HETATM    4  C   UNL     1      -7.686   6.423  71.548  1.00  0.00    -0.100 C  
HETATM    5  N   UNL     1      -6.923   5.430  70.765  1.00  0.00    -0.054 NA 
HETATM    6  C   UNL     1      -6.239   4.513  71.708  1.00  0.00    -0.021 C  
HETATM    7  C   UNL     1      -7.165   3.898  72.787  1.00  0.00    -0.062 C  
ENDROOT
BRANCH   5   8
HETATM    8  C   UNL     1      -7.768   4.655  69.839  1.00  0.00    -0.058 C  
BRANCH   8   9
HETATM    9  C   UNL     1      -8.303   5.467  68.661  1.00  0.00    -0.101 C  
BRANCH   9  10
HETATM   10  C   UNL     1      -7.213   6.005  67.720  1.00  0.00    -0.076 C  
BRANCH  10  11
HETATM   11  N   UNL     1      -7.689   6.209  66.324  1.00  0.00    -0.097 NA 
HETATM   12  C   UNL     1      -7.590   5.057  65.474  1.00  0.00    -0.086 A  
HETATM   13  C   UNL     1      -7.430   3.749  65.996  1.00  0.00    -0.080 A  
HETATM   14  C   UNL     1      -7.190   2.633  65.189  1.00  0.00    -0.058 A  
HETATM   15  C   UNL     1      -7.165   2.773  63.814  1.00  0.00    -0.049 A  
HETATM   16  C   UNL     1      -7.403   4.026  63.261  1.00  0.00    -0.050 A  
HETATM   17  C   UNL     1      -7.618   5.158  64.072  1.00  0.00    -0.069 A  
HETATM   18  S   UNL     1      -7.892   6.673  63.195  1.00  0.00    -0.080 SA 
HETATM   19  C   UNL     1      -8.031   7.862  64.505  1.00  0.00    -0.140 A  
HETATM   20  C   UNL     1      -7.910   7.547  65.876  1.00  0.00    -0.107 A  
HETATM   21  C   UNL     1      -8.041   8.646  66.762  1.00  0.00    -0.101 A  
HETATM   22  C   UNL     1      -8.237   9.977  66.337  1.00  0.00    -0.119 A  
HETATM   23  C   UNL     1      -8.326  11.112  67.327  1.00  0.00    -0.135 C  
HETATM   24  C   UNL     1      -8.344  10.238  64.975  1.00  0.00    -0.169 A  
HETATM   25  F   UNL     1      -7.371  12.063  67.116  1.00  0.00    -0.121 F  
HETATM   26  F   UNL     1      -9.518  11.767  67.262  1.00  0.00    -0.166 F  
HETATM   27  F   UNL     1      -8.185  10.728  68.626  1.00  0.00    -0.108 F  
HETATM   28  C   UNL     1      -8.247   9.187  64.070  1.00  0.00    -0.168 A  
ENDBRANCH  10  11
ENDBRANCH   9  10
ENDBRANCH   8   9
ENDBRANCH   5   8
TORSDOF 4
ENDMDL
MODEL      242
REMARK 921   NORMALIZED FREE ENERGY PREDICTED BY IDOCK:   -2.12 KCAL/MOL
REMARK 922        TOTAL FREE ENERGY PREDICTED BY IDOCK:   -3.04 KCAL/MOL
REMARK 923 INTER-LIGAND FREE ENERGY PREDICTED BY IDOCK:   -4.11 KCAL/MOL
REMARK 924 INTRA-LIGAND FREE ENERGY PREDICTED BY IDOCK:    1.08 KCAL/MOL
REMARK 927      BINDING AFFINITY PREDICTED BY RF-SCORE:    0.00 PKD
ROOT
HETATM    1  C   UNL     1     -11.464  14.524  67.824  1.00  0.00    -0.340 C  
HETATM    2  N   UNL     1     -10.324  13.735  67.360  1.00  0.00    -0.251 NA 
HETATM    3  C   UNL     1     -10.184  12.497  68.156  1.00  0.00    -0.231 C  
HETATM    4  C   UNL     1     -11.242  11.417  67.836  1.00  0.00    -0.288 C  
HETATM    5  N   UNL     1     -11.313  11.044  66.409  1.00  0.00    -0.156 NA 
HETATM    6  C   UNL     1     -11.488  12.280  65.610  1.00  0.00    -0.368 C  
HETATM    7  C   UNL     1     -10.462  13.397  65.927  1.00  0.00    -0.287 C  
ENDROOT
BRANCH   5   8
HETATM    8  C   UNL     1     -10.121  10.313  65.945  1.00  0.00    -0.251 C  
BRANCH   8   9
HETATM    9  C   UNL     1      -9.521   9.377  66.993  1.00  0.00    -0.200 C  
BRANCH   9  10
HETATM   10  C   UNL     1      -9.589   7.888  66.619  1.00  0.00    -0.226 C  
BRANCH  10  11
HETATM   11  N   UNL     1      -8.471   7.086  67.188  1.00  0.00    -0.120 NA 
HETATM   12  C   UNL     1      -8.613   5.664  67.054  1.00  0.00    -0.109 A  
HETATM   13  C   UNL     1      -9.519   5.083  66.132  1.00  0.00    -0.166 A  
HETATM   14  C   UNL     1      -9.777   3.710  66.084  1.00  0.00    -0.092 A  
HETATM   15  C   UNL     1      -9.086   2.852  66.918  1.00  0.00    -0.181 A  
HETATM   16  C   UNL     1      -8.126   3.376  67.777  1.00  0.00    -0.081 A  
HETATM   17  C   UNL     1      -7.883   4.763  67.848  1.00  0.00    -0.082 A  
HETATM   18  S   UNL     1      -6.635   5.250  69.006  1.00  0.00    -0.053 SA 
HETATM   19  C   UNL     1      -6.666   7.021  68.889  1.00  0.00    -0.060 A  
HETATM   20  C   UNL     1      -7.540   7.744  68.049  1.00  0.00    -0.120 A  
HETATM   21  C   UNL     1      -7.412   9.154  68.113  1.00  0.00    -0.083 A  
HETATM   22  C   UNL     1      -6.514   9.822  68.973  1.00  0.00    -0.045 A  
HETATM   23  C   UNL     1      -6.454  11.329  69.029  1.00  0.00    -0.069 C  
HETATM   24  C   UNL     1      -5.677   9.065  69.787  1.00  0.00    -0.032 A  
HETATM   25  F   UNL     1      -6.711  11.814  70.277  1.00  0.00    -0.080 F  
HETATM   26  F   UNL     1      -5.226  11.812  68.690  1.00  0.00    -0.047 F  
HETATM   27  F   UNL     1      -7.339  11.950  68.200  1.00  0.00    -0.073 F  
HETATM   28  C   UNL     1      -5.751   7.678  69.739  1.00  0.00    -0.023 A  
ENDBRANCH  10  11
ENDBRANCH   9  10
ENDBRANCH   8   9
ENDBRANCH   5   8
TORSDOF 4
ENDMDL
MODEL      243
REMARK 921   NORMALIZED FREE ENERGY PREDICTED BY IDOCK:   -2.04 KCAL/MOL
REMARK 922        TOTAL FREE ENERGY PREDICTED BY IDOCK:   -2.93 KCAL/MOL
REMARK 923 INTER-LIGAND FREE ENERGY PREDICTED BY IDOCK:   -4.36 KCAL/MOL
REMARK 924 INTRA-LIGAND FREE ENERGY PREDICTED BY IDOCK:    1.43 KCAL/MOL
REMARK 927      BINDING AFFINITY PREDICTED BY RF-SCORE:    0.00 PKD
ROOT
HETATM    1  C   UNL     1     -13.213   6.675  71.601  1.00  0.00    -0.026 C  
HETATM    2  N   UNL     1     -11.799   6.411  71.337  1.00  0.00    -0.314 NA 
HETATM    3  C   UNL     1     -11.147   7.597  70.743  1.00  0.00    -0.264 C  
HETATM    4  C   UNL     1     -10.891   8.746  71.745  1.00  0.00    -0.345 C  
HETATM    5  N   UNL     1     -10.123   8.345  72.941  1.00  0.00    -0.209 NA 
HETATM    6  C   UNL     1     -10.794   7.177  73.559  1.00  0.00    -0.255 C  
HETATM    7  C   UNL     1     -11.093   6.017  72.575  1.00  0.00    -0.279 C  
ENDROOT
BRANCH   5   8
HETATM    8  C   UNL     1      -8.720   8.015  72.639  1.00  0.00    -0.191 C  
BRANCH   8   9
HETATM    9  C   UNL     1      -8.545   7.087  71.438  1.00  0.00    -0.121 C  
BRANCH   9  10
HETATM   10  C   UNL     1      -7.775   7.714  70.264  1.00  0.00    -0.091 C  
BRANCH  10  11
HETATM   11  N   UNL     1      -8.316   7.327  68.932  1.00  0.00    -0.125 NA 
HETATM   12  C   UNL     1      -8.714   8.423  68.096  1.00  0.00    -0.143 A  
HETATM   13  C   UNL     1      -8.280   9.751  68.340  1.00  0.00    -0.105 A  
HETATM   14  C   UNL     1      -8.766  10.851  67.628  1.00  0.00    -0.127 A  
HETATM   15  C   UNL     1      -9.663  10.659  66.595  1.00  0.00    -0.225 A  
HETATM   16  C   UNL     1     -10.048   9.363  66.271  1.00  0.00    -0.328 A  
HETATM   17  C   UNL     1      -9.581   8.253  67.003  1.00  0.00    -0.191 A  
HETATM   18  S   UNL     1     -10.185   6.680  66.456  1.00  0.00     0.011 SA 
HETATM   19  C   UNL     1      -9.477   5.559  67.635  1.00  0.00    -0.118 A  
HETATM   20  C   UNL     1      -8.662   5.958  68.717  1.00  0.00    -0.109 A  
HETATM   21  C   UNL     1      -8.207   4.906  69.551  1.00  0.00    -0.084 A  
HETATM   22  C   UNL     1      -8.558   3.551  69.367  1.00  0.00    -0.111 A  
HETATM   23  C   UNL     1      -8.077   2.481  70.315  1.00  0.00    -0.041 C  
HETATM   24  C   UNL     1      -9.368   3.209  68.289  1.00  0.00    -0.246 A  
HETATM   25  F   UNL     1      -9.105   1.805  70.902  1.00  0.00    -0.103 F  
HETATM   26  F   UNL     1      -7.323   1.534  69.690  1.00  0.00    -0.036 F  
HETATM   27  F   UNL     1      -7.310   2.949  71.338  1.00  0.00    -0.031 F  
HETATM   28  C   UNL     1      -9.818   4.205  67.431  1.00  0.00    -0.152 A  
ENDBRANCH  10  11
ENDBRANCH   9  10
ENDBRANCH   8   9
ENDBRANCH   5   8
TORSDOF 4
ENDMDL
MODEL      244
REMARK 921   NORMALIZED FREE ENERGY PREDICTED BY IDOCK:   -1.75 KCAL/MOL
REMARK 922        TOTAL FREE ENERGY PREDICTED BY IDOCK:   -2.58 KCAL/MOL
REMARK 923 INTER-LIGAND FREE ENERGY PREDICTED BY IDOCK:   -3.25 KCAL/MOL
REMARK 924 INTRA-LIGAND FREE ENERGY PREDICTED BY IDOCK:    0.67 KCAL/MOL
REMARK 927      BINDING AFFINITY PREDICTED BY RF-SCORE:    0.00 PKD
ROOT
HETATM    1  C   UNL     1      -9.830  17.518  66.118  1.00  0.00    -0.242 C  
HETATM    2  N   UNL     1      -9.166  16.336  65.570  1.00  0.00    -0.341 NA 
HETATM    3  C   UNL     1      -8.497  15.567  66.640  1.00  0.00    -0.279 C  
HETATM    4  C   UNL     1      -9.464  14.776  67.549  1.00  0.00    -0.197 C  
HETATM    5  N   UNL     1     -10.370  13.864  66.820  1.00  0.00    -0.269 NA 
HETATM    6  C   UNL     1     -11.069  14.640  65.768  1.00  0.00    -0.331 C  
HETATM    7  C   UNL     1     -10.130  15.470  64.856  1.00  0.00     0.042 C  
ENDROOT
BRANCH   5   8
HETATM    8  C   UNL     1      -9.668  12.720  66.215  1.00  0.00    -0.262 C  
BRANCH   8   9
HETATM    9  C   UNL     1      -8.213  12.579  66.657  1.00  0.00     0.090 C  
BRANCH   9  10
HETATM   10  C   UNL     1      -8.031  12.364  68.168  1.00  0.00    -0.153 C  
BRANCH  10  11
HETATM   11  N   UNL     1      -8.478  11.020  68.629  1.00  0.00    -0.152 NA 
HETATM   12  C   UNL     1      -7.669   9.924  68.179  1.00  0.00    -0.082 A  
HETATM   13  C   UNL     1      -6.357  10.113  67.678  1.00  0.00    -0.058 A  
HETATM   14  C   UNL     1      -5.607   9.082  67.104  1.00  0.00    -0.041 A  
HETATM   15  C   UNL     1      -6.119   7.799  67.068  1.00  0.00    -0.052 A  
HETATM   16  C   UNL     1      -7.369   7.557  67.627  1.00  0.00    -0.103 A  
HETATM   17  C   UNL     1      -8.139   8.599  68.182  1.00  0.00    -0.115 A  
HETATM   18  S   UNL     1      -9.710   8.107  68.837  1.00  0.00    -0.159 SA 
HETATM   19  C   UNL     1     -10.417   9.651  69.353  1.00  0.00    -0.220 A  
HETATM   20  C   UNL     1      -9.782  10.903  69.200  1.00  0.00    -0.122 A  
HETATM   21  C   UNL     1     -10.523  12.017  69.667  1.00  0.00     0.545 A  
HETATM   22  C   UNL     1     -11.821  11.923  70.213  1.00  0.00    -0.368 A  
HETATM   23  C   UNL     1     -12.579  13.152  70.654  1.00  0.00    -0.211 C  
HETATM   24  C   UNL     1     -12.407  10.667  70.338  1.00  0.00    -0.428 A  
HETATM   25  F   UNL     1     -13.765  13.295  69.997  1.00  0.00     0.924 F  
HETATM   26  F   UNL     1     -12.892  13.122  71.979  1.00  0.00    -0.402 F  
HETATM   27  F   UNL     1     -11.904  14.319  70.459  1.00  0.00    -0.319 F  
HETATM   28  C   UNL     1     -11.706   9.544  69.916  1.00  0.00     0.053 A  
ENDBRANCH  10  11
ENDBRANCH   9  10
ENDBRANCH   8   9
ENDBRANCH   5   8
TORSDOF 4
ENDMDL
MODEL      245
REMARK 921   NORMALIZED FREE ENERGY PREDICTED BY IDOCK:   -1.59 KCAL/MOL
REMARK 922        TOTAL FREE ENERGY PREDICTED BY IDOCK:   -2.38 KCAL/MOL
REMARK 923 INTER-LIGAND FREE ENERGY PREDICTED BY IDOCK:   -2.54 KCAL/MOL
REMARK 924 INTRA-LIGAND FREE ENERGY PREDICTED BY IDOCK:    0.16 KCAL/MOL
REMARK 927      BINDING AFFINITY PREDICTED BY RF-SCORE:    0.00 PKD
ROOT
HETATM    1  C   UNL     1      -5.232  11.337  69.758  1.00  0.00    -0.051 C  
HETATM    2  N   UNL     1      -6.337  10.495  69.301  1.00  0.00    -0.047 NA 
HETATM    3  C   UNL     1      -5.836   9.376  68.475  1.00  0.00    -0.041 C  
HETATM    4  C   UNL     1      -5.131   8.261  69.279  1.00  0.00    -0.027 C  
HETATM    5  N   UNL     1      -5.946   7.698  70.375  1.00  0.00    -0.030 NA 
HETATM    6  C   UNL     1      -6.421   8.814  71.227  1.00  0.00    -0.071 C  
HETATM    7  C   UNL     1      -7.107   9.966  70.448  1.00  0.00    -0.139 C  
ENDROOT
BRANCH   5   8
HETATM    8  C   UNL     1      -7.095   6.913  69.892  1.00  0.00    -0.071 C  
BRANCH   8   9
HETATM    9  C   UNL     1      -8.410   7.242  70.596  1.00  0.00    -0.128 C  
BRANCH   9  10
HETATM   10  C   UNL     1      -9.660   7.027  69.727  1.00  0.00    -0.151 C  
BRANCH  10  11
HETATM   11  N   UNL     1      -9.388   6.252  68.485  1.00  0.00    -0.122 NA 
HETATM   12  C   UNL     1      -9.421   4.826  68.640  1.00  0.00    -0.150 A  
HETATM   13  C   UNL     1     -10.033   4.204  69.757  1.00  0.00    -0.100 A  
HETATM   14  C   UNL     1      -9.953   2.830  70.000  1.00  0.00     0.446 A  
HETATM   15  C   UNL     1      -9.308   2.009  69.095  1.00  0.00    -0.184 A  
HETATM   16  C   UNL     1      -8.767   2.571  67.943  1.00  0.00    -0.138 A  
HETATM   17  C   UNL     1      -8.822   3.960  67.709  1.00  0.00    -0.114 A  
HETATM   18  S   UNL     1      -8.072   4.498  66.196  1.00  0.00    -0.103 SA 
HETATM   19  C   UNL     1      -8.248   6.262  66.281  1.00  0.00    -0.117 A  
HETATM   20  C   UNL     1      -8.844   6.948  67.363  1.00  0.00    -0.118 A  
HETATM   21  C   UNL     1      -8.874   8.359  67.240  1.00  0.00    -0.137 A  
HETATM   22  C   UNL     1      -8.322   9.064  66.149  1.00  0.00    -0.124 A  
HETATM   23  C   UNL     1      -8.346  10.572  66.096  1.00  0.00    -0.155 C  
HETATM   24  C   UNL     1      -7.740   8.344  65.110  1.00  0.00    -0.097 A  
HETATM   25  F   UNL     1      -7.096  11.110  66.006  1.00  0.00    -0.127 F  
HETATM   26  F   UNL     1      -9.029  11.043  65.015  1.00  0.00    -0.191 F  
HETATM   27  F   UNL     1      -8.924  11.156  67.182  1.00  0.00    -0.140 F  
HETATM   28  C   UNL     1      -7.710   6.956  65.177  1.00  0.00    -0.109 A  
ENDBRANCH  10  11
ENDBRANCH   9  10
ENDBRANCH   8   9
ENDBRANCH   5   8
TORSDOF 4
ENDMDL
MODEL      246
REMARK 921   NORMALIZED FREE ENERGY PREDICTED BY IDOCK:   -1.54 KCAL/MOL
REMARK 922        TOTAL FREE ENERGY PREDICTED BY IDOCK:   -2.31 KCAL/MOL
REMARK 923 INTER-LIGAND FREE ENERGY PREDICTED BY IDOCK:   -3.27 KCAL/MOL
REMARK 924 INTRA-LIGAND FREE ENERGY PREDICTED BY IDOCK:    0.96 KCAL/MOL
REMARK 927      BINDING AFFINITY PREDICTED BY RF-SCORE:    0.00 PKD
ROOT
HETATM    1  C   UNL     1     -12.100  14.390  65.609  1.00  0.00    -0.354 C  
HETATM    2  N   UNL     1     -12.059  12.974  65.246  1.00  0.00    -0.413 NA 
HETATM    3  C   UNL     1     -10.673  12.543  64.972  1.00  0.00    -0.294 C  
HETATM    4  C   UNL     1      -9.796  12.389  66.236  1.00  0.00    -0.247 C  
HETATM    5  N   UNL     1     -10.366  11.492  67.261  1.00  0.00    -0.201 NA 
HETATM    6  C   UNL     1     -11.745  11.943  67.565  1.00  0.00    -0.265 C  
HETATM    7  C   UNL     1     -12.644  12.137  66.317  1.00  0.00     1.419 C  
ENDROOT
BRANCH   5   8
HETATM    8  C   UNL     1     -10.382  10.080  66.845  1.00  0.00    -0.234 C  
BRANCH   8   9
HETATM    9  C   UNL     1      -9.769   9.831  65.468  1.00  0.00    -0.382 C  
BRANCH   9  10
HETATM   10  C   UNL     1      -8.492   8.976  65.493  1.00  0.00    -0.144 C  
BRANCH  10  11
HETATM   11  N   UNL     1      -8.218   8.365  66.823  1.00  0.00    -0.101 NA 
HETATM   12  C   UNL     1      -8.691   7.020  66.982  1.00  0.00    -0.123 A  
HETATM   13  C   UNL     1      -9.035   6.207  65.874  1.00  0.00    -0.133 A  
HETATM   14  C   UNL     1      -9.631   4.949  66.009  1.00  0.00    -0.185 A  
HETATM   15  C   UNL     1      -9.849   4.426  67.269  1.00  0.00    -0.207 A  
HETATM   16  C   UNL     1      -9.448   5.158  68.381  1.00  0.00    -0.168 A  
HETATM   17  C   UNL     1      -8.871   6.437  68.249  1.00  0.00    -0.115 A  
HETATM   18  S   UNL     1      -8.433   7.227  69.773  1.00  0.00    -0.137 SA 
HETATM   19  C   UNL     1      -7.838   8.810  69.234  1.00  0.00    -0.100 A  
HETATM   20  C   UNL     1      -7.797   9.223  67.884  1.00  0.00    -0.092 A  
HETATM   21  C   UNL     1      -7.297  10.531  67.668  1.00  0.00    -0.087 A  
HETATM   22  C   UNL     1      -6.898  11.401  68.705  1.00  0.00    -0.082 A  
HETATM   23  C   UNL     1      -6.415  12.800  68.415  1.00  0.00    -0.080 C  
HETATM   24  C   UNL     1      -6.962  10.950  70.020  1.00  0.00    -0.036 A  
HETATM   25  F   UNL     1      -7.171  13.751  69.033  1.00  0.00    -0.105 F  
HETATM   26  F   UNL     1      -5.138  13.008  68.842  1.00  0.00    -0.066 F  
HETATM   27  F   UNL     1      -6.420  13.125  67.092  1.00  0.00    -0.171 F  
HETATM   28  C   UNL     1      -7.423   9.664  70.278  1.00  0.00    -0.165 A  
ENDBRANCH  10  11
ENDBRANCH   9  10
ENDBRANCH   8   9
ENDBRANCH   5   8
TORSDOF 4
ENDMDL
MODEL      247
REMARK 921   NORMALIZED FREE ENERGY PREDICTED BY IDOCK:   -0.89 KCAL/MOL
REMARK 922        TOTAL FREE ENERGY PREDICTED BY IDOCK:   -1.51 KCAL/MOL
REMARK 923 INTER-LIGAND FREE ENERGY PREDICTED BY IDOCK:   -4.62 KCAL/MOL
REMARK 924 INTRA-LIGAND FREE ENERGY PREDICTED BY IDOCK:    3.11 KCAL/MOL
REMARK 927      BINDING AFFINITY PREDICTED BY RF-SCORE:    0.00 PKD
ROOT
HETATM    1  C   UNL     1      -9.533   9.053  65.143  1.00  0.00     0.063 C  
HETATM    2  N   UNL     1      -9.147   9.871  66.291  1.00  0.00    -0.151 NA 
HETATM    3  C   UNL     1      -9.290  11.309  65.982  1.00  0.00    -0.214 C  
HETATM    4  C   UNL     1     -10.753  11.805  65.941  1.00  0.00    -0.282 C  
HETATM    5  N   UNL     1     -11.523  11.517  67.168  1.00  0.00    -0.497 NA 
HETATM    6  C   UNL     1     -11.411  10.068  67.462  1.00  0.00     0.233 C  
HETATM    7  C   UNL     1      -9.957   9.530  67.480  1.00  0.00    -0.186 C  
ENDROOT
BRANCH   5   8
HETATM    8  C   UNL     1     -11.069  12.300  68.330  1.00  0.00    -0.240 C  
BRANCH   8   9
HETATM    9  C   UNL     1      -9.905  13.241  68.027  1.00  0.00    -0.230 C  
BRANCH   9  10
HETATM   10  C   UNL     1      -8.543  12.539  67.901  1.00  0.00    -0.179 C  
BRANCH  10  11
HETATM   11  N   UNL     1      -7.450  13.239  68.631  1.00  0.00    -0.114 NA 
HETATM   12  C   UNL     1      -6.649  12.400  69.475  1.00  0.00    -0.048 A  
HETATM   13  C   UNL     1      -6.633  10.989  69.336  1.00  0.00    -0.104 A  
HETATM   14  C   UNL     1      -5.974  10.144  70.233  1.00  0.00    -0.081 A  
HETATM   15  C   UNL     1      -5.245  10.685  71.275  1.00  0.00    -0.085 A  
HETATM   16  C   UNL     1      -5.166  12.068  71.395  1.00  0.00    -0.046 A  
HETATM   17  C   UNL     1      -5.852  12.922  70.508  1.00  0.00    -0.138 A  
HETATM   18  S   UNL     1      -5.646  14.654  70.819  1.00  0.00    -0.159 SA 
HETATM   19  C   UNL     1      -6.696  15.397  69.596  1.00  0.00    -0.184 A  
HETATM   20  C   UNL     1      -7.474  14.667  68.671  1.00  0.00    -0.125 A  
HETATM   21  C   UNL     1      -8.254  15.451  67.786  1.00  0.00    -0.159 A  
HETATM   22  C   UNL     1      -8.307  16.861  67.825  1.00  0.00    -0.198 A  
HETATM   23  C   UNL     1      -9.191  17.640  66.884  1.00  0.00    -0.263 C  
HETATM   24  C   UNL     1      -7.526  17.535  68.759  1.00  0.00    -0.258 A  
HETATM   25  F   UNL     1     -10.098  18.416  67.543  1.00  0.00    -0.304 F  
HETATM   26  F   UNL     1      -8.484  18.493  66.091  1.00  0.00    -0.288 F  
HETATM   27  F   UNL     1      -9.919  16.863  66.034  1.00  0.00    -0.291 F  
HETATM   28  C   UNL     1      -6.726  16.807  69.631  1.00  0.00    -0.093 A  
ENDBRANCH  10  11
ENDBRANCH   9  10
ENDBRANCH   8   9
ENDBRANCH   5   8
TORSDOF 4
ENDMDL
MODEL      248
REMARK 921   NORMALIZED FREE ENERGY PREDICTED BY IDOCK:   -0.84 KCAL/MOL
REMARK 922        TOTAL FREE ENERGY PREDICTED BY IDOCK:   -1.45 KCAL/MOL
REMARK 923 INTER-LIGAND FREE ENERGY PREDICTED BY IDOCK:   -2.71 KCAL/MOL
REMARK 924 INTRA-LIGAND FREE ENERGY PREDICTED BY IDOCK:    1.26 KCAL/MOL
REMARK 927      BINDING AFFINITY PREDICTED BY RF-SCORE:    0.00 PKD
ROOT
HETATM    1  C   UNL     1      -8.038   7.948  64.420  1.00  0.00    -0.103 C  
HETATM    2  N   UNL     1      -8.220   9.044  65.371  1.00  0.00    -0.122 NA 
HETATM    3  C   UNL     1      -7.561  10.274  64.885  1.00  0.00    -0.119 C  
HETATM    4  C   UNL     1      -8.303  10.972  63.723  1.00  0.00     0.273 C  
HETATM    5  N   UNL     1      -9.717  11.287  64.011  1.00  0.00    -0.252 NA 
HETATM    6  C   UNL     1     -10.390  10.047  64.465  1.00  0.00     0.517 C  
HETATM    7  C   UNL     1      -9.656   9.304  65.610  1.00  0.00    -0.254 C  
ENDROOT
BRANCH   5   8
HETATM    8  C   UNL     1      -9.876  12.343  65.025  1.00  0.00    -0.114 C  
BRANCH   8   9
HETATM    9  C   UNL     1      -9.124  12.072  66.326  1.00  0.00    -0.165 C  
BRANCH   9  10
HETATM   10  C   UNL     1      -9.273  13.179  67.382  1.00  0.00    -0.213 C  
BRANCH  10  11
HETATM   11  N   UNL     1      -8.163  13.200  68.375  1.00  0.00    -0.151 NA 
HETATM   12  C   UNL     1      -7.425  14.429  68.436  1.00  0.00    -0.119 A  
HETATM   13  C   UNL     1      -7.932  15.638  67.899  1.00  0.00    -0.151 A  
HETATM   14  C   UNL     1      -7.175  16.811  67.820  1.00  0.00    -0.152 A  
HETATM   15  C   UNL     1      -5.894  16.837  68.337  1.00  0.00    -0.125 A  
HETATM   16  C   UNL     1      -5.392  15.694  68.949  1.00  0.00    -0.103 A  
HETATM   17  C   UNL     1      -6.143  14.502  69.007  1.00  0.00    -0.090 A  
HETATM   18  S   UNL     1      -5.339  13.144  69.813  1.00  0.00    -0.096 SA 
HETATM   19  C   UNL     1      -6.513  11.827  69.620  1.00  0.00    -0.113 A  
HETATM   20  C   UNL     1      -7.746  11.958  68.944  1.00  0.00    -0.016 A  
HETATM   21  C   UNL     1      -8.534  10.781  68.891  1.00  0.00    -0.149 A  
HETATM   22  C   UNL     1      -8.128   9.540  69.428  1.00  0.00    -0.116 A  
HETATM   23  C   UNL     1      -8.992   8.310  69.302  1.00  0.00    -0.147 C  
HETATM   24  C   UNL     1      -6.901   9.460  70.080  1.00  0.00    -0.071 A  
HETATM   25  F   UNL     1      -8.359   7.294  68.650  1.00  0.00    -0.120 F  
HETATM   26  F   UNL     1      -9.354   7.802  70.514  1.00  0.00    -0.158 F  
HETATM   27  F   UNL     1     -10.156   8.516  68.625  1.00  0.00    -0.172 F  
HETATM   28  C   UNL     1      -6.106  10.596  70.178  1.00  0.00    -0.110 A  
ENDBRANCH  10  11
ENDBRANCH   9  10
ENDBRANCH   8   9
ENDBRANCH   5   8
TORSDOF 4
ENDMDL
MODEL      249
REMARK 921   NORMALIZED FREE ENERGY PREDICTED BY IDOCK:   -0.57 KCAL/MOL
REMARK 922        TOTAL FREE ENERGY PREDICTED BY IDOCK:   -1.12 KCAL/MOL
REMARK 923 INTER-LIGAND FREE ENERGY PREDICTED BY IDOCK:   -1.11 KCAL/MOL
REMARK 924 INTRA-LIGAND FREE ENERGY PREDICTED BY IDOCK:   -0.01 KCAL/MOL
REMARK 927      BINDING AFFINITY PREDICTED BY RF-SCORE:    0.00 PKD
ROOT
HETATM    1  C   UNL     1      -6.209  14.244  67.482  1.00  0.00     0.035 C  
HETATM    2  N   UNL     1      -6.712  13.411  68.574  1.00  0.00    -0.087 NA 
HETATM    3  C   UNL     1      -7.902  14.027  69.198  1.00  0.00     0.106 C  
HETATM    4  C   UNL     1      -9.186  13.931  68.344  1.00  0.00    -0.194 C  
HETATM    5  N   UNL     1      -9.538  12.556  67.935  1.00  0.00    -0.199 NA 
HETATM    6  C   UNL     1      -8.358  11.946  67.276  1.00  0.00    -0.169 C  
HETATM    7  C   UNL     1      -7.044  12.052  68.093  1.00  0.00    -0.086 C  
ENDROOT
BRANCH   5   8
HETATM    8  C   UNL     1      -9.972  11.713  69.062  1.00  0.00     0.019 C  
BRANCH   8   9
HETATM    9  C   UNL     1      -9.498  10.264  68.972  1.00  0.00    -0.206 C  
BRANCH   9  10
HETATM   10  C   UNL     1     -10.519   9.234  69.483  1.00  0.00    -0.220 C  
BRANCH  10  11
HETATM   11  N   UNL     1      -9.954   7.864  69.623  1.00  0.00    -0.187 NA 
HETATM   12  C   UNL     1      -9.858   7.381  70.970  1.00  0.00    -0.179 A  
HETATM   13  C   UNL     1     -10.583   7.972  72.035  1.00  0.00    -0.310 A  
HETATM   14  C   UNL     1     -10.398   7.612  73.372  1.00  0.00    -0.374 A  
HETATM   15  C   UNL     1      -9.520   6.594  73.694  1.00  0.00    -0.185 A  
HETATM   16  C   UNL     1      -8.853   5.931  72.669  1.00  0.00    -0.121 A  
HETATM   17  C   UNL     1      -9.017   6.310  71.322  1.00  0.00    -0.139 A  
HETATM   18  S   UNL     1      -8.080   5.363  70.154  1.00  0.00    -0.090 SA 
HETATM   19  C   UNL     1      -8.458   6.160  68.613  1.00  0.00    -0.114 A  
HETATM   20  C   UNL     1      -9.302   7.285  68.491  1.00  0.00    -0.141 A  
HETATM   21  C   UNL     1      -9.464   7.778  67.171  1.00  0.00    -0.198 A  
HETATM   22  C   UNL     1      -8.811   7.233  66.045  1.00  0.00    -0.161 A  
HETATM   23  C   UNL     1      -8.989   7.829  64.670  1.00  0.00     0.687 C  
HETATM   24  C   UNL     1      -7.984   6.128  66.218  1.00  0.00    -0.106 A  
HETATM   25  F   UNL     1      -7.809   8.235  64.122  1.00  0.00    -0.113 F  
HETATM   26  F   UNL     1      -9.522   6.942  63.784  1.00  0.00     1.476 F  
HETATM   27  F   UNL     1      -9.806   8.919  64.639  1.00  0.00     0.253 F  
HETATM   28  C   UNL     1      -7.816   5.596  67.491  1.00  0.00    -0.101 A  
ENDBRANCH  10  11
ENDBRANCH   9  10
ENDBRANCH   8   9
ENDBRANCH   5   8
TORSDOF 4
ENDMDL
MODEL      250
REMARK 921   NORMALIZED FREE ENERGY PREDICTED BY IDOCK:    0.18 KCAL/MOL
REMARK 922        TOTAL FREE ENERGY PREDICTED BY IDOCK:   -0.19 KCAL/MOL
REMARK 923 INTER-LIGAND FREE ENERGY PREDICTED BY IDOCK:   -2.91 KCAL/MOL
REMARK 924 INTRA-LIGAND FREE ENERGY PREDICTED BY IDOCK:    2.71 KCAL/MOL
REMARK 927      BINDING AFFINITY PREDICTED BY RF-SCORE:    0.00 PKD
ROOT
HETATM    1  C   UNL     1     -12.248  15.692  70.771  1.00  0.00    -0.418 C  
HETATM    2  N   UNL     1     -11.209  15.085  69.941  1.00  0.00    -0.264 NA 
HETATM    3  C   UNL     1     -11.740  14.740  68.606  1.00  0.00    -0.325 C  
HETATM    4  C   UNL     1     -11.965  15.957  67.680  1.00  0.00     0.511 C  
HETATM    5  N   UNL     1     -10.771  16.807  67.499  1.00  0.00    -0.310 NA 
HETATM    6  C   UNL     1     -10.256  17.184  68.836  1.00  0.00    -0.332 C  
HETATM    7  C   UNL     1     -10.047  15.989  69.801  1.00  0.00    -0.212 C  
ENDROOT
BRANCH   5   8
HETATM    8  C   UNL     1      -9.708  16.147  66.721  1.00  0.00    -0.242 C  
BRANCH   8   9
HETATM    9  C   UNL     1      -9.198  14.849  67.345  1.00  0.00    -0.198 C  
BRANCH   9  10
HETATM   10  C   UNL     1      -9.536  13.587  66.536  1.00  0.00    -0.277 C  
BRANCH  10  11
HETATM   11  N   UNL     1      -8.516  12.511  66.669  1.00  0.00    -0.072 NA 
HETATM   12  C   UNL     1      -8.729  11.365  65.832  1.00  0.00    -0.101 A  
HETATM   13  C   UNL     1      -9.591  11.404  64.708  1.00  0.00    -0.239 A  
HETATM   14  C   UNL     1      -9.923  10.267  63.965  1.00  0.00    -0.195 A  
HETATM   15  C   UNL     1      -9.351   9.049  64.282  1.00  0.00     0.450 A  
HETATM   16  C   UNL     1      -8.435   8.987  65.326  1.00  0.00    -0.181 A  
HETATM   17  C   UNL     1      -8.118  10.126  66.093  1.00  0.00    -0.123 A  
HETATM   18  S   UNL     1      -6.940   9.857  67.389  1.00  0.00    -0.084 SA 
HETATM   19  C   UNL     1      -6.858  11.445  68.177  1.00  0.00    -0.064 A  
HETATM   20  C   UNL     1      -7.620  12.566  67.780  1.00  0.00    -0.138 A  
HETATM   21  C   UNL     1      -7.416  13.738  68.550  1.00  0.00    -0.119 A  
HETATM   22  C   UNL     1      -6.552  13.805  69.664  1.00  0.00    -0.061 A  
HETATM   23  C   UNL     1      -6.409  15.071  70.472  1.00  0.00    -0.012 C  
HETATM   24  C   UNL     1      -5.827  12.672  70.019  1.00  0.00    -0.151 A  
HETATM   25  F   UNL     1      -6.736  14.892  71.783  1.00  0.00     0.535 F  
HETATM   26  F   UNL     1      -5.133  15.547  70.472  1.00  0.00    -0.112 F  
HETATM   27  F   UNL     1      -7.188  16.100  70.034  1.00  0.00    -0.107 F  
HETATM   28  C   UNL     1      -5.977  11.506  69.277  1.00  0.00    -0.065 A  
ENDBRANCH  10  11
ENDBRANCH   9  10
ENDBRANCH   8   9
ENDBRANCH   5   8
TORSDOF 4
ENDMDL
MODEL      251
REMARK 921   NORMALIZED FREE ENERGY PREDICTED BY IDOCK:    0.52 KCAL/MOL
REMARK 922        TOTAL FREE ENERGY PREDICTED BY IDOCK:    0.22 KCAL/MOL
REMARK 923 INTER-LIGAND FREE ENERGY PREDICTED BY IDOCK:    0.51 KCAL/MOL
REMARK 924 INTRA-LIGAND FREE ENERGY PREDICTED BY IDOCK:   -0.29 KCAL/MOL
REMARK 927      BINDING AFFINITY PREDICTED BY RF-SCORE:    0.00 PKD
ROOT
HETATM    1  C   UNL     1      -9.885   3.406  71.935  1.00  0.00    -0.167 C  
HETATM    2  N   UNL     1      -9.102   3.092  70.740  1.00  0.00    -0.103 NA 
HETATM    3  C   UNL     1      -9.658   3.776  69.554  1.00  0.00    -0.160 C  
HETATM    4  C   UNL     1      -9.378   5.295  69.510  1.00  0.00    -0.130 C  
HETATM    5  N   UNL     1      -7.948   5.650  69.622  1.00  0.00    -0.093 NA 
HETATM    6  C   UNL     1      -7.395   4.994  70.830  1.00  0.00    -0.068 C  
HETATM    7  C   UNL     1      -7.684   3.474  70.922  1.00  0.00    -0.047 C  
ENDROOT
BRANCH   5   8
HETATM    8  C   UNL     1      -7.165   5.259  68.438  1.00  0.00    -0.067 C  
BRANCH   8   9
HETATM    9  C   UNL     1      -6.747   6.433  67.555  1.00  0.00    -0.070 C  
BRANCH   9  10
HETATM   10  C   UNL     1      -7.903   7.361  67.152  1.00  0.00    -0.117 C  
BRANCH  10  11
HETATM   11  N   UNL     1      -7.630   8.139  65.911  1.00  0.00    -0.080 NA 
HETATM   12  C   UNL     1      -7.531   7.356  64.713  1.00  0.00    -0.088 A  
HETATM   13  C   UNL     1      -8.029   6.031  64.637  1.00  0.00    -0.130 A  
HETATM   14  C   UNL     1      -7.818   5.203  63.531  1.00  0.00    -0.084 A  
HETATM   15  C   UNL     1      -7.151   5.693  62.424  1.00  0.00    -0.041 A  
HETATM   16  C   UNL     1      -6.722   7.015  62.427  1.00  0.00    -0.052 A  
HETATM   17  C   UNL     1      -6.909   7.845  63.551  1.00  0.00    -0.075 A  
HETATM   18  S   UNL     1      -6.288   9.496  63.381  1.00  0.00    -0.106 SA 
HETATM   19  C   UNL     1      -6.611  10.200  64.978  1.00  0.00    -0.128 A  
HETATM   20  C   UNL     1      -7.207   9.497  66.047  1.00  0.00    -0.093 A  
HETATM   21  C   UNL     1      -7.366  10.239  67.244  1.00  0.00    -0.090 A  
HETATM   22  C   UNL     1      -6.934  11.573  67.403  1.00  0.00    -0.111 A  
HETATM   23  C   UNL     1      -7.092  12.298  68.717  1.00  0.00    -0.107 C  
HETATM   24  C   UNL     1      -6.347  12.222  66.321  1.00  0.00     1.337 A  
HETATM   25  F   UNL     1      -5.900  12.727  69.221  1.00  0.00    -0.069 F  
HETATM   26  F   UNL     1      -7.868  13.412  68.607  1.00  0.00    -0.130 F  
HETATM   27  F   UNL     1      -7.661  11.546  69.701  1.00  0.00    -0.012 F  
HETATM   28  C   UNL     1      -6.194  11.540  65.120  1.00  0.00     1.594 A  
ENDBRANCH  10  11
ENDBRANCH   9  10
ENDBRANCH   8   9
ENDBRANCH   5   8
TORSDOF 4
ENDMDL
MODEL      252
REMARK 921   NORMALIZED FREE ENERGY PREDICTED BY IDOCK:    1.02 KCAL/MOL
REMARK 922        TOTAL FREE ENERGY PREDICTED BY IDOCK:    0.84 KCAL/MOL
REMARK 923 INTER-LIGAND FREE ENERGY PREDICTED BY IDOCK:   -1.53 KCAL/MOL
REMARK 924 INTRA-LIGAND FREE ENERGY PREDICTED BY IDOCK:    2.37 KCAL/MOL
REMARK 927      BINDING AFFINITY PREDICTED BY RF-SCORE:    0.00 PKD
ROOT
HETATM    1  C   UNL     1      -8.892   9.868  62.525  1.00  0.00    -0.244 C  
HETATM    2  N   UNL     1      -8.729   9.260  63.845  1.00  0.00    -0.198 NA 
HETATM    3  C   UNL     1      -9.123   7.836  63.819  1.00  0.00     1.520 C  
HETATM    4  C   UNL     1      -8.106   6.911  63.111  1.00  0.00    -0.013 C  
HETATM    5  N   UNL     1      -6.733   7.002  63.647  1.00  0.00    -0.043 NA 
HETATM    6  C   UNL     1      -6.321   8.426  63.642  1.00  0.00    -0.073 C  
HETATM    7  C   UNL     1      -7.333   9.386  64.317  1.00  0.00    -0.109 C  
ENDROOT
BRANCH   5   8
HETATM    8  C   UNL     1      -6.608   6.449  65.006  1.00  0.00    -0.039 C  
BRANCH   8   9
HETATM    9  C   UNL     1      -7.805   5.609  65.447  1.00  0.00    -0.102 C  
BRANCH   9  10
HETATM   10  C   UNL     1      -8.447   6.070  66.766  1.00  0.00    -0.110 C  
BRANCH  10  11
HETATM   11  N   UNL     1      -7.924   5.349  67.959  1.00  0.00    -0.095 NA 
HETATM   12  C   UNL     1      -7.216   4.134  67.673  1.00  0.00    -0.067 A  
HETATM   13  C   UNL     1      -6.717   3.842  66.379  1.00  0.00    -0.049 A  
HETATM   14  C   UNL     1      -6.151   2.608  66.044  1.00  0.00    -0.024 A  
HETATM   15  C   UNL     1      -6.005   1.634  67.014  1.00  0.00    -0.019 A  
HETATM   16  C   UNL     1      -6.406   1.914  68.315  1.00  0.00    -0.025 A  
HETATM   17  C   UNL     1      -7.001   3.148  68.651  1.00  0.00    -0.049 A  
HETATM   18  S   UNL     1      -7.459   3.324  70.353  1.00  0.00    -0.040 SA 
HETATM   19  C   UNL     1      -8.237   4.920  70.383  1.00  0.00    -0.088 A  
HETATM   20  C   UNL     1      -8.405   5.740  69.246  1.00  0.00    -0.108 A  
HETATM   21  C   UNL     1      -9.063   6.973  69.483  1.00  0.00    -0.146 A  
HETATM   22  C   UNL     1      -9.564   7.366  70.742  1.00  0.00    -0.170 A  
HETATM   23  C   UNL     1     -10.295   8.673  70.923  1.00  0.00    -0.211 C  
HETATM   24  C   UNL     1      -9.378   6.520  71.831  1.00  0.00    -0.148 A  
HETATM   25  F   UNL     1     -11.560   8.500  71.401  1.00  0.00    -0.280 F  
HETATM   26  F   UNL     1      -9.674   9.497  71.813  1.00  0.00    -0.273 F  
HETATM   27  F   UNL     1     -10.428   9.398  69.778  1.00  0.00    -0.191 F  
HETATM   28  C   UNL     1      -8.716   5.311  71.651  1.00  0.00    -0.140 A  
ENDBRANCH  10  11
ENDBRANCH   9  10
ENDBRANCH   8   9
ENDBRANCH   5   8
TORSDOF 4
ENDMDL
MODEL      253
REMARK 921   NORMALIZED FREE ENERGY PREDICTED BY IDOCK:    2.78 KCAL/MOL
REMARK 922        TOTAL FREE ENERGY PREDICTED BY IDOCK:    3.01 KCAL/MOL
REMARK 923 INTER-LIGAND FREE ENERGY PREDICTED BY IDOCK:    1.04 KCAL/MOL
REMARK 924 INTRA-LIGAND FREE ENERGY PREDICTED BY IDOCK:    1.97 KCAL/MOL
REMARK 927      BINDING AFFINITY PREDICTED BY RF-SCORE:    0.00 PKD
ROOT
HETATM    1  C   UNL     1     -12.787  15.498  72.319  1.00  0.00    -0.406 C  
HETATM    2  N   UNL     1     -12.472  14.077  72.457  1.00  0.00    -0.096 NA 
HETATM    3  C   UNL     1     -13.391  13.255  71.641  1.00  0.00    -0.322 C  
HETATM    4  C   UNL     1     -13.113  13.314  70.122  1.00  0.00     0.624 C  
HETATM    5  N   UNL     1     -11.726  12.969  69.748  1.00  0.00    -0.297 NA 
HETATM    6  C   UNL     1     -10.802  13.816  70.539  1.00  0.00     1.208 C  
HETATM    7  C   UNL     1     -11.072  13.804  72.065  1.00  0.00     3.656 C  
ENDROOT
BRANCH   5   8
HETATM    8  C   UNL     1     -11.409  11.547  69.963  1.00  0.00    -0.137 C  
BRANCH   8   9
HETATM    9  C   UNL     1     -11.788  10.642  68.792  1.00  0.00    -0.177 C  
BRANCH   9  10
HETATM   10  C   UNL     1     -10.705   9.620  68.410  1.00  0.00    -0.209 C  
BRANCH  10  11
HETATM   11  N   UNL     1     -10.437   9.565  66.946  1.00  0.00    -0.230 NA 
HETATM   12  C   UNL     1      -9.981   8.295  66.459  1.00  0.00    -0.250 A  
HETATM   13  C   UNL     1     -10.140   7.102  67.207  1.00  0.00    -0.278 A  
HETATM   14  C   UNL     1      -9.580   5.881  66.819  1.00  0.00    -0.165 A  
HETATM   15  C   UNL     1      -8.887   5.793  65.626  1.00  0.00    -0.141 A  
HETATM   16  C   UNL     1      -8.781   6.923  64.823  1.00  0.00     0.322 A  
HETATM   17  C   UNL     1      -9.322   8.162  65.225  1.00  0.00     0.481 A  
HETATM   18  S   UNL     1      -9.082   9.494  64.082  1.00  0.00    -0.063 SA 
HETATM   19  C   UNL     1      -9.795  10.875  64.938  1.00  0.00    -0.284 A  
HETATM   20  C   UNL     1     -10.365  10.798  66.228  1.00  0.00    -0.244 A  
HETATM   21  C   UNL     1     -10.869  12.020  66.740  1.00  0.00    -0.307 A  
HETATM   22  C   UNL     1     -10.787  13.251  66.054  1.00  0.00    -0.284 A  
HETATM   23  C   UNL     1     -11.304  14.528  66.669  1.00  0.00    -0.356 C  
HETATM   24  C   UNL     1     -10.212  13.276  64.788  1.00  0.00    -0.323 A  
HETATM   25  F   UNL     1     -10.333  15.478  66.788  1.00  0.00    -0.263 F  
HETATM   26  F   UNL     1     -12.291  15.101  65.926  1.00  0.00    -0.012 F  
HETATM   27  F   UNL     1     -11.823  14.372  67.919  1.00  0.00    -0.330 F  
HETATM   28  C   UNL     1      -9.726  12.097  64.236  1.00  0.00    -0.076 A  
ENDBRANCH  10  11
ENDBRANCH   9  10
ENDBRANCH   8   9
ENDBRANCH   5   8
TORSDOF 4
ENDMDL
MODEL      254
REMARK 921   NORMALIZED FREE ENERGY PREDICTED BY IDOCK:    3.80 KCAL/MOL
REMARK 922        TOTAL FREE ENERGY PREDICTED BY IDOCK:    4.27 KCAL/MOL
REMARK 923 INTER-LIGAND FREE ENERGY PREDICTED BY IDOCK:   -2.86 KCAL/MOL
REMARK 924 INTRA-LIGAND FREE ENERGY PREDICTED BY IDOCK:    7.14 KCAL/MOL
REMARK 927      BINDING AFFINITY PREDICTED BY RF-SCORE:    0.00 PKD
ROOT
HETATM    1  C   UNL     1     -10.393  19.320  68.679  1.00  0.00    -0.243 C  
HETATM    2  N   UNL     1     -10.612  18.412  67.553  1.00  0.00    -0.424 NA 
HETATM    3  C   UNL     1      -9.384  17.650  67.247  1.00  0.00    -0.249 C  
HETATM    4  C   UNL     1      -9.061  16.534  68.267  1.00  0.00    -0.214 C  
HETATM    5  N   UNL     1     -10.162  15.573  68.479  1.00  0.00    -0.212 NA 
HETATM    6  C   UNL     1     -11.388  16.332  68.821  1.00  0.00    -0.329 C  
HETATM    7  C   UNL     1     -11.725  17.480  67.835  1.00  0.00     1.252 C  
ENDROOT
BRANCH   5   8
HETATM    8  C   UNL     1     -10.413  14.718  67.306  1.00  0.00    -0.264 C  
BRANCH   8   9
HETATM    9  C   UNL     1      -9.613  15.114  66.067  1.00  0.00    -0.365 C  
BRANCH   9  10
HETATM   10  C   UNL     1      -8.099  14.878  66.193  1.00  0.00     1.198 C  
BRANCH  10  11
HETATM   11  N   UNL     1      -7.703  14.276  67.496  1.00  0.00    -0.180 NA 
HETATM   12  C   UNL     1      -6.897  15.116  68.333  1.00  0.00    -0.109 A  
HETATM   13  C   UNL     1      -6.807  16.516  68.131  1.00  0.00    -0.142 A  
HETATM   14  C   UNL     1      -5.921  17.331  68.841  1.00  0.00    -0.176 A  
HETATM   15  C   UNL     1      -5.130  16.784  69.834  1.00  0.00    -0.168 A  
HETATM   16  C   UNL     1      -5.251  15.428  70.120  1.00  0.00    -0.121 A  
HETATM   17  C   UNL     1      -6.124  14.599  69.388  1.00  0.00    -0.109 A  
HETATM   18  S   UNL     1      -6.139  12.898  69.883  1.00  0.00    -0.096 SA 
HETATM   19  C   UNL     1      -7.253  12.161  68.714  1.00  0.00    -0.103 A  
HETATM   20  C   UNL     1      -7.891  12.871  67.673  1.00  0.00    -0.168 A  
HETATM   21  C   UNL     1      -8.734  12.093  66.840  1.00  0.00    -0.194 A  
HETATM   22  C   UNL     1      -8.913  10.701  66.986  1.00  0.00    -0.145 A  
HETATM   23  C   UNL     1      -9.790   9.919  66.040  1.00  0.00    -0.264 C  
HETATM   24  C   UNL     1      -8.258  10.046  68.024  1.00  0.00    -0.116 A  
HETATM   25  F   UNL     1      -9.110   8.925  65.400  1.00  0.00    -0.218 F  
HETATM   26  F   UNL     1     -10.826   9.305  66.678  1.00  0.00    -0.248 F  
HETATM   27  F   UNL     1     -10.356  10.673  65.056  1.00  0.00    -0.342 F  
HETATM   28  C   UNL     1      -7.441  10.773  68.881  1.00  0.00    -0.116 A  
ENDBRANCH  10  11
ENDBRANCH   9  10
ENDBRANCH   8   9
ENDBRANCH   5   8
TORSDOF 4
ENDMDL
MODEL      255
REMARK 921   NORMALIZED FREE ENERGY PREDICTED BY IDOCK:    8.43 KCAL/MOL
REMARK 922        TOTAL FREE ENERGY PREDICTED BY IDOCK:    9.99 KCAL/MOL
REMARK 923 INTER-LIGAND FREE ENERGY PREDICTED BY IDOCK:    8.97 KCAL/MOL
REMARK 924 INTRA-LIGAND FREE ENERGY PREDICTED BY IDOCK:    1.02 KCAL/MOL
REMARK 927      BINDING AFFINITY PREDICTED BY RF-SCORE:    0.00 PKD
ROOT
HETATM    1  C   UNL     1      -9.309   9.656  62.440  1.00  0.00    -0.110 C  
HETATM    2  N   UNL     1      -9.451   9.541  63.891  1.00  0.00     0.072 NA 
HETATM    3  C   UNL     1     -10.096   8.262  64.255  1.00  0.00     4.743 C  
HETATM    4  C   UNL     1      -9.181   7.026  64.105  1.00  0.00     1.848 C  
HETATM    5  N   UNL     1      -7.904   7.127  64.841  1.00  0.00    -0.121 NA 
HETATM    6  C   UNL     1      -7.237   8.392  64.452  1.00  0.00    -0.087 C  
HETATM    7  C   UNL     1      -8.137   9.649  64.561  1.00  0.00    -0.143 C  
ENDROOT
BRANCH   5   8
HETATM    8  C   UNL     1      -8.078   7.082  66.303  1.00  0.00    -0.115 C  
BRANCH   8   9
HETATM    9  C   UNL     1      -9.529   7.225  66.760  1.00  0.00    -0.218 C  
BRANCH   9  10
HETATM   10  C   UNL     1      -9.850   8.574  67.423  1.00  0.00    -0.187 C  
BRANCH  10  11
HETATM   11  N   UNL     1      -9.181   8.756  68.741  1.00  0.00    -0.141 NA 
HETATM   12  C   UNL     1      -9.628   7.871  69.777  1.00  0.00    -0.167 A  
HETATM   13  C   UNL     1     -10.345   6.682  69.493  1.00  0.00    -0.232 A  
HETATM   14  C   UNL     1     -10.911   5.880  70.488  1.00  0.00    -0.362 A  
HETATM   15  C   UNL     1     -10.727   6.204  71.819  1.00  0.00    -0.289 A  
HETATM   16  C   UNL     1      -9.957   7.317  72.140  1.00  0.00    -0.191 A  
HETATM   17  C   UNL     1      -9.407   8.142  71.139  1.00  0.00    -0.154 A  
HETATM   18  S   UNL     1      -8.465   9.521  71.733  1.00  0.00     1.544 SA 
HETATM   19  C   UNL     1      -8.018  10.361  70.235  1.00  0.00     0.462 A  
HETATM   20  C   UNL     1      -8.404   9.938  68.944  1.00  0.00    -0.124 A  
HETATM   21  C   UNL     1      -7.953  10.758  67.879  1.00  0.00    -0.110 A  
HETATM   22  C   UNL     1      -7.204  11.940  68.062  1.00  0.00    -0.090 A  
HETATM   23  C   UNL     1      -6.789  12.795  66.891  1.00  0.00     0.416 C  
HETATM   24  C   UNL     1      -6.853  12.318  69.354  1.00  0.00     0.007 A  
HETATM   25  F   UNL     1      -7.265  14.070  66.982  1.00  0.00    -0.140 F  
HETATM   26  F   UNL     1      -5.435  12.913  66.788  1.00  0.00     0.117 F  
HETATM   27  F   UNL     1      -7.213  12.327  65.684  1.00  0.00     1.160 F  
HETATM   28  C   UNL     1      -7.253  11.531  70.427  1.00  0.00     1.584 A  
ENDBRANCH  10  11
ENDBRANCH   9  10
ENDBRANCH   8   9
ENDBRANCH   5   8
TORSDOF 4
ENDMDL
MODEL      256
REMARK 921   NORMALIZED FREE ENERGY PREDICTED BY IDOCK:   11.15 KCAL/MOL
REMARK 922        TOTAL FREE ENERGY PREDICTED BY IDOCK:   13.35 KCAL/MOL
REMARK 923 INTER-LIGAND FREE ENERGY PREDICTED BY IDOCK:    7.56 KCAL/MOL
REMARK 924 INTRA-LIGAND FREE ENERGY PREDICTED BY IDOCK:    5.78 KCAL/MOL
REMARK 927      BINDING AFFINITY PREDICTED BY RF-SCORE:    0.00 PKD
ROOT
HETATM    1  C   UNL     1      -6.399   8.040  71.905  1.00  0.00    -0.045 C  
HETATM    2  N   UNL     1      -7.801   8.026  71.490  1.00  0.00    -0.093 NA 
HETATM    3  C   UNL     1      -8.361   6.661  71.579  1.00  0.00    -0.120 C  
HETATM    4  C   UNL     1      -8.637   6.183  73.023  1.00  0.00    -0.118 C  
HETATM    5  N   UNL     1      -9.502   7.091  73.804  1.00  0.00    -0.200 NA 
HETATM    6  C   UNL     1      -8.924   8.455  73.746  1.00  0.00     0.099 C  
HETATM    7  C   UNL     1      -8.606   8.954  72.314  1.00  0.00     0.179 C  
ENDROOT
BRANCH   5   8
HETATM    8  C   UNL     1     -10.893   7.116  73.322  1.00  0.00    -0.338 C  
BRANCH   8   9
HETATM    9  C   UNL     1     -11.553   8.492  73.402  1.00  0.00     1.633 C  
BRANCH   9  10
HETATM   10  C   UNL     1     -10.909   9.552  72.494  1.00  0.00     1.690 C  
BRANCH  10  11
HETATM   11  N   UNL     1     -11.617   9.724  71.195  1.00  0.00    -0.362 NA 
HETATM   12  C   UNL     1     -11.420   8.662  70.251  1.00  0.00    -0.076 A  
HETATM   13  C   UNL     1     -10.928   7.391  70.640  1.00  0.00    -0.274 A  
HETATM   14  C   UNL     1     -10.595   6.391  69.721  1.00  0.00    -0.309 A  
HETATM   15  C   UNL     1     -10.802   6.603  68.371  1.00  0.00    -0.320 A  
HETATM   16  C   UNL     1     -11.362   7.806  67.957  1.00  0.00     0.714 A  
HETATM   17  C   UNL     1     -11.674   8.827  68.878  1.00  0.00     1.356 A  
HETATM   18  S   UNL     1     -12.369  10.294  68.170  1.00  0.00     3.102 SA 
HETATM   19  C   UNL     1     -12.545  11.361  69.577  1.00  0.00     0.129 A  
HETATM   20  C   UNL     1     -12.162  11.009  70.890  1.00  0.00    -0.367 A  
HETATM   21  C   UNL     1     -12.375  12.010  71.870  1.00  0.00     0.443 A  
HETATM   22  C   UNL     1     -12.891  13.292  71.584  1.00  0.00    -0.397 A  
HETATM   23  C   UNL     1     -13.055  14.332  72.664  1.00  0.00    -0.478 C  
HETATM   24  C   UNL     1     -13.248  13.593  70.273  1.00  0.00     0.450 A  
HETATM   25  F   UNL     1     -12.348  15.469  72.403  1.00  0.00    -0.360 F  
HETATM   26  F   UNL     1     -14.349  14.728  72.813  1.00  0.00    -0.439 F  
HETATM   27  F   UNL     1     -12.649  13.919  73.897  1.00  0.00     0.113 F  
HETATM   28  C   UNL     1     -13.080  12.632  69.283  1.00  0.00     1.950 A  
ENDBRANCH  10  11
ENDBRANCH   9  10
ENDBRANCH   8   9
ENDBRANCH   5   8
TORSDOF 4
ENDMDL
MODEL      257
REMARK 921   NORMALIZED FREE ENERGY PREDICTED BY IDOCK:   15.22 KCAL/MOL
REMARK 922        TOTAL FREE ENERGY PREDICTED BY IDOCK:   18.37 KCAL/MOL
REMARK 923 INTER-LIGAND FREE ENERGY PREDICTED BY IDOCK:   13.66 KCAL/MOL
REMARK 924 INTRA-LIGAND FREE ENERGY PREDICTED BY IDOCK:    4.71 KCAL/MOL
REMARK 927      BINDING AFFINITY PREDICTED BY RF-SCORE:    0.00 PKD
ROOT
HETATM    1  C   UNL     1      -6.436   9.259  72.122  1.00  0.00     0.230 C  
HETATM    2  N   UNL     1      -7.133  10.468  71.685  1.00  0.00     1.723 NA 
HETATM    3  C   UNL     1      -7.296  11.415  72.808  1.00  0.00    11.373 C  
HETATM    4  C   UNL     1      -5.995  12.142  73.216  1.00  0.00     2.809 C  
HETATM    5  N   UNL     1      -5.325  12.851  72.106  1.00  0.00    -0.386 NA 
HETATM    6  C   UNL     1      -5.128  11.895  70.990  1.00  0.00    -0.134 C  
HETATM    7  C   UNL     1      -6.408  11.125  70.575  1.00  0.00     0.070 C  
ENDROOT
BRANCH   5   8
HETATM    8  C   UNL     1      -6.080  14.023  71.633  1.00  0.00     0.199 C  
BRANCH   8   9
HETATM    9  C   UNL     1      -6.791  13.806  70.298  1.00  0.00     0.392 C  
BRANCH   9  10
HETATM   10  C   UNL     1      -7.752  14.940  69.905  1.00  0.00     0.117 C  
BRANCH  10  11
HETATM   11  N   UNL     1      -8.501  14.667  68.647  1.00  0.00    -0.161 NA 
HETATM   12  C   UNL     1      -8.560  13.286  68.263  1.00  0.00    -0.169 A  
HETATM   13  C   UNL     1      -8.279  12.238  69.175  1.00  0.00     0.473 A  
HETATM   14  C   UNL     1      -8.191  10.898  68.789  1.00  0.00    -0.151 A  
HETATM   15  C   UNL     1      -8.445  10.543  67.478  1.00  0.00    -0.118 A  
HETATM   16  C   UNL     1      -8.807  11.533  66.571  1.00  0.00    -0.190 A  
HETATM   17  C   UNL     1      -8.870  12.889  66.950  1.00  0.00    -0.187 A  
HETATM   18  S   UNL     1      -9.337  14.011  65.661  1.00  0.00     0.411 SA 
HETATM   19  C   UNL     1      -9.225  15.591  66.461  1.00  0.00    -0.293 A  
HETATM   20  C   UNL     1      -8.827  15.773  67.804  1.00  0.00    -0.171 A  
HETATM   21  C   UNL     1      -8.792  17.119  68.247  1.00  0.00    -0.245 A  
HETATM   22  C   UNL     1      -9.088  18.224  67.421  1.00  0.00    -0.253 A  
HETATM   23  C   UNL     1      -8.992  19.638  67.939  1.00  0.00    -0.324 C  
HETATM   24  C   UNL     1      -9.471  17.994  66.104  1.00  0.00    -0.161 A  
HETATM   25  F   UNL     1      -8.112  20.395  67.223  1.00  0.00    -0.333 F  
HETATM   26  F   UNL     1     -10.182  20.297  67.876  1.00  0.00    -0.515 F  
HETATM   27  F   UNL     1      -8.587  19.728  69.236  1.00  0.00    -0.333 F  
HETATM   28  C   UNL     1      -9.543  16.688  65.633  1.00  0.00    -0.013 A  
ENDBRANCH  10  11
ENDBRANCH   9  10
ENDBRANCH   8   9
ENDBRANCH   5   8
TORSDOF 4
ENDMDL
MODEL      258
REMARK 921   NORMALIZED FREE ENERGY PREDICTED BY IDOCK:   17.88 KCAL/MOL
REMARK 922        TOTAL FREE ENERGY PREDICTED BY IDOCK:   21.64 KCAL/MOL
REMARK 923 INTER-LIGAND FREE ENERGY PREDICTED BY IDOCK:   15.70 KCAL/MOL
REMARK 924 INTRA-LIGAND FREE ENERGY PREDICTED BY IDOCK:    5.94 KCAL/MOL
REMARK 927      BINDING AFFINITY PREDICTED BY RF-SCORE:    0.00 PKD
ROOT
HETATM    1  C   UNL     1     -12.405  16.737  70.850  1.00  0.00     2.186 C  
HETATM    2  N   UNL     1     -11.619  15.843  70.001  1.00  0.00    -0.341 NA 
HETATM    3  C   UNL     1     -10.769  16.615  69.070  1.00  0.00    -0.343 C  
HETATM    4  C   UNL     1      -9.547  17.286  69.738  1.00  0.00     0.709 C  
HETATM    5  N   UNL     1      -8.682  16.353  70.489  1.00  0.00     2.406 NA 
HETATM    6  C   UNL     1      -9.526  15.601  71.449  1.00  0.00     3.295 C  
HETATM    7  C   UNL     1     -10.778  14.941  70.818  1.00  0.00     0.121 C  
ENDROOT
BRANCH   5   8
HETATM    8  C   UNL     1      -7.956  15.414  69.619  1.00  0.00    -0.138 C  
BRANCH   8   9
HETATM    9  C   UNL     1      -8.391  15.462  68.155  1.00  0.00    -0.145 C  
BRANCH   9  10
HETATM   10  C   UNL     1      -8.970  16.815  67.714  1.00  0.00    -0.216 C  
BRANCH  10  11
HETATM   11  N   UNL     1      -9.524  16.797  66.332  1.00  0.00    -0.267 NA 
HETATM   12  C   UNL     1      -9.991  18.064  65.848  1.00  0.00    -0.107 A  
HETATM   13  C   UNL     1      -9.612  19.288  66.455  1.00  0.00    -0.425 A  
HETATM   14  C   UNL     1     -10.164  20.519  66.092  1.00  0.00    -0.098 A  
HETATM   15  C   UNL     1     -11.077  20.583  65.056  1.00  0.00     0.954 A  
HETATM   16  C   UNL     1     -11.411  19.415  64.379  1.00  0.00     4.326 A  
HETATM   17  C   UNL     1     -10.876  18.168  64.760  1.00  0.00     1.908 A  
HETATM   18  S   UNL     1     -11.422  16.788  63.793  1.00  0.00     3.355 SA 
HETATM   19  C   UNL     1     -10.635  15.414  64.597  1.00  0.00    -0.091 A  
HETATM   20  C   UNL     1      -9.813  15.530  65.739  1.00  0.00    -0.357 A  
HETATM   21  C   UNL     1      -9.291  14.308  66.234  1.00  0.00    -0.236 A  
HETATM   22  C   UNL     1      -9.584  13.046  65.675  1.00  0.00    -0.025 A  
HETATM   23  C   UNL     1      -9.033  11.776  66.273  1.00  0.00    -0.176 C  
HETATM   24  C   UNL     1     -10.404  12.984  64.553  1.00  0.00    -0.386 A  
HETATM   25  F   UNL     1     -10.015  10.910  66.654  1.00  0.00    -0.211 F  
HETATM   26  F   UNL     1      -8.252  11.084  65.397  1.00  0.00    -0.151 F  
HETATM   27  F   UNL     1      -8.263  11.972  67.380  1.00  0.00    -0.135 F  
HETATM   28  C   UNL     1     -10.919  14.159  64.018  1.00  0.00     0.286 A  
ENDBRANCH  10  11
ENDBRANCH   9  10
ENDBRANCH   8   9
ENDBRANCH   5   8
TORSDOF 4
ENDMDL
MODEL      259
REMARK 921   NORMALIZED FREE ENERGY PREDICTED BY IDOCK:   18.92 KCAL/MOL
REMARK 922        TOTAL FREE ENERGY PREDICTED BY IDOCK:   22.92 KCAL/MOL
REMARK 923 INTER-LIGAND FREE ENERGY PREDICTED BY IDOCK:    2.71 KCAL/MOL
REMARK 924 INTRA-LIGAND FREE ENERGY PREDICTED BY IDOCK:   20.22 KCAL/MOL
REMARK 927      BINDING AFFINITY PREDICTED BY RF-SCORE:    0.00 PKD
ROOT
HETATM    1  C   UNL     1     -10.218  19.238  69.606  1.00  0.00     0.392 C  
HETATM    2  N   UNL     1     -11.205  18.239  69.197  1.00  0.00     1.583 NA 
HETATM    3  C   UNL     1     -10.583  17.209  68.339  1.00  0.00    -0.371 C  
HETATM    4  C   UNL     1      -9.680  16.212  69.099  1.00  0.00    -0.248 C  
HETATM    5  N   UNL     1     -10.347  15.532  70.228  1.00  0.00    -0.279 NA 
HETATM    6  C   UNL     1     -10.942  16.564  71.111  1.00  0.00     0.413 C  
HETATM    7  C   UNL     1     -11.830  17.600  70.376  1.00  0.00     4.577 C  
ENDROOT
BRANCH   5   8
HETATM    8  C   UNL     1     -11.388  14.584  69.796  1.00  0.00    -0.260 C  
BRANCH   8   9
HETATM    9  C   UNL     1     -11.992  14.907  68.430  1.00  0.00    -0.255 C  
BRANCH   9  10
HETATM   10  C   UNL     1     -10.977  15.422  67.398  1.00  0.00    -0.312 C  
BRANCH  10  11
HETATM   11  N   UNL     1      -9.590  14.940  67.644  1.00  0.00    -0.200 NA 
HETATM   12  C   UNL     1      -8.552  15.857  67.268  1.00  0.00    -0.184 A  
HETATM   13  C   UNL     1      -8.807  17.234  67.052  1.00  0.00    -0.243 A  
HETATM   14  C   UNL     1      -7.845  18.115  66.549  1.00  0.00    -0.287 A  
HETATM   15  C   UNL     1      -6.563  17.663  66.302  1.00  0.00    -0.301 A  
HETATM   16  C   UNL     1      -6.251  16.337  66.583  1.00  0.00     0.325 A  
HETATM   17  C   UNL     1      -7.226  15.440  67.064  1.00  0.00    -0.037 A  
HETATM   18  S   UNL     1      -6.651  13.789  67.354  1.00  0.00     0.235 SA 
HETATM   19  C   UNL     1      -8.130  12.944  67.853  1.00  0.00    -0.161 A  
HETATM   20  C   UNL     1      -9.401  13.555  67.936  1.00  0.00    -0.215 A  
HETATM   21  C   UNL     1     -10.456  12.700  68.344  1.00  0.00    -0.248 A  
HETATM   22  C   UNL     1     -10.291  11.325  68.615  1.00  0.00    -0.217 A  
HETATM   23  C   UNL     1     -11.462  10.456  69.004  1.00  0.00    -0.193 C  
HETATM   24  C   UNL     1      -9.020  10.768  68.514  1.00  0.00    -0.160 A  
HETATM   25  F   UNL     1     -11.647   9.416  68.142  1.00  0.00     0.053 F  
HETATM   26  F   UNL     1     -11.306   9.893  70.234  1.00  0.00    -0.255 F  
HETATM   27  F   UNL     1     -12.653  11.117  69.047  1.00  0.00    -0.312 F  
HETATM   28  C   UNL     1      -7.951  11.575  68.141  1.00  0.00    -0.136 A  
ENDBRANCH  10  11
ENDBRANCH   9  10
ENDBRANCH   8   9
ENDBRANCH   5   8
TORSDOF 4
ENDMDL
MODEL      260
REMARK 921   NORMALIZED FREE ENERGY PREDICTED BY IDOCK:   20.17 KCAL/MOL
REMARK 922        TOTAL FREE ENERGY PREDICTED BY IDOCK:   24.48 KCAL/MOL
REMARK 923 INTER-LIGAND FREE ENERGY PREDICTED BY IDOCK:   17.42 KCAL/MOL
REMARK 924 INTRA-LIGAND FREE ENERGY PREDICTED BY IDOCK:    7.05 KCAL/MOL
REMARK 927      BINDING AFFINITY PREDICTED BY RF-SCORE:    0.00 PKD
ROOT
HETATM    1  C   UNL     1      -6.455   9.267  72.131  1.00  0.00     0.230 C  
HETATM    2  N   UNL     1      -7.176  10.463  71.699  1.00  0.00     1.631 NA 
HETATM    3  C   UNL     1      -7.394  11.383  72.836  1.00  0.00    11.716 C  
HETATM    4  C   UNL     1      -6.124  12.139  73.290  1.00  0.00     3.365 C  
HETATM    5  N   UNL     1      -5.449  12.888  72.211  1.00  0.00    -0.354 NA 
HETATM    6  C   UNL     1      -5.198  11.961  71.082  1.00  0.00    -0.102 C  
HETATM    7  C   UNL     1      -6.443  11.162  70.621  1.00  0.00     0.369 C  
ENDROOT
BRANCH   5   8
HETATM    8  C   UNL     1      -6.227  14.047  71.741  1.00  0.00     0.555 C  
BRANCH   8   9
HETATM    9  C   UNL     1      -6.890  13.840  70.380  1.00  0.00     0.501 C  
BRANCH   9  10
HETATM   10  C   UNL     1      -7.869  14.956  69.980  1.00  0.00     0.308 C  
BRANCH  10  11
HETATM   11  N   UNL     1      -8.567  14.693  68.691  1.00  0.00    -0.170 NA 
HETATM   12  C   UNL     1      -8.709  15.834  67.834  1.00  0.00    -0.170 A  
HETATM   13  C   UNL     1      -7.928  17.005  68.004  1.00  0.00    -0.195 A  
HETATM   14  C   UNL     1      -8.147  18.177  67.274  1.00  0.00    -0.230 A  
HETATM   15  C   UNL     1      -9.121  18.203  66.294  1.00  0.00    -0.199 A  
HETATM   16  C   UNL     1      -9.852  17.047  66.039  1.00  0.00    -0.263 A  
HETATM   17  C   UNL     1      -9.651  15.872  66.792  1.00  0.00    -0.236 A  
HETATM   18  S   UNL     1     -10.679  14.502  66.336  1.00  0.00    -0.316 SA 
HETATM   19  C   UNL     1     -10.224  13.263  67.523  1.00  0.00    -0.222 A  
HETATM   20  C   UNL     1      -9.273  13.459  68.547  1.00  0.00    -0.082 A  
HETATM   21  C   UNL     1      -9.064  12.346  69.399  1.00  0.00     1.209 A  
HETATM   22  C   UNL     1      -9.768  11.128  69.286  1.00  0.00     0.031 A  
HETATM   23  C   UNL     1      -9.532   9.992  70.250  1.00  0.00     0.016 C  
HETATM   24  C   UNL     1     -10.700  10.985  68.263  1.00  0.00    -0.235 A  
HETATM   25  F   UNL     1     -10.667   9.628  70.913  1.00  0.00    -0.316 F  
HETATM   26  F   UNL     1      -9.091   8.864  69.627  1.00  0.00    -0.139 F  
HETATM   27  F   UNL     1      -8.612  10.267  71.216  1.00  0.00     1.035 F  
HETATM   28  C   UNL     1     -10.920  12.043  67.388  1.00  0.00    -0.311 A  
ENDBRANCH  10  11
ENDBRANCH   9  10
ENDBRANCH   8   9
ENDBRANCH   5   8
TORSDOF 4
ENDMDL
MODEL      261
REMARK 921   NORMALIZED FREE ENERGY PREDICTED BY IDOCK:   25.51 KCAL/MOL
REMARK 922        TOTAL FREE ENERGY PREDICTED BY IDOCK:   31.07 KCAL/MOL
REMARK 923 INTER-LIGAND FREE ENERGY PREDICTED BY IDOCK:   30.05 KCAL/MOL
REMARK 924 INTRA-LIGAND FREE ENERGY PREDICTED BY IDOCK:    1.02 KCAL/MOL
REMARK 927      BINDING AFFINITY PREDICTED BY RF-SCORE:    0.00 PKD
ROOT
HETATM    1  C   UNL     1      -5.935  10.185  69.034  1.00  0.00    -0.037 C  
HETATM    2  N   UNL     1      -5.893  11.643  69.138  1.00  0.00    -0.057 NA 
HETATM    3  C   UNL     1      -5.843  12.263  67.797  1.00  0.00    -0.098 C  
HETATM    4  C   UNL     1      -7.184  12.216  67.028  1.00  0.00    -0.067 C  
HETATM    5  N   UNL     1      -8.324  12.797  67.765  1.00  0.00    -0.163 NA 
HETATM    6  C   UNL     1      -8.398  12.152  69.098  1.00  0.00     0.494 C  
HETATM    7  C   UNL     1      -7.063  12.154  69.885  1.00  0.00     0.637 C  
ENDROOT
BRANCH   5   8
HETATM    8  C   UNL     1      -8.224  14.258  67.922  1.00  0.00    -0.156 C  
BRANCH   8   9
HETATM    9  C   UNL     1      -8.415  15.036  66.621  1.00  0.00    -0.192 C  
BRANCH   9  10
HETATM   10  C   UNL     1      -9.885  15.268  66.236  1.00  0.00    -0.294 C  
BRANCH  10  11
HETATM   11  N   UNL     1     -10.462  16.504  66.832  1.00  0.00    -0.301 NA 
HETATM   12  C   UNL     1     -10.611  17.604  65.923  1.00  0.00    -0.203 A  
HETATM   13  C   UNL     1     -10.587  17.427  64.517  1.00  0.00     2.005 A  
HETATM   14  C   UNL     1     -10.588  18.496  63.617  1.00  0.00    11.273 A  
HETATM   15  C   UNL     1     -10.679  19.792  64.089  1.00  0.00     5.397 A  
HETATM   16  C   UNL     1     -10.790  20.002  65.459  1.00  0.00    -0.179 A  
HETATM   17  C   UNL     1     -10.763  18.928  66.372  1.00  0.00    -0.290 A  
HETATM   18  S   UNL     1     -10.905  19.385  68.077  1.00  0.00     0.097 SA 
HETATM   19  C   UNL     1     -10.744  17.827  68.913  1.00  0.00     0.086 A  
HETATM   20  C   UNL     1     -10.535  16.594  68.256  1.00  0.00    -0.321 A  
HETATM   21  C   UNL     1     -10.421  15.467  69.108  1.00  0.00    -0.232 A  
HETATM   22  C   UNL     1     -10.468  15.541  70.517  1.00  0.00    -0.147 A  
HETATM   23  C   UNL     1     -10.297  14.311  71.373  1.00  0.00     3.183 C  
HETATM   24  C   UNL     1     -10.671  16.780  71.117  1.00  0.00     1.113 A  
HETATM   25  F   UNL     1      -9.244  14.416  72.231  1.00  0.00     3.727 F  
HETATM   26  F   UNL     1     -11.386  14.066  72.154  1.00  0.00     0.521 F  
HETATM   27  F   UNL     1     -10.085  13.167  70.665  1.00  0.00     2.570 F  
HETATM   28  C   UNL     1     -10.813  17.909  70.319  1.00  0.00     1.685 A  
ENDBRANCH  10  11
ENDBRANCH   9  10
ENDBRANCH   8   9
ENDBRANCH   5   8
TORSDOF 4
ENDMDL
MODEL      262
REMARK 921   NORMALIZED FREE ENERGY PREDICTED BY IDOCK:   57.30 KCAL/MOL
REMARK 922        TOTAL FREE ENERGY PREDICTED BY IDOCK:   70.29 KCAL/MOL
REMARK 923 INTER-LIGAND FREE ENERGY PREDICTED BY IDOCK:   60.42 KCAL/MOL
REMARK 924 INTRA-LIGAND FREE ENERGY PREDICTED BY IDOCK:    9.87 KCAL/MOL
REMARK 927      BINDING AFFINITY PREDICTED BY RF-SCORE:    0.00 PKD
ROOT
HETATM    1  C   UNL     1      -7.377  11.334  69.352  1.00  0.00    -0.025 C  
HETATM    2  N   UNL     1      -8.585  11.618  70.126  1.00  0.00     2.288 NA 
HETATM    3  C   UNL     1      -9.781  11.598  69.258  1.00  0.00     0.359 C  
HETATM    4  C   UNL     1     -10.222  10.183  68.821  1.00  0.00    -0.186 C  
HETATM    5  N   UNL     1     -10.448   9.248  69.941  1.00  0.00    -0.215 NA 
HETATM    6  C   UNL     1      -9.237   9.238  70.796  1.00  0.00    -0.253 C  
HETATM    7  C   UNL     1      -8.748  10.644  71.228  1.00  0.00     4.911 C  
ENDROOT
BRANCH   5   8
HETATM    8  C   UNL     1     -11.629   9.595  70.751  1.00  0.00    -0.321 C  
BRANCH   8   9
HETATM    9  C   UNL     1     -11.296  10.045  72.172  1.00  0.00     1.273 C  
BRANCH   9  10
HETATM   10  C   UNL     1     -11.806  11.453  72.522  1.00  0.00     4.421 C  
BRANCH  10  11
HETATM   11  N   UNL     1     -12.436  12.155  71.370  1.00  0.00    -0.196 NA 
HETATM   12  C   UNL     1     -13.006  11.295  70.373  1.00  0.00     0.075 A  
HETATM   13  C   UNL     1     -13.298   9.932  70.633  1.00  0.00    -0.071 A  
HETATM   14  C   UNL     1     -13.720   9.043  69.640  1.00  0.00     3.894 A  
HETATM   15  C   UNL     1     -13.929   9.500  68.353  1.00  0.00    12.782 A  
HETATM   16  C   UNL     1     -13.735  10.849  68.078  1.00  0.00    10.716 A  
HETATM   17  C   UNL     1     -13.284  11.743  69.070  1.00  0.00     3.042 A  
HETATM   18  S   UNL     1     -13.081  13.420  68.537  1.00  0.00     3.293 SA 
HETATM   19  C   UNL     1     -12.434  14.215  69.986  1.00  0.00    -0.296 A  
HETATM   20  C   UNL     1     -12.169  13.548  71.202  1.00  0.00    -0.194 A  
HETATM   21  C   UNL     1     -11.642  14.363  72.235  1.00  0.00     0.545 A  
HETATM   22  C   UNL     1     -11.351  15.735  72.081  1.00  0.00    -0.311 A  
HETATM   23  C   UNL     1     -10.750  16.542  73.205  1.00  0.00     4.207 C  
HETATM   24  C   UNL     1     -11.625  16.346  70.861  1.00  0.00    -0.187 A  
HETATM   25  F   UNL     1      -9.554  17.101  72.863  1.00  0.00     7.703 F  
HETATM   26  F   UNL     1     -11.546  17.579  73.586  1.00  0.00    -0.308 F  
HETATM   27  F   UNL     1     -10.511  15.823  74.338  1.00  0.00     3.800 F  
HETATM   28  C   UNL     1     -12.166  15.590  69.827  1.00  0.00    -0.328 A  
ENDBRANCH  10  11
ENDBRANCH   9  10
ENDBRANCH   8   9
ENDBRANCH   5   8
TORSDOF 4
ENDMDL
MODEL      263
REMARK 921   NORMALIZED FREE ENERGY PREDICTED BY IDOCK:   73.02 KCAL/MOL
REMARK 922        TOTAL FREE ENERGY PREDICTED BY IDOCK:   89.68 KCAL/MOL
REMARK 923 INTER-LIGAND FREE ENERGY PREDICTED BY IDOCK:    2.68 KCAL/MOL
REMARK 924 INTRA-LIGAND FREE ENERGY PREDICTED BY IDOCK:   87.00 KCAL/MOL
REMARK 927      BINDING AFFINITY PREDICTED BY RF-SCORE:    0.00 PKD
ROOT
HETATM    1  C   UNL     1     -10.676   7.572  70.457  1.00  0.00    -0.235 C  
HETATM    2  N   UNL     1      -9.461   6.871  70.043  1.00  0.00    -0.158 NA 
HETATM    3  C   UNL     1      -8.910   7.464  68.806  1.00  0.00    -0.130 C  
HETATM    4  C   UNL     1      -8.220   8.832  69.013  1.00  0.00    -0.117 C  
HETATM    5  N   UNL     1      -7.156   8.823  70.037  1.00  0.00    -0.046 NA 
HETATM    6  C   UNL     1      -7.715   8.261  71.290  1.00  0.00    -0.099 C  
HETATM    7  C   UNL     1      -8.441   6.903  71.113  1.00  0.00    -0.123 C  
ENDROOT
BRANCH   5   8
HETATM    8  C   UNL     1      -5.971   8.050  69.628  1.00  0.00    -0.029 C  
BRANCH   8   9
HETATM    9  C   UNL     1      -6.237   7.055  68.500  1.00  0.00    -0.034 C  
BRANCH   9  10
HETATM   10  C   UNL     1      -7.159   7.591  67.392  1.00  0.00    -0.085 C  
BRANCH  10  11
HETATM   11  N   UNL     1      -7.631   8.981  67.640  1.00  0.00    -0.092 NA 
HETATM   12  C   UNL     1      -7.997   9.716  66.464  1.00  0.00    -0.112 A  
HETATM   13  C   UNL     1      -8.264   9.075  65.228  1.00  0.00    -0.139 A  
HETATM   14  C   UNL     1      -8.483   9.777  64.039  1.00  0.00    -0.186 A  
HETATM   15  C   UNL     1      -8.507  11.159  64.053  1.00  0.00     0.339 A  
HETATM   16  C   UNL     1      -8.334  11.823  65.262  1.00  0.00     0.815 A  
HETATM   17  C   UNL     1      -8.086  11.119  66.458  1.00  0.00    -0.163 A  
HETATM   18  S   UNL     1      -7.879  12.130  67.898  1.00  0.00    -0.160 SA 
HETATM   19  C   UNL     1      -7.505  10.939  69.159  1.00  0.00    -0.130 A  
HETATM   20  C   UNL     1      -7.405   9.549  68.931  1.00  0.00    -0.073 A  
HETATM   21  C   UNL     1      -7.085   8.771  70.072  1.00  0.00    -0.047 A  
HETATM   22  C   UNL     1      -6.837   9.317  71.349  1.00  0.00     0.005 A  
HETATM   23  C   UNL     1      -6.457   8.440  72.517  1.00  0.00    -0.087 C  
HETATM   24  C   UNL     1      -6.942  10.693  71.522  1.00  0.00     2.449 A  
HETATM   25  F   UNL     1      -5.250   8.780  73.051  1.00  0.00    -0.044 F  
HETATM   26  F   UNL     1      -7.350   8.524  73.542  1.00  0.00    -0.170 F  
HETATM   27  F   UNL     1      -6.367   7.116  72.211  1.00  0.00    -0.047 F  
HETATM   28  C   UNL     1      -7.279  11.493  70.437  1.00  0.00     1.584 A  
ENDBRANCH  10  11
ENDBRANCH   9  10
ENDBRANCH   8   9
ENDBRANCH   5   8
TORSDOF 4
ENDMDL
