MODEL        1
REMARK 921   NORMALIZED FREE ENERGY PREDICTED BY IDOCK:   -7.10 KCAL/MOL
REMARK 922        TOTAL FREE ENERGY PREDICTED BY IDOCK:   -8.40 KCAL/MOL
REMARK 923 INTER-LIGAND FREE ENERGY PREDICTED BY IDOCK:   -7.93 KCAL/MOL
REMARK 924 INTRA-LIGAND FREE ENERGY PREDICTED BY IDOCK:   -0.47 KCAL/MOL
REMARK 927      BINDING AFFINITY PREDICTED BY RF-SCORE:    0.00 PKD
ROOT
HETATM    1  O   UNL     1      -9.935  14.515  69.594  1.00  0.00    -0.424 OA 
HETATM    2  C   UNL     1     -11.303  14.798  69.278  1.00  0.00    -0.294 C  
HETATM    3  H   UNL     1      -9.914  13.771  70.186  1.00  0.00     0.000 HD 
HETATM    4  C   UNL     1     -11.338  16.016  68.309  1.00  0.00    -0.326 C  
HETATM    5  C   UNL     1     -11.944  13.543  68.537  1.00  0.00    -0.379 C  
HETATM    6  C   UNL     1     -12.036  15.087  70.603  1.00  0.00    -0.370 A  
HETATM    7  C   UNL     1     -11.305  13.155  67.180  1.00  0.00    -0.354 C  
HETATM    8  C   UNL     1     -11.372  14.970  71.841  1.00  0.00    -0.281 A  
HETATM    9  C   UNL     1     -14.084  15.571  71.843  1.00  0.00    -0.586 A  
HETATM   10  C   UNL     1     -13.403  15.414  70.627  1.00  0.00    -0.286 A  
HETATM   11  C   UNL     1     -12.053  15.130  73.050  1.00  0.00    -0.483 A  
HETATM   12  C   UNL     1      -9.920  12.533  67.299  1.00  0.00    -0.211 C  
HETATM   13  C   UNL     1     -12.023  12.248  69.370  1.00  0.00    -0.318 C  
HETATM   14  C   UNL     1     -13.412  15.420  73.052  1.00  0.00    -0.604 A  
HETATM   15  C   UNL     1      -9.891  11.343  68.253  1.00  0.00    -0.202 C  
HETATM   16  C   UNL     1     -10.693  11.520  69.543  1.00  0.00    -0.054 C  
ENDROOT
BRANCH   4  17
HETATM   17  C   UNL     1     -10.654  17.314  68.773  1.00  0.00    -0.305 C  
BRANCH  17  18
HETATM   18  N   UNL     1      -9.438  17.624  67.980  1.00  0.00    -0.274 NA 
HETATM   19  C   UNL     1      -9.939  20.075  66.386  1.00  0.00    -0.601 C  
HETATM   20  C   UNL     1      -9.696  17.549  66.531  1.00  0.00    -0.295 C  
HETATM   21  C   UNL     1     -10.519  18.721  65.982  1.00  0.00    -0.483 C  
HETATM   22  C   UNL     1      -9.616  20.124  67.876  1.00  0.00    -0.468 C  
HETATM   23  C   UNL     1      -8.785  18.908  68.286  1.00  0.00    -0.333 C  
ENDBRANCH  17  18
ENDBRANCH   4  17
TORSDOF 2
ENDMDL
MODEL        2
REMARK 921   NORMALIZED FREE ENERGY PREDICTED BY IDOCK:   -7.01 KCAL/MOL
REMARK 922        TOTAL FREE ENERGY PREDICTED BY IDOCK:   -8.30 KCAL/MOL
REMARK 923 INTER-LIGAND FREE ENERGY PREDICTED BY IDOCK:   -7.77 KCAL/MOL
REMARK 924 INTRA-LIGAND FREE ENERGY PREDICTED BY IDOCK:   -0.53 KCAL/MOL
REMARK 927      BINDING AFFINITY PREDICTED BY RF-SCORE:    0.00 PKD
ROOT
HETATM    1  O   UNL     1     -12.307  15.965  69.209  1.00  0.00    -0.504 OA 
HETATM    2  C   UNL     1     -11.171  15.115  69.409  1.00  0.00    -0.283 C  
HETATM    3  H   UNL     1     -13.086  15.420  69.185  1.00  0.00     0.000 HD 
HETATM    4  C   UNL     1      -9.896  16.007  69.449  1.00  0.00    -0.254 C  
HETATM    5  C   UNL     1     -11.311  14.369  70.808  1.00  0.00    -0.045 C  
HETATM    6  C   UNL     1     -11.138  14.103  68.247  1.00  0.00    -0.274 A  
HETATM    7  C   UNL     1     -11.342  15.276  72.064  1.00  0.00    -0.431 C  
HETATM    8  C   UNL     1     -12.160  14.077  67.277  1.00  0.00    -0.405 A  
HETATM    9  C   UNL     1     -10.163  12.151  67.149  1.00  0.00    -0.226 A  
HETATM   10  C   UNL     1     -10.126  13.132  68.151  1.00  0.00    -0.237 A  
HETATM   11  C   UNL     1     -12.192  13.100  66.280  1.00  0.00    -0.423 A  
HETATM   12  C   UNL     1     -12.629  16.075  72.223  1.00  0.00    -0.505 C  
HETATM   13  C   UNL     1     -12.511  13.408  70.933  1.00  0.00    -0.439 C  
HETATM   14  C   UNL     1     -11.200  12.129  66.222  1.00  0.00    -0.382 A  
HETATM   15  C   UNL     1     -13.874  15.197  72.179  1.00  0.00    -0.607 C  
HETATM   16  C   UNL     1     -13.860  14.096  71.117  1.00  0.00    -0.148 C  
ENDROOT
BRANCH   4  17
HETATM   17  C   UNL     1      -9.629  16.921  68.241  1.00  0.00    -0.258 C  
BRANCH  17  18
HETATM   18  N   UNL     1      -9.955  18.341  68.525  1.00  0.00    -0.377 NA 
HETATM   19  C   UNL     1      -9.070  20.000  66.231  1.00  0.00    -0.402 C  
HETATM   20  C   UNL     1      -8.742  19.173  68.612  1.00  0.00    -0.359 C  
HETATM   21  C   UNL     1      -8.079  19.454  67.257  1.00  0.00    -0.298 C  
HETATM   22  C   UNL     1     -10.349  19.170  66.191  1.00  0.00    -0.561 C  
HETATM   23  C   UNL     1     -10.908  18.977  67.601  1.00  0.00    -0.352 C  
ENDBRANCH  17  18
ENDBRANCH   4  17
TORSDOF 2
ENDMDL
MODEL        3
REMARK 921   NORMALIZED FREE ENERGY PREDICTED BY IDOCK:   -6.92 KCAL/MOL
REMARK 922        TOTAL FREE ENERGY PREDICTED BY IDOCK:   -8.20 KCAL/MOL
REMARK 923 INTER-LIGAND FREE ENERGY PREDICTED BY IDOCK:   -7.74 KCAL/MOL
REMARK 924 INTRA-LIGAND FREE ENERGY PREDICTED BY IDOCK:   -0.46 KCAL/MOL
REMARK 927      BINDING AFFINITY PREDICTED BY RF-SCORE:    0.00 PKD
ROOT
HETATM    1  O   UNL     1     -11.047  13.749  70.256  1.00  0.00    -0.461 OA 
HETATM    2  C   UNL     1     -11.607  14.845  69.523  1.00  0.00    -0.303 C  
HETATM    3  H   UNL     1     -10.562  14.102  70.994  1.00  0.00     0.000 HD 
HETATM    4  C   UNL     1     -12.402  14.268  68.315  1.00  0.00    -0.024 C  
HETATM    5  C   UNL     1     -12.617  15.644  70.459  1.00  0.00    -0.423 C  
HETATM    6  C   UNL     1     -10.441  15.748  69.076  1.00  0.00    -0.225 A  
HETATM    7  C   UNL     1     -13.846  14.851  70.968  1.00  0.00    -0.332 C  
HETATM    8  C   UNL     1      -9.115  15.471  69.466  1.00  0.00    -0.260 A  
HETATM    9  C   UNL     1      -9.610  17.782  68.006  1.00  0.00    -0.291 A  
HETATM   10  C   UNL     1     -10.665  16.912  68.318  1.00  0.00    -0.377 A  
HETATM   11  C   UNL     1      -8.067  16.338  69.150  1.00  0.00    -0.215 A  
HETATM   12  C   UNL     1     -13.516  13.797  72.017  1.00  0.00    -0.559 C  
HETATM   13  C   UNL     1     -11.987  16.317  71.695  1.00  0.00    -0.436 C  
HETATM   14  C   UNL     1      -8.315  17.499  68.430  1.00  0.00    -0.278 A  
HETATM   15  C   UNL     1     -12.734  14.367  73.195  1.00  0.00    -0.436 C  
HETATM   16  C   UNL     1     -11.630  15.360  72.828  1.00  0.00    -0.464 C  
ENDROOT
BRANCH   4  17
HETATM   17  C   UNL     1     -11.646  13.350  67.340  1.00  0.00    -0.354 C  
BRANCH  17  18
HETATM   18  N   UNL     1     -11.352  14.020  66.049  1.00  0.00    -0.322 NA 
HETATM   19  C   UNL     1     -11.254  11.967  63.910  1.00  0.00    -0.497 C  
HETATM   20  C   UNL     1     -10.066  13.574  65.482  1.00  0.00    -0.268 C  
HETATM   21  C   UNL     1     -10.102  12.156  64.895  1.00  0.00    -0.280 C  
HETATM   22  C   UNL     1     -12.569  12.488  64.479  1.00  0.00    -0.503 C  
HETATM   23  C   UNL     1     -12.396  13.909  65.016  1.00  0.00    -0.430 C  
ENDBRANCH  17  18
ENDBRANCH   4  17
TORSDOF 2
ENDMDL
MODEL        4
REMARK 921   NORMALIZED FREE ENERGY PREDICTED BY IDOCK:   -6.75 KCAL/MOL
REMARK 922        TOTAL FREE ENERGY PREDICTED BY IDOCK:   -8.00 KCAL/MOL
REMARK 923 INTER-LIGAND FREE ENERGY PREDICTED BY IDOCK:   -7.45 KCAL/MOL
REMARK 924 INTRA-LIGAND FREE ENERGY PREDICTED BY IDOCK:   -0.55 KCAL/MOL
REMARK 927      BINDING AFFINITY PREDICTED BY RF-SCORE:    0.00 PKD
ROOT
HETATM    1  O   UNL     1     -12.062  15.832  67.830  1.00  0.00    -0.192 OA 
HETATM    2  C   UNL     1     -10.656  15.647  68.030  1.00  0.00    -0.271 C  
HETATM    3  H   UNL     1     -12.185  16.331  67.031  1.00  0.00     0.000 HD 
HETATM    4  C   UNL     1     -10.452  14.829  69.339  1.00  0.00    -0.210 C  
HETATM    5  C   UNL     1     -10.055  14.813  66.814  1.00  0.00    -0.258 C  
HETATM    6  C   UNL     1     -10.010  17.044  68.110  1.00  0.00    -0.287 A  
HETATM    7  C   UNL     1     -10.611  13.379  66.632  1.00  0.00    -0.282 C  
HETATM    8  C   UNL     1     -10.776  18.211  67.915  1.00  0.00    -0.331 A  
HETATM    9  C   UNL     1      -8.035  18.473  68.283  1.00  0.00    -0.325 A  
HETATM   10  C   UNL     1      -8.628  17.202  68.316  1.00  0.00    -0.241 A  
HETATM   11  C   UNL     1     -10.183  19.475  67.885  1.00  0.00    -0.550 A  
HETATM   12  C   UNL     1     -12.045  13.329  66.118  1.00  0.00    -0.477 C  
HETATM   13  C   UNL     1     -10.140  15.495  65.434  1.00  0.00    -0.387 C  
HETATM   14  C   UNL     1      -8.811  19.606  68.057  1.00  0.00    -0.371 A  
HETATM   15  C   UNL     1     -12.238  14.134  64.839  1.00  0.00    -0.451 C  
HETATM   16  C   UNL     1     -11.530  15.489  64.806  1.00  0.00    -0.314 C  
ENDROOT
BRANCH   4  17
HETATM   17  C   UNL     1     -11.071  15.390  70.632  1.00  0.00    -0.335 C  
BRANCH  17  18
HETATM   18  N   UNL     1     -12.554  15.343  70.613  1.00  0.00    -0.416 NA 
HETATM   19  C   UNL     1     -13.472  13.423  72.680  1.00  0.00    -0.536 C  
HETATM   20  C   UNL     1     -13.054  14.008  70.241  1.00  0.00     0.168 C  
HETATM   21  C   UNL     1     -12.898  12.953  71.345  1.00  0.00    -0.377 C  
HETATM   22  C   UNL     1     -13.001  14.831  73.028  1.00  0.00    -0.609 C  
HETATM   23  C   UNL     1     -13.224  15.779  71.850  1.00  0.00    -0.398 C  
ENDBRANCH  17  18
ENDBRANCH   4  17
TORSDOF 2
ENDMDL
MODEL        5
REMARK 921   NORMALIZED FREE ENERGY PREDICTED BY IDOCK:   -6.74 KCAL/MOL
REMARK 922        TOTAL FREE ENERGY PREDICTED BY IDOCK:   -8.00 KCAL/MOL
REMARK 923 INTER-LIGAND FREE ENERGY PREDICTED BY IDOCK:   -7.51 KCAL/MOL
REMARK 924 INTRA-LIGAND FREE ENERGY PREDICTED BY IDOCK:   -0.49 KCAL/MOL
REMARK 927      BINDING AFFINITY PREDICTED BY RF-SCORE:    0.00 PKD
ROOT
HETATM    1  O   UNL     1     -12.862  15.852  69.349  1.00  0.00    -0.424 OA 
HETATM    2  C   UNL     1     -11.522  15.383  69.547  1.00  0.00    -0.319 C  
HETATM    3  H   UNL     1     -13.440  15.099  69.326  1.00  0.00     0.000 HD 
HETATM    4  C   UNL     1     -10.574  16.617  69.586  1.00  0.00    -0.274 C  
HETATM    5  C   UNL     1     -11.429  14.629  70.946  1.00  0.00    -0.213 C  
HETATM    6  C   UNL     1     -11.188  14.428  68.385  1.00  0.00    -0.294 A  
HETATM    7  C   UNL     1     -11.729  15.486  72.202  1.00  0.00    -0.566 C  
HETATM    8  C   UNL     1     -12.156  14.095  67.416  1.00  0.00    -0.379 A  
HETATM    9  C   UNL     1      -9.672  12.859  67.285  1.00  0.00    -0.220 A  
HETATM   10  C   UNL     1      -9.931  13.806  68.287  1.00  0.00    -0.243 A  
HETATM   11  C   UNL     1     -11.894  13.154  66.419  1.00  0.00    -0.455 A  
HETATM   12  C   UNL     1     -13.197  15.861  72.363  1.00  0.00    -0.480 C  
HETATM   13  C   UNL     1     -12.284  13.353  71.072  1.00  0.00    -0.312 C  
HETATM   14  C   UNL     1     -10.656  12.526  66.359  1.00  0.00    -0.271 A  
HETATM   15  C   UNL     1     -14.121  14.649  72.320  1.00  0.00    -0.588 C  
HETATM   16  C   UNL     1     -13.778  13.603  71.259  1.00  0.00    -0.035 C  
ENDROOT
BRANCH   4  17
HETATM   17  C   UNL     1     -10.596  17.569  68.377  1.00  0.00    -0.339 C  
BRANCH  17  18
HETATM   18  N   UNL     1      -9.345  17.498  67.582  1.00  0.00    -0.242 NA 
HETATM   19  C   UNL     1      -8.163  20.214  67.418  1.00  0.00    -0.385 C  
HETATM   20  C   UNL     1      -9.437  18.293  66.345  1.00  0.00    -0.286 C  
HETATM   21  C   UNL     1      -9.369  19.810  66.572  1.00  0.00    -0.486 C  
HETATM   22  C   UNL     1      -8.038  19.345  68.665  1.00  0.00    -0.402 C  
HETATM   23  C   UNL     1      -8.109  17.863  68.296  1.00  0.00    -0.293 C  
ENDBRANCH  17  18
ENDBRANCH   4  17
TORSDOF 2
ENDMDL
MODEL        6
REMARK 921   NORMALIZED FREE ENERGY PREDICTED BY IDOCK:   -6.56 KCAL/MOL
REMARK 922        TOTAL FREE ENERGY PREDICTED BY IDOCK:   -7.79 KCAL/MOL
REMARK 923 INTER-LIGAND FREE ENERGY PREDICTED BY IDOCK:   -7.11 KCAL/MOL
REMARK 924 INTRA-LIGAND FREE ENERGY PREDICTED BY IDOCK:   -0.68 KCAL/MOL
REMARK 927      BINDING AFFINITY PREDICTED BY RF-SCORE:    0.00 PKD
ROOT
HETATM    1  O   UNL     1      -9.877  13.956  68.904  1.00  0.00    -0.381 OA 
HETATM    2  C   UNL     1     -10.561  14.861  68.029  1.00  0.00    -0.248 C  
HETATM    3  H   UNL     1      -9.242  13.470  68.391  1.00  0.00     0.000 HD 
HETATM    4  C   UNL     1     -11.602  15.659  68.869  1.00  0.00    -0.392 C  
HETATM    5  C   UNL     1      -9.515  15.890  67.411  1.00  0.00    -0.220 C  
HETATM    6  C   UNL     1     -11.227  14.022  66.921  1.00  0.00    -0.323 A  
HETATM    7  C   UNL     1      -8.784  16.807  68.423  1.00  0.00    -0.236 C  
HETATM    8  C   UNL     1     -11.039  12.627  66.853  1.00  0.00    -0.315 A  
HETATM    9  C   UNL     1     -12.504  13.865  64.844  1.00  0.00    -0.420 A  
HETATM   10  C   UNL     1     -11.990  14.625  65.905  1.00  0.00    -0.242 A  
HETATM   11  C   UNL     1     -11.553  11.873  65.797  1.00  0.00    -0.281 A  
HETATM   12  C   UNL     1      -7.754  16.087  69.285  1.00  0.00    -0.223 C  
HETATM   13  C   UNL     1      -8.424  15.270  66.514  1.00  0.00    -0.202 C  
HETATM   14  C   UNL     1     -12.277  12.493  64.785  1.00  0.00    -0.532 A  
HETATM   15  C   UNL     1      -6.740  15.305  68.457  1.00  0.00    -0.112 C  
HETATM   16  C   UNL     1      -7.320  14.536  67.270  1.00  0.00    -0.098 C  
ENDROOT
BRANCH   4  17
HETATM   17  C   UNL     1     -12.643  14.852  69.664  1.00  0.00    -0.059 C  
BRANCH  17  18
HETATM   18  N   UNL     1     -12.080  14.284  70.915  1.00  0.00    -0.337 NA 
HETATM   19  C   UNL     1     -13.290  15.691  73.229  1.00  0.00    -0.618 C  
HETATM   20  C   UNL     1     -11.317  15.289  71.677  1.00  0.00    -0.373 C  
HETATM   21  C   UNL     1     -12.192  16.334  72.383  1.00  0.00    -0.538 C  
HETATM   22  C   UNL     1     -14.033  14.608  72.455  1.00  0.00    -0.578 C  
HETATM   23  C   UNL     1     -13.046  13.632  71.815  1.00  0.00    -0.382 C  
ENDBRANCH  17  18
ENDBRANCH   4  17
TORSDOF 2
ENDMDL
MODEL        7
REMARK 921   NORMALIZED FREE ENERGY PREDICTED BY IDOCK:   -6.54 KCAL/MOL
REMARK 922        TOTAL FREE ENERGY PREDICTED BY IDOCK:   -7.77 KCAL/MOL
REMARK 923 INTER-LIGAND FREE ENERGY PREDICTED BY IDOCK:   -7.35 KCAL/MOL
REMARK 924 INTRA-LIGAND FREE ENERGY PREDICTED BY IDOCK:   -0.42 KCAL/MOL
REMARK 927      BINDING AFFINITY PREDICTED BY RF-SCORE:    0.00 PKD
ROOT
HETATM    1  O   UNL     1      -9.635  15.331  68.799  1.00  0.00    -0.196 OA 
HETATM    2  C   UNL     1     -10.709  15.522  67.869  1.00  0.00    -0.294 C  
HETATM    3  H   UNL     1      -8.862  15.071  68.311  1.00  0.00     0.000 HD 
HETATM    4  C   UNL     1     -11.975  15.948  68.668  1.00  0.00    -0.106 C  
HETATM    5  C   UNL     1     -10.329  16.692  66.859  1.00  0.00    -0.299 C  
HETATM    6  C   UNL     1     -10.914  14.192  67.117  1.00  0.00    -0.304 A  
HETATM    7  C   UNL     1     -10.110  18.091  67.489  1.00  0.00    -0.356 C  
HETATM    8  C   UNL     1     -10.064  13.091  67.343  1.00  0.00    -0.231 A  
HETATM    9  C   UNL     1     -12.023  12.873  65.385  1.00  0.00    -0.470 A  
HETATM   10  C   UNL     1     -11.912  14.052  66.137  1.00  0.00    -0.440 A  
HETATM   11  C   UNL     1     -10.179  11.917  66.595  1.00  0.00    -0.236 A  
HETATM   12  C   UNL     1      -8.828  18.212  68.303  1.00  0.00    -0.293 C  
HETATM   13  C   UNL     1      -9.110  16.422  65.956  1.00  0.00    -0.317 C  
HETATM   14  C   UNL     1     -11.151  11.812  65.608  1.00  0.00    -0.340 A  
HETATM   15  C   UNL     1      -7.591  17.789  67.517  1.00  0.00    -0.214 C  
HETATM   16  C   UNL     1      -7.760  16.535  66.659  1.00  0.00    -0.318 C  
ENDROOT
BRANCH   4  17
HETATM   17  C   UNL     1     -12.452  15.017  69.796  1.00  0.00    -0.181 C  
BRANCH  17  18
HETATM   18  N   UNL     1     -13.195  15.747  70.853  1.00  0.00    -0.513 NA 
HETATM   19  C   UNL     1     -12.751  14.379  73.447  1.00  0.00    -0.289 C  
HETATM   20  C   UNL     1     -14.245  14.910  71.460  1.00  0.00    -0.527 C  
HETATM   21  C   UNL     1     -13.710  13.820  72.398  1.00  0.00    -0.692 C  
HETATM   22  C   UNL     1     -11.705  15.294  72.820  1.00  0.00    -0.502 C  
HETATM   23  C   UNL     1     -12.373  16.337  71.923  1.00  0.00    -0.237 C  
ENDBRANCH  17  18
ENDBRANCH   4  17
TORSDOF 2
ENDMDL
MODEL        8
REMARK 921   NORMALIZED FREE ENERGY PREDICTED BY IDOCK:   -6.47 KCAL/MOL
REMARK 922        TOTAL FREE ENERGY PREDICTED BY IDOCK:   -7.69 KCAL/MOL
REMARK 923 INTER-LIGAND FREE ENERGY PREDICTED BY IDOCK:   -7.25 KCAL/MOL
REMARK 924 INTRA-LIGAND FREE ENERGY PREDICTED BY IDOCK:   -0.44 KCAL/MOL
REMARK 927      BINDING AFFINITY PREDICTED BY RF-SCORE:    0.00 PKD
ROOT
HETATM    1  O   UNL     1      -9.744  12.087  69.009  1.00  0.00    -0.412 OA 
HETATM    2  C   UNL     1     -11.159  11.860  69.000  1.00  0.00    -0.246 C  
HETATM    3  H   UNL     1      -9.309  11.258  68.845  1.00  0.00     0.000 HD 
HETATM    4  C   UNL     1     -11.872  13.218  69.267  1.00  0.00    -0.383 C  
HETATM    5  C   UNL     1     -11.598  11.332  67.564  1.00  0.00    -0.257 C  
HETATM    6  C   UNL     1     -11.469  10.815  70.088  1.00  0.00    -0.415 A  
HETATM    7  C   UNL     1     -11.353  12.298  66.378  1.00  0.00    -0.405 C  
HETATM    8  C   UNL     1     -10.434  10.207  70.828  1.00  0.00     0.022 A  
HETATM    9  C   UNL     1     -13.044   9.358  71.257  1.00  0.00    -0.363 A  
HETATM   10  C   UNL     1     -12.784  10.385  70.337  1.00  0.00    -0.289 A  
HETATM   11  C   UNL     1     -10.697   9.186  71.745  1.00  0.00    -0.405 A  
HETATM   12  C   UNL     1      -9.886  12.464  66.003  1.00  0.00    -0.268 C  
HETATM   13  C   UNL     1     -11.009   9.970  67.147  1.00  0.00    -0.177 C  
HETATM   14  C   UNL     1     -12.001   8.753  71.951  1.00  0.00    -0.435 A  
HETATM   15  C   UNL     1      -9.192  11.131  65.747  1.00  0.00    -0.234 C  
HETATM   16  C   UNL     1      -9.542  10.012  66.728  1.00  0.00    -0.228 C  
ENDROOT
BRANCH   4  17
HETATM   17  C   UNL     1     -11.497  13.977  70.551  1.00  0.00     0.004 C  
BRANCH  17  18
HETATM   18  N   UNL     1     -12.172  15.296  70.643  1.00  0.00    -0.334 NA 
HETATM   19  C   UNL     1     -13.462  15.524  73.304  1.00  0.00    -0.512 C  
HETATM   20  C   UNL     1     -13.631  15.155  70.794  1.00  0.00    -0.245 C  
HETATM   21  C   UNL     1     -14.070  14.680  72.186  1.00  0.00    -0.604 C  
HETATM   22  C   UNL     1     -11.963  15.719  73.106  1.00  0.00    -0.574 C  
HETATM   23  C   UNL     1     -11.666  16.203  71.687  1.00  0.00    -0.484 C  
ENDBRANCH  17  18
ENDBRANCH   4  17
TORSDOF 2
ENDMDL
MODEL        9
REMARK 921   NORMALIZED FREE ENERGY PREDICTED BY IDOCK:   -6.46 KCAL/MOL
REMARK 922        TOTAL FREE ENERGY PREDICTED BY IDOCK:   -7.69 KCAL/MOL
REMARK 923 INTER-LIGAND FREE ENERGY PREDICTED BY IDOCK:   -7.24 KCAL/MOL
REMARK 924 INTRA-LIGAND FREE ENERGY PREDICTED BY IDOCK:   -0.45 KCAL/MOL
REMARK 927      BINDING AFFINITY PREDICTED BY RF-SCORE:    0.00 PKD
ROOT
HETATM    1  O   UNL     1     -10.007  13.652  67.472  1.00  0.00    -0.225 OA 
HETATM    2  C   UNL     1     -11.169  12.921  67.882  1.00  0.00    -0.269 C  
HETATM    3  H   UNL     1      -9.461  13.075  66.950  1.00  0.00     0.000 HD 
HETATM    4  C   UNL     1     -12.064  13.865  68.736  1.00  0.00    -0.344 C  
HETATM    5  C   UNL     1     -11.991  12.472  66.594  1.00  0.00    -0.351 C  
HETATM    6  C   UNL     1     -10.687  11.694  68.680  1.00  0.00    -0.246 A  
HETATM    7  C   UNL     1     -12.546  13.616  65.708  1.00  0.00    -0.511 C  
HETATM    8  C   UNL     1      -9.313  11.416  68.829  1.00  0.00    -0.115 A  
HETATM    9  C   UNL     1     -11.149   9.609  69.868  1.00  0.00    -0.268 A  
HETATM   10  C   UNL     1     -11.598  10.777  69.234  1.00  0.00    -0.376 A  
HETATM   11  C   UNL     1      -8.870  10.254  69.463  1.00  0.00    -0.166 A  
HETATM   12  C   UNL     1     -11.480  14.365  64.918  1.00  0.00    -0.386 C  
HETATM   13  C   UNL     1     -11.263  11.498  65.646  1.00  0.00    -0.212 C  
HETATM   14  C   UNL     1      -9.787   9.345  69.974  1.00  0.00    -0.253 A  
HETATM   15  C   UNL     1     -10.604  13.434  64.087  1.00  0.00    -0.257 C  
HETATM   16  C   UNL     1     -10.180  12.140  64.783  1.00  0.00    -0.310 C  
ENDROOT
BRANCH   4  17
HETATM   17  C   UNL     1     -11.427  14.523  69.972  1.00  0.00    -0.258 C  
BRANCH  17  18
HETATM   18  N   UNL     1     -12.256  15.628  70.513  1.00  0.00    -0.395 NA 
HETATM   19  C   UNL     1     -13.107  14.923  73.266  1.00  0.00    -0.585 C  
HETATM   20  C   UNL     1     -13.635  15.190  70.794  1.00  0.00    -0.245 C  
HETATM   21  C   UNL     1     -13.766  14.300  72.037  1.00  0.00    -0.542 C  
HETATM   22  C   UNL     1     -11.704  15.431  72.952  1.00  0.00    -0.508 C  
HETATM   23  C   UNL     1     -11.718  16.311  71.702  1.00  0.00    -0.420 C  
ENDBRANCH  17  18
ENDBRANCH   4  17
TORSDOF 2
ENDMDL
MODEL       10
REMARK 921   NORMALIZED FREE ENERGY PREDICTED BY IDOCK:   -6.44 KCAL/MOL
REMARK 922        TOTAL FREE ENERGY PREDICTED BY IDOCK:   -7.66 KCAL/MOL
REMARK 923 INTER-LIGAND FREE ENERGY PREDICTED BY IDOCK:   -7.17 KCAL/MOL
REMARK 924 INTRA-LIGAND FREE ENERGY PREDICTED BY IDOCK:   -0.49 KCAL/MOL
REMARK 927      BINDING AFFINITY PREDICTED BY RF-SCORE:    0.00 PKD
ROOT
HETATM    1  O   UNL     1      -9.703  13.300  67.658  1.00  0.00    -0.209 OA 
HETATM    2  C   UNL     1     -11.045  13.493  67.196  1.00  0.00    -0.293 C  
HETATM    3  H   UNL     1      -9.111  13.678  67.019  1.00  0.00     0.000 HD 
HETATM    4  C   UNL     1     -12.016  12.874  68.244  1.00  0.00    -0.297 C  
HETATM    5  C   UNL     1     -11.346  15.053  67.087  1.00  0.00    -0.323 C  
HETATM    6  C   UNL     1     -11.164  12.813  65.818  1.00  0.00    -0.341 A  
HETATM    7  C   UNL     1     -11.274  15.854  68.411  1.00  0.00    -0.368 C  
HETATM    8  C   UNL     1     -10.044  12.219  65.201  1.00  0.00    -0.284 A  
HETATM    9  C   UNL     1     -12.444  12.287  63.805  1.00  0.00    -0.619 A  
HETATM   10  C   UNL     1     -12.374  12.816  65.102  1.00  0.00    -0.555 A  
HETATM   11  C   UNL     1     -10.119  11.691  63.911  1.00  0.00    -0.395 A  
HETATM   12  C   UNL     1      -9.861  16.039  68.949  1.00  0.00    -0.232 C  
HETATM   13  C   UNL     1     -10.493  15.824  66.060  1.00  0.00    -0.350 C  
HETATM   14  C   UNL     1     -11.316  11.734  63.207  1.00  0.00    -0.347 A  
HETATM   15  C   UNL     1      -8.914  16.643  67.917  1.00  0.00    -0.217 C  
HETATM   16  C   UNL     1      -9.056  16.090  66.499  1.00  0.00    -0.319 C  
ENDROOT
BRANCH   4  17
HETATM   17  C   UNL     1     -11.821  11.391  68.605  1.00  0.00    -0.310 C  
BRANCH  17  18
HETATM   18  N   UNL     1     -11.194  11.213  69.938  1.00  0.00    -0.248 NA 
HETATM   19  C   UNL     1     -12.395   8.838  71.247  1.00  0.00    -0.313 C  
HETATM   20  C   UNL     1     -12.176  11.361  71.028  1.00  0.00    -0.285 C  
HETATM   21  C   UNL     1     -13.135  10.172  71.168  1.00  0.00    -0.480 C  
HETATM   22  C   UNL     1     -11.338   8.718  70.155  1.00  0.00    -0.099 C  
HETATM   23  C   UNL     1     -10.446   9.960  70.133  1.00  0.00    -0.285 C  
ENDBRANCH  17  18
ENDBRANCH   4  17
TORSDOF 2
ENDMDL
MODEL       11
REMARK 921   NORMALIZED FREE ENERGY PREDICTED BY IDOCK:   -6.38 KCAL/MOL
REMARK 922        TOTAL FREE ENERGY PREDICTED BY IDOCK:   -7.60 KCAL/MOL
REMARK 923 INTER-LIGAND FREE ENERGY PREDICTED BY IDOCK:   -7.00 KCAL/MOL
REMARK 924 INTRA-LIGAND FREE ENERGY PREDICTED BY IDOCK:   -0.60 KCAL/MOL
REMARK 927      BINDING AFFINITY PREDICTED BY RF-SCORE:    0.00 PKD
ROOT
HETATM    1  O   UNL     1      -9.743  13.100  68.143  1.00  0.00    -0.218 OA 
HETATM    2  C   UNL     1     -11.093  13.289  67.702  1.00  0.00    -0.269 C  
HETATM    3  H   UNL     1      -9.170  13.595  67.568  1.00  0.00     0.000 HD 
HETATM    4  C   UNL     1     -12.032  12.481  68.644  1.00  0.00    -0.268 C  
HETATM    5  C   UNL     1     -11.472  14.832  67.812  1.00  0.00    -0.363 C  
HETATM    6  C   UNL     1     -11.176  12.806  66.241  1.00  0.00    -0.339 A  
HETATM    7  C   UNL     1     -11.442  15.441  69.236  1.00  0.00    -0.344 C  
HETATM    8  C   UNL     1     -10.027  12.362  65.555  1.00  0.00    -0.260 A  
HETATM    9  C   UNL     1     -12.426  12.507  64.163  1.00  0.00    -0.518 A  
HETATM   10  C   UNL     1     -12.384  12.850  65.523  1.00  0.00    -0.517 A  
HETATM   11  C   UNL     1     -10.073  12.018  64.203  1.00  0.00    -0.340 A  
HETATM   12  C   UNL     1     -10.040  15.618  69.807  1.00  0.00    -0.291 C  
HETATM   13  C   UNL     1     -10.658  15.782  66.911  1.00  0.00    -0.317 C  
HETATM   14  C   UNL     1     -11.271  12.101  63.503  1.00  0.00    -0.536 A  
HETATM   15  C   UNL     1      -9.125  16.408  68.878  1.00  0.00    -0.256 C  
HETATM   16  C   UNL     1      -9.237  16.055  67.394  1.00  0.00    -0.214 C  
ENDROOT
BRANCH   4  17
HETATM   17  C   UNL     1     -11.763  10.973  68.794  1.00  0.00    -0.314 C  
BRANCH  17  18
HETATM   18  N   UNL     1     -10.925  10.665  69.979  1.00  0.00    -0.281 NA 
HETATM   19  C   UNL     1     -11.386   7.843  70.766  1.00  0.00    -0.283 C  
HETATM   20  C   UNL     1     -11.745  10.330  71.156  1.00  0.00    -0.341 C  
HETATM   21  C   UNL     1     -12.398   8.942  71.087  1.00  0.00    -0.282 C  
HETATM   22  C   UNL     1     -10.499   8.225  69.587  1.00  0.00    -0.221 C  
HETATM   23  C   UNL     1      -9.906   9.619  69.790  1.00  0.00    -0.229 C  
ENDBRANCH  17  18
ENDBRANCH   4  17
TORSDOF 2
ENDMDL
MODEL       12
REMARK 921   NORMALIZED FREE ENERGY PREDICTED BY IDOCK:   -6.37 KCAL/MOL
REMARK 922        TOTAL FREE ENERGY PREDICTED BY IDOCK:   -7.58 KCAL/MOL
REMARK 923 INTER-LIGAND FREE ENERGY PREDICTED BY IDOCK:   -7.03 KCAL/MOL
REMARK 924 INTRA-LIGAND FREE ENERGY PREDICTED BY IDOCK:   -0.55 KCAL/MOL
REMARK 927      BINDING AFFINITY PREDICTED BY RF-SCORE:    0.00 PKD
ROOT
HETATM    1  O   UNL     1     -11.836  12.333  66.867  1.00  0.00    -0.524 OA 
HETATM    2  C   UNL     1     -10.511  12.877  66.896  1.00  0.00    -0.246 C  
HETATM    3  H   UNL     1     -12.423  12.998  66.527  1.00  0.00     0.000 HD 
HETATM    4  C   UNL     1      -9.548  11.787  67.452  1.00  0.00    -0.173 C  
HETATM    5  C   UNL     1     -10.059  13.244  65.415  1.00  0.00    -0.267 C  
HETATM    6  C   UNL     1     -10.545  14.134  67.787  1.00  0.00    -0.243 A  
HETATM    7  C   UNL     1      -9.969  12.061  64.418  1.00  0.00    -0.254 C  
HETATM    8  C   UNL     1     -11.755  14.601  68.341  1.00  0.00    -0.352 A  
HETATM    9  C   UNL     1      -9.448  16.092  68.752  1.00  0.00    -0.230 A  
HETATM   10  C   UNL     1      -9.386  14.893  68.027  1.00  0.00    -0.193 A  
HETATM   11  C   UNL     1     -11.812  15.793  69.065  1.00  0.00    -0.367 A  
HETATM   12  C   UNL     1     -11.321  11.498  63.997  1.00  0.00    -0.380 C  
HETATM   13  C   UNL     1     -10.888  14.342  64.719  1.00  0.00    -0.420 C  
HETATM   14  C   UNL     1     -10.661  16.546  69.261  1.00  0.00    -0.331 A  
HETATM   15  C   UNL     1     -12.261  12.571  63.458  1.00  0.00    -0.652 C  
HETATM   16  C   UNL     1     -12.262  13.889  64.232  1.00  0.00    -0.447 C  
ENDROOT
BRANCH   4  17
HETATM   17  C   UNL     1      -9.872  11.189  68.832  1.00  0.00    -0.162 C  
BRANCH  17  18
HETATM   18  N   UNL     1     -11.026  10.257  68.785  1.00  0.00    -0.236 NA 
HETATM   19  C   UNL     1     -11.652   9.376  71.547  1.00  0.00    -0.467 C  
HETATM   20  C   UNL     1     -10.660   8.909  69.254  1.00  0.00    -0.207 C  
HETATM   21  C   UNL     1     -10.465   8.808  70.773  1.00  0.00    -0.270 C  
HETATM   22  C   UNL     1     -12.066  10.744  71.015  1.00  0.00    -0.452 C  
HETATM   23  C   UNL     1     -12.237  10.700  69.497  1.00  0.00    -0.159 C  
ENDBRANCH  17  18
ENDBRANCH   4  17
TORSDOF 2
ENDMDL
MODEL       13
REMARK 921   NORMALIZED FREE ENERGY PREDICTED BY IDOCK:   -6.33 KCAL/MOL
REMARK 922        TOTAL FREE ENERGY PREDICTED BY IDOCK:   -7.54 KCAL/MOL
REMARK 923 INTER-LIGAND FREE ENERGY PREDICTED BY IDOCK:   -7.03 KCAL/MOL
REMARK 924 INTRA-LIGAND FREE ENERGY PREDICTED BY IDOCK:   -0.51 KCAL/MOL
REMARK 927      BINDING AFFINITY PREDICTED BY RF-SCORE:    0.00 PKD
ROOT
HETATM    1  O   UNL     1     -12.336  11.143  68.217  1.00  0.00    -0.677 OA 
HETATM    2  C   UNL     1     -11.243  12.050  68.409  1.00  0.00    -0.262 C  
HETATM    3  H   UNL     1     -12.285  10.799  67.333  1.00  0.00     0.000 HD 
HETATM    4  C   UNL     1     -11.326  12.614  69.858  1.00  0.00    -0.038 C  
HETATM    5  C   UNL     1      -9.869  11.261  68.251  1.00  0.00    -0.201 C  
HETATM    6  C   UNL     1     -11.367  13.157  67.344  1.00  0.00    -0.344 A  
HETATM    7  C   UNL     1      -9.614  10.126  69.274  1.00  0.00    -0.239 C  
HETATM    8  C   UNL     1     -12.376  13.112  66.362  1.00  0.00    -0.300 A  
HETATM    9  C   UNL     1     -10.501  15.158  66.241  1.00  0.00    -0.312 A  
HETATM   10  C   UNL     1     -10.442  14.214  67.277  1.00  0.00    -0.272 A  
HETATM   11  C   UNL     1     -12.434  14.055  65.334  1.00  0.00    -0.520 A  
HETATM   12  C   UNL     1     -10.487   8.894  69.067  1.00  0.00    -0.231 C  
HETATM   13  C   UNL     1      -9.604  10.661  66.856  1.00  0.00    -0.200 C  
HETATM   14  C   UNL     1     -11.491  15.072  65.266  1.00  0.00    -0.308 A  
HETATM   15  C   UNL     1     -10.405   8.349  67.646  1.00  0.00    -0.317 C  
HETATM   16  C   UNL     1     -10.410   9.404  66.539  1.00  0.00    -0.268 C  
ENDROOT
BRANCH   4  17
HETATM   17  C   UNL     1     -12.632  13.311  70.276  1.00  0.00    -0.090 C  
BRANCH  17  18
HETATM   18  N   UNL     1     -12.498  14.789  70.301  1.00  0.00    -0.344 NA 
HETATM   19  C   UNL     1     -13.052  15.749  73.053  1.00  0.00    -0.645 C  
HETATM   20  C   UNL     1     -13.774  15.447  70.634  1.00  0.00     0.034 C  
HETATM   21  C   UNL     1     -14.175  15.321  72.110  1.00  0.00    -0.667 C  
HETATM   22  C   UNL     1     -11.722  15.113  72.664  1.00  0.00    -0.465 C  
HETATM   23  C   UNL     1     -11.441  15.322  71.176  1.00  0.00    -0.369 C  
ENDBRANCH  17  18
ENDBRANCH   4  17
TORSDOF 2
ENDMDL
MODEL       14
REMARK 921   NORMALIZED FREE ENERGY PREDICTED BY IDOCK:   -6.32 KCAL/MOL
REMARK 922        TOTAL FREE ENERGY PREDICTED BY IDOCK:   -7.52 KCAL/MOL
REMARK 923 INTER-LIGAND FREE ENERGY PREDICTED BY IDOCK:   -7.09 KCAL/MOL
REMARK 924 INTRA-LIGAND FREE ENERGY PREDICTED BY IDOCK:   -0.44 KCAL/MOL
REMARK 927      BINDING AFFINITY PREDICTED BY RF-SCORE:    0.00 PKD
ROOT
HETATM    1  O   UNL     1     -12.255  12.443  66.821  1.00  0.00    -0.551 OA 
HETATM    2  C   UNL     1     -10.863  12.697  67.044  1.00  0.00    -0.253 C  
HETATM    3  H   UNL     1     -12.653  13.239  66.488  1.00  0.00     0.000 HD 
HETATM    4  C   UNL     1     -10.210  11.392  67.588  1.00  0.00    -0.204 C  
HETATM    5  C   UNL     1     -10.167  13.072  65.661  1.00  0.00    -0.296 C  
HETATM    6  C   UNL     1     -10.758  13.863  68.046  1.00  0.00    -0.255 A  
HETATM    7  C   UNL     1     -10.190  11.975  64.568  1.00  0.00    -0.318 C  
HETATM    8  C   UNL     1     -11.911  14.527  68.512  1.00  0.00    -0.355 A  
HETATM    9  C   UNL     1      -9.424  15.472  69.310  1.00  0.00    -0.263 A  
HETATM   10  C   UNL     1      -9.511  14.345  68.480  1.00  0.00    -0.212 A  
HETATM   11  C   UNL     1     -11.821  15.648  69.340  1.00  0.00    -0.391 A  
HETATM   12  C   UNL     1     -11.564  11.738  63.953  1.00  0.00    -0.469 C  
HETATM   13  C   UNL     1     -10.671  14.367  64.994  1.00  0.00    -0.440 C  
HETATM   14  C   UNL     1     -10.577  16.128  69.730  1.00  0.00    -0.312 A  
HETATM   15  C   UNL     1     -12.200  13.020  63.426  1.00  0.00    -0.552 C  
HETATM   16  C   UNL     1     -12.036  14.248  64.323  1.00  0.00    -0.467 C  
ENDROOT
BRANCH   4  17
HETATM   17  C   UNL     1     -10.814  10.772  68.859  1.00  0.00    -0.227 C  
BRANCH  17  18
HETATM   18  N   UNL     1     -10.516   9.322  68.975  1.00  0.00    -0.215 NA 
HETATM   19  C   UNL     1      -9.111   8.840  71.543  1.00  0.00    -0.322 C  
HETATM   20  C   UNL     1      -9.066   9.063  69.010  1.00  0.00    -0.143 C  
HETATM   21  C   UNL     1      -8.396   9.446  70.337  1.00  0.00    -0.234 C  
HETATM   22  C   UNL     1     -10.618   9.057  71.467  1.00  0.00    -0.415 C  
HETATM   23  C   UNL     1     -11.156   8.625  70.103  1.00  0.00    -0.192 C  
ENDBRANCH  17  18
ENDBRANCH   4  17
TORSDOF 2
ENDMDL
MODEL       15
REMARK 921   NORMALIZED FREE ENERGY PREDICTED BY IDOCK:   -6.24 KCAL/MOL
REMARK 922        TOTAL FREE ENERGY PREDICTED BY IDOCK:   -7.43 KCAL/MOL
REMARK 923 INTER-LIGAND FREE ENERGY PREDICTED BY IDOCK:   -7.01 KCAL/MOL
REMARK 924 INTRA-LIGAND FREE ENERGY PREDICTED BY IDOCK:   -0.43 KCAL/MOL
REMARK 927      BINDING AFFINITY PREDICTED BY RF-SCORE:    0.00 PKD
ROOT
HETATM    1  O   UNL     1     -12.408  12.462  66.717  1.00  0.00    -0.457 OA 
HETATM    2  C   UNL     1     -11.009  12.638  66.970  1.00  0.00    -0.265 C  
HETATM    3  H   UNL     1     -12.757  13.283  66.389  1.00  0.00     0.000 HD 
HETATM    4  C   UNL     1     -10.437  11.294  67.506  1.00  0.00    -0.234 C  
HETATM    5  C   UNL     1     -10.268  12.995  65.606  1.00  0.00    -0.296 C  
HETATM    6  C   UNL     1     -10.861  13.784  67.990  1.00  0.00    -0.263 A  
HETATM    7  C   UNL     1     -10.328  11.916  64.496  1.00  0.00    -0.334 C  
HETATM    8  C   UNL     1     -11.986  14.502  68.445  1.00  0.00    -0.309 A  
HETATM    9  C   UNL     1      -9.468  15.302  69.302  1.00  0.00    -0.242 A  
HETATM   10  C   UNL     1      -9.599  14.192  68.455  1.00  0.00    -0.225 A  
HETATM   11  C   UNL     1     -11.852  15.605  69.290  1.00  0.00    -0.378 A  
HETATM   12  C   UNL     1     -11.701  11.761  63.853  1.00  0.00    -0.461 C  
HETATM   13  C   UNL     1     -10.689  14.324  64.948  1.00  0.00    -0.448 C  
HETATM   14  C   UNL     1     -10.593  16.013  69.711  1.00  0.00    -0.323 A  
HETATM   15  C   UNL     1     -12.257  13.082  63.333  1.00  0.00    -0.552 C  
HETATM   16  C   UNL     1     -12.046  14.287  64.250  1.00  0.00    -0.467 C  
ENDROOT
BRANCH   4  17
HETATM   17  C   UNL     1     -11.097  10.689  68.758  1.00  0.00    -0.265 C  
BRANCH  17  18
HETATM   18  N   UNL     1     -10.114  10.017  69.644  1.00  0.00    -0.223 NA 
HETATM   19  C   UNL     1     -11.075   7.271  70.222  1.00  0.00    -0.289 C  
HETATM   20  C   UNL     1     -10.701   9.677  70.952  1.00  0.00    -0.332 C  
HETATM   21  C   UNL     1     -11.678   8.494  70.910  1.00  0.00    -0.274 C  
HETATM   22  C   UNL     1     -10.414   7.641  68.899  1.00  0.00    -0.211 C  
HETATM   23  C   UNL     1      -9.461   8.821  69.086  1.00  0.00    -0.157 C  
ENDBRANCH  17  18
ENDBRANCH   4  17
TORSDOF 2
ENDMDL
MODEL       16
REMARK 921   NORMALIZED FREE ENERGY PREDICTED BY IDOCK:   -6.11 KCAL/MOL
REMARK 922        TOTAL FREE ENERGY PREDICTED BY IDOCK:   -7.29 KCAL/MOL
REMARK 923 INTER-LIGAND FREE ENERGY PREDICTED BY IDOCK:   -6.69 KCAL/MOL
REMARK 924 INTRA-LIGAND FREE ENERGY PREDICTED BY IDOCK:   -0.60 KCAL/MOL
REMARK 927      BINDING AFFINITY PREDICTED BY RF-SCORE:    0.00 PKD
ROOT
HETATM    1  O   UNL     1     -10.247  16.782  67.895  1.00  0.00    -0.277 OA 
HETATM    2  C   UNL     1      -9.091  16.836  67.051  1.00  0.00    -0.224 C  
HETATM    3  H   UNL     1     -10.014  17.145  68.741  1.00  0.00     0.000 HD 
HETATM    4  C   UNL     1      -9.471  16.241  65.663  1.00  0.00    -0.097 C  
HETATM    5  C   UNL     1      -8.655  18.354  66.849  1.00  0.00    -0.276 C  
HETATM    6  C   UNL     1      -7.973  16.032  67.743  1.00  0.00    -0.152 A  
HETATM    7  C   UNL     1      -9.689  19.271  66.148  1.00  0.00    -0.388 C  
HETATM    8  C   UNL     1      -8.166  15.469  69.021  1.00  0.00    -0.227 A  
HETATM    9  C   UNL     1      -5.663  15.240  67.838  1.00  0.00    -0.154 A  
HETATM   10  C   UNL     1      -6.704  15.884  67.154  1.00  0.00    -0.168 A  
HETATM   11  C   UNL     1      -7.128  14.826  69.698  1.00  0.00    -0.158 A  
HETATM   12  C   UNL     1     -10.905  19.605  67.003  1.00  0.00    -0.518 C  
HETATM   13  C   UNL     1      -8.208  19.093  68.125  1.00  0.00    -0.353 C  
HETATM   14  C   UNL     1      -5.873  14.721  69.112  1.00  0.00    -0.099 A  
HETATM   15  C   UNL     1     -10.525  20.183  68.361  1.00  0.00    -0.310 C  
HETATM   16  C   UNL     1      -9.347  19.500  69.057  1.00  0.00    -0.337 C  
ENDROOT
BRANCH   4  17
HETATM   17  C   UNL     1     -10.044  14.814  65.634  1.00  0.00    -0.366 C  
BRANCH  17  18
HETATM   18  N   UNL     1     -11.528  14.802  65.634  1.00  0.00    -0.346 NA 
HETATM   19  C   UNL     1     -12.461  12.227  64.493  1.00  0.00    -0.464 C  
HETATM   20  C   UNL     1     -12.074  14.730  64.267  1.00  0.00    -0.394 C  
HETATM   21  C   UNL     1     -11.927  13.352  63.608  1.00  0.00    -0.504 C  
HETATM   22  C   UNL     1     -11.941  12.345  65.922  1.00  0.00    -0.434 C  
HETATM   23  C   UNL     1     -12.161  13.759  66.459  1.00  0.00    -0.443 C  
ENDBRANCH  17  18
ENDBRANCH   4  17
TORSDOF 2
ENDMDL
MODEL       17
REMARK 921   NORMALIZED FREE ENERGY PREDICTED BY IDOCK:   -6.07 KCAL/MOL
REMARK 922        TOTAL FREE ENERGY PREDICTED BY IDOCK:   -7.25 KCAL/MOL
REMARK 923 INTER-LIGAND FREE ENERGY PREDICTED BY IDOCK:   -6.53 KCAL/MOL
REMARK 924 INTRA-LIGAND FREE ENERGY PREDICTED BY IDOCK:   -0.72 KCAL/MOL
REMARK 927      BINDING AFFINITY PREDICTED BY RF-SCORE:    0.00 PKD
ROOT
HETATM    1  O   UNL     1      -9.562  14.114  65.501  1.00  0.00    -0.527 OA 
HETATM    2  C   UNL     1     -10.251  13.628  66.659  1.00  0.00    -0.276 C  
HETATM    3  H   UNL     1      -9.374  13.374  64.934  1.00  0.00     0.000 HD 
HETATM    4  C   UNL     1     -10.560  14.839  67.587  1.00  0.00    -0.262 C  
HETATM    5  C   UNL     1     -11.629  12.966  66.214  1.00  0.00    -0.424 C  
HETATM    6  C   UNL     1      -9.338  12.590  67.340  1.00  0.00    -0.187 A  
HETATM    7  C   UNL     1     -12.647  13.910  65.526  1.00  0.00    -0.560 C  
HETATM    8  C   UNL     1      -8.106  12.217  66.766  1.00  0.00    -0.055 A  
HETATM    9  C   UNL     1      -8.939  10.916  69.075  1.00  0.00    -0.104 A  
HETATM   10  C   UNL     1      -9.729  11.934  68.521  1.00  0.00    -0.173 A  
HETATM   11  C   UNL     1      -7.320  11.205  67.322  1.00  0.00    -0.118 A  
HETATM   12  C   UNL     1     -12.252  14.330  64.116  1.00  0.00    -0.410 C  
HETATM   13  C   UNL     1     -11.508  11.721  65.313  1.00  0.00    -0.250 C  
HETATM   14  C   UNL     1      -7.741  10.546  68.470  1.00  0.00    -0.104 A  
HETATM   15  C   UNL     1     -11.946  13.140  63.214  1.00  0.00    -0.445 C  
HETATM   16  C   UNL     1     -11.135  12.018  63.863  1.00  0.00    -0.474 C  
ENDROOT
BRANCH   4  17
HETATM   17  C   UNL     1      -9.375  15.709  68.040  1.00  0.00    -0.193 C  
BRANCH  17  18
HETATM   18  N   UNL     1      -8.967  16.689  67.003  1.00  0.00    -0.202 NA 
HETATM   19  C   UNL     1      -9.518  19.425  68.009  1.00  0.00    -0.413 C  
HETATM   20  C   UNL     1     -10.115  17.465  66.503  1.00  0.00    -0.320 C  
HETATM   21  C   UNL     1     -10.633  18.519  67.490  1.00  0.00    -0.461 C  
HETATM   22  C   UNL     1      -8.308  18.617  68.466  1.00  0.00    -0.369 C  
HETATM   23  C   UNL     1      -7.890  17.617  67.388  1.00  0.00    -0.205 C  
ENDBRANCH  17  18
ENDBRANCH   4  17
TORSDOF 2
ENDMDL
MODEL       18
REMARK 921   NORMALIZED FREE ENERGY PREDICTED BY IDOCK:   -6.07 KCAL/MOL
REMARK 922        TOTAL FREE ENERGY PREDICTED BY IDOCK:   -7.25 KCAL/MOL
REMARK 923 INTER-LIGAND FREE ENERGY PREDICTED BY IDOCK:   -6.52 KCAL/MOL
REMARK 924 INTRA-LIGAND FREE ENERGY PREDICTED BY IDOCK:   -0.72 KCAL/MOL
REMARK 927      BINDING AFFINITY PREDICTED BY RF-SCORE:    0.00 PKD
ROOT
HETATM    1  O   UNL     1      -9.681  12.525  67.985  1.00  0.00    -0.202 OA 
HETATM    2  C   UNL     1     -10.496  11.961  66.951  1.00  0.00    -0.222 C  
HETATM    3  H   UNL     1      -9.003  13.050  67.576  1.00  0.00     0.000 HD 
HETATM    4  C   UNL     1     -11.607  11.100  67.620  1.00  0.00    -0.266 C  
HETATM    5  C   UNL     1     -11.190  13.133  66.128  1.00  0.00    -0.320 C  
HETATM    6  C   UNL     1      -9.577  11.121  66.041  1.00  0.00    -0.248 A  
HETATM    7  C   UNL     1     -12.154  14.046  66.926  1.00  0.00    -0.465 C  
HETATM    8  C   UNL     1      -8.184  11.077  66.257  1.00  0.00    -0.164 A  
HETATM    9  C   UNL     1      -9.226   9.749  64.051  1.00  0.00    -0.267 A  
HETATM   10  C   UNL     1     -10.085  10.423  64.931  1.00  0.00    -0.382 A  
HETATM   11  C   UNL     1      -7.333  10.402  65.380  1.00  0.00    -0.124 A  
HETATM   12  C   UNL     1     -11.458  14.981  67.907  1.00  0.00    -0.354 C  
HETATM   13  C   UNL     1     -10.231  14.069  65.366  1.00  0.00    -0.368 C  
HETATM   14  C   UNL     1      -7.852   9.747  64.270  1.00  0.00    -0.134 A  
HETATM   15  C   UNL     1     -10.368  15.818  67.246  1.00  0.00    -0.290 C  
HETATM   16  C   UNL     1      -9.486  15.070  66.245  1.00  0.00    -0.342 C  
ENDROOT
BRANCH   4  17
HETATM   17  C   UNL     1     -11.161   9.977  68.572  1.00  0.00    -0.167 C  
BRANCH  17  18
HETATM   18  N   UNL     1     -10.848  10.482  69.932  1.00  0.00    -0.281 NA 
HETATM   19  C   UNL     1     -12.679   9.188  71.874  1.00  0.00    -0.464 C  
HETATM   20  C   UNL     1     -11.981  11.221  70.515  1.00  0.00    -0.371 C  
HETATM   21  C   UNL     1     -13.143  10.325  70.966  1.00  0.00    -0.458 C  
HETATM   22  C   UNL     1     -11.466   8.468  71.294  1.00  0.00    -0.329 C  
HETATM   23  C   UNL     1     -10.383   9.473  70.899  1.00  0.00    -0.302 C  
ENDBRANCH  17  18
ENDBRANCH   4  17
TORSDOF 2
ENDMDL
MODEL       19
REMARK 921   NORMALIZED FREE ENERGY PREDICTED BY IDOCK:   -6.06 KCAL/MOL
REMARK 922        TOTAL FREE ENERGY PREDICTED BY IDOCK:   -7.23 KCAL/MOL
REMARK 923 INTER-LIGAND FREE ENERGY PREDICTED BY IDOCK:   -6.51 KCAL/MOL
REMARK 924 INTRA-LIGAND FREE ENERGY PREDICTED BY IDOCK:   -0.72 KCAL/MOL
REMARK 927      BINDING AFFINITY PREDICTED BY RF-SCORE:    0.00 PKD
ROOT
HETATM    1  O   UNL     1      -8.506  16.977  65.951  1.00  0.00    -0.519 OA 
HETATM    2  C   UNL     1      -9.221  16.492  67.093  1.00  0.00    -0.214 C  
HETATM    3  H   UNL     1      -9.121  17.426  65.383  1.00  0.00     0.000 HD 
HETATM    4  C   UNL     1      -8.213  15.757  68.025  1.00  0.00    -0.143 C  
HETATM    5  C   UNL     1      -9.841  17.723  67.890  1.00  0.00    -0.306 C  
HETATM    6  C   UNL     1     -10.332  15.554  66.581  1.00  0.00    -0.287 A  
HETATM    7  C   UNL     1      -8.826  18.738  68.472  1.00  0.00    -0.378 C  
HETATM    8  C   UNL     1     -10.547  15.367  65.201  1.00  0.00    -0.458 A  
HETATM    9  C   UNL     1     -12.279  14.136  66.989  1.00  0.00    -0.374 A  
HETATM   10  C   UNL     1     -11.208  14.903  67.468  1.00  0.00    -0.334 A  
HETATM   11  C   UNL     1     -11.613  14.600  64.727  1.00  0.00    -0.418 A  
HETATM   12  C   UNL     1      -8.140  19.603  67.423  1.00  0.00    -0.323 C  
HETATM   13  C   UNL     1     -10.895  18.548  67.124  1.00  0.00    -0.304 C  
HETATM   14  C   UNL     1     -12.487  13.993  65.620  1.00  0.00    -0.531 A  
HETATM   15  C   UNL     1      -9.132  20.317  66.512  1.00  0.00    -0.354 C  
HETATM   16  C   UNL     1     -10.323  19.474  66.054  1.00  0.00    -0.604 C  
ENDROOT
BRANCH   4  17
HETATM   17  C   UNL     1      -7.398  14.602  67.419  1.00  0.00    -0.168 C  
BRANCH  17  18
HETATM   18  N   UNL     1      -7.419  13.388  68.274  1.00  0.00    -0.118 NA 
HETATM   19  C   UNL     1      -7.634  10.998  66.531  1.00  0.00    -0.146 C  
HETATM   20  C   UNL     1      -8.689  12.653  68.147  1.00  0.00    -0.190 C  
HETATM   21  C   UNL     1      -8.839  11.890  66.824  1.00  0.00    -0.193 C  
HETATM   22  C   UNL     1      -6.321  11.749  66.726  1.00  0.00    -0.083 C  
HETATM   23  C   UNL     1      -6.300  12.450  68.083  1.00  0.00    -0.065 C  
ENDBRANCH  17  18
ENDBRANCH   4  17
TORSDOF 2
ENDMDL
MODEL       20
REMARK 921   NORMALIZED FREE ENERGY PREDICTED BY IDOCK:   -6.01 KCAL/MOL
REMARK 922        TOTAL FREE ENERGY PREDICTED BY IDOCK:   -7.18 KCAL/MOL
REMARK 923 INTER-LIGAND FREE ENERGY PREDICTED BY IDOCK:   -6.42 KCAL/MOL
REMARK 924 INTRA-LIGAND FREE ENERGY PREDICTED BY IDOCK:   -0.76 KCAL/MOL
REMARK 927      BINDING AFFINITY PREDICTED BY RF-SCORE:    0.00 PKD
ROOT
HETATM    1  O   UNL     1      -9.439  14.410  65.476  1.00  0.00    -0.535 OA 
HETATM    2  C   UNL     1      -9.848  14.560  66.840  1.00  0.00    -0.262 C  
HETATM    3  H   UNL     1      -8.825  13.685  65.427  1.00  0.00     0.000 HD 
HETATM    4  C   UNL     1     -10.854  15.745  66.920  1.00  0.00    -0.265 C  
HETATM    5  C   UNL     1     -10.590  13.234  67.317  1.00  0.00    -0.250 C  
HETATM    6  C   UNL     1      -8.581  14.812  67.681  1.00  0.00    -0.180 A  
HETATM    7  C   UNL     1     -11.892  12.873  66.559  1.00  0.00    -0.473 C  
HETATM    8  C   UNL     1      -7.301  14.786  67.091  1.00  0.00    -0.020 A  
HETATM    9  C   UNL     1      -7.487  15.138  69.840  1.00  0.00    -0.032 A  
HETATM   10  C   UNL     1      -8.652  15.014  69.070  1.00  0.00    -0.205 A  
HETATM   11  C   UNL     1      -6.143  14.913  67.861  1.00  0.00    -0.169 A  
HETATM   12  C   UNL     1     -11.668  12.382  65.135  1.00  0.00    -0.430 C  
HETATM   13  C   UNL     1      -9.725  11.958  67.335  1.00  0.00    -0.189 C  
HETATM   14  C   UNL     1      -6.234  15.078  69.237  1.00  0.00    -0.111 A  
HETATM   15  C   UNL     1     -10.679  11.223  65.063  1.00  0.00    -0.322 C  
HETATM   16  C   UNL     1      -9.448  11.358  65.959  1.00  0.00    -0.245 C  
ENDROOT
BRANCH   4  17
HETATM   17  C   UNL     1     -10.387  17.111  66.387  1.00  0.00    -0.307 C  
BRANCH  17  18
HETATM   18  N   UNL     1     -10.770  18.228  67.286  1.00  0.00    -0.382 NA 
HETATM   19  C   UNL     1      -8.445  20.043  67.595  1.00  0.00    -0.378 C  
HETATM   20  C   UNL     1      -9.970  18.233  68.523  1.00  0.00    -0.393 C  
HETATM   21  C   UNL     1      -8.523  18.706  68.328  1.00  0.00    -0.350 C  
HETATM   22  C   UNL     1      -9.325  20.052  66.350  1.00  0.00    -0.481 C  
HETATM   23  C   UNL     1     -10.737  19.573  66.687  1.00  0.00    -0.445 C  
ENDBRANCH  17  18
ENDBRANCH   4  17
TORSDOF 2
ENDMDL
MODEL       21
REMARK 921   NORMALIZED FREE ENERGY PREDICTED BY IDOCK:   -6.01 KCAL/MOL
REMARK 922        TOTAL FREE ENERGY PREDICTED BY IDOCK:   -7.18 KCAL/MOL
REMARK 923 INTER-LIGAND FREE ENERGY PREDICTED BY IDOCK:   -6.44 KCAL/MOL
REMARK 924 INTRA-LIGAND FREE ENERGY PREDICTED BY IDOCK:   -0.74 KCAL/MOL
REMARK 927      BINDING AFFINITY PREDICTED BY RF-SCORE:    0.00 PKD
ROOT
HETATM    1  O   UNL     1      -9.132  13.837  66.415  1.00  0.00    -0.439 OA 
HETATM    2  C   UNL     1     -10.319  14.640  66.416  1.00  0.00    -0.289 C  
HETATM    3  H   UNL     1      -9.306  13.049  66.918  1.00  0.00     0.000 HD 
HETATM    4  C   UNL     1     -10.035  15.930  65.592  1.00  0.00    -0.368 C  
HETATM    5  C   UNL     1     -11.499  13.838  65.710  1.00  0.00    -0.324 C  
HETATM    6  C   UNL     1     -10.668  14.951  67.884  1.00  0.00    -0.265 A  
HETATM    7  C   UNL     1     -11.279  13.474  64.220  1.00  0.00    -0.383 C  
HETATM    8  C   UNL     1      -9.915  14.403  68.943  1.00  0.00    -0.183 A  
HETATM    9  C   UNL     1     -12.153  15.929  69.560  1.00  0.00    -0.200 A  
HETATM   10  C   UNL     1     -11.783  15.738  68.220  1.00  0.00    -0.229 A  
HETATM   11  C   UNL     1     -10.284  14.597  70.275  1.00  0.00     0.459 A  
HETATM   12  C   UNL     1     -10.238  12.385  63.993  1.00  0.00    -0.401 C  
HETATM   13  C   UNL     1     -11.938  12.540  66.418  1.00  0.00    -0.386 C  
HETATM   14  C   UNL     1     -11.410  15.351  70.585  1.00  0.00    -0.360 A  
HETATM   15  C   UNL     1     -10.519  11.126  64.805  1.00  0.00    -0.388 C  
HETATM   16  C   UNL     1     -10.979  11.366  66.244  1.00  0.00    -0.303 C  
ENDROOT
BRANCH   4  17
HETATM   17  C   UNL     1      -8.843  16.801  66.023  1.00  0.00    -0.183 C  
BRANCH  17  18
HETATM   18  N   UNL     1      -9.108  18.250  65.839  1.00  0.00    -0.467 NA 
HETATM   19  C   UNL     1      -8.811  19.612  68.458  1.00  0.00    -0.346 C  
HETATM   20  C   UNL     1     -10.288  18.690  66.605  1.00  0.00    -0.415 C  
HETATM   21  C   UNL     1     -10.050  18.786  68.118  1.00  0.00    -0.427 C  
HETATM   22  C   UNL     1      -7.610  19.192  67.617  1.00  0.00    -0.266 C  
HETATM   23  C   UNL     1      -7.981  19.150  66.134  1.00  0.00    -0.276 C  
ENDBRANCH  17  18
ENDBRANCH   4  17
TORSDOF 2
ENDMDL
MODEL       22
REMARK 921   NORMALIZED FREE ENERGY PREDICTED BY IDOCK:   -5.97 KCAL/MOL
REMARK 922        TOTAL FREE ENERGY PREDICTED BY IDOCK:   -7.14 KCAL/MOL
REMARK 923 INTER-LIGAND FREE ENERGY PREDICTED BY IDOCK:   -6.74 KCAL/MOL
REMARK 924 INTRA-LIGAND FREE ENERGY PREDICTED BY IDOCK:   -0.40 KCAL/MOL
REMARK 927      BINDING AFFINITY PREDICTED BY RF-SCORE:    0.00 PKD
ROOT
HETATM    1  O   UNL     1      -9.852  11.171  69.684  1.00  0.00    -0.400 OA 
HETATM    2  C   UNL     1     -11.152  10.585  69.556  1.00  0.00    -0.268 C  
HETATM    3  H   UNL     1      -9.206  10.475  69.634  1.00  0.00     0.000 HD 
HETATM    4  C   UNL     1     -12.211  11.723  69.637  1.00  0.00    -0.248 C  
HETATM    5  C   UNL     1     -11.275   9.880  68.133  1.00  0.00    -0.142 C  
HETATM    6  C   UNL     1     -11.313   9.557  70.693  1.00  0.00    -0.364 A  
HETATM    7  C   UNL     1     -11.145  10.810  66.900  1.00  0.00    -0.204 C  
HETATM    8  C   UNL     1     -10.252   9.281  71.579  1.00  0.00    -0.338 A  
HETATM    9  C   UNL     1     -12.596   7.809  71.819  1.00  0.00    -0.356 A  
HETATM   10  C   UNL     1     -12.498   8.815  70.847  1.00  0.00    -0.050 A  
HETATM   11  C   UNL     1     -10.354   8.280  72.547  1.00  0.00    -0.401 A  
HETATM   12  C   UNL     1      -9.734  11.329  66.658  1.00  0.00    -0.222 C  
HETATM   13  C   UNL     1     -10.317   8.697  67.892  1.00  0.00    -0.286 C  
HETATM   14  C   UNL     1     -11.522   7.536  72.661  1.00  0.00    -0.369 A  
HETATM   15  C   UNL     1      -8.701  10.210  66.583  1.00  0.00    -0.134 C  
HETATM   16  C   UNL     1      -8.870   9.095  67.617  1.00  0.00    -0.123 C  
ENDROOT
BRANCH   4  17
HETATM   17  C   UNL     1     -12.191  12.625  70.883  1.00  0.00    -0.185 C  
BRANCH  17  18
HETATM   18  N   UNL     1     -13.008  13.851  70.705  1.00  0.00    -0.215 NA 
HETATM   19  C   UNL     1     -12.018  15.936  72.568  1.00  0.00    -0.622 C  
HETATM   20  C   UNL     1     -13.755  14.193  71.928  1.00  0.00    -0.437 C  
HETATM   21  C   UNL     1     -12.883  14.773  73.050  1.00  0.00    -0.583 C  
HETATM   22  C   UNL     1     -11.297  15.597  71.268  1.00  0.00    -0.451 C  
HETATM   23  C   UNL     1     -12.281  15.043  70.237  1.00  0.00    -0.340 C  
ENDBRANCH  17  18
ENDBRANCH   4  17
TORSDOF 2
ENDMDL
MODEL       23
REMARK 921   NORMALIZED FREE ENERGY PREDICTED BY IDOCK:   -5.83 KCAL/MOL
REMARK 922        TOTAL FREE ENERGY PREDICTED BY IDOCK:   -6.98 KCAL/MOL
REMARK 923 INTER-LIGAND FREE ENERGY PREDICTED BY IDOCK:   -6.56 KCAL/MOL
REMARK 924 INTRA-LIGAND FREE ENERGY PREDICTED BY IDOCK:   -0.41 KCAL/MOL
REMARK 927      BINDING AFFINITY PREDICTED BY RF-SCORE:    0.00 PKD
ROOT
HETATM    1  O   UNL     1     -11.367   9.757  67.555  1.00  0.00    -0.416 OA 
HETATM    2  C   UNL     1     -10.473  10.623  68.265  1.00  0.00    -0.187 C  
HETATM    3  H   UNL     1     -11.280   9.937  66.625  1.00  0.00     0.000 HD 
HETATM    4  C   UNL     1     -10.615  10.328  69.787  1.00  0.00    -0.312 C  
HETATM    5  C   UNL     1      -8.975  10.310  67.825  1.00  0.00    -0.135 C  
HETATM    6  C   UNL     1     -10.857  12.074  67.914  1.00  0.00    -0.254 A  
HETATM    7  C   UNL     1      -8.459   8.883  68.136  1.00  0.00    -0.129 C  
HETATM    8  C   UNL     1     -11.872  12.352  66.977  1.00  0.00    -0.368 A  
HETATM    9  C   UNL     1     -10.454  14.480  68.062  1.00  0.00    -0.236 A  
HETATM   10  C   UNL     1     -10.167  13.168  68.467  1.00  0.00    -0.218 A  
HETATM   11  C   UNL     1     -12.157  13.659  66.578  1.00  0.00    -0.469 A  
HETATM   12  C   UNL     1      -9.072   7.796  67.262  1.00  0.00    -0.147 C  
HETATM   13  C   UNL     1      -8.646  10.583  66.344  1.00  0.00    -0.147 C  
HETATM   14  C   UNL     1     -11.441  14.723  67.112  1.00  0.00    -0.375 A  
HETATM   15  C   UNL     1      -8.934   8.093  65.773  1.00  0.00    -0.165 C  
HETATM   16  C   UNL     1      -9.193   9.545  65.369  1.00  0.00    -0.306 C  
ENDROOT
BRANCH   4  17
HETATM   17  C   UNL     1     -12.018  10.443  70.406  1.00  0.00    -0.320 C  
BRANCH  17  18
HETATM   18  N   UNL     1     -12.093   9.821  71.752  1.00  0.00    -0.385 NA 
HETATM   19  C   UNL     1     -13.384   7.162  71.502  1.00  0.00    -0.413 C  
HETATM   20  C   UNL     1     -13.487   9.610  72.180  1.00  0.00    -0.429 C  
HETATM   21  C   UNL     1     -14.194   8.456  71.457  1.00  0.00    -0.471 C  
HETATM   22  C   UNL     1     -11.927   7.399  71.119  1.00  0.00    -0.351 C  
HETATM   23  C   UNL     1     -11.344   8.564  71.919  1.00  0.00    -0.329 C  
ENDBRANCH  17  18
ENDBRANCH   4  17
TORSDOF 2
ENDMDL
MODEL       24
REMARK 921   NORMALIZED FREE ENERGY PREDICTED BY IDOCK:   -5.80 KCAL/MOL
REMARK 922        TOTAL FREE ENERGY PREDICTED BY IDOCK:   -6.94 KCAL/MOL
REMARK 923 INTER-LIGAND FREE ENERGY PREDICTED BY IDOCK:   -6.43 KCAL/MOL
REMARK 924 INTRA-LIGAND FREE ENERGY PREDICTED BY IDOCK:   -0.51 KCAL/MOL
REMARK 927      BINDING AFFINITY PREDICTED BY RF-SCORE:    0.00 PKD
ROOT
HETATM    1  O   UNL     1     -10.764  13.988  70.325  1.00  0.00    -0.248 OA 
HETATM    2  C   UNL     1     -11.543  14.906  69.549  1.00  0.00    -0.303 C  
HETATM    3  H   UNL     1     -10.328  14.476  71.014  1.00  0.00     0.000 HD 
HETATM    4  C   UNL     1     -12.257  14.107  68.420  1.00  0.00    -0.200 C  
HETATM    5  C   UNL     1     -12.652  15.572  70.478  1.00  0.00    -0.462 C  
HETATM    6  C   UNL     1     -10.583  15.974  68.990  1.00  0.00    -0.257 A  
HETATM    7  C   UNL     1     -13.694  14.605  71.094  1.00  0.00    -0.374 C  
HETATM    8  C   UNL     1      -9.216  15.974  69.334  1.00  0.00    -0.202 A  
HETATM    9  C   UNL     1     -10.183  18.042  67.752  1.00  0.00    -0.385 A  
HETATM   10  C   UNL     1     -11.046  17.018  68.170  1.00  0.00    -0.163 A  
HETATM   11  C   UNL     1      -8.359  16.993  68.914  1.00  0.00    -0.196 A  
HETATM   12  C   UNL     1     -13.137  13.709  72.193  1.00  0.00    -0.489 C  
HETATM   13  C   UNL     1     -12.118  16.437  71.636  1.00  0.00    -0.170 C  
HETATM   14  C   UNL     1      -8.844  18.034  68.132  1.00  0.00    -0.277 A  
HETATM   15  C   UNL     1     -12.435  14.497  73.293  1.00  0.00    -0.368 C  
HETATM   16  C   UNL     1     -11.549  15.646  72.811  1.00  0.00    -0.446 C  
ENDROOT
BRANCH   4  17
HETATM   17  C   UNL     1     -11.377  13.275  67.472  1.00  0.00    -0.296 C  
BRANCH  17  18
HETATM   18  N   UNL     1     -11.820  11.861  67.388  1.00  0.00    -0.611 NA 
HETATM   19  C   UNL     1      -9.638  10.117  68.387  1.00  0.00    -0.150 C  
HETATM   20  C   UNL     1     -10.985  11.080  66.458  1.00  0.00    -0.166 C  
HETATM   21  C   UNL     1      -9.587  10.754  66.999  1.00  0.00    -0.195 C  
HETATM   22  C   UNL     1     -10.554  10.895  69.326  1.00  0.00    -0.251 C  
HETATM   23  C   UNL     1     -11.912  11.141  68.670  1.00  0.00    -0.219 C  
ENDBRANCH  17  18
ENDBRANCH   4  17
TORSDOF 2
ENDMDL
MODEL       25
REMARK 921   NORMALIZED FREE ENERGY PREDICTED BY IDOCK:   -5.80 KCAL/MOL
REMARK 922        TOTAL FREE ENERGY PREDICTED BY IDOCK:   -6.94 KCAL/MOL
REMARK 923 INTER-LIGAND FREE ENERGY PREDICTED BY IDOCK:   -6.26 KCAL/MOL
REMARK 924 INTRA-LIGAND FREE ENERGY PREDICTED BY IDOCK:   -0.68 KCAL/MOL
REMARK 927      BINDING AFFINITY PREDICTED BY RF-SCORE:    0.00 PKD
ROOT
HETATM    1  O   UNL     1      -9.020  13.826  69.134  1.00  0.00    -0.355 OA 
HETATM    2  C   UNL     1      -8.664  14.135  67.782  1.00  0.00    -0.182 C  
HETATM    3  H   UNL     1      -9.473  12.991  69.139  1.00  0.00     0.000 HD 
HETATM    4  C   UNL     1      -7.921  15.503  67.773  1.00  0.00    -0.157 C  
HETATM    5  C   UNL     1      -7.673  13.018  67.229  1.00  0.00    -0.112 C  
HETATM    6  C   UNL     1      -9.964  14.172  66.956  1.00  0.00    -0.260 A  
HETATM    7  C   UNL     1      -6.316  12.887  67.966  1.00  0.00    -0.109 C  
HETATM    8  C   UNL     1     -11.206  13.852  67.540  1.00  0.00    -0.323 A  
HETATM    9  C   UNL     1     -11.125  14.393  64.817  1.00  0.00    -0.402 A  
HETATM   10  C   UNL     1      -9.950  14.464  65.580  1.00  0.00    -0.365 A  
HETATM   11  C   UNL     1     -12.374  13.785  66.778  1.00  0.00    -0.365 A  
HETATM   12  C   UNL     1      -6.422  12.279  69.359  1.00  0.00    -0.105 C  
HETATM   13  C   UNL     1      -8.260  11.596  67.135  1.00  0.00    -0.165 C  
HETATM   14  C   UNL     1     -12.333  14.044  65.414  1.00  0.00    -0.495 A  
HETATM   15  C   UNL     1      -7.153  10.941  69.362  1.00  0.00    -0.131 C  
HETATM   16  C   UNL     1      -8.396  10.874  68.473  1.00  0.00    -0.142 C  
ENDROOT
BRANCH   4  17
HETATM   17  C   UNL     1      -8.650  16.712  68.385  1.00  0.00    -0.221 C  
BRANCH  17  18
HETATM   18  N   UNL     1      -8.285  17.987  67.719  1.00  0.00    -0.234 NA 
HETATM   19  C   UNL     1     -10.762  19.532  67.193  1.00  0.00    -0.599 C  
HETATM   20  C   UNL     1      -8.851  18.076  66.361  1.00  0.00    -0.231 C  
HETATM   21  C   UNL     1     -10.363  18.335  66.331  1.00  0.00    -0.418 C  
HETATM   22  C   UNL     1     -10.122  19.465  68.575  1.00  0.00    -0.527 C  
HETATM   23  C   UNL     1      -8.618  19.215  68.459  1.00  0.00    -0.363 C  
ENDBRANCH  17  18
ENDBRANCH   4  17
TORSDOF 2
ENDMDL
MODEL       26
REMARK 921   NORMALIZED FREE ENERGY PREDICTED BY IDOCK:   -5.72 KCAL/MOL
REMARK 922        TOTAL FREE ENERGY PREDICTED BY IDOCK:   -6.86 KCAL/MOL
REMARK 923 INTER-LIGAND FREE ENERGY PREDICTED BY IDOCK:   -6.20 KCAL/MOL
REMARK 924 INTRA-LIGAND FREE ENERGY PREDICTED BY IDOCK:   -0.66 KCAL/MOL
REMARK 927      BINDING AFFINITY PREDICTED BY RF-SCORE:    0.00 PKD
ROOT
HETATM    1  O   UNL     1      -9.240  11.124  69.207  1.00  0.00    -0.397 OA 
HETATM    2  C   UNL     1     -10.388  10.351  68.838  1.00  0.00    -0.209 C  
HETATM    3  H   UNL     1      -8.754  11.331  68.417  1.00  0.00     0.000 HD 
HETATM    4  C   UNL     1     -11.185  10.012  70.132  1.00  0.00    -0.367 C  
HETATM    5  C   UNL     1     -11.321  11.218  67.882  1.00  0.00    -0.367 C  
HETATM    6  C   UNL     1      -9.885   9.087  68.115  1.00  0.00    -0.191 A  
HETATM    7  C   UNL     1     -11.907  12.514  68.496  1.00  0.00    -0.341 C  
HETATM    8  C   UNL     1      -8.513   8.896  67.854  1.00  0.00    -0.125 A  
HETATM    9  C   UNL     1     -10.318   7.019  66.887  1.00  0.00    -0.338 A  
HETATM   10  C   UNL     1     -10.778   8.113  67.635  1.00  0.00    -0.203 A  
HETATM   11  C   UNL     1      -8.057   7.805  67.112  1.00  0.00    -0.118 A  
HETATM   12  C   UNL     1     -10.883  13.622  68.705  1.00  0.00    -0.283 C  
HETATM   13  C   UNL     1     -10.699  11.616  66.529  1.00  0.00    -0.313 C  
HETATM   14  C   UNL     1      -8.961   6.872  66.618  1.00  0.00    -0.157 A  
HETATM   15  C   UNL     1     -10.104  13.948  67.435  1.00  0.00    -0.244 C  
HETATM   16  C   UNL     1      -9.668  12.738  66.608  1.00  0.00    -0.252 C  
ENDROOT
BRANCH   4  17
HETATM   17  C   UNL     1     -10.433   9.281  71.258  1.00  0.00    -0.338 C  
BRANCH  17  18
HETATM   18  N   UNL     1     -11.349   8.523  72.147  1.00  0.00    -0.352 NA 
HETATM   19  C   UNL     1     -10.953   5.622  71.672  1.00  0.00    -0.277 C  
HETATM   20  C   UNL     1     -12.331   7.738  71.378  1.00  0.00    -0.323 C  
HETATM   21  C   UNL     1     -11.741   6.495  70.698  1.00  0.00    -0.436 C  
HETATM   22  C   UNL     1      -9.984   6.450  72.509  1.00  0.00    -0.183 C  
HETATM   23  C   UNL     1     -10.702   7.645  73.136  1.00  0.00    -0.387 C  
ENDBRANCH  17  18
ENDBRANCH   4  17
TORSDOF 2
ENDMDL
MODEL       27
REMARK 921   NORMALIZED FREE ENERGY PREDICTED BY IDOCK:   -5.69 KCAL/MOL
REMARK 922        TOTAL FREE ENERGY PREDICTED BY IDOCK:   -6.82 KCAL/MOL
REMARK 923 INTER-LIGAND FREE ENERGY PREDICTED BY IDOCK:   -6.48 KCAL/MOL
REMARK 924 INTRA-LIGAND FREE ENERGY PREDICTED BY IDOCK:   -0.34 KCAL/MOL
REMARK 927      BINDING AFFINITY PREDICTED BY RF-SCORE:    0.00 PKD
ROOT
HETATM    1  O   UNL     1     -10.648  17.565  66.579  1.00  0.00    -0.291 OA 
HETATM    2  C   UNL     1      -9.822  16.453  66.945  1.00  0.00    -0.261 C  
HETATM    3  H   UNL     1     -10.793  18.095  67.354  1.00  0.00     0.000 HD 
HETATM    4  C   UNL     1      -9.584  15.584  65.675  1.00  0.00    -0.328 C  
HETATM    5  C   UNL     1      -8.416  16.989  67.463  1.00  0.00    -0.208 C  
HETATM    6  C   UNL     1     -10.556  15.675  68.054  1.00  0.00    -0.271 A  
HETATM    7  C   UNL     1      -7.568  17.780  66.435  1.00  0.00    -0.313 C  
HETATM    8  C   UNL     1     -11.778  16.139  68.582  1.00  0.00    -0.205 A  
HETATM    9  C   UNL     1     -10.628  13.872  69.701  1.00  0.00     0.211 A  
HETATM   10  C   UNL     1     -10.004  14.513  68.621  1.00  0.00    -0.237 A  
HETATM   11  C   UNL     1     -12.398  15.497  69.655  1.00  0.00    -0.221 A  
HETATM   12  C   UNL     1      -8.114  19.164  66.111  1.00  0.00    -0.277 C  
HETATM   13  C   UNL     1      -8.461  17.846  68.744  1.00  0.00    -0.212 C  
HETATM   14  C   UNL     1     -11.818  14.369  70.223  1.00  0.00    -0.382 A  
HETATM   15  C   UNL     1      -8.350  20.009  67.358  1.00  0.00    -0.382 C  
HETATM   16  C   UNL     1      -8.975  19.268  68.540  1.00  0.00    -0.414 C  
ENDROOT
BRANCH   4  17
HETATM   17  C   UNL     1     -10.822  15.061  64.928  1.00  0.00    -0.411 C  
BRANCH  17  18
HETATM   18  N   UNL     1     -11.352  13.809  65.524  1.00  0.00    -0.304 NA 
HETATM   19  C   UNL     1     -11.309  11.678  63.461  1.00  0.00    -0.447 C  
HETATM   20  C   UNL     1     -12.592  13.370  64.860  1.00  0.00    -0.360 C  
HETATM   21  C   UNL     1     -12.374  12.774  63.462  1.00  0.00    -0.559 C  
HETATM   22  C   UNL     1     -10.052  12.118  64.205  1.00  0.00    -0.335 C  
HETATM   23  C   UNL     1     -10.411  12.678  65.581  1.00  0.00    -0.275 C  
ENDBRANCH  17  18
ENDBRANCH   4  17
TORSDOF 2
ENDMDL
MODEL       28
REMARK 921   NORMALIZED FREE ENERGY PREDICTED BY IDOCK:   -5.66 KCAL/MOL
REMARK 922        TOTAL FREE ENERGY PREDICTED BY IDOCK:   -6.79 KCAL/MOL
REMARK 923 INTER-LIGAND FREE ENERGY PREDICTED BY IDOCK:   -6.41 KCAL/MOL
REMARK 924 INTRA-LIGAND FREE ENERGY PREDICTED BY IDOCK:   -0.38 KCAL/MOL
REMARK 927      BINDING AFFINITY PREDICTED BY RF-SCORE:    0.00 PKD
ROOT
HETATM    1  O   UNL     1      -9.915  17.518  68.933  1.00  0.00    -0.317 OA 
HETATM    2  C   UNL     1      -9.617  16.708  67.789  1.00  0.00    -0.236 C  
HETATM    3  H   UNL     1      -9.150  18.045  69.131  1.00  0.00     0.000 HD 
HETATM    4  C   UNL     1     -10.870  15.844  67.463  1.00  0.00    -0.305 C  
HETATM    5  C   UNL     1      -9.314  17.650  66.542  1.00  0.00    -0.286 C  
HETATM    6  C   UNL     1      -8.389  15.845  68.138  1.00  0.00    -0.162 A  
HETATM    7  C   UNL     1     -10.477  18.562  66.078  1.00  0.00    -0.433 C  
HETATM    8  C   UNL     1      -7.722  15.994  69.371  1.00  0.00    -0.173 A  
HETATM    9  C   UNL     1      -6.674  14.224  67.504  1.00  0.00    -0.128 A  
HETATM   10  C   UNL     1      -7.853  14.928  67.217  1.00  0.00    -0.235 A  
HETATM   11  C   UNL     1      -6.550  15.290  69.654  1.00  0.00    -0.174 A  
HETATM   12  C   UNL     1     -10.782  19.713  67.029  1.00  0.00    -0.575 C  
HETATM   13  C   UNL     1      -8.074  18.556  66.679  1.00  0.00    -0.280 C  
HETATM   14  C   UNL     1      -6.019  14.413  68.717  1.00  0.00    -0.084 A  
HETATM   15  C   UNL     1      -9.550  20.553  67.347  1.00  0.00    -0.578 C  
HETATM   16  C   UNL     1      -8.265  19.761  67.595  1.00  0.00    -0.340 C  
ENDROOT
BRANCH   4  17
HETATM   17  C   UNL     1     -11.423  14.943  68.581  1.00  0.00    -0.306 C  
BRANCH  17  18
HETATM   18  N   UNL     1     -12.119  13.745  68.048  1.00  0.00    -0.339 NA 
HETATM   19  C   UNL     1     -10.091  11.869  66.966  1.00  0.00    -0.226 C  
HETATM   20  C   UNL     1     -11.918  13.599  66.595  1.00  0.00    -0.415 C  
HETATM   21  C   UNL     1     -10.511  13.125  66.205  1.00  0.00    -0.287 C  
HETATM   22  C   UNL     1     -10.361  12.005  68.461  1.00  0.00    -0.228 C  
HETATM   23  C   UNL     1     -11.796  12.470  68.708  1.00  0.00    -0.303 C  
ENDBRANCH  17  18
ENDBRANCH   4  17
TORSDOF 2
ENDMDL
MODEL       29
REMARK 921   NORMALIZED FREE ENERGY PREDICTED BY IDOCK:   -5.65 KCAL/MOL
REMARK 922        TOTAL FREE ENERGY PREDICTED BY IDOCK:   -6.78 KCAL/MOL
REMARK 923 INTER-LIGAND FREE ENERGY PREDICTED BY IDOCK:   -6.34 KCAL/MOL
REMARK 924 INTRA-LIGAND FREE ENERGY PREDICTED BY IDOCK:   -0.44 KCAL/MOL
REMARK 927      BINDING AFFINITY PREDICTED BY RF-SCORE:    0.00 PKD
ROOT
HETATM    1  O   UNL     1     -11.384   9.060  68.527  1.00  0.00    -0.328 OA 
HETATM    2  C   UNL     1     -10.547  10.134  68.971  1.00  0.00    -0.223 C  
HETATM    3  H   UNL     1     -11.075   8.256  68.929  1.00  0.00     0.000 HD 
HETATM    4  C   UNL     1     -11.053  11.451  68.313  1.00  0.00    -0.300 C  
HETATM    5  C   UNL     1     -10.668  10.278  70.552  1.00  0.00    -0.212 C  
HETATM    6  C   UNL     1      -9.100   9.796  68.560  1.00  0.00    -0.128 A  
HETATM    7  C   UNL     1     -12.074  10.633  71.097  1.00  0.00    -0.445 C  
HETATM    8  C   UNL     1      -8.789   8.569  67.939  1.00  0.00    -0.137 A  
HETATM    9  C   UNL     1      -6.711  10.305  68.561  1.00  0.00    -0.057 A  
HETATM   10  C   UNL     1      -8.035  10.668  68.845  1.00  0.00    -0.132 A  
HETATM   11  C   UNL     1      -7.469   8.212  67.655  1.00  0.00    -0.094 A  
HETATM   12  C   UNL     1     -13.084   9.496  71.000  1.00  0.00    -0.263 C  
HETATM   13  C   UNL     1     -10.173   9.069  71.370  1.00  0.00    -0.399 C  
HETATM   14  C   UNL     1      -6.428   9.074  67.976  1.00  0.00    -0.060 A  
HETATM   15  C   UNL     1     -12.581   8.208  71.642  1.00  0.00    -0.347 C  
HETATM   16  C   UNL     1     -11.116   7.869  71.365  1.00  0.00    -0.275 C  
ENDROOT
BRANCH   4  17
HETATM   17  C   UNL     1     -11.143  11.491  66.778  1.00  0.00    -0.302 C  
BRANCH  17  18
HETATM   18  N   UNL     1     -12.182  12.436  66.299  1.00  0.00    -0.583 NA 
HETATM   19  C   UNL     1     -10.855  14.648  64.834  1.00  0.00    -0.436 C  
HETATM   20  C   UNL     1     -12.031  13.769  66.909  1.00  0.00    -0.421 C  
HETATM   21  C   UNL     1     -10.848  14.577  66.360  1.00  0.00    -0.318 C  
HETATM   22  C   UNL     1     -11.074  13.274  64.210  1.00  0.00    -0.414 C  
HETATM   23  C   UNL     1     -12.286  12.586  64.837  1.00  0.00    -0.470 C  
ENDBRANCH  17  18
ENDBRANCH   4  17
TORSDOF 2
ENDMDL
MODEL       30
REMARK 921   NORMALIZED FREE ENERGY PREDICTED BY IDOCK:   -5.65 KCAL/MOL
REMARK 922        TOTAL FREE ENERGY PREDICTED BY IDOCK:   -6.78 KCAL/MOL
REMARK 923 INTER-LIGAND FREE ENERGY PREDICTED BY IDOCK:   -6.14 KCAL/MOL
REMARK 924 INTRA-LIGAND FREE ENERGY PREDICTED BY IDOCK:   -0.64 KCAL/MOL
REMARK 927      BINDING AFFINITY PREDICTED BY RF-SCORE:    0.00 PKD
ROOT
HETATM    1  O   UNL     1     -10.418  12.343  68.138  1.00  0.00    -0.206 OA 
HETATM    2  C   UNL     1      -9.638  12.098  66.962  1.00  0.00    -0.205 C  
HETATM    3  H   UNL     1     -11.156  11.745  68.135  1.00  0.00     0.000 HD 
HETATM    4  C   UNL     1      -8.428  13.078  66.966  1.00  0.00    -0.142 C  
HETATM    5  C   UNL     1      -9.082  10.607  66.998  1.00  0.00    -0.155 C  
HETATM    6  C   UNL     1     -10.557  12.312  65.743  1.00  0.00    -0.289 A  
HETATM    7  C   UNL     1      -8.131  10.263  68.171  1.00  0.00    -0.110 C  
HETATM    8  C   UNL     1     -11.925  12.608  65.907  1.00  0.00    -0.497 A  
HETATM    9  C   UNL     1     -10.946  12.252  63.332  1.00  0.00    -0.467 A  
HETATM   10  C   UNL     1     -10.079  12.158  64.430  1.00  0.00    -0.300 A  
HETATM   11  C   UNL     1     -12.786  12.704  64.811  1.00  0.00    -0.460 A  
HETATM   12  C   UNL     1      -8.822  10.170  69.526  1.00  0.00    -0.198 C  
HETATM   13  C   UNL     1     -10.152   9.497  66.963  1.00  0.00    -0.297 C  
HETATM   14  C   UNL     1     -12.299  12.515  63.524  1.00  0.00    -0.623 A  
HETATM   15  C   UNL     1     -10.008   9.212  69.514  1.00  0.00    -0.193 C  
HETATM   16  C   UNL     1     -10.902   9.294  68.276  1.00  0.00    -0.132 C  
ENDROOT
BRANCH   4  17
HETATM   17  C   UNL     1      -8.732  14.583  67.059  1.00  0.00    -0.234 C  
BRANCH  17  18
HETATM   18  N   UNL     1      -9.524  14.924  68.267  1.00  0.00    -0.204 NA 
HETATM   19  C   UNL     1      -9.582  17.875  68.566  1.00  0.00    -0.327 C  
HETATM   20  C   UNL     1      -8.702  15.601  69.286  1.00  0.00    -0.267 C  
HETATM   21  C   UNL     1      -8.349  17.054  68.939  1.00  0.00    -0.196 C  
HETATM   22  C   UNL     1     -10.460  17.141  67.558  1.00  0.00    -0.348 C  
HETATM   23  C   UNL     1     -10.743  15.715  68.031  1.00  0.00    -0.287 C  
ENDBRANCH  17  18
ENDBRANCH   4  17
TORSDOF 2
ENDMDL
MODEL       31
REMARK 921   NORMALIZED FREE ENERGY PREDICTED BY IDOCK:   -5.63 KCAL/MOL
REMARK 922        TOTAL FREE ENERGY PREDICTED BY IDOCK:   -6.75 KCAL/MOL
REMARK 923 INTER-LIGAND FREE ENERGY PREDICTED BY IDOCK:   -6.47 KCAL/MOL
REMARK 924 INTRA-LIGAND FREE ENERGY PREDICTED BY IDOCK:   -0.29 KCAL/MOL
REMARK 927      BINDING AFFINITY PREDICTED BY RF-SCORE:    0.00 PKD
ROOT
HETATM    1  O   UNL     1     -11.869  15.802  67.713  1.00  0.00    -0.172 OA 
HETATM    2  C   UNL     1     -10.614  15.292  67.247  1.00  0.00    -0.290 C  
HETATM    3  H   UNL     1     -12.427  15.065  67.932  1.00  0.00     0.000 HD 
HETATM    4  C   UNL     1      -9.699  16.499  66.889  1.00  0.00    -0.259 C  
HETATM    5  C   UNL     1      -9.918  14.458  68.412  1.00  0.00    -0.241 C  
HETATM    6  C   UNL     1     -10.900  14.395  66.027  1.00  0.00    -0.309 A  
HETATM    7  C   UNL     1      -9.562  15.249  69.696  1.00  0.00    -0.188 C  
HETATM    8  C   UNL     1     -12.222  14.141  65.606  1.00  0.00    -0.449 A  
HETATM    9  C   UNL     1     -10.141  12.856  64.288  1.00  0.00    -0.251 A  
HETATM   10  C   UNL     1      -9.862  13.752  65.331  1.00  0.00    -0.171 A  
HETATM   11  C   UNL     1     -12.496  13.251  64.566  1.00  0.00    -0.381 A  
HETATM   12  C   UNL     1     -10.770  15.649  70.535  1.00  0.00    -0.295 C  
HETATM   13  C   UNL     1     -10.677  13.197  68.871  1.00  0.00    -0.202 C  
HETATM   14  C   UNL     1     -11.457  12.599  63.913  1.00  0.00    -0.509 A  
HETATM   15  C   UNL     1     -11.663  14.463  70.879  1.00  0.00    -0.281 C  
HETATM   16  C   UNL     1     -11.900  13.471  69.740  1.00  0.00    -0.395 C  
ENDROOT
BRANCH   4  17
HETATM   17  C   UNL     1     -10.233  17.518  65.867  1.00  0.00    -0.242 C  
BRANCH  17  18
HETATM   18  N   UNL     1     -10.748  18.749  66.515  1.00  0.00    -0.339 NA 
HETATM   19  C   UNL     1      -8.446  20.429  67.338  1.00  0.00    -0.394 C  
HETATM   20  C   UNL     1     -10.338  18.836  67.928  1.00  0.00    -0.406 C  
HETATM   21  C   UNL     1      -8.857  19.187  68.127  1.00  0.00    -0.360 C  
HETATM   22  C   UNL     1      -8.929  20.360  65.893  1.00  0.00     0.075 C  
HETATM   23  C   UNL     1     -10.417  20.016  65.840  1.00  0.00    -0.406 C  
ENDBRANCH  17  18
ENDBRANCH   4  17
TORSDOF 2
ENDMDL
MODEL       32
REMARK 921   NORMALIZED FREE ENERGY PREDICTED BY IDOCK:   -5.63 KCAL/MOL
REMARK 922        TOTAL FREE ENERGY PREDICTED BY IDOCK:   -6.75 KCAL/MOL
REMARK 923 INTER-LIGAND FREE ENERGY PREDICTED BY IDOCK:   -6.21 KCAL/MOL
REMARK 924 INTRA-LIGAND FREE ENERGY PREDICTED BY IDOCK:   -0.54 KCAL/MOL
REMARK 927      BINDING AFFINITY PREDICTED BY RF-SCORE:    0.00 PKD
ROOT
HETATM    1  O   UNL     1      -8.916  14.117  67.079  1.00  0.00    -0.220 OA 
HETATM    2  C   UNL     1     -10.343  14.035  67.163  1.00  0.00    -0.265 C  
HETATM    3  H   UNL     1      -8.691  14.568  66.273  1.00  0.00     0.000 HD 
HETATM    4  C   UNL     1     -10.712  13.297  68.483  1.00  0.00    -0.280 C  
HETATM    5  C   UNL     1     -10.953  15.504  67.218  1.00  0.00    -0.303 C  
HETATM    6  C   UNL     1     -10.840  13.280  65.915  1.00  0.00    -0.289 A  
HETATM    7  C   UNL     1     -10.543  16.368  68.437  1.00  0.00    -0.311 C  
HETATM    8  C   UNL     1      -9.943  12.876  64.905  1.00  0.00    -0.151 A  
HETATM    9  C   UNL     1     -12.658  12.430  64.521  1.00  0.00    -0.477 A  
HETATM   10  C   UNL     1     -12.207  13.025  65.709  1.00  0.00    -0.511 A  
HETATM   11  C   UNL     1     -10.395  12.282  63.725  1.00  0.00    -0.464 A  
HETATM   12  C   UNL     1      -9.094  16.838  68.407  1.00  0.00    -0.233 C  
HETATM   13  C   UNL     1     -10.712  16.372  65.966  1.00  0.00    -0.194 C  
HETATM   14  C   UNL     1     -11.754  12.069  63.527  1.00  0.00    -0.566 A  
HETATM   15  C   UNL     1      -8.738  17.556  67.110  1.00  0.00    -0.247 C  
HETATM   16  C   UNL     1      -9.294  16.920  65.836  1.00  0.00    -0.129 C  
ENDROOT
BRANCH   4  17
HETATM   17  C   UNL     1     -10.118  11.895  68.704  1.00  0.00    -0.177 C  
BRANCH  17  18
HETATM   18  N   UNL     1     -11.160  10.838  68.722  1.00  0.00    -0.238 NA 
HETATM   19  C   UNL     1      -9.861   8.228  69.269  1.00  0.00    -0.186 C  
HETATM   20  C   UNL     1     -10.956   9.851  67.647  1.00  0.00    -0.200 C  
HETATM   21  C   UNL     1      -9.784   8.892  67.895  1.00  0.00    -0.190 C  
HETATM   22  C   UNL     1     -10.136   9.248  70.369  1.00  0.00    -0.287 C  
HETATM   23  C   UNL     1     -11.331  10.127  70.000  1.00  0.00    -0.287 C  
ENDBRANCH  17  18
ENDBRANCH   4  17
TORSDOF 2
ENDMDL
MODEL       33
REMARK 921   NORMALIZED FREE ENERGY PREDICTED BY IDOCK:   -5.59 KCAL/MOL
REMARK 922        TOTAL FREE ENERGY PREDICTED BY IDOCK:   -6.71 KCAL/MOL
REMARK 923 INTER-LIGAND FREE ENERGY PREDICTED BY IDOCK:   -6.28 KCAL/MOL
REMARK 924 INTRA-LIGAND FREE ENERGY PREDICTED BY IDOCK:   -0.43 KCAL/MOL
REMARK 927      BINDING AFFINITY PREDICTED BY RF-SCORE:    0.00 PKD
ROOT
HETATM    1  O   UNL     1      -9.342  17.600  69.200  1.00  0.00    -0.126 OA 
HETATM    2  C   UNL     1      -9.430  16.430  68.379  1.00  0.00    -0.220 C  
HETATM    3  H   UNL     1      -8.527  18.046  68.997  1.00  0.00     0.000 HD 
HETATM    4  C   UNL     1     -10.764  15.700  68.711  1.00  0.00    -0.250 C  
HETATM    5  C   UNL     1      -9.456  16.861  66.847  1.00  0.00    -0.261 C  
HETATM    6  C   UNL     1      -8.196  15.556  68.682  1.00  0.00    -0.162 A  
HETATM    7  C   UNL     1     -10.658  17.734  66.406  1.00  0.00    -0.218 C  
HETATM    8  C   UNL     1      -7.193  15.997  69.569  1.00  0.00    -0.162 A  
HETATM    9  C   UNL     1      -6.822  13.585  68.243  1.00  0.00    -0.108 A  
HETATM   10  C   UNL     1      -7.998  14.322  68.039  1.00  0.00    -0.142 A  
HETATM   11  C   UNL     1      -6.026  15.259  69.772  1.00  0.00    -0.134 A  
HETATM   12  C   UNL     1     -10.617  19.162  66.935  1.00  0.00    -0.540 C  
HETATM   13  C   UNL     1      -8.188  17.571  66.333  1.00  0.00    -0.305 C  
HETATM   14  C   UNL     1      -5.834  14.058  69.101  1.00  0.00    -0.087 A  
HETATM   15  C   UNL     1      -9.306  19.870  66.610  1.00  0.00    -0.500 C  
HETATM   16  C   UNL     1      -8.045  19.023  66.783  1.00  0.00    -0.279 C  
ENDROOT
BRANCH   4  17
HETATM   17  C   UNL     1     -11.011  15.301  70.176  1.00  0.00    -0.291 C  
BRANCH  17  18
HETATM   18  N   UNL     1     -12.192  15.988  70.756  1.00  0.00    -0.315 NA 
HETATM   19  C   UNL     1     -13.032  14.539  73.203  1.00  0.00    -0.577 C  
HETATM   20  C   UNL     1     -13.384  15.122  70.754  1.00  0.00    -0.341 C  
HETATM   21  C   UNL     1     -13.345  14.006  71.806  1.00  0.00    -0.465 C  
HETATM   22  C   UNL     1     -11.836  15.484  73.187  1.00  0.00    -0.542 C  
HETATM   23  C   UNL     1     -12.009  16.550  72.105  1.00  0.00    -0.250 C  
ENDBRANCH  17  18
ENDBRANCH   4  17
TORSDOF 2
ENDMDL
MODEL       34
REMARK 921   NORMALIZED FREE ENERGY PREDICTED BY IDOCK:   -5.55 KCAL/MOL
REMARK 922        TOTAL FREE ENERGY PREDICTED BY IDOCK:   -6.67 KCAL/MOL
REMARK 923 INTER-LIGAND FREE ENERGY PREDICTED BY IDOCK:   -6.12 KCAL/MOL
REMARK 924 INTRA-LIGAND FREE ENERGY PREDICTED BY IDOCK:   -0.55 KCAL/MOL
REMARK 927      BINDING AFFINITY PREDICTED BY RF-SCORE:    0.00 PKD
ROOT
HETATM    1  O   UNL     1      -9.130  13.146  66.038  1.00  0.00    -0.455 OA 
HETATM    2  C   UNL     1     -10.048  12.479  66.912  1.00  0.00    -0.225 C  
HETATM    3  H   UNL     1      -8.579  12.490  65.628  1.00  0.00     0.000 HD 
HETATM    4  C   UNL     1     -10.951  13.554  67.584  1.00  0.00    -0.280 C  
HETATM    5  C   UNL     1     -10.972  11.502  66.059  1.00  0.00    -0.316 C  
HETATM    6  C   UNL     1      -9.218  11.688  67.942  1.00  0.00    -0.171 A  
HETATM    7  C   UNL     1     -11.872  12.176  64.993  1.00  0.00    -0.357 C  
HETATM    8  C   UNL     1      -7.811  11.648  67.865  1.00  0.00    -0.129 A  
HETATM    9  C   UNL     1      -9.074  10.131  69.819  1.00  0.00    -0.166 A  
HETATM   10  C   UNL     1      -9.834  10.930  68.952  1.00  0.00    -0.203 A  
HETATM   11  C   UNL     1      -7.056  10.854  68.731  1.00  0.00    -0.083 A  
HETATM   12  C   UNL     1     -11.113  12.712  63.785  1.00  0.00    -0.504 C  
HETATM   13  C   UNL     1     -10.240  10.347  65.347  1.00  0.00    -0.329 C  
HETATM   14  C   UNL     1      -7.688  10.086  69.701  1.00  0.00    -0.158 A  
HETATM   15  C   UNL     1     -10.227  11.655  63.134  1.00  0.00    -0.396 C  
HETATM   16  C   UNL     1      -9.457  10.759  64.104  1.00  0.00    -0.309 C  
ENDROOT
BRANCH   4  17
HETATM   17  C   UNL     1     -10.254  14.683  68.362  1.00  0.00    -0.235 C  
BRANCH  17  18
HETATM   18  N   UNL     1     -10.693  16.029  67.917  1.00  0.00    -0.307 NA 
HETATM   19  C   UNL     1      -8.302  17.603  67.139  1.00  0.00    -0.233 C  
HETATM   20  C   UNL     1     -10.167  17.092  68.791  1.00  0.00    -0.332 C  
HETATM   21  C   UNL     1      -8.669  17.369  68.604  1.00  0.00    -0.261 C  
HETATM   22  C   UNL     1      -8.903  16.533  66.234  1.00  0.00    -0.364 C  
HETATM   23  C   UNL     1     -10.397  16.368  66.515  1.00  0.00    -0.303 C  
ENDBRANCH  17  18
ENDBRANCH   4  17
TORSDOF 2
ENDMDL
MODEL       35
REMARK 921   NORMALIZED FREE ENERGY PREDICTED BY IDOCK:   -5.55 KCAL/MOL
REMARK 922        TOTAL FREE ENERGY PREDICTED BY IDOCK:   -6.66 KCAL/MOL
REMARK 923 INTER-LIGAND FREE ENERGY PREDICTED BY IDOCK:   -6.30 KCAL/MOL
REMARK 924 INTRA-LIGAND FREE ENERGY PREDICTED BY IDOCK:   -0.37 KCAL/MOL
REMARK 927      BINDING AFFINITY PREDICTED BY RF-SCORE:    0.00 PKD
ROOT
HETATM    1  O   UNL     1      -9.953  12.997  67.196  1.00  0.00    -0.228 OA 
HETATM    2  C   UNL     1     -10.427  14.324  67.454  1.00  0.00    -0.264 C  
HETATM    3  H   UNL     1     -10.705  12.420  67.134  1.00  0.00     0.000 HD 
HETATM    4  C   UNL     1      -9.195  15.271  67.555  1.00  0.00    -0.202 C  
HETATM    5  C   UNL     1     -11.337  14.805  66.240  1.00  0.00    -0.334 C  
HETATM    6  C   UNL     1     -11.237  14.281  68.764  1.00  0.00    -0.286 A  
HETATM    7  C   UNL     1     -10.636  14.906  64.862  1.00  0.00    -0.417 C  
HETATM    8  C   UNL     1     -11.465  13.064  69.438  1.00  0.00    -0.323 A  
HETATM    9  C   UNL     1     -12.651  15.371  70.432  1.00  0.00    -0.433 A  
HETATM   10  C   UNL     1     -11.829  15.440  69.298  1.00  0.00    -0.365 A  
HETATM   11  C   UNL     1     -12.282  13.000  70.569  1.00  0.00    -0.392 A  
HETATM   12  C   UNL     1     -10.297  13.559  64.235  1.00  0.00    -0.169 C  
HETATM   13  C   UNL     1     -12.629  13.995  66.015  1.00  0.00    -0.452 C  
HETATM   14  C   UNL     1     -12.884  14.152  71.060  1.00  0.00    -0.421 A  
HETATM   15  C   UNL     1     -11.507  12.635  64.143  1.00  0.00    -0.447 C  
HETATM   16  C   UNL     1     -12.419  12.628  65.371  1.00  0.00    -0.421 C  
ENDROOT
BRANCH   4  17
HETATM   17  C   UNL     1      -8.110  14.919  68.587  1.00  0.00    -0.151 C  
BRANCH  17  18
HETATM   18  N   UNL     1      -6.741  15.174  68.074  1.00  0.00    -0.126 NA 
HETATM   19  C   UNL     1      -5.772  17.750  69.180  1.00  0.00    -0.201 C  
HETATM   20  C   UNL     1      -6.687  16.387  67.239  1.00  0.00    -0.186 C  
HETATM   21  C   UNL     1      -6.780  17.696  68.034  1.00  0.00    -0.187 C  
HETATM   22  C   UNL     1      -5.790  16.466  70.002  1.00  0.00    -0.190 C  
HETATM   23  C   UNL     1      -5.678  15.244  69.091  1.00  0.00    -0.099 C  
ENDBRANCH  17  18
ENDBRANCH   4  17
TORSDOF 2
ENDMDL
MODEL       36
REMARK 921   NORMALIZED FREE ENERGY PREDICTED BY IDOCK:   -5.52 KCAL/MOL
REMARK 922        TOTAL FREE ENERGY PREDICTED BY IDOCK:   -6.63 KCAL/MOL
REMARK 923 INTER-LIGAND FREE ENERGY PREDICTED BY IDOCK:   -5.92 KCAL/MOL
REMARK 924 INTRA-LIGAND FREE ENERGY PREDICTED BY IDOCK:   -0.71 KCAL/MOL
REMARK 927      BINDING AFFINITY PREDICTED BY RF-SCORE:    0.00 PKD
ROOT
HETATM    1  O   UNL     1     -11.043  15.504  67.561  1.00  0.00    -0.321 OA 
HETATM    2  C   UNL     1     -10.245  15.528  68.751  1.00  0.00    -0.212 C  
HETATM    3  H   UNL     1     -11.645  16.238  67.592  1.00  0.00     0.000 HD 
HETATM    4  C   UNL     1      -9.258  14.325  68.701  1.00  0.00    -0.167 C  
HETATM    5  C   UNL     1      -9.399  16.876  68.792  1.00  0.00    -0.260 C  
HETATM    6  C   UNL     1     -11.204  15.444  69.955  1.00  0.00    -0.310 A  
HETATM    7  C   UNL     1      -8.383  17.077  67.641  1.00  0.00    -0.196 C  
HETATM    8  C   UNL     1     -12.602  15.440  69.772  1.00  0.00    -0.138 A  
HETATM    9  C   UNL     1     -11.605  15.464  72.365  1.00  0.00    -0.545 A  
HETATM   10  C   UNL     1     -10.722  15.434  71.275  1.00  0.00     0.063 A  
HETATM   11  C   UNL     1     -13.478  15.466  70.858  1.00  0.00    -0.427 A  
HETATM   12  C   UNL     1      -9.023  17.375  66.290  1.00  0.00    -0.239 C  
HETATM   13  C   UNL     1     -10.224  18.176  68.880  1.00  0.00    -0.304 C  
HETATM   14  C   UNL     1     -12.981  15.490  72.155  1.00  0.00    -0.506 A  
HETATM   15  C   UNL     1      -9.991  18.551  66.347  1.00  0.00    -0.399 C  
HETATM   16  C   UNL     1     -10.900  18.590  67.577  1.00  0.00    -0.337 C  
ENDROOT
BRANCH   4  17
HETATM   17  C   UNL     1      -9.858  12.919  68.530  1.00  0.00    -0.144 C  
BRANCH  17  18
HETATM   18  N   UNL     1     -10.560  12.759  67.233  1.00  0.00    -0.232 NA 
HETATM   19  C   UNL     1      -9.948  10.070  66.142  1.00  0.00    -0.322 C  
HETATM   20  C   UNL     1      -9.614  12.590  66.116  1.00  0.00    -0.228 C  
HETATM   21  C   UNL     1      -8.938  11.213  66.075  1.00  0.00    -0.210 C  
HETATM   22  C   UNL     1     -10.963  10.284  67.260  1.00  0.00    -0.277 C  
HETATM   23  C   UNL     1     -11.567  11.686  67.177  1.00  0.00    -0.212 C  
ENDBRANCH  17  18
ENDBRANCH   4  17
TORSDOF 2
ENDMDL
MODEL       37
REMARK 921   NORMALIZED FREE ENERGY PREDICTED BY IDOCK:   -5.52 KCAL/MOL
REMARK 922        TOTAL FREE ENERGY PREDICTED BY IDOCK:   -6.63 KCAL/MOL
REMARK 923 INTER-LIGAND FREE ENERGY PREDICTED BY IDOCK:   -5.99 KCAL/MOL
REMARK 924 INTRA-LIGAND FREE ENERGY PREDICTED BY IDOCK:   -0.65 KCAL/MOL
REMARK 927      BINDING AFFINITY PREDICTED BY RF-SCORE:    0.00 PKD
ROOT
HETATM    1  O   UNL     1     -11.278   8.921  67.940  1.00  0.00    -0.450 OA 
HETATM    2  C   UNL     1     -10.221   9.814  68.311  1.00  0.00    -0.183 C  
HETATM    3  H   UNL     1     -10.903   8.059  67.799  1.00  0.00     0.000 HD 
HETATM    4  C   UNL     1     -10.834  11.226  68.543  1.00  0.00    -0.245 C  
HETATM    5  C   UNL     1      -9.564   9.317  69.673  1.00  0.00    -0.192 C  
HETATM    6  C   UNL     1      -9.186   9.808  67.168  1.00  0.00    -0.159 A  
HETATM    7  C   UNL     1     -10.498   9.289  70.909  1.00  0.00    -0.372 C  
HETATM    8  C   UNL     1      -9.338   8.959  66.054  1.00  0.00    -0.306 A  
HETATM    9  C   UNL     1      -7.041  10.510  66.233  1.00  0.00    -0.132 A  
HETATM   10  C   UNL     1      -8.026  10.601  67.227  1.00  0.00    -0.116 A  
HETATM   11  C   UNL     1      -8.357   8.873  65.064  1.00  0.00    -0.174 A  
HETATM   12  C   UNL     1     -11.549   8.186  70.870  1.00  0.00    -0.283 C  
HETATM   13  C   UNL     1      -8.873   7.939  69.615  1.00  0.00    -0.138 C  
HETATM   14  C   UNL     1      -7.202   9.640  65.159  1.00  0.00    -0.115 A  
HETATM   15  C   UNL     1     -10.942   6.807  70.638  1.00  0.00    -0.313 C  
HETATM   16  C   UNL     1      -9.828   6.749  69.592  1.00  0.00    -0.173 C  
ENDROOT
BRANCH   4  17
HETATM   17  C   UNL     1     -11.634  11.852  67.388  1.00  0.00    -0.297 C  
BRANCH  17  18
HETATM   18  N   UNL     1     -11.131  13.200  67.021  1.00  0.00    -0.273 NA 
HETATM   19  C   UNL     1     -11.925  13.782  64.222  1.00  0.00    -0.481 C  
HETATM   20  C   UNL     1     -10.150  13.136  65.924  1.00  0.00    -0.290 C  
HETATM   21  C   UNL     1     -10.767  12.842  64.550  1.00  0.00    -0.380 C  
HETATM   22  C   UNL     1     -12.904  13.892  65.386  1.00  0.00    -0.466 C  
HETATM   23  C   UNL     1     -12.161  14.198  66.686  1.00  0.00    -0.451 C  
ENDBRANCH  17  18
ENDBRANCH   4  17
TORSDOF 2
ENDMDL
MODEL       38
REMARK 921   NORMALIZED FREE ENERGY PREDICTED BY IDOCK:   -5.46 KCAL/MOL
REMARK 922        TOTAL FREE ENERGY PREDICTED BY IDOCK:   -6.57 KCAL/MOL
REMARK 923 INTER-LIGAND FREE ENERGY PREDICTED BY IDOCK:   -6.00 KCAL/MOL
REMARK 924 INTRA-LIGAND FREE ENERGY PREDICTED BY IDOCK:   -0.56 KCAL/MOL
REMARK 927      BINDING AFFINITY PREDICTED BY RF-SCORE:    0.00 PKD
ROOT
HETATM    1  O   UNL     1      -9.757  12.881  68.768  1.00  0.00    -0.402 OA 
HETATM    2  C   UNL     1     -10.572  11.997  67.989  1.00  0.00    -0.208 C  
HETATM    3  H   UNL     1      -9.053  13.201  68.216  1.00  0.00     0.000 HD 
HETATM    4  C   UNL     1     -11.726  11.474  68.892  1.00  0.00    -0.403 C  
HETATM    5  C   UNL     1     -11.207  12.802  66.770  1.00  0.00    -0.338 C  
HETATM    6  C   UNL     1      -9.666  10.858  67.481  1.00  0.00    -0.187 A  
HETATM    7  C   UNL     1     -12.153  13.970  67.146  1.00  0.00    -0.436 C  
HETATM    8  C   UNL     1      -8.281  10.859  67.742  1.00  0.00    -0.116 A  
HETATM    9  C   UNL     1      -9.327   8.839  66.147  1.00  0.00    -0.297 A  
HETATM   10  C   UNL     1     -10.177   9.813  66.690  1.00  0.00    -0.296 A  
HETATM   11  C   UNL     1      -7.438   9.886  67.202  1.00  0.00    -0.091 A  
HETATM   12  C   UNL     1     -11.442  15.181  67.736  1.00  0.00    -0.329 C  
HETATM   13  C   UNL     1     -10.200  13.365  65.748  1.00  0.00    -0.300 C  
HETATM   14  C   UNL     1      -7.958   8.882  66.395  1.00  0.00    -0.103 A  
HETATM   15  C   UNL     1     -10.310  15.687  66.848  1.00  0.00    -0.293 C  
HETATM   16  C   UNL     1      -9.437  14.600  66.221  1.00  0.00    -0.322 C  
ENDROOT
BRANCH   4  17
HETATM   17  C   UNL     1     -11.340  10.769  70.203  1.00  0.00    -0.309 C  
BRANCH  17  18
HETATM   18  N   UNL     1     -11.475   9.294  70.112  1.00  0.00    -0.170 NA 
HETATM   19  C   UNL     1     -10.494   8.087  72.638  1.00  0.00    -0.408 C  
HETATM   20  C   UNL     1     -10.167   8.620  70.173  1.00  0.00    -0.192 C  
HETATM   21  C   UNL     1      -9.534   8.612  71.571  1.00  0.00    -0.320 C  
HETATM   22  C   UNL     1     -11.866   8.744  72.528  1.00  0.00    -0.272 C  
HETATM   23  C   UNL     1     -12.383   8.671  71.091  1.00  0.00    -0.213 C  
ENDBRANCH  17  18
ENDBRANCH   4  17
TORSDOF 2
ENDMDL
MODEL       39
REMARK 921   NORMALIZED FREE ENERGY PREDICTED BY IDOCK:   -5.46 KCAL/MOL
REMARK 922        TOTAL FREE ENERGY PREDICTED BY IDOCK:   -6.56 KCAL/MOL
REMARK 923 INTER-LIGAND FREE ENERGY PREDICTED BY IDOCK:   -5.83 KCAL/MOL
REMARK 924 INTRA-LIGAND FREE ENERGY PREDICTED BY IDOCK:   -0.72 KCAL/MOL
REMARK 927      BINDING AFFINITY PREDICTED BY RF-SCORE:    0.00 PKD
ROOT
HETATM    1  O   UNL     1     -11.257   8.845  68.444  1.00  0.00    -0.412 OA 
HETATM    2  C   UNL     1      -9.899   9.016  68.868  1.00  0.00    -0.175 C  
HETATM    3  H   UNL     1     -11.434   7.914  68.384  1.00  0.00     0.000 HD 
HETATM    4  C   UNL     1      -9.607  10.542  68.967  1.00  0.00    -0.213 C  
HETATM    5  C   UNL     1      -9.712   8.370  70.311  1.00  0.00    -0.178 C  
HETATM    6  C   UNL     1      -8.997   8.317  67.832  1.00  0.00    -0.134 A  
HETATM    7  C   UNL     1     -10.554   8.995  71.451  1.00  0.00    -0.393 C  
HETATM    8  C   UNL     1      -9.552   7.598  66.754  1.00  0.00    -0.269 A  
HETATM    9  C   UNL     1      -6.792   7.590  67.072  1.00  0.00    -0.071 A  
HETATM   10  C   UNL     1      -7.597   8.317  67.961  1.00  0.00    -0.102 A  
HETATM   11  C   UNL     1      -8.747   6.877  65.869  1.00  0.00    -0.146 A  
HETATM   12  C   UNL     1     -12.043   8.681  71.369  1.00  0.00    -0.351 C  
HETATM   13  C   UNL     1      -9.929   6.846  70.391  1.00  0.00    -0.190 C  
HETATM   14  C   UNL     1      -7.368   6.863  66.034  1.00  0.00    -0.075 A  
HETATM   15  C   UNL     1     -12.322   7.185  71.268  1.00  0.00    -0.418 C  
HETATM   16  C   UNL     1     -11.389   6.408  70.338  1.00  0.00    -0.453 C  
ENDROOT
BRANCH   4  17
HETATM   17  C   UNL     1      -9.848  11.396  67.710  1.00  0.00    -0.175 C  
BRANCH  17  18
HETATM   18  N   UNL     1     -11.290  11.661  67.477  1.00  0.00    -0.327 NA 
HETATM   19  C   UNL     1     -11.694  14.590  67.241  1.00  0.00    -0.429 C  
HETATM   20  C   UNL     1     -11.888  12.436  68.578  1.00  0.00    -0.304 C  
HETATM   21  C   UNL     1     -11.478  13.915  68.594  1.00  0.00    -0.333 C  
HETATM   22  C   UNL     1     -11.129  13.751  66.100  1.00  0.00    -0.296 C  
HETATM   23  C   UNL     1     -11.624  12.308  66.197  1.00  0.00    -0.390 C  
ENDBRANCH  17  18
ENDBRANCH   4  17
TORSDOF 2
ENDMDL
MODEL       40
REMARK 921   NORMALIZED FREE ENERGY PREDICTED BY IDOCK:   -5.45 KCAL/MOL
REMARK 922        TOTAL FREE ENERGY PREDICTED BY IDOCK:   -6.56 KCAL/MOL
REMARK 923 INTER-LIGAND FREE ENERGY PREDICTED BY IDOCK:   -5.84 KCAL/MOL
REMARK 924 INTRA-LIGAND FREE ENERGY PREDICTED BY IDOCK:   -0.71 KCAL/MOL
REMARK 927      BINDING AFFINITY PREDICTED BY RF-SCORE:    0.00 PKD
ROOT
HETATM    1  O   UNL     1      -9.599   7.750  71.198  1.00  0.00    -0.158 OA 
HETATM    2  C   UNL     1     -10.662   6.794  71.108  1.00  0.00    -0.229 C  
HETATM    3  H   UNL     1      -9.623   8.142  72.064  1.00  0.00     0.000 HD 
HETATM    4  C   UNL     1     -10.622   6.152  69.690  1.00  0.00    -0.347 C  
HETATM    5  C   UNL     1     -10.433   5.648  72.189  1.00  0.00    -0.265 C  
HETATM    6  C   UNL     1     -11.983   7.542  71.372  1.00  0.00    -0.336 A  
HETATM    7  C   UNL     1      -9.141   4.807  72.027  1.00  0.00    -0.152 C  
HETATM    8  C   UNL     1     -11.988   8.909  71.716  1.00  0.00    -0.429 A  
HETATM    9  C   UNL     1     -14.406   7.542  71.686  1.00  0.00    -0.621 A  
HETATM   10  C   UNL     1     -13.220   6.876  71.342  1.00  0.00    -0.287 A  
HETATM   11  C   UNL     1     -13.170   9.570  72.056  1.00  0.00    -0.539 A  
HETATM   12  C   UNL     1      -7.862   5.559  72.373  1.00  0.00    -0.103 C  
HETATM   13  C   UNL     1     -10.477   6.104  73.661  1.00  0.00    -0.289 C  
HETATM   14  C   UNL     1     -14.379   8.884  72.052  1.00  0.00    -0.406 A  
HETATM   15  C   UNL     1      -7.909   6.189  73.761  1.00  0.00    -0.097 C  
HETATM   16  C   UNL     1      -9.234   6.854  74.132  1.00  0.00    -0.253 C  
ENDROOT
BRANCH   4  17
HETATM   17  C   UNL     1     -10.698   7.097  68.479  1.00  0.00    -0.152 C  
BRANCH  17  18
HETATM   18  N   UNL     1      -9.529   8.009  68.402  1.00  0.00    -0.144 NA 
HETATM   19  C   UNL     1      -9.295   9.024  65.624  1.00  0.00    -0.289 C  
HETATM   20  C   UNL     1      -8.493   7.494  67.490  1.00  0.00    -0.119 C  
HETATM   21  C   UNL     1      -8.856   7.611  66.003  1.00  0.00    -0.186 C  
HETATM   22  C   UNL     1     -10.321   9.575  66.609  1.00  0.00    -0.280 C  
HETATM   23  C   UNL     1      -9.829   9.407  68.047  1.00  0.00    -0.164 C  
ENDBRANCH  17  18
ENDBRANCH   4  17
TORSDOF 2
ENDMDL
MODEL       41
REMARK 921   NORMALIZED FREE ENERGY PREDICTED BY IDOCK:   -5.38 KCAL/MOL
REMARK 922        TOTAL FREE ENERGY PREDICTED BY IDOCK:   -6.47 KCAL/MOL
REMARK 923 INTER-LIGAND FREE ENERGY PREDICTED BY IDOCK:   -6.04 KCAL/MOL
REMARK 924 INTRA-LIGAND FREE ENERGY PREDICTED BY IDOCK:   -0.43 KCAL/MOL
REMARK 927      BINDING AFFINITY PREDICTED BY RF-SCORE:    0.00 PKD
ROOT
HETATM    1  O   UNL     1     -11.284   8.638  68.178  1.00  0.00    -0.354 OA 
HETATM    2  C   UNL     1      -9.885   8.492  67.907  1.00  0.00    -0.170 C  
HETATM    3  H   UNL     1     -11.577   7.867  68.651  1.00  0.00     0.000 HD 
HETATM    4  C   UNL     1      -9.404   9.755  67.134  1.00  0.00    -0.169 C  
HETATM    5  C   UNL     1      -9.087   8.408  69.283  1.00  0.00    -0.150 C  
HETATM    6  C   UNL     1      -9.702   7.201  67.086  1.00  0.00    -0.212 A  
HETATM    7  C   UNL     1      -9.176   9.653  70.199  1.00  0.00    -0.287 C  
HETATM    8  C   UNL     1     -10.797   6.361  66.800  1.00  0.00    -0.361 A  
HETATM    9  C   UNL     1      -8.264   5.555  65.995  1.00  0.00    -0.114 A  
HETATM   10  C   UNL     1      -8.432   6.784  66.650  1.00  0.00    -0.120 A  
HETATM   11  C   UNL     1     -10.626   5.140  66.145  1.00  0.00    -0.293 A  
HETATM   12  C   UNL     1     -10.537   9.845  70.858  1.00  0.00    -0.254 C  
HETATM   13  C   UNL     1      -9.415   7.188  70.167  1.00  0.00    -0.161 C  
HETATM   14  C   UNL     1      -9.358   4.731  65.752  1.00  0.00    -0.163 A  
HETATM   15  C   UNL     1     -11.004   8.604  71.611  1.00  0.00    -0.378 C  
HETATM   16  C   UNL     1     -10.752   7.274  70.899  1.00  0.00    -0.251 C  
ENDROOT
BRANCH   4  17
HETATM   17  C   UNL     1     -10.131  10.107  65.824  1.00  0.00    -0.254 C  
BRANCH  17  18
HETATM   18  N   UNL     1      -9.835  11.488  65.369  1.00  0.00    -0.229 NA 
HETATM   19  C   UNL     1     -12.396  12.926  64.956  1.00  0.00    -0.541 C  
HETATM   20  C   UNL     1     -10.354  11.740  64.013  1.00  0.00    -0.356 C  
HETATM   21  C   UNL     1     -11.879  11.899  63.949  1.00  0.00    -0.509 C  
HETATM   22  C   UNL     1     -11.805  12.697  66.343  1.00  0.00    -0.466 C  
HETATM   23  C   UNL     1     -10.284  12.568  66.263  1.00  0.00    -0.248 C  
ENDBRANCH  17  18
ENDBRANCH   4  17
TORSDOF 2
ENDMDL
MODEL       42
REMARK 921   NORMALIZED FREE ENERGY PREDICTED BY IDOCK:   -5.34 KCAL/MOL
REMARK 922        TOTAL FREE ENERGY PREDICTED BY IDOCK:   -6.43 KCAL/MOL
REMARK 923 INTER-LIGAND FREE ENERGY PREDICTED BY IDOCK:   -6.56 KCAL/MOL
REMARK 924 INTRA-LIGAND FREE ENERGY PREDICTED BY IDOCK:    0.14 KCAL/MOL
REMARK 927      BINDING AFFINITY PREDICTED BY RF-SCORE:    0.00 PKD
ROOT
HETATM    1  O   UNL     1      -8.551  16.985  65.890  1.00  0.00    -0.521 OA 
HETATM    2  C   UNL     1      -9.247  16.447  67.020  1.00  0.00    -0.221 C  
HETATM    3  H   UNL     1      -9.179  17.450  65.349  1.00  0.00     0.000 HD 
HETATM    4  C   UNL     1      -8.220  15.685  67.908  1.00  0.00    -0.155 C  
HETATM    5  C   UNL     1      -9.869  17.638  67.874  1.00  0.00    -0.300 C  
HETATM    6  C   UNL     1     -10.355  15.519  66.485  1.00  0.00    -0.293 A  
HETATM    7  C   UNL     1      -8.856  18.639  68.484  1.00  0.00    -0.361 C  
HETATM    8  C   UNL     1     -10.586  15.386  65.100  1.00  0.00    -0.458 A  
HETATM    9  C   UNL     1     -12.282  14.065  66.859  1.00  0.00    -0.415 A  
HETATM   10  C   UNL     1     -11.212  14.823  67.355  1.00  0.00    -0.346 A  
HETATM   11  C   UNL     1     -11.650  14.628  64.609  1.00  0.00    -0.406 A  
HETATM   12  C   UNL     1      -8.192  19.554  67.462  1.00  0.00    -0.328 C  
HETATM   13  C   UNL     1     -10.940  18.482  67.155  1.00  0.00    -0.149 C  
HETATM   14  C   UNL     1     -12.506  13.976  65.488  1.00  0.00    -0.533 A  
HETATM   15  C   UNL     1      -9.204  20.293  66.593  1.00  0.00    -0.428 C  
HETATM   16  C   UNL     1     -10.392  19.457  66.117  1.00  0.00    -0.595 C  
ENDROOT
BRANCH   4  17
HETATM   17  C   UNL     1      -7.401  14.564  67.246  1.00  0.00    -0.068 C  
BRANCH  17  18
HETATM   18  N   UNL     1      -5.950  14.676  67.541  1.00  0.00    -0.349 NA 
HETATM   19  C   UNL     1      -5.588  14.892  70.477  1.00  0.00    -0.142 C  
HETATM   20  C   UNL     1      -5.619  15.966  68.173  1.00  0.00    -0.114 C  
HETATM   21  C   UNL     1      -6.065  16.075  69.638  1.00  0.00    -0.172 C  
HETATM   22  C   UNL     1      -5.878  13.563  69.787  1.00  0.00    -0.117 C  
HETATM   23  C   UNL     1      -5.373  13.586  68.345  1.00  0.00    -0.095 C  
ENDBRANCH  17  18
ENDBRANCH   4  17
TORSDOF 2
ENDMDL
MODEL       43
REMARK 921   NORMALIZED FREE ENERGY PREDICTED BY IDOCK:   -5.28 KCAL/MOL
REMARK 922        TOTAL FREE ENERGY PREDICTED BY IDOCK:   -6.37 KCAL/MOL
REMARK 923 INTER-LIGAND FREE ENERGY PREDICTED BY IDOCK:   -5.87 KCAL/MOL
REMARK 924 INTRA-LIGAND FREE ENERGY PREDICTED BY IDOCK:   -0.50 KCAL/MOL
REMARK 927      BINDING AFFINITY PREDICTED BY RF-SCORE:    0.00 PKD
ROOT
HETATM    1  O   UNL     1      -9.697  13.136  65.429  1.00  0.00    -0.478 OA 
HETATM    2  C   UNL     1     -10.521  12.508  66.419  1.00  0.00    -0.247 C  
HETATM    3  H   UNL     1      -9.808  12.667  64.609  1.00  0.00     0.000 HD 
HETATM    4  C   UNL     1     -10.339  13.275  67.761  1.00  0.00    -0.233 C  
HETATM    5  C   UNL     1     -12.047  12.613  65.978  1.00  0.00    -0.429 C  
HETATM    6  C   UNL     1     -10.080  11.035  66.525  1.00  0.00    -0.270 A  
HETATM    7  C   UNL     1     -12.621  14.047  65.848  1.00  0.00    -0.484 C  
HETATM    8  C   UNL     1      -9.087  10.511  65.673  1.00  0.00    -0.209 A  
HETATM    9  C   UNL     1     -10.359   8.788  67.443  1.00  0.00    -0.349 A  
HETATM   10  C   UNL     1     -10.695  10.150  67.427  1.00  0.00    -0.336 A  
HETATM   11  C   UNL     1      -8.753   9.155  65.693  1.00  0.00    -0.203 A  
HETATM   12  C   UNL     1     -12.093  14.822  64.648  1.00  0.00    -0.437 C  
HETATM   13  C   UNL     1     -12.416  11.874  64.676  1.00  0.00    -0.030 C  
HETATM   14  C   UNL     1      -9.396   8.291  66.569  1.00  0.00    -0.263 A  
HETATM   15  C   UNL     1     -12.271  14.064  63.336  1.00  0.00     0.132 C  
HETATM   16  C   UNL     1     -11.956  12.569  63.398  1.00  0.00    -0.602 C  
ENDROOT
BRANCH   4  17
HETATM   17  C   UNL     1      -8.910  13.412  68.315  1.00  0.00    -0.172 C  
BRANCH  17  18
HETATM   18  N   UNL     1      -8.645  14.765  68.863  1.00  0.00    -0.172 NA 
HETATM   19  C   UNL     1      -7.548  16.472  66.699  1.00  0.00    -0.310 C  
HETATM   20  C   UNL     1      -7.212  15.103  68.815  1.00  0.00    -0.127 C  
HETATM   21  C   UNL     1      -6.693  15.422  67.407  1.00  0.00    -0.178 C  
HETATM   22  C   UNL     1      -9.034  16.148  66.807  1.00  0.00    -0.270 C  
HETATM   23  C   UNL     1      -9.418  15.864  68.259  1.00  0.00    -0.201 C  
ENDBRANCH  17  18
ENDBRANCH   4  17
TORSDOF 2
ENDMDL
MODEL       44
REMARK 921   NORMALIZED FREE ENERGY PREDICTED BY IDOCK:   -5.25 KCAL/MOL
REMARK 922        TOTAL FREE ENERGY PREDICTED BY IDOCK:   -6.32 KCAL/MOL
REMARK 923 INTER-LIGAND FREE ENERGY PREDICTED BY IDOCK:   -5.63 KCAL/MOL
REMARK 924 INTRA-LIGAND FREE ENERGY PREDICTED BY IDOCK:   -0.70 KCAL/MOL
REMARK 927      BINDING AFFINITY PREDICTED BY RF-SCORE:    0.00 PKD
ROOT
HETATM    1  O   UNL     1     -11.440  11.435  66.778  1.00  0.00    -0.427 OA 
HETATM    2  C   UNL     1     -10.455  12.468  66.897  1.00  0.00    -0.228 C  
HETATM    3  H   UNL     1     -12.297  11.843  66.747  1.00  0.00     0.000 HD 
HETATM    4  C   UNL     1      -9.050  11.800  66.947  1.00  0.00    -0.192 C  
HETATM    5  C   UNL     1     -10.522  13.410  65.615  1.00  0.00    -0.293 C  
HETATM    6  C   UNL     1     -10.768  13.263  68.179  1.00  0.00    -0.264 A  
HETATM    7  C   UNL     1     -10.211  12.734  64.256  1.00  0.00    -0.352 C  
HETATM    8  C   UNL     1     -11.907  12.970  68.956  1.00  0.00    -0.362 A  
HETATM    9  C   UNL     1     -10.321  15.128  69.693  1.00  0.00    -0.238 A  
HETATM   10  C   UNL     1      -9.968  14.346  68.584  1.00  0.00    -0.241 A  
HETATM   11  C   UNL     1     -12.254  13.748  70.062  1.00  0.00    -0.407 A  
HETATM   12  C   UNL     1     -11.300  11.787  63.769  1.00  0.00    -0.524 C  
HETATM   13  C   UNL     1     -11.842  14.184  65.427  1.00  0.00    -0.362 C  
HETATM   14  C   UNL     1     -11.468  14.835  70.425  1.00  0.00    -0.303 A  
HETATM   15  C   UNL     1     -12.675  12.446  63.726  1.00  0.00    -0.471 C  
HETATM   16  C   UNL     1     -13.008  13.341  64.920  1.00  0.00    -0.199 C  
ENDROOT
BRANCH   4  17
HETATM   17  C   UNL     1      -8.802  10.747  68.040  1.00  0.00    -0.132 C  
BRANCH  17  18
HETATM   18  N   UNL     1      -9.201   9.383  67.611  1.00  0.00    -0.128 NA 
HETATM   19  C   UNL     1      -6.831   7.606  67.759  1.00  0.00    -0.068 C  
HETATM   20  C   UNL     1      -8.488   8.964  66.391  1.00  0.00    -0.117 C  
HETATM   21  C   UNL     1      -7.013   8.609  66.621  1.00  0.00    -0.079 C  
HETATM   22  C   UNL     1      -7.622   8.013  68.997  1.00  0.00    -0.098 C  
HETATM   23  C   UNL     1      -9.072   8.327  68.629  1.00  0.00    -0.140 C  
ENDBRANCH  17  18
ENDBRANCH   4  17
TORSDOF 2
ENDMDL
MODEL       45
REMARK 921   NORMALIZED FREE ENERGY PREDICTED BY IDOCK:   -5.24 KCAL/MOL
REMARK 922        TOTAL FREE ENERGY PREDICTED BY IDOCK:   -6.32 KCAL/MOL
REMARK 923 INTER-LIGAND FREE ENERGY PREDICTED BY IDOCK:   -5.74 KCAL/MOL
REMARK 924 INTRA-LIGAND FREE ENERGY PREDICTED BY IDOCK:   -0.58 KCAL/MOL
REMARK 927      BINDING AFFINITY PREDICTED BY RF-SCORE:    0.00 PKD
ROOT
HETATM    1  O   UNL     1     -10.339  12.086  66.751  1.00  0.00    -0.204 OA 
HETATM    2  C   UNL     1     -10.335  13.486  67.054  1.00  0.00    -0.252 C  
HETATM    3  H   UNL     1     -11.242  11.790  66.721  1.00  0.00     0.000 HD 
HETATM    4  C   UNL     1      -8.856  13.970  67.102  1.00  0.00    -0.239 C  
HETATM    5  C   UNL     1     -11.089  14.278  65.897  1.00  0.00    -0.310 C  
HETATM    6  C   UNL     1     -11.054  13.671  68.405  1.00  0.00    -0.289 A  
HETATM    7  C   UNL     1     -10.458  14.185  64.485  1.00  0.00    -0.232 C  
HETATM    8  C   UNL     1     -11.640  12.577  69.072  1.00  0.00    -0.365 A  
HETATM    9  C   UNL     1     -11.950  15.113  70.161  1.00  0.00    -0.374 A  
HETATM   10  C   UNL     1     -11.204  14.942  68.986  1.00  0.00    -0.278 A  
HETATM   11  C   UNL     1     -12.380  12.750  70.244  1.00  0.00    -0.277 A  
HETATM   12  C   UNL     1     -10.613  12.822  63.822  1.00  0.00    -0.370 C  
HETATM   13  C   UNL     1     -12.585  13.946  65.730  1.00  0.00    -0.533 C  
HETATM   14  C   UNL     1     -12.544  14.020  70.783  1.00  0.00    -0.431 A  
HETATM   15  C   UNL     1     -12.063  12.352  63.781  1.00  0.00    -0.618 C  
HETATM   16  C   UNL     1     -12.869  12.607  65.055  1.00  0.00    -0.242 C  
ENDROOT
BRANCH   4  17
HETATM   17  C   UNL     1      -7.903  13.248  68.070  1.00  0.00    -0.148 C  
BRANCH  17  18
HETATM   18  N   UNL     1      -7.280  12.048  67.457  1.00  0.00    -0.117 NA 
HETATM   19  C   UNL     1      -5.660  10.657  69.516  1.00  0.00    -0.038 C  
HETATM   20  C   UNL     1      -5.809  12.137  67.453  1.00  0.00    -0.137 C  
HETATM   21  C   UNL     1      -5.169  11.933  68.833  1.00  0.00    -0.050 C  
HETATM   22  C   UNL     1      -7.180  10.542  69.459  1.00  0.00    -0.137 C  
HETATM   23  C   UNL     1      -7.682  10.753  68.031  1.00  0.00    -0.101 C  
ENDBRANCH  17  18
ENDBRANCH   4  17
TORSDOF 2
ENDMDL
MODEL       46
REMARK 921   NORMALIZED FREE ENERGY PREDICTED BY IDOCK:   -5.24 KCAL/MOL
REMARK 922        TOTAL FREE ENERGY PREDICTED BY IDOCK:   -6.32 KCAL/MOL
REMARK 923 INTER-LIGAND FREE ENERGY PREDICTED BY IDOCK:   -5.67 KCAL/MOL
REMARK 924 INTRA-LIGAND FREE ENERGY PREDICTED BY IDOCK:   -0.65 KCAL/MOL
REMARK 927      BINDING AFFINITY PREDICTED BY RF-SCORE:    0.00 PKD
ROOT
HETATM    1  O   UNL     1      -8.901  12.267  65.956  1.00  0.00    -0.414 OA 
HETATM    2  C   UNL     1     -10.193  11.747  66.294  1.00  0.00    -0.221 C  
HETATM    3  H   UNL     1      -8.280  11.547  65.964  1.00  0.00     0.000 HD 
HETATM    4  C   UNL     1     -11.211  12.925  66.282  1.00  0.00    -0.337 C  
HETATM    5  C   UNL     1     -10.637  10.683  65.196  1.00  0.00    -0.190 C  
HETATM    6  C   UNL     1     -10.080  11.088  67.683  1.00  0.00    -0.208 A  
HETATM    7  C   UNL     1     -10.802  11.223  63.753  1.00  0.00    -0.424 C  
HETATM    8  C   UNL     1      -8.841  11.006  68.350  1.00  0.00    -0.151 A  
HETATM    9  C   UNL     1     -11.056   9.804  69.517  1.00  0.00    -0.226 A  
HETATM   10  C   UNL     1     -11.192  10.492  68.303  1.00  0.00    -0.354 A  
HETATM   11  C   UNL     1      -8.710  10.323  69.561  1.00  0.00    -0.155 A  
HETATM   12  C   UNL     1      -9.488  11.569  63.064  1.00  0.00    -0.346 C  
HETATM   13  C   UNL     1      -9.753   9.424  65.094  1.00  0.00    -0.106 C  
HETATM   14  C   UNL     1      -9.815   9.712  70.140  1.00  0.00    -0.310 A  
HETATM   15  C   UNL     1      -8.494  10.413  63.082  1.00  0.00    -0.179 C  
HETATM   16  C   UNL     1      -8.412   9.642  64.401  1.00  0.00    -0.189 C  
ENDROOT
BRANCH   4  17
HETATM   17  C   UNL     1     -10.909  14.135  67.183  1.00  0.00    -0.290 C  
BRANCH  17  18
HETATM   18  N   UNL     1      -9.694  14.870  66.751  1.00  0.00    -0.242 NA 
HETATM   19  C   UNL     1     -10.417  17.706  66.269  1.00  0.00    -0.292 C  
HETATM   20  C   UNL     1      -9.832  15.397  65.381  1.00  0.00    -0.279 C  
HETATM   21  C   UNL     1     -10.771  16.606  65.270  1.00  0.00    -0.219 C  
HETATM   22  C   UNL     1     -10.214  17.144  67.672  1.00  0.00    -0.329 C  
HETATM   23  C   UNL     1      -9.252  15.957  67.641  1.00  0.00    -0.208 C  
ENDBRANCH  17  18
ENDBRANCH   4  17
TORSDOF 2
ENDMDL
MODEL       47
REMARK 921   NORMALIZED FREE ENERGY PREDICTED BY IDOCK:   -5.23 KCAL/MOL
REMARK 922        TOTAL FREE ENERGY PREDICTED BY IDOCK:   -6.30 KCAL/MOL
REMARK 923 INTER-LIGAND FREE ENERGY PREDICTED BY IDOCK:   -5.67 KCAL/MOL
REMARK 924 INTRA-LIGAND FREE ENERGY PREDICTED BY IDOCK:   -0.63 KCAL/MOL
REMARK 927      BINDING AFFINITY PREDICTED BY RF-SCORE:    0.00 PKD
ROOT
HETATM    1  O   UNL     1      -9.552  13.664  68.694  1.00  0.00    -0.333 OA 
HETATM    2  C   UNL     1     -10.797  13.039  68.360  1.00  0.00    -0.258 C  
HETATM    3  H   UNL     1      -9.524  14.516  68.272  1.00  0.00     0.000 HD 
HETATM    4  C   UNL     1     -10.843  11.644  69.050  1.00  0.00    -0.247 C  
HETATM    5  C   UNL     1     -11.997  13.921  68.921  1.00  0.00    -0.393 C  
HETATM    6  C   UNL     1     -10.865  12.931  66.824  1.00  0.00    -0.288 A  
HETATM    7  C   UNL     1     -12.052  14.096  70.459  1.00  0.00    -0.420 C  
HETATM    8  C   UNL     1      -9.850  13.474  66.011  1.00  0.00    -0.277 A  
HETATM    9  C   UNL     1     -12.071  12.347  64.781  1.00  0.00    -0.483 A  
HETATM   10  C   UNL     1     -11.969  12.346  66.180  1.00  0.00    -0.397 A  
HETATM   11  C   UNL     1      -9.952  13.471  64.619  1.00  0.00    -0.112 A  
HETATM   12  C   UNL     1     -10.963  15.000  71.022  1.00  0.00    -0.139 C  
HETATM   13  C   UNL     1     -12.125  15.333  68.314  1.00  0.00    -0.012 C  
HETATM   14  C   UNL     1     -11.068  12.918  64.002  1.00  0.00    -0.455 A  
HETATM   15  C   UNL     1     -10.920  16.363  70.339  1.00  0.00    -0.218 C  
HETATM   16  C   UNL     1     -11.094  16.338  68.820  1.00  0.00    -0.355 C  
ENDROOT
BRANCH   4  17
HETATM   17  C   UNL     1      -9.696  10.664  68.750  1.00  0.00    -0.189 C  
BRANCH  17  18
HETATM   18  N   UNL     1     -10.189   9.300  68.434  1.00  0.00    -0.195 NA 
HETATM   19  C   UNL     1      -8.163   7.918  66.765  1.00  0.00    -0.116 C  
HETATM   20  C   UNL     1     -10.395   9.116  66.986  1.00  0.00    -0.263 C  
HETATM   21  C   UNL     1      -9.094   8.980  66.183  1.00  0.00    -0.246 C  
HETATM   22  C   UNL     1      -8.005   8.077  68.273  1.00  0.00    -0.128 C  
HETATM   23  C   UNL     1      -9.372   8.188  68.948  1.00  0.00    -0.147 C  
ENDBRANCH  17  18
ENDBRANCH   4  17
TORSDOF 2
ENDMDL
MODEL       48
REMARK 921   NORMALIZED FREE ENERGY PREDICTED BY IDOCK:   -5.22 KCAL/MOL
REMARK 922        TOTAL FREE ENERGY PREDICTED BY IDOCK:   -6.29 KCAL/MOL
REMARK 923 INTER-LIGAND FREE ENERGY PREDICTED BY IDOCK:   -5.58 KCAL/MOL
REMARK 924 INTRA-LIGAND FREE ENERGY PREDICTED BY IDOCK:   -0.72 KCAL/MOL
REMARK 927      BINDING AFFINITY PREDICTED BY RF-SCORE:    0.00 PKD
ROOT
HETATM    1  O   UNL     1     -11.471   8.199  69.457  1.00  0.00    -0.412 OA 
HETATM    2  C   UNL     1     -10.576   8.813  70.392  1.00  0.00    -0.221 C  
HETATM    3  H   UNL     1     -11.681   7.328  69.775  1.00  0.00     0.000 HD 
HETATM    4  C   UNL     1     -10.232  10.240  69.873  1.00  0.00    -0.250 C  
HETATM    5  C   UNL     1     -11.299   8.949  71.804  1.00  0.00    -0.431 C  
HETATM    6  C   UNL     1      -9.327   7.915  70.499  1.00  0.00    -0.162 A  
HETATM    7  C   UNL     1     -12.565   9.841  71.837  1.00  0.00    -0.479 C  
HETATM    8  C   UNL     1      -9.253   6.689  69.807  1.00  0.00    -0.146 A  
HETATM    9  C   UNL     1      -7.166   7.382  71.505  1.00  0.00    -0.071 A  
HETATM   10  C   UNL     1      -8.250   8.256  71.335  1.00  0.00    -0.158 A  
HETATM   11  C   UNL     1      -8.171   5.823  69.977  1.00  0.00    -0.115 A  
HETATM   12  C   UNL     1     -13.774   9.232  71.138  1.00  0.00    -0.165 C  
HETATM   13  C   UNL     1     -11.681   7.620  72.485  1.00  0.00    -0.352 C  
HETATM   14  C   UNL     1      -7.132   6.163  70.834  1.00  0.00    -0.069 A  
HETATM   15  C   UNL     1     -14.103   7.833  71.648  1.00  0.00    -0.533 C  
HETATM   16  C   UNL     1     -12.897   6.922  71.883  1.00  0.00    -0.290 C  
ENDROOT
BRANCH   4  17
HETATM   17  C   UNL     1      -9.636  10.358  68.460  1.00  0.00    -0.158 C  
BRANCH  17  18
HETATM   18  N   UNL     1     -10.677  10.318  67.403  1.00  0.00    -0.275 NA 
HETATM   19  C   UNL     1     -10.422  12.746  65.719  1.00  0.00    -0.294 C  
HETATM   20  C   UNL     1     -11.630  11.435  67.531  1.00  0.00    -0.219 C  
HETATM   21  C   UNL     1     -11.057  12.794  67.107  1.00  0.00    -0.315 C  
HETATM   22  C   UNL     1      -9.485  11.551  65.573  1.00  0.00    -0.234 C  
HETATM   23  C   UNL     1     -10.183  10.265  66.017  1.00  0.00    -0.228 C  
ENDBRANCH  17  18
ENDBRANCH   4  17
TORSDOF 2
ENDMDL
MODEL       49
REMARK 921   NORMALIZED FREE ENERGY PREDICTED BY IDOCK:   -5.21 KCAL/MOL
REMARK 922        TOTAL FREE ENERGY PREDICTED BY IDOCK:   -6.29 KCAL/MOL
REMARK 923 INTER-LIGAND FREE ENERGY PREDICTED BY IDOCK:   -6.27 KCAL/MOL
REMARK 924 INTRA-LIGAND FREE ENERGY PREDICTED BY IDOCK:   -0.02 KCAL/MOL
REMARK 927      BINDING AFFINITY PREDICTED BY RF-SCORE:    0.00 PKD
ROOT
HETATM    1  O   UNL     1      -9.769  16.085  68.194  1.00  0.00    -0.214 OA 
HETATM    2  C   UNL     1      -9.459  15.833  66.818  1.00  0.00    -0.240 C  
HETATM    3  H   UNL     1      -9.860  15.249  68.636  1.00  0.00     0.000 HD 
HETATM    4  C   UNL     1      -9.308  17.203  66.093  1.00  0.00    -0.222 C  
HETATM    5  C   UNL     1      -8.073  15.056  66.724  1.00  0.00    -0.061 C  
HETATM    6  C   UNL     1     -10.605  14.986  66.232  1.00  0.00    -0.309 A  
HETATM    7  C   UNL     1      -6.832  15.807  67.268  1.00  0.00    -0.220 C  
HETATM    8  C   UNL     1     -11.665  14.535  67.044  1.00  0.00    -0.412 A  
HETATM    9  C   UNL     1     -11.593  13.723  64.388  1.00  0.00    -0.418 A  
HETATM   10  C   UNL     1     -10.601  14.581  64.885  1.00  0.00    -0.450 A  
HETATM   11  C   UNL     1     -12.653  13.684  66.545  1.00  0.00    -0.225 A  
HETATM   12  C   UNL     1      -6.798  15.934  68.786  1.00  0.00    -0.128 C  
HETATM   13  C   UNL     1      -8.052  13.654  67.365  1.00  0.00    -0.184 C  
HETATM   14  C   UNL     1     -12.612  13.269  65.220  1.00  0.00    -0.528 A  
HETATM   15  C   UNL     1      -6.950  14.590  69.491  1.00  0.00    -0.147 C  
HETATM   16  C   UNL     1      -7.997  13.652  68.890  1.00  0.00     0.061 C  
ENDROOT
BRANCH   4  17
HETATM   17  C   UNL     1     -10.494  18.180  66.166  1.00  0.00    -0.364 C  
BRANCH  17  18
HETATM   18  N   UNL     1     -10.059  19.575  66.428  1.00  0.00    -0.416 NA 
HETATM   19  C   UNL     1      -8.218  19.577  68.754  1.00  0.00    -0.348 C  
HETATM   20  C   UNL     1     -10.506  20.047  67.751  1.00  0.00    -0.318 C  
HETATM   21  C   UNL     1      -9.729  19.439  68.926  1.00  0.00    -0.502 C  
HETATM   22  C   UNL     1      -7.771  19.146  67.361  1.00  0.00    -0.261 C  
HETATM   23  C   UNL     1      -8.616  19.833  66.289  1.00  0.00    -0.364 C  
ENDBRANCH  17  18
ENDBRANCH   4  17
TORSDOF 2
ENDMDL
MODEL       50
REMARK 921   NORMALIZED FREE ENERGY PREDICTED BY IDOCK:   -5.20 KCAL/MOL
REMARK 922        TOTAL FREE ENERGY PREDICTED BY IDOCK:   -6.27 KCAL/MOL
REMARK 923 INTER-LIGAND FREE ENERGY PREDICTED BY IDOCK:   -5.77 KCAL/MOL
REMARK 924 INTRA-LIGAND FREE ENERGY PREDICTED BY IDOCK:   -0.50 KCAL/MOL
REMARK 927      BINDING AFFINITY PREDICTED BY RF-SCORE:    0.00 PKD
ROOT
HETATM    1  O   UNL     1     -10.085  14.186  69.393  1.00  0.00    -0.426 OA 
HETATM    2  C   UNL     1     -10.533  15.401  68.780  1.00  0.00    -0.231 C  
HETATM    3  H   UNL     1      -9.750  14.395  70.257  1.00  0.00     0.000 HD 
HETATM    4  C   UNL     1     -11.083  15.058  67.364  1.00  0.00    -0.324 C  
HETATM    5  C   UNL     1     -11.714  16.024  69.645  1.00  0.00    -0.278 C  
HETATM    6  C   UNL     1      -9.329  16.362  68.720  1.00  0.00    -0.245 A  
HETATM    7  C   UNL     1     -12.995  15.161  69.772  1.00  0.00     0.177 C  
HETATM    8  C   UNL     1      -8.088  16.009  69.287  1.00  0.00    -0.212 A  
HETATM    9  C   UNL     1      -8.373  18.549  68.201  1.00  0.00    -0.316 A  
HETATM   10  C   UNL     1      -9.444  17.644  68.156  1.00  0.00    -0.286 A  
HETATM   11  C   UNL     1      -7.023  16.910  69.328  1.00  0.00    -0.211 A  
HETATM   12  C   UNL     1     -12.830  13.932  70.657  1.00  0.00    -0.291 C  
HETATM   13  C   UNL     1     -11.335  16.457  71.075  1.00  0.00    -0.207 C  
HETATM   14  C   UNL     1      -7.168  18.185  68.795  1.00  0.00    -0.287 A  
HETATM   15  C   UNL     1     -12.287  14.273  72.040  1.00  0.00    -0.285 C  
HETATM   16  C   UNL     1     -11.162  15.308  72.063  1.00  0.00    -0.323 C  
ENDROOT
BRANCH   4  17
HETATM   17  C   UNL     1     -10.141  14.326  66.393  1.00  0.00    -0.288 C  
BRANCH  17  18
HETATM   18  N   UNL     1     -10.845  13.285  65.603  1.00  0.00    -0.276 NA 
HETATM   19  C   UNL     1     -10.705  10.714  67.076  1.00  0.00    -0.317 C  
HETATM   20  C   UNL     1      -9.930  12.213  65.174  1.00  0.00    -0.228 C  
HETATM   21  C   UNL     1      -9.508  11.264  66.304  1.00  0.00    -0.227 C  
HETATM   22  C   UNL     1     -11.680  11.822  67.462  1.00  0.00    -0.312 C  
HETATM   23  C   UNL     1     -12.025  12.681  66.245  1.00  0.00    -0.374 C  
ENDBRANCH  17  18
ENDBRANCH   4  17
TORSDOF 2
ENDMDL
MODEL       51
REMARK 921   NORMALIZED FREE ENERGY PREDICTED BY IDOCK:   -5.17 KCAL/MOL
REMARK 922        TOTAL FREE ENERGY PREDICTED BY IDOCK:   -6.24 KCAL/MOL
REMARK 923 INTER-LIGAND FREE ENERGY PREDICTED BY IDOCK:   -5.93 KCAL/MOL
REMARK 924 INTRA-LIGAND FREE ENERGY PREDICTED BY IDOCK:   -0.31 KCAL/MOL
REMARK 927      BINDING AFFINITY PREDICTED BY RF-SCORE:    0.00 PKD
ROOT
HETATM    1  O   UNL     1     -10.244  14.941  68.629  1.00  0.00    -0.222 OA 
HETATM    2  C   UNL     1      -9.304  15.357  67.631  1.00  0.00    -0.203 C  
HETATM    3  H   UNL     1     -11.114  15.189  68.339  1.00  0.00     0.000 HD 
HETATM    4  C   UNL     1      -7.877  14.951  68.105  1.00  0.00    -0.122 C  
HETATM    5  C   UNL     1      -9.617  14.604  66.264  1.00  0.00    -0.333 C  
HETATM    6  C   UNL     1      -9.449  16.883  67.464  1.00  0.00    -0.241 A  
HETATM    7  C   UNL     1      -9.492  13.060  66.294  1.00  0.00    -0.199 C  
HETATM    8  C   UNL     1     -10.436  17.601  68.169  1.00  0.00    -0.386 A  
HETATM    9  C   UNL     1      -8.859  18.968  66.336  1.00  0.00    -0.326 A  
HETATM   10  C   UNL     1      -8.648  17.599  66.557  1.00  0.00    -0.287 A  
HETATM   11  C   UNL     1     -10.642  18.964  67.948  1.00  0.00    -0.425 A  
HETATM   12  C   UNL     1     -10.597  12.361  67.075  1.00  0.00    -0.248 C  
HETATM   13  C   UNL     1     -10.986  14.920  65.629  1.00  0.00    -0.347 C  
HETATM   14  C   UNL     1      -9.861  19.646  67.024  1.00  0.00    -0.491 A  
HETATM   15  C   UNL     1     -11.991  12.766  66.609  1.00  0.00    -0.411 C  
HETATM   16  C   UNL     1     -12.175  14.256  66.316  1.00  0.00    -0.433 C  
ENDROOT
BRANCH   4  17
HETATM   17  C   UNL     1      -7.410  15.466  69.477  1.00  0.00    -0.209 C  
BRANCH  17  18
HETATM   18  N   UNL     1      -5.950  15.730  69.512  1.00  0.00    -0.132 NA 
HETATM   19  C   UNL     1      -5.430  18.380  68.283  1.00  0.00    -0.168 C  
HETATM   20  C   UNL     1      -5.382  15.841  68.157  1.00  0.00    -0.114 C  
HETATM   21  C   UNL     1      -5.739  17.147  67.435  1.00  0.00    -0.166 C  
HETATM   22  C   UNL     1      -5.966  18.231  69.703  1.00  0.00    -0.249 C  
HETATM   23  C   UNL     1      -5.528  16.896  70.306  1.00  0.00    -0.221 C  
ENDBRANCH  17  18
ENDBRANCH   4  17
TORSDOF 2
ENDMDL
MODEL       52
REMARK 921   NORMALIZED FREE ENERGY PREDICTED BY IDOCK:   -5.16 KCAL/MOL
REMARK 922        TOTAL FREE ENERGY PREDICTED BY IDOCK:   -6.23 KCAL/MOL
REMARK 923 INTER-LIGAND FREE ENERGY PREDICTED BY IDOCK:   -5.56 KCAL/MOL
REMARK 924 INTRA-LIGAND FREE ENERGY PREDICTED BY IDOCK:   -0.67 KCAL/MOL
REMARK 927      BINDING AFFINITY PREDICTED BY RF-SCORE:    0.00 PKD
ROOT
HETATM    1  O   UNL     1     -11.759  10.111  67.747  1.00  0.00    -0.594 OA 
HETATM    2  C   UNL     1     -10.353  10.138  68.018  1.00  0.00    -0.190 C  
HETATM    3  H   UNL     1     -12.199  10.643  68.401  1.00  0.00     0.000 HD 
HETATM    4  C   UNL     1      -9.633   9.269  66.947  1.00  0.00    -0.229 C  
HETATM    5  C   UNL     1      -9.821  11.634  67.897  1.00  0.00    -0.189 C  
HETATM    6  C   UNL     1     -10.145   9.596  69.446  1.00  0.00    -0.213 A  
HETATM    7  C   UNL     1      -9.959  12.294  66.502  1.00  0.00    -0.234 C  
HETATM    8  C   UNL     1     -11.243   9.253  70.261  1.00  0.00    -0.267 A  
HETATM    9  C   UNL     1      -8.690   9.088  71.341  1.00  0.00    -0.198 A  
HETATM   10  C   UNL     1      -8.861   9.484  70.007  1.00  0.00    -0.246 A  
HETATM   11  C   UNL     1     -11.069   8.857  71.588  1.00  0.00    -0.420 A  
HETATM   12  C   UNL     1     -11.391  12.642  66.117  1.00  0.00    -0.375 C  
HETATM   13  C   UNL     1     -10.408  12.633  68.915  1.00  0.00    -0.055 C  
HETATM   14  C   UNL     1      -9.793   8.785  72.133  1.00  0.00    -0.347 A  
HETATM   15  C   UNL     1     -12.093  13.491  67.172  1.00  0.00    -0.386 C  
HETATM   16  C   UNL     1     -11.839  13.074  68.621  1.00  0.00    -0.353 C  
ENDROOT
BRANCH   4  17
HETATM   17  C   UNL     1     -10.084   7.805  66.798  1.00  0.00    -0.270 C  
BRANCH  17  18
HETATM   18  N   UNL     1      -8.939   6.861  66.788  1.00  0.00    -0.127 NA 
HETATM   19  C   UNL     1      -9.859   4.237  67.820  1.00  0.00    -0.132 C  
HETATM   20  C   UNL     1      -8.588   6.414  68.148  1.00  0.00    -0.117 C  
HETATM   21  C   UNL     1      -9.583   5.415  68.753  1.00  0.00    -0.182 C  
HETATM   22  C   UNL     1     -10.160   4.704  66.400  1.00  0.00    -0.289 C  
HETATM   23  C   UNL     1      -9.088   5.682  65.919  1.00  0.00    -0.148 C  
ENDBRANCH  17  18
ENDBRANCH   4  17
TORSDOF 2
ENDMDL
MODEL       53
REMARK 921   NORMALIZED FREE ENERGY PREDICTED BY IDOCK:   -5.16 KCAL/MOL
REMARK 922        TOTAL FREE ENERGY PREDICTED BY IDOCK:   -6.23 KCAL/MOL
REMARK 923 INTER-LIGAND FREE ENERGY PREDICTED BY IDOCK:   -5.68 KCAL/MOL
REMARK 924 INTRA-LIGAND FREE ENERGY PREDICTED BY IDOCK:   -0.55 KCAL/MOL
REMARK 927      BINDING AFFINITY PREDICTED BY RF-SCORE:    0.00 PKD
ROOT
HETATM    1  O   UNL     1      -8.330  10.373  67.666  1.00  0.00    -0.114 OA 
HETATM    2  C   UNL     1      -9.721  10.676  67.502  1.00  0.00    -0.166 C  
HETATM    3  H   UNL     1      -8.255   9.474  67.964  1.00  0.00     0.000 HD 
HETATM    4  C   UNL     1      -9.846  12.149  67.014  1.00  0.00    -0.212 C  
HETATM    5  C   UNL     1     -10.341   9.720  66.391  1.00  0.00    -0.247 C  
HETATM    6  C   UNL     1     -10.408  10.453  68.864  1.00  0.00    -0.227 A  
HETATM    7  C   UNL     1      -9.746   9.855  64.967  1.00  0.00    -0.359 C  
HETATM    8  C   UNL     1      -9.689   9.953  69.968  1.00  0.00    -0.274 A  
HETATM    9  C   UNL     1     -12.420  10.375  70.248  1.00  0.00    -0.296 A  
HETATM   10  C   UNL     1     -11.785  10.680  69.035  1.00  0.00    -0.305 A  
HETATM   11  C   UNL     1     -10.324   9.653  71.175  1.00  0.00    -0.236 A  
HETATM   12  C   UNL     1      -8.333   9.303  64.829  1.00  0.00    -0.167 C  
HETATM   13  C   UNL     1     -10.333   8.216  66.728  1.00  0.00    -0.361 C  
HETATM   14  C   UNL     1     -11.691   9.853  71.312  1.00  0.00    -0.472 A  
HETATM   15  C   UNL     1      -8.216   7.862  65.312  1.00  0.00    -0.147 C  
HETATM   16  C   UNL     1      -8.969   7.543  66.604  1.00  0.00    -0.177 C  
ENDROOT
BRANCH   4  17
HETATM   17  C   UNL     1      -9.196  13.243  67.879  1.00  0.00    -0.213 C  
BRANCH  17  18
HETATM   18  N   UNL     1      -9.662  14.603  67.512  1.00  0.00    -0.209 NA 
HETATM   19  C   UNL     1     -11.561  15.552  69.584  1.00  0.00    -0.359 C  
HETATM   20  C   UNL     1     -11.113  14.633  67.256  1.00  0.00    -0.328 C  
HETATM   21  C   UNL     1     -11.972  14.532  68.523  1.00  0.00    -0.321 C  
HETATM   22  C   UNL     1     -10.051  15.559  69.798  1.00  0.00    -0.291 C  
HETATM   23  C   UNL     1      -9.319  15.676  68.461  1.00  0.00    -0.197 C  
ENDBRANCH  17  18
ENDBRANCH   4  17
TORSDOF 2
ENDMDL
MODEL       54
REMARK 921   NORMALIZED FREE ENERGY PREDICTED BY IDOCK:   -5.15 KCAL/MOL
REMARK 922        TOTAL FREE ENERGY PREDICTED BY IDOCK:   -6.22 KCAL/MOL
REMARK 923 INTER-LIGAND FREE ENERGY PREDICTED BY IDOCK:   -5.81 KCAL/MOL
REMARK 924 INTRA-LIGAND FREE ENERGY PREDICTED BY IDOCK:   -0.41 KCAL/MOL
REMARK 927      BINDING AFFINITY PREDICTED BY RF-SCORE:    0.00 PKD
ROOT
HETATM    1  O   UNL     1      -8.940  12.555  66.301  1.00  0.00    -0.396 OA 
HETATM    2  C   UNL     1     -10.103  11.897  66.816  1.00  0.00    -0.202 C  
HETATM    3  H   UNL     1      -8.293  11.891  66.087  1.00  0.00     0.000 HD 
HETATM    4  C   UNL     1     -11.162  12.983  67.166  1.00  0.00    -0.322 C  
HETATM    5  C   UNL     1     -10.709  10.942  65.695  1.00  0.00    -0.178 C  
HETATM    6  C   UNL     1      -9.669  11.086  68.053  1.00  0.00    -0.181 A  
HETATM    7  C   UNL     1     -11.199  11.637  64.401  1.00  0.00    -0.360 C  
HETATM    8  C   UNL     1      -8.316  11.023  68.442  1.00  0.00    -0.139 A  
HETATM    9  C   UNL     1     -10.172   9.515  69.855  1.00  0.00    -0.261 A  
HETATM   10  C   UNL     1     -10.594  10.332  68.796  1.00  0.00    -0.231 A  
HETATM   11  C   UNL     1      -7.900  10.211  69.499  1.00  0.00    -0.165 A  
HETATM   12  C   UNL     1     -10.077  12.168  63.516  1.00  0.00    -0.410 C  
HETATM   13  C   UNL     1      -9.800   9.779  65.251  1.00  0.00    -0.335 C  
HETATM   14  C   UNL     1      -8.826   9.448  70.199  1.00  0.00    -0.249 A  
HETATM   15  C   UNL     1      -9.042  11.101  63.180  1.00  0.00    -0.243 C  
HETATM   16  C   UNL     1      -8.646  10.185  64.339  1.00  0.00    -0.199 C  
ENDROOT
BRANCH   4  17
HETATM   17  C   UNL     1     -10.744  14.095  68.143  1.00  0.00    -0.245 C  
BRANCH  17  18
HETATM   18  N   UNL     1     -11.878  14.981  68.507  1.00  0.00    -0.319 NA 
HETATM   19  C   UNL     1     -11.461  15.977  71.270  1.00  0.00    -0.475 C  
HETATM   20  C   UNL     1     -12.655  14.438  69.636  1.00  0.00    -0.062 C  
HETATM   21  C   UNL     1     -11.949  14.556  70.993  1.00  0.00    -0.394 C  
HETATM   22  C   UNL     1     -10.712  16.555  70.074  1.00  0.00    -0.222 C  
HETATM   23  C   UNL     1     -11.530  16.383  68.794  1.00  0.00    -0.222 C  
ENDBRANCH  17  18
ENDBRANCH   4  17
TORSDOF 2
ENDMDL
MODEL       55
REMARK 921   NORMALIZED FREE ENERGY PREDICTED BY IDOCK:   -5.11 KCAL/MOL
REMARK 922        TOTAL FREE ENERGY PREDICTED BY IDOCK:   -6.18 KCAL/MOL
REMARK 923 INTER-LIGAND FREE ENERGY PREDICTED BY IDOCK:   -5.44 KCAL/MOL
REMARK 924 INTRA-LIGAND FREE ENERGY PREDICTED BY IDOCK:   -0.74 KCAL/MOL
REMARK 927      BINDING AFFINITY PREDICTED BY RF-SCORE:    0.00 PKD
ROOT
HETATM    1  O   UNL     1      -7.920  15.102  66.348  1.00  0.00    -0.262 OA 
HETATM    2  C   UNL     1      -8.850  14.646  67.337  1.00  0.00    -0.195 C  
HETATM    3  H   UNL     1      -8.297  15.857  65.911  1.00  0.00     0.000 HD 
HETATM    4  C   UNL     1      -8.232  13.410  68.055  1.00  0.00    -0.161 C  
HETATM    5  C   UNL     1      -9.078  15.795  68.416  1.00  0.00    -0.188 C  
HETATM    6  C   UNL     1     -10.167  14.303  66.614  1.00  0.00    -0.272 A  
HETATM    7  C   UNL     1      -7.830  16.225  69.227  1.00  0.00    -0.179 C  
HETATM    8  C   UNL     1     -10.317  14.530  65.231  1.00  0.00    -0.435 A  
HETATM    9  C   UNL     1     -12.507  13.602  66.667  1.00  0.00    -0.291 A  
HETATM   10  C   UNL     1     -11.282  13.812  67.317  1.00  0.00    -0.329 A  
HETATM   11  C   UNL     1     -11.537  14.317  64.587  1.00  0.00    -0.415 A  
HETATM   12  C   UNL     1      -6.806  17.015  68.421  1.00  0.00    -0.170 C  
HETATM   13  C   UNL     1      -9.721  17.091  67.881  1.00  0.00    -0.263 C  
HETATM   14  C   UNL     1     -12.636  13.864  65.306  1.00  0.00    -0.508 A  
HETATM   15  C   UNL     1      -7.417  18.222  67.718  1.00  0.00    -0.224 C  
HETATM   16  C   UNL     1      -8.782  17.980  67.071  1.00  0.00    -0.253 C  
ENDROOT
BRANCH   4  17
HETATM   17  C   UNL     1      -7.811  12.217  67.179  1.00  0.00    -0.149 C  
BRANCH  17  18
HETATM   18  N   UNL     1      -8.046  10.915  67.851  1.00  0.00    -0.111 NA 
HETATM   19  C   UNL     1      -9.819   9.265  66.137  1.00  0.00    -0.363 C  
HETATM   20  C   UNL     1      -9.468  10.724  68.190  1.00  0.00    -0.158 C  
HETATM   21  C   UNL     1     -10.362  10.417  66.981  1.00  0.00    -0.295 C  
HETATM   22  C   UNL     1      -8.332   9.438  65.844  1.00  0.00    -0.125 C  
HETATM   23  C   UNL     1      -7.560   9.725  67.131  1.00  0.00    -0.092 C  
ENDBRANCH  17  18
ENDBRANCH   4  17
TORSDOF 2
ENDMDL
MODEL       56
REMARK 921   NORMALIZED FREE ENERGY PREDICTED BY IDOCK:   -5.08 KCAL/MOL
REMARK 922        TOTAL FREE ENERGY PREDICTED BY IDOCK:   -6.14 KCAL/MOL
REMARK 923 INTER-LIGAND FREE ENERGY PREDICTED BY IDOCK:   -6.28 KCAL/MOL
REMARK 924 INTRA-LIGAND FREE ENERGY PREDICTED BY IDOCK:    0.14 KCAL/MOL
REMARK 927      BINDING AFFINITY PREDICTED BY RF-SCORE:    0.00 PKD
ROOT
HETATM    1  O   UNL     1     -11.193  15.788  67.455  1.00  0.00    -0.308 OA 
HETATM    2  C   UNL     1     -10.938  14.479  67.978  1.00  0.00    -0.260 C  
HETATM    3  H   UNL     1     -11.004  16.422  68.137  1.00  0.00     0.000 HD 
HETATM    4  C   UNL     1     -11.247  13.439  66.862  1.00  0.00    -0.330 C  
HETATM    5  C   UNL     1      -9.400  14.358  68.371  1.00  0.00    -0.206 C  
HETATM    6  C   UNL     1     -11.837  14.290  69.216  1.00  0.00    -0.372 A  
HETATM    7  C   UNL     1      -8.386  14.515  67.210  1.00  0.00    -0.232 C  
HETATM    8  C   UNL     1     -12.654  15.337  69.688  1.00  0.00    -0.087 A  
HETATM    9  C   UNL     1     -12.571  12.967  71.135  1.00  0.00    -0.388 A  
HETATM   10  C   UNL     1     -11.828  13.092  69.951  1.00  0.00    -0.377 A  
HETATM   11  C   UNL     1     -13.394  15.209  70.865  1.00  0.00    -0.463 A  
HETATM   12  C   UNL     1      -8.266  15.937  66.677  1.00  0.00    -0.317 C  
HETATM   13  C   UNL     1      -8.926  15.299  69.497  1.00  0.00    -0.183 C  
HETATM   14  C   UNL     1     -13.344  14.029  71.595  1.00  0.00    -0.442 A  
HETATM   15  C   UNL     1      -7.967  16.952  67.776  1.00  0.00    -0.188 C  
HETATM   16  C   UNL     1      -8.747  16.755  69.077  1.00  0.00    -0.176 C  
ENDROOT
BRANCH   4  17
HETATM   17  C   UNL     1     -12.653  13.461  66.238  1.00  0.00    -0.168 C  
BRANCH  17  18
HETATM   18  N   UNL     1     -12.622  13.796  64.792  1.00  0.00    -0.646 NA 
HETATM   19  C   UNL     1     -10.639  12.046  63.449  1.00  0.00    -0.478 C  
HETATM   20  C   UNL     1     -11.306  14.316  64.379  1.00  0.00    -0.273 C  
HETATM   21  C   UNL     1     -10.211  13.245  64.294  1.00  0.00    -0.221 C  
HETATM   22  C   UNL     1     -12.028  11.553  63.840  1.00  0.00    -0.164 C  
HETATM   23  C   UNL     1     -13.020  12.715  63.875  1.00  0.00    -0.001 C  
ENDBRANCH  17  18
ENDBRANCH   4  17
TORSDOF 2
ENDMDL
MODEL       57
REMARK 921   NORMALIZED FREE ENERGY PREDICTED BY IDOCK:   -5.07 KCAL/MOL
REMARK 922        TOTAL FREE ENERGY PREDICTED BY IDOCK:   -6.13 KCAL/MOL
REMARK 923 INTER-LIGAND FREE ENERGY PREDICTED BY IDOCK:   -5.89 KCAL/MOL
REMARK 924 INTRA-LIGAND FREE ENERGY PREDICTED BY IDOCK:   -0.25 KCAL/MOL
REMARK 927      BINDING AFFINITY PREDICTED BY RF-SCORE:    0.00 PKD
ROOT
HETATM    1  O   UNL     1     -11.226  11.847  66.993  1.00  0.00    -0.285 OA 
HETATM    2  C   UNL     1     -10.372  12.996  66.923  1.00  0.00    -0.245 C  
HETATM    3  H   UNL     1     -12.125  12.139  66.898  1.00  0.00     0.000 HD 
HETATM    4  C   UNL     1      -8.899  12.519  67.079  1.00  0.00    -0.212 C  
HETATM    5  C   UNL     1     -10.533  13.686  65.497  1.00  0.00    -0.314 C  
HETATM    6  C   UNL     1     -10.796  13.959  68.050  1.00  0.00    -0.259 A  
HETATM    7  C   UNL     1     -10.125  12.826  64.275  1.00  0.00    -0.277 C  
HETATM    8  C   UNL     1     -11.902  13.671  68.874  1.00  0.00    -0.402 A  
HETATM    9  C   UNL     1     -10.594  16.098  69.213  1.00  0.00    -0.280 A  
HETATM   10  C   UNL     1     -10.135  15.183  68.254  1.00  0.00    -0.223 A  
HETATM   11  C   UNL     1     -12.355  14.583  69.830  1.00  0.00    -0.317 A  
HETATM   12  C   UNL     1     -11.087  11.685  63.968  1.00  0.00    -0.458 C  
HETATM   13  C   UNL     1     -11.933  14.253  65.187  1.00  0.00    -0.395 C  
HETATM   14  C   UNL     1     -11.708  15.802  69.992  1.00  0.00    -0.362 A  
HETATM   15  C   UNL     1     -12.529  12.158  63.820  1.00  0.00    -0.620 C  
HETATM   16  C   UNL     1     -12.983  13.201  64.842  1.00  0.00    -0.213 C  
ENDROOT
BRANCH   4  17
HETATM   17  C   UNL     1      -8.542  11.709  68.337  1.00  0.00    -0.156 C  
BRANCH  17  18
HETATM   18  N   UNL     1      -7.673  10.546  68.031  1.00  0.00    -0.092 NA 
HETATM   19  C   UNL     1      -9.212   8.613  66.389  1.00  0.00    -0.245 C  
HETATM   20  C   UNL     1      -8.200   9.301  68.618  1.00  0.00    -0.113 C  
HETATM   21  C   UNL     1      -9.434   8.744  67.895  1.00  0.00    -0.160 C  
HETATM   22  C   UNL     1      -8.608   9.883  65.800  1.00  0.00    -0.151 C  
HETATM   23  C   UNL     1      -7.384  10.319  66.605  1.00  0.00    -0.109 C  
ENDBRANCH  17  18
ENDBRANCH   4  17
TORSDOF 2
ENDMDL
MODEL       58
REMARK 921   NORMALIZED FREE ENERGY PREDICTED BY IDOCK:   -5.07 KCAL/MOL
REMARK 922        TOTAL FREE ENERGY PREDICTED BY IDOCK:   -6.12 KCAL/MOL
REMARK 923 INTER-LIGAND FREE ENERGY PREDICTED BY IDOCK:   -5.67 KCAL/MOL
REMARK 924 INTRA-LIGAND FREE ENERGY PREDICTED BY IDOCK:   -0.45 KCAL/MOL
REMARK 927      BINDING AFFINITY PREDICTED BY RF-SCORE:    0.00 PKD
ROOT
HETATM    1  O   UNL     1      -9.549  13.997  68.853  1.00  0.00    -0.371 OA 
HETATM    2  C   UNL     1     -10.766  13.621  68.196  1.00  0.00    -0.248 C  
HETATM    3  H   UNL     1      -8.932  14.289  68.192  1.00  0.00     0.000 HD 
HETATM    4  C   UNL     1     -11.777  13.143  69.279  1.00  0.00    -0.376 C  
HETATM    5  C   UNL     1     -11.379  14.891  67.457  1.00  0.00    -0.351 C  
HETATM    6  C   UNL     1     -10.424  12.509  67.186  1.00  0.00    -0.237 A  
HETATM    7  C   UNL     1     -11.781  16.080  68.365  1.00  0.00    -0.196 C  
HETATM    8  C   UNL     1      -9.092  12.093  66.985  1.00  0.00    -0.198 A  
HETATM    9  C   UNL     1     -11.081  10.980  65.397  1.00  0.00     0.001 A  
HETATM   10  C   UNL     1     -11.417  11.916  66.386  1.00  0.00    -0.371 A  
HETATM   11  C   UNL     1      -8.761  11.159  66.001  1.00  0.00    -0.185 A  
HETATM   12  C   UNL     1     -10.599  16.840  68.953  1.00  0.00    -0.350 C  
HETATM   13  C   UNL     1     -10.519  15.478  66.320  1.00  0.00    -0.313 C  
HETATM   14  C   UNL     1      -9.754  10.610  65.199  1.00  0.00    -0.327 A  
HETATM   15  C   UNL     1      -9.610  17.303  67.888  1.00  0.00    -0.269 C  
HETATM   16  C   UNL     1      -9.310  16.283  66.789  1.00  0.00    -0.258 C  
ENDROOT
BRANCH   4  17
HETATM   17  C   UNL     1     -11.336  11.997  70.206  1.00  0.00     0.310 C  
BRANCH  17  18
HETATM   18  N   UNL     1     -11.815  10.674  69.734  1.00  0.00    -0.297 NA 
HETATM   19  C   UNL     1     -11.833   8.792  72.026  1.00  0.00    -0.442 C  
HETATM   20  C   UNL     1     -10.778   9.636  69.873  1.00  0.00    -0.252 C  
HETATM   21  C   UNL     1     -10.537   9.185  71.320  1.00  0.00    -0.399 C  
HETATM   22  C   UNL     1     -12.921   9.841  71.825  1.00  0.00    -0.536 C  
HETATM   23  C   UNL     1     -13.064  10.189  70.344  1.00  0.00    -0.007 C  
ENDBRANCH  17  18
ENDBRANCH   4  17
TORSDOF 2
ENDMDL
MODEL       59
REMARK 921   NORMALIZED FREE ENERGY PREDICTED BY IDOCK:   -5.06 KCAL/MOL
REMARK 922        TOTAL FREE ENERGY PREDICTED BY IDOCK:   -6.12 KCAL/MOL
REMARK 923 INTER-LIGAND FREE ENERGY PREDICTED BY IDOCK:   -5.51 KCAL/MOL
REMARK 924 INTRA-LIGAND FREE ENERGY PREDICTED BY IDOCK:   -0.61 KCAL/MOL
REMARK 927      BINDING AFFINITY PREDICTED BY RF-SCORE:    0.00 PKD
ROOT
HETATM    1  O   UNL     1      -9.185  14.454  66.054  1.00  0.00    -0.499 OA 
HETATM    2  C   UNL     1      -9.289  14.985  67.381  1.00  0.00    -0.201 C  
HETATM    3  H   UNL     1      -9.005  13.523  66.120  1.00  0.00     0.000 HD 
HETATM    4  C   UNL     1      -9.583  16.510  67.275  1.00  0.00    -0.242 C  
HETATM    5  C   UNL     1     -10.505  14.286  68.134  1.00  0.00    -0.246 C  
HETATM    6  C   UNL     1      -7.958  14.697  68.102  1.00  0.00    -0.136 A  
HETATM    7  C   UNL     1     -11.908  14.511  67.517  1.00  0.00    -0.404 C  
HETATM    8  C   UNL     1      -6.936  13.955  67.475  1.00  0.00    -0.162 A  
HETATM    9  C   UNL     1      -6.568  14.751  70.111  1.00  0.00    -0.145 A  
HETATM   10  C   UNL     1      -7.740  15.108  69.429  1.00  0.00    -0.213 A  
HETATM   11  C   UNL     1      -5.769  13.603  68.156  1.00  0.00    -0.116 A  
HETATM   12  C   UNL     1     -12.135  13.771  66.204  1.00  0.00    -0.477 C  
HETATM   13  C   UNL     1     -10.363  12.768  68.360  1.00  0.00    -0.248 C  
HETATM   14  C   UNL     1      -5.589  13.991  69.478  1.00  0.00    -0.088 A  
HETATM   15  C   UNL     1     -11.842  12.278  66.314  1.00  0.00    -0.387 C  
HETATM   16  C   UNL     1     -10.591  11.916  67.115  1.00  0.00    -0.264 C  
ENDROOT
BRANCH   4  17
HETATM   17  C   UNL     1      -8.594  17.371  66.469  1.00  0.00    -0.261 C  
BRANCH  17  18
HETATM   18  N   UNL     1      -7.925  18.395  67.310  1.00  0.00    -0.233 NA 
HETATM   19  C   UNL     1      -5.580  19.455  65.833  1.00  0.00    -0.174 C  
HETATM   20  C   UNL     1      -6.554  17.993  67.672  1.00  0.00    -0.185 C  
HETATM   21  C   UNL     1      -5.550  18.088  66.515  1.00  0.00    -0.197 C  
HETATM   22  C   UNL     1      -7.007  19.892  65.518  1.00  0.00    -0.336 C  
HETATM   23  C   UNL     1      -7.895  19.759  66.756  1.00  0.00    -0.291 C  
ENDBRANCH  17  18
ENDBRANCH   4  17
TORSDOF 2
ENDMDL
MODEL       60
REMARK 921   NORMALIZED FREE ENERGY PREDICTED BY IDOCK:   -5.05 KCAL/MOL
REMARK 922        TOTAL FREE ENERGY PREDICTED BY IDOCK:   -6.11 KCAL/MOL
REMARK 923 INTER-LIGAND FREE ENERGY PREDICTED BY IDOCK:   -5.69 KCAL/MOL
REMARK 924 INTRA-LIGAND FREE ENERGY PREDICTED BY IDOCK:   -0.42 KCAL/MOL
REMARK 927      BINDING AFFINITY PREDICTED BY RF-SCORE:    0.00 PKD
ROOT
HETATM    1  O   UNL     1     -11.407   8.132  69.563  1.00  0.00    -0.444 OA 
HETATM    2  C   UNL     1      -9.997   8.075  69.316  1.00  0.00    -0.191 C  
HETATM    3  H   UNL     1     -11.717   7.248  69.722  1.00  0.00     0.000 HD 
HETATM    4  C   UNL     1      -9.488   9.523  69.054  1.00  0.00    -0.158 C  
HETATM    5  C   UNL     1      -9.258   7.505  70.606  1.00  0.00    -0.159 C  
HETATM    6  C   UNL     1      -9.775   7.152  68.102  1.00  0.00    -0.147 A  
HETATM    7  C   UNL     1      -9.391   8.351  71.896  1.00  0.00    -0.313 C  
HETATM    8  C   UNL     1     -10.853   6.478  67.494  1.00  0.00    -0.433 A  
HETATM    9  C   UNL     1      -8.285   5.977  66.563  1.00  0.00    -0.107 A  
HETATM   10  C   UNL     1      -8.486   6.900  67.600  1.00  0.00    -0.122 A  
HETATM   11  C   UNL     1     -10.650   5.562  66.460  1.00  0.00    -0.343 A  
HETATM   12  C   UNL     1     -10.779   8.315  72.524  1.00  0.00    -0.411 C  
HETATM   13  C   UNL     1      -9.619   6.057  70.992  1.00  0.00    -0.197 C  
HETATM   14  C   UNL     1      -9.365   5.302  66.001  1.00  0.00    -0.167 A  
HETATM   15  C   UNL     1     -11.273   6.894  72.774  1.00  0.00    -0.277 C  
HETATM   16  C   UNL     1     -10.986   5.896  71.652  1.00  0.00    -0.327 C  
ENDROOT
BRANCH   4  17
HETATM   17  C   UNL     1     -10.161  10.320  67.923  1.00  0.00    -0.170 C  
BRANCH  17  18
HETATM   18  N   UNL     1     -10.506  11.703  68.336  1.00  0.00    -0.205 NA 
HETATM   19  C   UNL     1     -10.534  13.438  65.930  1.00  0.00    -0.287 C  
HETATM   20  C   UNL     1      -9.406  12.645  68.066  1.00  0.00    -0.209 C  
HETATM   21  C   UNL     1      -9.227  12.987  66.581  1.00  0.00    -0.222 C  
HETATM   22  C   UNL     1     -11.682  12.492  66.266  1.00  0.00    -0.462 C  
HETATM   23  C   UNL     1     -11.753  12.248  67.773  1.00  0.00    -0.337 C  
ENDBRANCH  17  18
ENDBRANCH   4  17
TORSDOF 2
ENDMDL
MODEL       61
REMARK 921   NORMALIZED FREE ENERGY PREDICTED BY IDOCK:   -5.04 KCAL/MOL
REMARK 922        TOTAL FREE ENERGY PREDICTED BY IDOCK:   -6.09 KCAL/MOL
REMARK 923 INTER-LIGAND FREE ENERGY PREDICTED BY IDOCK:   -5.55 KCAL/MOL
REMARK 924 INTRA-LIGAND FREE ENERGY PREDICTED BY IDOCK:   -0.54 KCAL/MOL
REMARK 927      BINDING AFFINITY PREDICTED BY RF-SCORE:    0.00 PKD
ROOT
HETATM    1  O   UNL     1     -11.362   8.396  69.017  1.00  0.00    -0.294 OA 
HETATM    2  C   UNL     1     -10.491   9.485  69.347  1.00  0.00    -0.217 C  
HETATM    3  H   UNL     1     -11.151   7.664  69.586  1.00  0.00     0.000 HD 
HETATM    4  C   UNL     1     -10.836  10.684  68.417  1.00  0.00    -0.282 C  
HETATM    5  C   UNL     1     -10.745   9.925  70.856  1.00  0.00    -0.305 C  
HETATM    6  C   UNL     1      -9.042   8.995  69.155  1.00  0.00    -0.140 A  
HETATM    7  C   UNL     1     -12.165  10.453  71.181  1.00  0.00    -0.498 C  
HETATM    8  C   UNL     1      -8.767   7.660  68.798  1.00  0.00    -0.128 A  
HETATM    9  C   UNL     1      -6.631   9.360  69.312  1.00  0.00    -0.048 A  
HETATM   10  C   UNL     1      -7.946   9.844  69.389  1.00  0.00    -0.135 A  
HETATM   11  C   UNL     1      -7.458   7.182  68.720  1.00  0.00    -0.102 A  
HETATM   12  C   UNL     1     -13.243   9.376  71.184  1.00  0.00    -0.288 C  
HETATM   13  C   UNL     1     -10.418   8.861  71.923  1.00  0.00    -0.415 C  
HETATM   14  C   UNL     1      -6.389   8.028  68.988  1.00  0.00    -0.040 A  
HETATM   15  C   UNL     1     -12.898   8.203  72.094  1.00  0.00    -0.311 C  
HETATM   16  C   UNL     1     -11.443   7.736  72.035  1.00  0.00    -0.337 C  
ENDROOT
BRANCH   4  17
HETATM   17  C   UNL     1     -10.782  10.445  66.898  1.00  0.00    -0.207 C  
BRANCH  17  18
HETATM   18  N   UNL     1      -9.780  11.310  66.227  1.00  0.00    -0.209 NA 
HETATM   19  C   UNL     1      -9.764  10.677  63.329  1.00  0.00    -0.385 C  
HETATM   20  C   UNL     1      -8.690  10.520  65.628  1.00  0.00    -0.180 C  
HETATM   21  C   UNL     1      -9.093   9.765  64.354  1.00  0.00    -0.296 C  
HETATM   22  C   UNL     1     -10.848  11.537  63.969  1.00  0.00    -0.453 C  
HETATM   23  C   UNL     1     -10.311  12.240  65.216  1.00  0.00    -0.281 C  
ENDBRANCH  17  18
ENDBRANCH   4  17
TORSDOF 2
ENDMDL
MODEL       62
REMARK 921   NORMALIZED FREE ENERGY PREDICTED BY IDOCK:   -5.03 KCAL/MOL
REMARK 922        TOTAL FREE ENERGY PREDICTED BY IDOCK:   -6.08 KCAL/MOL
REMARK 923 INTER-LIGAND FREE ENERGY PREDICTED BY IDOCK:   -5.33 KCAL/MOL
REMARK 924 INTRA-LIGAND FREE ENERGY PREDICTED BY IDOCK:   -0.75 KCAL/MOL
REMARK 927      BINDING AFFINITY PREDICTED BY RF-SCORE:    0.00 PKD
ROOT
HETATM    1  O   UNL     1     -11.078   6.206  67.206  1.00  0.00    -0.479 OA 
HETATM    2  C   UNL     1     -10.145   6.543  68.240  1.00  0.00    -0.159 C  
HETATM    3  H   UNL     1     -10.715   6.489  66.374  1.00  0.00     0.000 HD 
HETATM    4  C   UNL     1     -10.738   6.080  69.602  1.00  0.00    -0.405 C  
HETATM    5  C   UNL     1      -8.778   5.765  67.991  1.00  0.00    -0.103 C  
HETATM    6  C   UNL     1      -9.926   8.068  68.188  1.00  0.00    -0.217 A  
HETATM    7  C   UNL     1      -8.858   4.219  68.033  1.00  0.00    -0.129 C  
HETATM    8  C   UNL     1     -10.534   8.856  67.190  1.00  0.00    -0.344 A  
HETATM    9  C   UNL     1      -8.793  10.086  68.971  1.00  0.00    -0.159 A  
HETATM   10  C   UNL     1      -9.066   8.715  69.092  1.00  0.00    -0.142 A  
HETATM   11  C   UNL     1     -10.262  10.221  67.073  1.00  0.00    -0.282 A  
HETATM   12  C   UNL     1      -9.570   3.601  66.836  1.00  0.00    -0.180 C  
HETATM   13  C   UNL     1      -8.031   6.131  66.693  1.00  0.00    -0.105 C  
HETATM   14  C   UNL     1      -9.383  10.834  67.957  1.00  0.00    -0.152 A  
HETATM   15  C   UNL     1      -8.987   4.062  65.504  1.00  0.00    -0.131 C  
HETATM   16  C   UNL     1      -8.642   5.549  65.422  1.00  0.00    -0.151 C  
ENDROOT
BRANCH   4  17
HETATM   17  C   UNL     1     -12.128   6.612  69.991  1.00  0.00     0.036 C  
BRANCH  17  18
HETATM   18  N   UNL     1     -12.259   6.829  71.454  1.00  0.00    -0.360 NA 
HETATM   19  C   UNL     1     -13.074   9.641  71.930  1.00  0.00    -0.530 C  
HETATM   20  C   UNL     1     -11.293   7.827  71.947  1.00  0.00    -0.270 C  
HETATM   21  C   UNL     1     -11.638   9.272  71.563  1.00  0.00    -0.452 C  
HETATM   22  C   UNL     1     -14.062   8.573  71.472  1.00  0.00    -0.428 C  
HETATM   23  C   UNL     1     -13.606   7.188  71.930  1.00  0.00    -0.190 C  
ENDBRANCH  17  18
ENDBRANCH   4  17
TORSDOF 2
ENDMDL
MODEL       63
REMARK 921   NORMALIZED FREE ENERGY PREDICTED BY IDOCK:   -5.01 KCAL/MOL
REMARK 922        TOTAL FREE ENERGY PREDICTED BY IDOCK:   -6.06 KCAL/MOL
REMARK 923 INTER-LIGAND FREE ENERGY PREDICTED BY IDOCK:   -5.66 KCAL/MOL
REMARK 924 INTRA-LIGAND FREE ENERGY PREDICTED BY IDOCK:   -0.39 KCAL/MOL
REMARK 927      BINDING AFFINITY PREDICTED BY RF-SCORE:    0.00 PKD
ROOT
HETATM    1  O   UNL     1     -10.101  12.630  68.852  1.00  0.00    -0.412 OA 
HETATM    2  C   UNL     1      -9.362  13.202  67.766  1.00  0.00    -0.206 C  
HETATM    3  H   UNL     1     -10.618  11.908  68.513  1.00  0.00     0.000 HD 
HETATM    4  C   UNL     1      -8.514  14.383  68.322  1.00  0.00    -0.165 C  
HETATM    5  C   UNL     1      -8.374  12.107  67.166  1.00  0.00    -0.183 C  
HETATM    6  C   UNL     1     -10.380  13.664  66.705  1.00  0.00    -0.275 A  
HETATM    7  C   UNL     1      -7.288  11.568  68.131  1.00  0.00    -0.094 C  
HETATM    8  C   UNL     1     -11.759  13.422  66.866  1.00  0.00    -0.434 A  
HETATM    9  C   UNL     1     -10.889  14.604  64.508  1.00  0.00    -0.209 A  
HETATM   10  C   UNL     1      -9.964  14.283  65.513  1.00  0.00    -0.341 A  
HETATM   11  C   UNL     1     -12.677  13.746  65.865  1.00  0.00    -0.452 A  
HETATM   12  C   UNL     1      -7.827  10.659  69.228  1.00  0.00    -0.140 C  
HETATM   13  C   UNL     1      -9.051  10.874  66.536  1.00  0.00    -0.183 C  
HETATM   14  C   UNL     1     -12.242  14.327  64.681  1.00  0.00    -0.470 A  
HETATM   15  C   UNL     1      -8.660   9.506  68.678  1.00  0.00    -0.119 C  
HETATM   16  C   UNL     1      -9.615   9.874  67.542  1.00  0.00    -0.183 C  
ENDROOT
BRANCH   4  17
HETATM   17  C   UNL     1      -9.259  15.506  69.065  1.00  0.00    -0.238 C  
BRANCH  17  18
HETATM   18  N   UNL     1      -8.565  16.813  68.950  1.00  0.00    -0.243 NA 
HETATM   19  C   UNL     1      -9.128  17.960  66.273  1.00  0.00    -0.198 C  
HETATM   20  C   UNL     1      -7.544  16.799  67.888  1.00  0.00    -0.169 C  
HETATM   21  C   UNL     1      -8.122  16.827  66.467  1.00  0.00    -0.329 C  
HETATM   22  C   UNL     1     -10.144  18.007  67.410  1.00  0.00    -0.354 C  
HETATM   23  C   UNL     1      -9.436  17.986  68.764  1.00  0.00    -0.270 C  
ENDBRANCH  17  18
ENDBRANCH   4  17
TORSDOF 2
ENDMDL
MODEL       64
REMARK 921   NORMALIZED FREE ENERGY PREDICTED BY IDOCK:   -4.91 KCAL/MOL
REMARK 922        TOTAL FREE ENERGY PREDICTED BY IDOCK:   -5.96 KCAL/MOL
REMARK 923 INTER-LIGAND FREE ENERGY PREDICTED BY IDOCK:   -5.70 KCAL/MOL
REMARK 924 INTRA-LIGAND FREE ENERGY PREDICTED BY IDOCK:   -0.26 KCAL/MOL
REMARK 927      BINDING AFFINITY PREDICTED BY RF-SCORE:    0.00 PKD
ROOT
HETATM    1  O   UNL     1      -9.453  12.977  66.559  1.00  0.00    -0.250 OA 
HETATM    2  C   UNL     1     -10.533  13.497  67.345  1.00  0.00    -0.247 C  
HETATM    3  H   UNL     1      -9.708  12.122  66.233  1.00  0.00     0.000 HD 
HETATM    4  C   UNL     1     -10.117  14.899  67.879  1.00  0.00    -0.227 C  
HETATM    5  C   UNL     1     -11.820  13.667  66.424  1.00  0.00    -0.433 C  
HETATM    6  C   UNL     1     -10.802  12.495  68.485  1.00  0.00    -0.271 A  
HETATM    7  C   UNL     1     -11.687  14.663  65.244  1.00  0.00    -0.346 C  
HETATM    8  C   UNL     1     -10.093  11.280  68.567  1.00  0.00    -0.210 A  
HETATM    9  C   UNL     1     -12.111  11.763  70.413  1.00  0.00    -0.440 A  
HETATM   10  C   UNL     1     -11.804  12.729  69.443  1.00  0.00    -0.359 A  
HETATM   11  C   UNL     1     -10.399  10.322  69.536  1.00  0.00    -0.267 A  
HETATM   12  C   UNL     1     -10.792  14.170  64.114  1.00  0.00     0.151 C  
HETATM   13  C   UNL     1     -12.394  12.364  65.835  1.00  0.00    -0.028 C  
HETATM   14  C   UNL     1     -11.416  10.558  70.453  1.00  0.00    -0.427 A  
HETATM   15  C   UNL     1     -11.202  12.795  63.598  1.00  0.00    -0.482 C  
HETATM   16  C   UNL     1     -11.591  11.782  64.675  1.00  0.00    -0.270 C  
ENDROOT
BRANCH   4  17
HETATM   17  C   UNL     1      -8.816  14.992  68.695  1.00  0.00    -0.185 C  
BRANCH  17  18
HETATM   18  N   UNL     1      -8.455  16.394  69.022  1.00  0.00    -0.242 NA 
HETATM   19  C   UNL     1      -6.923  17.538  66.754  1.00  0.00    -0.239 C  
HETATM   20  C   UNL     1      -6.996  16.577  69.107  1.00  0.00    -0.225 C  
HETATM   21  C   UNL     1      -6.285  16.567  67.747  1.00  0.00    -0.158 C  
HETATM   22  C   UNL     1      -8.440  17.386  66.718  1.00  0.00    -0.280 C  
HETATM   23  C   UNL     1      -9.018  17.424  68.133  1.00  0.00    -0.260 C  
ENDBRANCH  17  18
ENDBRANCH   4  17
TORSDOF 2
ENDMDL
MODEL       65
REMARK 921   NORMALIZED FREE ENERGY PREDICTED BY IDOCK:   -4.91 KCAL/MOL
REMARK 922        TOTAL FREE ENERGY PREDICTED BY IDOCK:   -5.95 KCAL/MOL
REMARK 923 INTER-LIGAND FREE ENERGY PREDICTED BY IDOCK:   -5.54 KCAL/MOL
REMARK 924 INTRA-LIGAND FREE ENERGY PREDICTED BY IDOCK:   -0.41 KCAL/MOL
REMARK 927      BINDING AFFINITY PREDICTED BY RF-SCORE:    0.00 PKD
ROOT
HETATM    1  O   UNL     1      -9.672   8.567  65.207  1.00  0.00    -0.284 OA 
HETATM    2  C   UNL     1      -9.220   9.288  66.359  1.00  0.00    -0.180 C  
HETATM    3  H   UNL     1      -9.031   7.895  65.005  1.00  0.00     0.000 HD 
HETATM    4  C   UNL     1     -10.271  10.387  66.690  1.00  0.00    -0.292 C  
HETATM    5  C   UNL     1      -9.121   8.293  67.598  1.00  0.00    -0.139 C  
HETATM    6  C   UNL     1      -7.839   9.883  66.022  1.00  0.00    -0.111 A  
HETATM    7  C   UNL     1     -10.449   7.635  68.050  1.00  0.00    -0.247 C  
HETATM    8  C   UNL     1      -7.212   9.612  64.789  1.00  0.00    -0.119 A  
HETATM    9  C   UNL     1      -5.832  11.113  66.675  1.00  0.00    -0.123 A  
HETATM   10  C   UNL     1      -7.131  10.663  66.953  1.00  0.00    -0.109 A  
HETATM   11  C   UNL     1      -5.919  10.064  64.514  1.00  0.00    -0.120 A  
HETATM   12  C   UNL     1     -10.979   6.579  67.088  1.00  0.00    -0.480 C  
HETATM   13  C   UNL     1      -8.093   7.153  67.455  1.00  0.00    -0.113 C  
HETATM   14  C   UNL     1      -5.224  10.805  65.462  1.00  0.00    -0.139 A  
HETATM   15  C   UNL     1      -9.944   5.507  66.765  1.00  0.00    -0.210 C  
HETATM   16  C   UNL     1      -8.523   6.021  66.527  1.00  0.00    -0.115 C  
ENDROOT
BRANCH   4  17
HETATM   17  C   UNL     1     -10.623  11.392  65.580  1.00  0.00    -0.271 C  
BRANCH  17  18
HETATM   18  N   UNL     1     -11.842  12.177  65.895  1.00  0.00    -0.546 NA 
HETATM   19  C   UNL     1     -11.476  14.949  64.905  1.00  0.00    -0.407 C  
HETATM   20  C   UNL     1     -11.555  13.284  66.824  1.00  0.00    -0.365 C  
HETATM   21  C   UNL     1     -10.801  14.457  66.184  1.00  0.00    -0.309 C  
HETATM   22  C   UNL     1     -11.827  13.791  63.976  1.00  0.00    -0.410 C  
HETATM   23  C   UNL     1     -12.584  12.703  64.736  1.00  0.00    -0.454 C  
ENDBRANCH  17  18
ENDBRANCH   4  17
TORSDOF 2
ENDMDL
MODEL       66
REMARK 921   NORMALIZED FREE ENERGY PREDICTED BY IDOCK:   -4.90 KCAL/MOL
REMARK 922        TOTAL FREE ENERGY PREDICTED BY IDOCK:   -5.94 KCAL/MOL
REMARK 923 INTER-LIGAND FREE ENERGY PREDICTED BY IDOCK:   -5.38 KCAL/MOL
REMARK 924 INTRA-LIGAND FREE ENERGY PREDICTED BY IDOCK:   -0.56 KCAL/MOL
REMARK 927      BINDING AFFINITY PREDICTED BY RF-SCORE:    0.00 PKD
ROOT
HETATM    1  O   UNL     1      -8.463  13.125  66.597  1.00  0.00    -0.422 OA 
HETATM    2  C   UNL     1      -9.820  13.255  67.036  1.00  0.00    -0.242 C  
HETATM    3  H   UNL     1      -8.314  13.753  65.899  1.00  0.00     0.000 HD 
HETATM    4  C   UNL     1     -10.064  12.227  68.179  1.00  0.00    -0.211 C  
HETATM    5  C   UNL     1     -10.049  14.720  67.615  1.00  0.00    -0.227 C  
HETATM    6  C   UNL     1     -10.729  12.998  65.817  1.00  0.00    -0.291 A  
HETATM    7  C   UNL     1      -9.203  15.102  68.856  1.00  0.00    -0.209 C  
HETATM    8  C   UNL     1     -10.182  12.773  64.537  1.00  0.00    -0.333 A  
HETATM    9  C   UNL     1     -12.945  12.910  64.793  1.00  0.00    -0.224 A  
HETATM   10  C   UNL     1     -12.130  13.041  65.927  1.00  0.00    -0.503 A  
HETATM   11  C   UNL     1     -10.997  12.640  63.411  1.00  0.00    -0.305 A  
HETATM   12  C   UNL     1      -7.725  15.317  68.558  1.00  0.00    -0.128 C  
HETATM   13  C   UNL     1      -9.883  15.870  66.601  1.00  0.00    -0.267 C  
HETATM   14  C   UNL     1     -12.378  12.719  63.536  1.00  0.00    -0.559 A  
HETATM   15  C   UNL     1      -7.493  16.322  67.435  1.00  0.00    -0.190 C  
HETATM   16  C   UNL     1      -8.436  16.194  66.238  1.00  0.00    -0.357 C  
ENDROOT
BRANCH   4  17
HETATM   17  C   UNL     1      -9.777  10.746  67.877  1.00  0.00    -0.167 C  
BRANCH  17  18
HETATM   18  N   UNL     1      -8.400  10.532  67.366  1.00  0.00    -0.121 NA 
HETATM   19  C   UNL     1      -7.966   7.622  66.987  1.00  0.00    -0.116 C  
HETATM   20  C   UNL     1      -7.580   9.756  68.314  1.00  0.00    -0.081 C  
HETATM   21  C   UNL     1      -7.937   8.265  68.373  1.00  0.00    -0.119 C  
HETATM   22  C   UNL     1      -8.764   8.462  65.996  1.00  0.00    -0.183 C  
HETATM   23  C   UNL     1      -8.300   9.919  66.031  1.00  0.00    -0.122 C  
ENDBRANCH  17  18
ENDBRANCH   4  17
TORSDOF 2
ENDMDL
MODEL       67
REMARK 921   NORMALIZED FREE ENERGY PREDICTED BY IDOCK:   -4.89 KCAL/MOL
REMARK 922        TOTAL FREE ENERGY PREDICTED BY IDOCK:   -5.93 KCAL/MOL
REMARK 923 INTER-LIGAND FREE ENERGY PREDICTED BY IDOCK:   -5.21 KCAL/MOL
REMARK 924 INTRA-LIGAND FREE ENERGY PREDICTED BY IDOCK:   -0.72 KCAL/MOL
REMARK 927      BINDING AFFINITY PREDICTED BY RF-SCORE:    0.00 PKD
ROOT
HETATM    1  O   UNL     1      -9.403  14.544  69.497  1.00  0.00    -0.402 OA 
HETATM    2  C   UNL     1      -9.988  14.912  68.243  1.00  0.00    -0.222 C  
HETATM    3  H   UNL     1      -9.644  15.200  70.142  1.00  0.00     0.000 HD 
HETATM    4  C   UNL     1      -9.595  13.838  67.187  1.00  0.00    -0.244 C  
HETATM    5  C   UNL     1     -11.574  14.926  68.384  1.00  0.00    -0.348 C  
HETATM    6  C   UNL     1      -9.457  16.312  67.876  1.00  0.00    -0.218 A  
HETATM    7  C   UNL     1     -12.238  13.572  68.737  1.00  0.00    -0.178 C  
HETATM    8  C   UNL     1      -8.618  17.025  68.756  1.00  0.00    -0.238 A  
HETATM    9  C   UNL     1      -9.435  18.266  66.409  1.00  0.00    -0.290 A  
HETATM   10  C   UNL     1      -9.840  16.951  66.683  1.00  0.00    -0.295 A  
HETATM   11  C   UNL     1      -8.215  18.333  68.478  1.00  0.00    -0.329 A  
HETATM   12  C   UNL     1     -11.991  13.113  70.169  1.00  0.00    -0.381 C  
HETATM   13  C   UNL     1     -12.144  15.964  69.370  1.00  0.00    -0.183 C  
HETATM   14  C   UNL     1      -8.632  18.958  67.310  1.00  0.00    -0.294 A  
HETATM   15  C   UNL     1     -12.375  14.171  71.198  1.00  0.00    -0.447 C  
HETATM   16  C   UNL     1     -11.975  15.603  70.843  1.00  0.00    -0.440 C  
ENDROOT
BRANCH   4  17
HETATM   17  C   UNL     1      -8.096  13.563  66.976  1.00  0.00     0.004 C  
BRANCH  17  18
HETATM   18  N   UNL     1      -7.549  12.621  67.985  1.00  0.00    -0.119 NA 
HETATM   19  C   UNL     1      -6.799  10.096  66.621  1.00  0.00    -0.084 C  
HETATM   20  C   UNL     1      -8.382  11.412  68.112  1.00  0.00    -0.149 C  
HETATM   21  C   UNL     1      -8.254  10.439  66.932  1.00  0.00    -0.124 C  
HETATM   22  C   UNL     1      -5.930  11.347  66.554  1.00  0.00    -0.130 C  
HETATM   23  C   UNL     1      -6.146  12.218  67.791  1.00  0.00    -0.102 C  
ENDBRANCH  17  18
ENDBRANCH   4  17
TORSDOF 2
ENDMDL
MODEL       68
REMARK 921   NORMALIZED FREE ENERGY PREDICTED BY IDOCK:   -4.88 KCAL/MOL
REMARK 922        TOTAL FREE ENERGY PREDICTED BY IDOCK:   -5.92 KCAL/MOL
REMARK 923 INTER-LIGAND FREE ENERGY PREDICTED BY IDOCK:   -5.59 KCAL/MOL
REMARK 924 INTRA-LIGAND FREE ENERGY PREDICTED BY IDOCK:   -0.33 KCAL/MOL
REMARK 927      BINDING AFFINITY PREDICTED BY RF-SCORE:    0.00 PKD
ROOT
HETATM    1  O   UNL     1     -10.465  13.314  69.547  1.00  0.00    -0.384 OA 
HETATM    2  C   UNL     1     -11.879  13.412  69.341  1.00  0.00    -0.335 C  
HETATM    3  H   UNL     1     -10.315  12.875  70.376  1.00  0.00     0.000 HD 
HETATM    4  C   UNL     1     -12.126  14.129  67.981  1.00  0.00    -0.303 C  
HETATM    5  C   UNL     1     -12.503  11.949  69.261  1.00  0.00     0.192 C  
HETATM    6  C   UNL     1     -12.468  14.196  70.529  1.00  0.00    -0.431 A  
HETATM    7  C   UNL     1     -12.004  11.058  68.097  1.00  0.00    -0.061 C  
HETATM    8  C   UNL     1     -11.654  14.609  71.604  1.00  0.00    -0.148 A  
HETATM    9  C   UNL     1     -14.385  15.095  71.749  1.00  0.00    -0.696 A  
HETATM   10  C   UNL     1     -13.844  14.473  70.614  1.00  0.00     0.301 A  
HETATM   11  C   UNL     1     -12.195  15.230  72.730  1.00  0.00    -0.513 A  
HETATM   12  C   UNL     1     -10.569  10.571  68.258  1.00  0.00    -0.240 C  
HETATM   13  C   UNL     1     -12.380  11.103  70.544  1.00  0.00    -0.454 C  
HETATM   14  C   UNL     1     -13.563  15.464  72.809  1.00  0.00    -0.628 A  
HETATM   15  C   UNL     1     -10.334   9.872  69.592  1.00  0.00    -0.265 C  
HETATM   16  C   UNL     1     -10.986  10.540  70.803  1.00  0.00     0.068 C  
ENDROOT
BRANCH   4  17
HETATM   17  C   UNL     1     -11.496  15.519  67.786  1.00  0.00    -0.243 C  
BRANCH  17  18
HETATM   18  N   UNL     1     -10.558  15.557  66.637  1.00  0.00    -0.304 NA 
HETATM   19  C   UNL     1      -7.846  16.222  67.639  1.00  0.00    -0.162 C  
HETATM   20  C   UNL     1      -9.984  16.900  66.442  1.00  0.00    -0.309 C  
HETATM   21  C   UNL     1      -8.931  17.287  67.490  1.00  0.00    -0.222 C  
HETATM   22  C   UNL     1      -8.446  14.827  67.777  1.00  0.00    -0.169 C  
HETATM   23  C   UNL     1      -9.466  14.569  66.668  1.00  0.00    -0.283 C  
ENDBRANCH  17  18
ENDBRANCH   4  17
TORSDOF 2
ENDMDL
MODEL       69
REMARK 921   NORMALIZED FREE ENERGY PREDICTED BY IDOCK:   -4.87 KCAL/MOL
REMARK 922        TOTAL FREE ENERGY PREDICTED BY IDOCK:   -5.91 KCAL/MOL
REMARK 923 INTER-LIGAND FREE ENERGY PREDICTED BY IDOCK:   -5.25 KCAL/MOL
REMARK 924 INTRA-LIGAND FREE ENERGY PREDICTED BY IDOCK:   -0.66 KCAL/MOL
REMARK 927      BINDING AFFINITY PREDICTED BY RF-SCORE:    0.00 PKD
ROOT
HETATM    1  O   UNL     1      -8.496   9.787  69.120  1.00  0.00    -0.124 OA 
HETATM    2  C   UNL     1      -9.334   8.699  68.712  1.00  0.00    -0.142 C  
HETATM    3  H   UNL     1      -7.992   9.507  69.875  1.00  0.00     0.000 HD 
HETATM    4  C   UNL     1     -10.161   9.156  67.475  1.00  0.00    -0.284 C  
HETATM    5  C   UNL     1      -8.424   7.464  68.285  1.00  0.00    -0.125 C  
HETATM    6  C   UNL     1     -10.232   8.331  69.910  1.00  0.00    -0.201 A  
HETATM    7  C   UNL     1      -7.481   7.699  67.079  1.00  0.00    -0.095 C  
HETATM    8  C   UNL     1     -10.086   8.977  71.154  1.00  0.00    -0.365 A  
HETATM    9  C   UNL     1     -11.920   6.901  70.947  1.00  0.00    -0.430 A  
HETATM   10  C   UNL     1     -11.182   7.298  69.822  1.00  0.00    -0.151 A  
HETATM   11  C   UNL     1     -10.824   8.581  72.271  1.00  0.00    -0.418 A  
HETATM   12  C   UNL     1      -6.305   8.620  67.378  1.00  0.00    -0.057 C  
HETATM   13  C   UNL     1      -7.558   6.857  69.407  1.00  0.00    -0.099 C  
HETATM   14  C   UNL     1     -11.734   7.536  72.171  1.00  0.00    -0.344 A  
HETATM   15  C   UNL     1      -5.502   8.169  68.593  1.00  0.00    -0.032 C  
HETATM   16  C   UNL     1      -6.332   7.684  69.782  1.00  0.00    -0.031 C  
ENDROOT
BRANCH   4  17
HETATM   17  C   UNL     1     -11.023  10.421  67.624  1.00  0.00    -0.312 C  
BRANCH  17  18
HETATM   18  N   UNL     1     -10.249  11.663  67.378  1.00  0.00    -0.201 NA 
HETATM   19  C   UNL     1     -12.149  13.887  66.882  1.00  0.00    -0.467 C  
HETATM   20  C   UNL     1     -10.470  12.185  66.018  1.00  0.00    -0.247 C  
HETATM   21  C   UNL     1     -11.844  12.838  65.815  1.00  0.00    -0.484 C  
HETATM   22  C   UNL     1     -11.858  13.362  68.284  1.00  0.00    -0.393 C  
HETATM   23  C   UNL     1     -10.458  12.751  68.349  1.00  0.00    -0.243 C  
ENDBRANCH  17  18
ENDBRANCH   4  17
TORSDOF 2
ENDMDL
MODEL       70
REMARK 921   NORMALIZED FREE ENERGY PREDICTED BY IDOCK:   -4.84 KCAL/MOL
REMARK 922        TOTAL FREE ENERGY PREDICTED BY IDOCK:   -5.87 KCAL/MOL
REMARK 923 INTER-LIGAND FREE ENERGY PREDICTED BY IDOCK:   -5.52 KCAL/MOL
REMARK 924 INTRA-LIGAND FREE ENERGY PREDICTED BY IDOCK:   -0.35 KCAL/MOL
REMARK 927      BINDING AFFINITY PREDICTED BY RF-SCORE:    0.00 PKD
ROOT
HETATM    1  O   UNL     1     -10.524  14.955  68.041  1.00  0.00    -0.241 OA 
HETATM    2  C   UNL     1      -9.576  15.451  67.089  1.00  0.00    -0.212 C  
HETATM    3  H   UNL     1     -11.388  15.257  67.785  1.00  0.00     0.000 HD 
HETATM    4  C   UNL     1      -8.160  14.956  67.507  1.00  0.00    -0.200 C  
HETATM    5  C   UNL     1      -9.914  14.858  65.650  1.00  0.00    -0.389 C  
HETATM    6  C   UNL     1      -9.679  16.988  67.087  1.00  0.00    -0.259 A  
HETATM    7  C   UNL     1      -9.832  13.317  65.512  1.00  0.00    -0.154 C  
HETATM    8  C   UNL     1     -10.643  17.653  67.871  1.00  0.00    -0.390 A  
HETATM    9  C   UNL     1      -9.034  19.166  66.187  1.00  0.00    -0.232 A  
HETATM   10  C   UNL     1      -8.861  17.776  66.259  1.00  0.00    -0.201 A  
HETATM   11  C   UNL     1     -10.811  19.038  67.800  1.00  0.00    -0.374 A  
HETATM   12  C   UNL     1     -10.955  12.569  66.220  1.00  0.00    -0.311 C  
HETATM   13  C   UNL     1     -11.276  15.279  65.061  1.00  0.00    -0.409 C  
HETATM   14  C   UNL     1     -10.014  19.794  66.950  1.00  0.00    -0.537 A  
HETATM   15  C   UNL     1     -12.338  13.060  65.809  1.00  0.00    -0.477 C  
HETATM   16  C   UNL     1     -12.481  14.577  65.680  1.00  0.00    -0.238 C  
ENDROOT
BRANCH   4  17
HETATM   17  C   UNL     1      -7.674  15.307  68.924  1.00  0.00    -0.167 C  
BRANCH  17  18
HETATM   18  N   UNL     1      -6.195  15.388  69.008  1.00  0.00    -0.102 NA 
HETATM   19  C   UNL     1      -5.170  12.883  70.222  1.00  0.00    -0.109 C  
HETATM   20  C   UNL     1      -5.724  15.358  70.404  1.00  0.00    -0.127 C  
HETATM   21  C   UNL     1      -5.823  13.976  71.066  1.00  0.00    -0.209 C  
HETATM   22  C   UNL     1      -5.614  12.960  68.765  1.00  0.00    -0.071 C  
HETATM   23  C   UNL     1      -5.453  14.383  68.229  1.00  0.00    -0.114 C  
ENDBRANCH  17  18
ENDBRANCH   4  17
TORSDOF 2
ENDMDL
MODEL       71
REMARK 921   NORMALIZED FREE ENERGY PREDICTED BY IDOCK:   -4.84 KCAL/MOL
REMARK 922        TOTAL FREE ENERGY PREDICTED BY IDOCK:   -5.87 KCAL/MOL
REMARK 923 INTER-LIGAND FREE ENERGY PREDICTED BY IDOCK:   -5.17 KCAL/MOL
REMARK 924 INTRA-LIGAND FREE ENERGY PREDICTED BY IDOCK:   -0.70 KCAL/MOL
REMARK 927      BINDING AFFINITY PREDICTED BY RF-SCORE:    0.00 PKD
ROOT
HETATM    1  O   UNL     1      -8.953  11.947  68.900  1.00  0.00    -0.380 OA 
HETATM    2  C   UNL     1      -9.039  10.715  68.174  1.00  0.00    -0.148 C  
HETATM    3  H   UNL     1      -8.568  11.765  69.750  1.00  0.00     0.000 HD 
HETATM    4  C   UNL     1      -9.670  11.012  66.783  1.00  0.00    -0.222 C  
HETATM    5  C   UNL     1      -7.575  10.130  67.952  1.00  0.00    -0.089 C  
HETATM    6  C   UNL     1      -9.898   9.743  69.008  1.00  0.00    -0.183 A  
HETATM    7  C   UNL     1      -6.612  11.007  67.113  1.00  0.00    -0.089 C  
HETATM    8  C   UNL     1     -10.376  10.107  70.283  1.00  0.00    -0.234 A  
HETATM    9  C   UNL     1     -10.873   7.532  69.366  1.00  0.00    -0.161 A  
HETATM   10  C   UNL     1     -10.180   8.443  68.555  1.00  0.00    -0.228 A  
HETATM   11  C   UNL     1     -11.068   9.199  71.087  1.00  0.00    -0.393 A  
HETATM   12  C   UNL     1      -6.135  12.265  67.828  1.00  0.00    -0.102 C  
HETATM   13  C   UNL     1      -6.812   9.744  69.234  1.00  0.00    -0.055 C  
HETATM   14  C   UNL     1     -11.307   7.907  70.634  1.00  0.00    -0.267 A  
HETATM   15  C   UNL     1      -5.521  11.968  69.192  1.00  0.00    -0.059 C  
HETATM   16  C   UNL     1      -6.264  10.926  70.029  1.00  0.00    -0.133 C  
ENDROOT
BRANCH   4  17
HETATM   17  C   UNL     1     -11.045  11.703  66.757  1.00  0.00    -0.309 C  
BRANCH  17  18
HETATM   18  N   UNL     1     -10.933  13.182  66.801  1.00  0.00    -0.276 NA 
HETATM   19  C   UNL     1     -11.885  14.287  64.218  1.00  0.00    -0.401 C  
HETATM   20  C   UNL     1      -9.982  13.688  65.795  1.00  0.00    -0.261 C  
HETATM   21  C   UNL     1     -10.511  13.634  64.355  1.00  0.00    -0.322 C  
HETATM   22  C   UNL     1     -12.844  13.805  65.301  1.00  0.00    -0.430 C  
HETATM   23  C   UNL     1     -12.199  13.924  66.682  1.00  0.00    -0.424 C  
ENDBRANCH  17  18
ENDBRANCH   4  17
TORSDOF 2
ENDMDL
MODEL       72
REMARK 921   NORMALIZED FREE ENERGY PREDICTED BY IDOCK:   -4.82 KCAL/MOL
REMARK 922        TOTAL FREE ENERGY PREDICTED BY IDOCK:   -5.85 KCAL/MOL
REMARK 923 INTER-LIGAND FREE ENERGY PREDICTED BY IDOCK:   -5.47 KCAL/MOL
REMARK 924 INTRA-LIGAND FREE ENERGY PREDICTED BY IDOCK:   -0.37 KCAL/MOL
REMARK 927      BINDING AFFINITY PREDICTED BY RF-SCORE:    0.00 PKD
ROOT
HETATM    1  O   UNL     1      -8.724   7.815  67.979  1.00  0.00    -0.126 OA 
HETATM    2  C   UNL     1     -10.088   7.771  68.413  1.00  0.00    -0.192 C  
HETATM    3  H   UNL     1      -8.226   7.194  68.499  1.00  0.00     0.000 HD 
HETATM    4  C   UNL     1     -10.904   8.787  67.560  1.00  0.00    -0.092 C  
HETATM    5  C   UNL     1     -10.676   6.313  68.161  1.00  0.00    -0.364 C  
HETATM    6  C   UNL     1     -10.110   8.120  69.914  1.00  0.00    -0.195 A  
HETATM    7  C   UNL     1     -10.724   5.844  66.685  1.00  0.00    -0.323 C  
HETATM    8  C   UNL     1      -8.913   8.335  70.627  1.00  0.00    -0.161 A  
HETATM    9  C   UNL     1     -11.315   8.389  72.022  1.00  0.00    -0.411 A  
HETATM   10  C   UNL     1     -11.315   8.174  70.636  1.00  0.00    -0.256 A  
HETATM   11  C   UNL     1      -8.917   8.552  72.007  1.00  0.00    -0.301 A  
HETATM   12  C   UNL     1      -9.358   5.531  66.087  1.00  0.00    -0.169 C  
HETATM   13  C   UNL     1     -10.004   5.178  68.960  1.00  0.00    -0.265 C  
HETATM   14  C   UNL     1     -10.117   8.568  72.707  1.00  0.00    -0.168 A  
HETATM   15  C   UNL     1      -8.563   4.538  66.928  1.00  0.00    -0.104 C  
HETATM   16  C   UNL     1      -8.631   4.761  68.440  1.00  0.00    -0.104 C  
ENDROOT
BRANCH   4  17
HETATM   17  C   UNL     1     -10.429  10.251  67.552  1.00  0.00    -0.244 C  
BRANCH  17  18
HETATM   18  N   UNL     1     -11.539  11.201  67.295  1.00  0.00    -0.511 NA 
HETATM   19  C   UNL     1     -10.471  13.967  67.406  1.00  0.00    -0.263 C  
HETATM   20  C   UNL     1     -11.797  12.069  68.458  1.00  0.00    -0.311 C  
HETATM   21  C   UNL     1     -10.734  13.155  68.673  1.00  0.00    -0.274 C  
HETATM   22  C   UNL     1     -10.269  13.063  66.194  1.00  0.00    -0.288 C  
HETATM   23  C   UNL     1     -11.400  12.040  66.092  1.00  0.00    -0.351 C  
ENDBRANCH  17  18
ENDBRANCH   4  17
TORSDOF 2
ENDMDL
MODEL       73
REMARK 921   NORMALIZED FREE ENERGY PREDICTED BY IDOCK:   -4.81 KCAL/MOL
REMARK 922        TOTAL FREE ENERGY PREDICTED BY IDOCK:   -5.84 KCAL/MOL
REMARK 923 INTER-LIGAND FREE ENERGY PREDICTED BY IDOCK:   -5.24 KCAL/MOL
REMARK 924 INTRA-LIGAND FREE ENERGY PREDICTED BY IDOCK:   -0.60 KCAL/MOL
REMARK 927      BINDING AFFINITY PREDICTED BY RF-SCORE:    0.00 PKD
ROOT
HETATM    1  O   UNL     1      -9.971   6.962  70.046  1.00  0.00    -0.179 OA 
HETATM    2  C   UNL     1     -10.168   8.255  70.632  1.00  0.00    -0.193 C  
HETATM    3  H   UNL     1     -10.612   6.850  69.353  1.00  0.00     0.000 HD 
HETATM    4  C   UNL     1      -9.118   8.441  71.767  1.00  0.00    -0.283 C  
HETATM    5  C   UNL     1      -9.924   9.377  69.529  1.00  0.00    -0.200 C  
HETATM    6  C   UNL     1     -11.614   8.310  71.161  1.00  0.00    -0.310 A  
HETATM    7  C   UNL     1      -8.499   9.439  68.924  1.00  0.00    -0.122 C  
HETATM    8  C   UNL     1     -12.504   7.236  70.957  1.00  0.00    -0.323 A  
HETATM    9  C   UNL     1     -13.461   9.533  72.191  1.00  0.00    -0.535 A  
HETATM   10  C   UNL     1     -12.115   9.454  71.808  1.00  0.00    -0.454 A  
HETATM   11  C   UNL     1     -13.844   7.317  71.343  1.00  0.00    -0.416 A  
HETATM   12  C   UNL     1      -8.167   8.278  67.995  1.00  0.00    -0.128 C  
HETATM   13  C   UNL     1     -10.904   9.363  68.339  1.00  0.00    -0.156 C  
HETATM   14  C   UNL     1     -14.326   8.470  71.950  1.00  0.00    -0.536 A  
HETATM   15  C   UNL     1      -9.200   8.099  66.888  1.00  0.00    -0.198 C  
HETATM   16  C   UNL     1     -10.658   8.252  67.324  1.00  0.00    -0.335 C  
ENDROOT
BRANCH   4  17
HETATM   17  C   UNL     1      -9.087   7.386  72.886  1.00  0.00    -0.148 C  
BRANCH  17  18
HETATM   18  N   UNL     1      -9.072   6.000  72.354  1.00  0.00    -0.137 NA 
HETATM   19  C   UNL     1      -8.183   4.162  74.506  1.00  0.00    -0.090 C  
HETATM   20  C   UNL     1      -7.713   5.430  72.353  1.00  0.00    -0.102 C  
HETATM   21  C   UNL     1      -7.196   5.046  73.746  1.00  0.00    -0.083 C  
HETATM   22  C   UNL     1      -9.599   4.726  74.449  1.00  0.00    -0.150 C  
HETATM   23  C   UNL     1      -9.990   5.053  73.008  1.00  0.00    -0.161 C  
ENDBRANCH  17  18
ENDBRANCH   4  17
TORSDOF 2
ENDMDL
MODEL       74
REMARK 921   NORMALIZED FREE ENERGY PREDICTED BY IDOCK:   -4.78 KCAL/MOL
REMARK 922        TOTAL FREE ENERGY PREDICTED BY IDOCK:   -5.81 KCAL/MOL
REMARK 923 INTER-LIGAND FREE ENERGY PREDICTED BY IDOCK:   -5.33 KCAL/MOL
REMARK 924 INTRA-LIGAND FREE ENERGY PREDICTED BY IDOCK:   -0.48 KCAL/MOL
REMARK 927      BINDING AFFINITY PREDICTED BY RF-SCORE:    0.00 PKD
ROOT
HETATM    1  O   UNL     1      -9.526  12.375  69.001  1.00  0.00    -0.388 OA 
HETATM    2  C   UNL     1      -9.268  11.935  67.662  1.00  0.00    -0.183 C  
HETATM    3  H   UNL     1     -10.394  12.079  69.248  1.00  0.00     0.000 HD 
HETATM    4  C   UNL     1      -7.845  12.419  67.255  1.00  0.00    -0.166 C  
HETATM    5  C   UNL     1      -9.293  10.344  67.616  1.00  0.00    -0.161 C  
HETATM    6  C   UNL     1     -10.366  12.528  66.758  1.00  0.00    -0.241 A  
HETATM    7  C   UNL     1      -8.225   9.620  68.474  1.00  0.00    -0.105 C  
HETATM    8  C   UNL     1     -11.426  13.281  67.301  1.00  0.00    -0.378 A  
HETATM    9  C   UNL     1     -11.443  12.744  64.576  1.00  0.00    -0.389 A  
HETATM   10  C   UNL     1     -10.383  12.288  65.373  1.00  0.00    -0.298 A  
HETATM   11  C   UNL     1     -12.479  13.737  66.504  1.00  0.00    -0.356 A  
HETATM   12  C   UNL     1      -8.472   9.703  69.975  1.00  0.00    -0.223 C  
HETATM   13  C   UNL     1     -10.647   9.690  67.959  1.00  0.00    -0.292 C  
HETATM   14  C   UNL     1     -12.494  13.459  65.143  1.00  0.00    -0.509 A  
HETATM   15  C   UNL     1      -9.868   9.232  70.366  1.00  0.00    -0.290 C  
HETATM   16  C   UNL     1     -10.997   9.694  69.444  1.00  0.00    -0.215 C  
ENDROOT
BRANCH   4  17
HETATM   17  C   UNL     1      -7.552  13.926  67.350  1.00  0.00    -0.142 C  
BRANCH  17  18
HETATM   18  N   UNL     1      -6.124  14.206  67.642  1.00  0.00    -0.323 NA 
HETATM   19  C   UNL     1      -5.801  14.548  70.571  1.00  0.00    -0.173 C  
HETATM   20  C   UNL     1      -5.939  15.542  68.235  1.00  0.00    -0.116 C  
HETATM   21  C   UNL     1      -6.401  15.646  69.695  1.00  0.00    -0.174 C  
HETATM   22  C   UNL     1      -5.940  13.175  69.922  1.00  0.00    -0.138 C  
HETATM   23  C   UNL     1      -5.435  13.210  68.479  1.00  0.00    -0.068 C  
ENDBRANCH  17  18
ENDBRANCH   4  17
TORSDOF 2
ENDMDL
MODEL       75
REMARK 921   NORMALIZED FREE ENERGY PREDICTED BY IDOCK:   -4.78 KCAL/MOL
REMARK 922        TOTAL FREE ENERGY PREDICTED BY IDOCK:   -5.80 KCAL/MOL
REMARK 923 INTER-LIGAND FREE ENERGY PREDICTED BY IDOCK:   -5.12 KCAL/MOL
REMARK 924 INTRA-LIGAND FREE ENERGY PREDICTED BY IDOCK:   -0.69 KCAL/MOL
REMARK 927      BINDING AFFINITY PREDICTED BY RF-SCORE:    0.00 PKD
ROOT
HETATM    1  O   UNL     1     -10.223   7.747  66.531  1.00  0.00    -0.438 OA 
HETATM    2  C   UNL     1      -9.351   8.396  67.465  1.00  0.00    -0.147 C  
HETATM    3  H   UNL     1     -10.183   8.221  65.708  1.00  0.00     0.000 HD 
HETATM    4  C   UNL     1      -9.415   7.620  68.812  1.00  0.00    -0.152 C  
HETATM    5  C   UNL     1      -7.857   8.340  66.918  1.00  0.00    -0.096 C  
HETATM    6  C   UNL     1      -9.829   9.854  67.609  1.00  0.00    -0.198 A  
HETATM    7  C   UNL     1      -7.250   6.926  66.741  1.00  0.00    -0.076 C  
HETATM    8  C   UNL     1     -10.895  10.351  66.832  1.00  0.00    -0.229 A  
HETATM    9  C   UNL     1      -9.556  12.106  68.518  1.00  0.00    -0.137 A  
HETATM   10  C   UNL     1      -9.180  10.755  68.472  1.00  0.00    -0.174 A  
HETATM   11  C   UNL     1     -11.269  11.695  66.882  1.00  0.00    -0.376 A  
HETATM   12  C   UNL     1      -7.836   6.139  65.576  1.00  0.00    -0.103 C  
HETATM   13  C   UNL     1      -7.603   9.095  65.598  1.00  0.00    -0.094 C  
HETATM   14  C   UNL     1     -10.592  12.576  67.717  1.00  0.00    -0.235 A  
HETATM   15  C   UNL     1      -7.774   6.906  64.259  1.00  0.00    -0.113 C  
HETATM   16  C   UNL     1      -8.130   8.391  64.351  1.00  0.00    -0.158 C  
ENDROOT
BRANCH   4  17
HETATM   17  C   UNL     1     -10.797   7.437  69.464  1.00  0.00    -0.189 C  
BRANCH  17  18
HETATM   18  N   UNL     1     -10.750   7.600  70.938  1.00  0.00    -0.232 NA 
HETATM   19  C   UNL     1     -13.252   8.921  71.830  1.00  0.00    -0.443 C  
HETATM   20  C   UNL     1     -10.761   9.020  71.332  1.00  0.00    -0.331 C  
HETATM   21  C   UNL     1     -12.123   9.704  71.162  1.00  0.00    -0.448 C  
HETATM   22  C   UNL     1     -13.197   7.441  71.468  1.00  0.00    -0.426 C  
HETATM   23  C   UNL     1     -11.792   6.884  71.695  1.00  0.00    -0.324 C  
ENDBRANCH  17  18
ENDBRANCH   4  17
TORSDOF 2
ENDMDL
MODEL       76
REMARK 921   NORMALIZED FREE ENERGY PREDICTED BY IDOCK:   -4.77 KCAL/MOL
REMARK 922        TOTAL FREE ENERGY PREDICTED BY IDOCK:   -5.79 KCAL/MOL
REMARK 923 INTER-LIGAND FREE ENERGY PREDICTED BY IDOCK:   -5.39 KCAL/MOL
REMARK 924 INTRA-LIGAND FREE ENERGY PREDICTED BY IDOCK:   -0.40 KCAL/MOL
REMARK 927      BINDING AFFINITY PREDICTED BY RF-SCORE:    0.00 PKD
ROOT
HETATM    1  O   UNL     1      -9.162  14.024  69.301  1.00  0.00    -0.374 OA 
HETATM    2  C   UNL     1      -9.412  14.474  67.964  1.00  0.00    -0.209 C  
HETATM    3  H   UNL     1      -9.235  14.770  69.884  1.00  0.00     0.000 HD 
HETATM    4  C   UNL     1      -9.294  13.251  67.007  1.00  0.00    -0.242 C  
HETATM    5  C   UNL     1     -10.894  15.048  67.869  1.00  0.00    -0.280 C  
HETATM    6  C   UNL     1      -8.377  15.569  67.641  1.00  0.00    -0.167 A  
HETATM    7  C   UNL     1     -12.035  14.040  68.158  1.00  0.00    -0.382 C  
HETATM    8  C   UNL     1      -7.461  16.013  68.616  1.00  0.00    -0.166 A  
HETATM    9  C   UNL     1      -7.476  17.273  66.140  1.00  0.00    -0.321 A  
HETATM   10  C   UNL     1      -8.352  16.207  66.388  1.00  0.00    -0.357 A  
HETATM   11  C   UNL     1      -6.588  17.073  68.365  1.00  0.00    -0.157 A  
HETATM   12  C   UNL     1     -12.153  13.637  69.622  1.00  0.00    -0.378 C  
HETATM   13  C   UNL     1     -11.181  16.293  68.732  1.00  0.00    -0.343 C  
HETATM   14  C   UNL     1      -6.602  17.712  67.131  1.00  0.00    -0.188 A  
HETATM   15  C   UNL     1     -12.265  14.838  70.554  1.00  0.00    -0.385 C  
HETATM   16  C   UNL     1     -11.341  16.011  70.223  1.00  0.00    -0.391 C  
ENDROOT
BRANCH   4  17
HETATM   17  C   UNL     1      -7.976  12.457  67.028  1.00  0.00    -0.106 C  
BRANCH  17  18
HETATM   18  N   UNL     1      -8.198  10.993  66.929  1.00  0.00    -0.135 NA 
HETATM   19  C   UNL     1      -9.108   9.986  69.566  1.00  0.00    -0.236 C  
HETATM   20  C   UNL     1      -7.288  10.241  67.809  1.00  0.00    -0.087 C  
HETATM   21  C   UNL     1      -7.644  10.332  69.299  1.00  0.00    -0.125 C  
HETATM   22  C   UNL     1     -10.040  10.720  68.609  1.00  0.00    -0.194 C  
HETATM   23  C   UNL     1      -9.579  10.537  67.163  1.00  0.00    -0.168 C  
ENDBRANCH  17  18
ENDBRANCH   4  17
TORSDOF 2
ENDMDL
MODEL       77
REMARK 921   NORMALIZED FREE ENERGY PREDICTED BY IDOCK:   -4.72 KCAL/MOL
REMARK 922        TOTAL FREE ENERGY PREDICTED BY IDOCK:   -5.74 KCAL/MOL
REMARK 923 INTER-LIGAND FREE ENERGY PREDICTED BY IDOCK:   -5.13 KCAL/MOL
REMARK 924 INTRA-LIGAND FREE ENERGY PREDICTED BY IDOCK:   -0.61 KCAL/MOL
REMARK 927      BINDING AFFINITY PREDICTED BY RF-SCORE:    0.00 PKD
ROOT
HETATM    1  O   UNL     1      -8.658  17.934  67.943  1.00  0.00    -0.242 OA 
HETATM    2  C   UNL     1      -7.830  17.167  67.060  1.00  0.00    -0.198 C  
HETATM    3  H   UNL     1      -8.132  18.200  68.688  1.00  0.00     0.000 HD 
HETATM    4  C   UNL     1      -8.691  16.731  65.839  1.00  0.00    -0.082 C  
HETATM    5  C   UNL     1      -6.633  18.077  66.537  1.00  0.00    -0.243 C  
HETATM    6  C   UNL     1      -7.294  15.961  67.856  1.00  0.00    -0.148 A  
HETATM    7  C   UNL     1      -7.037  19.321  65.706  1.00  0.00    -0.306 C  
HETATM    8  C   UNL     1      -7.579  15.811  69.229  1.00  0.00    -0.224 A  
HETATM    9  C   UNL     1      -5.888  13.970  68.018  1.00  0.00    -0.138 A  
HETATM   10  C   UNL     1      -6.454  15.005  67.260  1.00  0.00     0.140 A  
HETATM   11  C   UNL     1      -7.017  14.778  69.980  1.00  0.00    -0.083 A  
HETATM   12  C   UNL     1      -7.687  20.431  66.523  1.00  0.00    -0.241 C  
HETATM   13  C   UNL     1      -5.652  18.573  67.618  1.00  0.00    -0.158 C  
HETATM   14  C   UNL     1      -6.162  13.863  69.379  1.00  0.00    -0.106 A  
HETATM   15  C   UNL     1      -6.840  20.851  67.719  1.00  0.00    -0.345 C  
HETATM   16  C   UNL     1      -6.186  19.704  68.491  1.00  0.00    -0.279 C  
ENDROOT
BRANCH   4  17
HETATM   17  C   UNL     1      -9.981  15.942  66.123  1.00  0.00    -0.314 C  
BRANCH  17  18
HETATM   18  N   UNL     1     -10.031  14.658  65.381  1.00  0.00    -0.361 NA 
HETATM   19  C   UNL     1     -12.119  12.936  66.595  1.00  0.00    -0.360 C  
HETATM   20  C   UNL     1      -9.669  13.516  66.239  1.00  0.00    -0.277 C  
HETATM   21  C   UNL     1     -10.754  13.129  67.253  1.00  0.00    -0.262 C  
HETATM   22  C   UNL     1     -12.459  14.092  65.660  1.00  0.00    -0.531 C  
HETATM   23  C   UNL     1     -11.302  14.362  64.698  1.00  0.00    -0.371 C  
ENDBRANCH  17  18
ENDBRANCH   4  17
TORSDOF 2
ENDMDL
MODEL       78
REMARK 921   NORMALIZED FREE ENERGY PREDICTED BY IDOCK:   -4.72 KCAL/MOL
REMARK 922        TOTAL FREE ENERGY PREDICTED BY IDOCK:   -5.74 KCAL/MOL
REMARK 923 INTER-LIGAND FREE ENERGY PREDICTED BY IDOCK:   -5.79 KCAL/MOL
REMARK 924 INTRA-LIGAND FREE ENERGY PREDICTED BY IDOCK:    0.06 KCAL/MOL
REMARK 927      BINDING AFFINITY PREDICTED BY RF-SCORE:    0.00 PKD
ROOT
HETATM    1  O   UNL     1     -10.265  13.029  69.217  1.00  0.00    -0.401 OA 
HETATM    2  C   UNL     1     -11.689  13.150  69.113  1.00  0.00    -0.325 C  
HETATM    3  H   UNL     1     -10.056  12.713  70.089  1.00  0.00     0.000 HD 
HETATM    4  C   UNL     1     -12.032  13.667  67.686  1.00  0.00    -0.386 C  
HETATM    5  C   UNL     1     -12.355  11.716  69.305  1.00  0.00    -0.088 C  
HETATM    6  C   UNL     1     -12.154  14.123  70.214  1.00  0.00    -0.412 A  
HETATM    7  C   UNL     1     -11.979  10.645  68.252  1.00  0.00     0.192 C  
HETATM    8  C   UNL     1     -11.241  14.658  71.145  1.00  0.00     0.027 A  
HETATM    9  C   UNL     1     -13.936  15.265  71.435  1.00  0.00    -0.601 A  
HETATM   10  C   UNL     1     -13.510  14.461  70.367  1.00  0.00     0.312 A  
HETATM   11  C   UNL     1     -11.668  15.460  72.205  1.00  0.00    -0.564 A  
HETATM   12  C   UNL     1     -10.549  10.132  68.368  1.00  0.00    -0.249 C  
HETATM   13  C   UNL     1     -12.144  11.065  70.687  1.00  0.00    -0.471 C  
HETATM   14  C   UNL     1     -13.017  15.754  72.358  1.00  0.00    -0.546 A  
HETATM   15  C   UNL     1     -10.218   9.630  69.769  1.00  0.00    -0.262 C  
HETATM   16  C   UNL     1     -10.748  10.493  70.915  1.00  0.00     0.572 C  
ENDROOT
BRANCH   4  17
HETATM   17  C   UNL     1     -11.385  14.988  67.234  1.00  0.00    -0.332 C  
BRANCH  17  18
HETATM   18  N   UNL     1     -10.491  14.806  66.063  1.00  0.00    -0.290 NA 
HETATM   19  C   UNL     1     -12.010  13.454  63.904  1.00  0.00    -0.520 C  
HETATM   20  C   UNL     1     -10.273  13.381  65.759  1.00  0.00    -0.295 C  
HETATM   21  C   UNL     1     -11.482  12.689  65.115  1.00  0.00    -0.363 C  
HETATM   22  C   UNL     1     -12.173  14.940  64.208  1.00  0.00    -0.365 C  
HETATM   23  C   UNL     1     -10.897  15.504  64.832  1.00  0.00    -0.427 C  
ENDBRANCH  17  18
ENDBRANCH   4  17
TORSDOF 2
ENDMDL
MODEL       79
REMARK 921   NORMALIZED FREE ENERGY PREDICTED BY IDOCK:   -4.70 KCAL/MOL
REMARK 922        TOTAL FREE ENERGY PREDICTED BY IDOCK:   -5.71 KCAL/MOL
REMARK 923 INTER-LIGAND FREE ENERGY PREDICTED BY IDOCK:   -5.00 KCAL/MOL
REMARK 924 INTRA-LIGAND FREE ENERGY PREDICTED BY IDOCK:   -0.71 KCAL/MOL
REMARK 927      BINDING AFFINITY PREDICTED BY RF-SCORE:    0.00 PKD
ROOT
HETATM    1  O   UNL     1     -10.413  13.278  69.696  1.00  0.00    -0.252 OA 
HETATM    2  C   UNL     1     -11.325  13.678  68.666  1.00  0.00    -0.286 C  
HETATM    3  H   UNL     1     -10.054  14.062  70.096  1.00  0.00     0.000 HD 
HETATM    4  C   UNL     1     -11.915  12.394  68.011  1.00  0.00    -0.264 C  
HETATM    5  C   UNL     1     -12.519  14.510  69.313  1.00  0.00    -0.066 C  
HETATM    6  C   UNL     1     -10.539  14.538  67.658  1.00  0.00    -0.251 A  
HETATM    7  C   UNL     1     -13.400  13.752  70.337  1.00  0.00     0.414 C  
HETATM    8  C   UNL     1      -9.187  14.867  67.882  1.00  0.00    -0.183 A  
HETATM    9  C   UNL     1     -10.461  15.944  65.661  1.00  0.00    -0.411 A  
HETATM   10  C   UNL     1     -11.158  15.077  66.516  1.00  0.00    -0.329 A  
HETATM   11  C   UNL     1      -8.496  15.728  67.027  1.00  0.00    -0.251 A  
HETATM   12  C   UNL     1     -12.710  13.475  71.667  1.00  0.00    -0.380 C  
HETATM   13  C   UNL     1     -12.117  15.840  69.980  1.00  0.00    -0.344 C  
HETATM   14  C   UNL     1      -9.136  16.276  65.922  1.00  0.00    -0.246 A  
HETATM   15  C   UNL     1     -12.131  14.735  72.302  1.00  0.00    -0.355 C  
HETATM   16  C   UNL     1     -11.431  15.691  71.335  1.00  0.00    -0.488 C  
ENDROOT
BRANCH   4  17
HETATM   17  C   UNL     1     -10.922  11.373  67.430  1.00  0.00    -0.273 C  
BRANCH  17  18
HETATM   18  N   UNL     1     -10.039  10.790  68.470  1.00  0.00    -0.168 NA 
HETATM   19  C   UNL     1      -8.864   8.275  67.423  1.00  0.00    -0.135 C  
HETATM   20  C   UNL     1     -10.526   9.476  68.927  1.00  0.00    -0.216 C  
HETATM   21  C   UNL     1     -10.309   8.344  67.914  1.00  0.00    -0.279 C  
HETATM   22  C   UNL     1      -8.347   9.650  67.011  1.00  0.00    -0.117 C  
HETATM   23  C   UNL     1      -8.615  10.676  68.112  1.00  0.00    -0.123 C  
ENDBRANCH  17  18
ENDBRANCH   4  17
TORSDOF 2
ENDMDL
MODEL       80
REMARK 921   NORMALIZED FREE ENERGY PREDICTED BY IDOCK:   -4.69 KCAL/MOL
REMARK 922        TOTAL FREE ENERGY PREDICTED BY IDOCK:   -5.71 KCAL/MOL
REMARK 923 INTER-LIGAND FREE ENERGY PREDICTED BY IDOCK:   -5.03 KCAL/MOL
REMARK 924 INTRA-LIGAND FREE ENERGY PREDICTED BY IDOCK:   -0.68 KCAL/MOL
REMARK 927      BINDING AFFINITY PREDICTED BY RF-SCORE:    0.00 PKD
ROOT
HETATM    1  O   UNL     1      -9.172  10.867  68.053  1.00  0.00    -0.148 OA 
HETATM    2  C   UNL     1     -10.053  10.630  66.948  1.00  0.00    -0.214 C  
HETATM    3  H   UNL     1      -8.580  11.571  67.814  1.00  0.00     0.000 HD 
HETATM    4  C   UNL     1     -11.025   9.478  67.338  1.00  0.00    -0.103 C  
HETATM    5  C   UNL     1     -10.911  11.941  66.666  1.00  0.00    -0.315 C  
HETATM    6  C   UNL     1      -9.182  10.270  65.728  1.00  0.00    -0.215 A  
HETATM    7  C   UNL     1     -11.844  12.404  67.812  1.00  0.00    -0.362 C  
HETATM    8  C   UNL     1      -7.775  10.295  65.807  1.00  0.00    -0.143 A  
HETATM    9  C   UNL     1      -8.954   9.744  63.353  1.00  0.00    -0.271 A  
HETATM   10  C   UNL     1      -9.757   9.967  64.482  1.00  0.00    -0.310 A  
HETATM   11  C   UNL     1      -6.979  10.070  64.683  1.00  0.00    -0.137 A  
HETATM   12  C   UNL     1     -11.112  12.992  69.012  1.00  0.00    -0.281 C  
HETATM   13  C   UNL     1     -10.105  13.181  66.229  1.00  0.00    -0.285 C  
HETATM   14  C   UNL     1      -7.568   9.805  63.453  1.00  0.00    -0.130 A  
HETATM   15  C   UNL     1     -10.159  14.117  68.623  1.00  0.00    -0.229 C  
HETATM   16  C   UNL     1      -9.341  13.872  67.354  1.00  0.00    -0.228 C  
ENDROOT
BRANCH   4  17
HETATM   17  C   UNL     1     -10.403   8.140  67.776  1.00  0.00    -0.233 C  
BRANCH  17  18
HETATM   18  N   UNL     1      -9.965   8.161  69.194  1.00  0.00    -0.187 NA 
HETATM   19  C   UNL     1      -9.894   5.375  70.210  1.00  0.00    -0.272 C  
HETATM   20  C   UNL     1     -11.014   7.654  70.097  1.00  0.00    -0.246 C  
HETATM   21  C   UNL     1     -11.208   6.133  70.036  1.00  0.00    -0.471 C  
HETATM   22  C   UNL     1      -8.796   5.945  69.318  1.00  0.00    -0.118 C  
HETATM   23  C   UNL     1      -8.702   7.461  69.485  1.00  0.00    -0.137 C  
ENDBRANCH  17  18
ENDBRANCH   4  17
TORSDOF 2
ENDMDL
MODEL       81
REMARK 921   NORMALIZED FREE ENERGY PREDICTED BY IDOCK:   -4.69 KCAL/MOL
REMARK 922        TOTAL FREE ENERGY PREDICTED BY IDOCK:   -5.71 KCAL/MOL
REMARK 923 INTER-LIGAND FREE ENERGY PREDICTED BY IDOCK:   -4.99 KCAL/MOL
REMARK 924 INTRA-LIGAND FREE ENERGY PREDICTED BY IDOCK:   -0.72 KCAL/MOL
REMARK 927      BINDING AFFINITY PREDICTED BY RF-SCORE:    0.00 PKD
ROOT
HETATM    1  O   UNL     1     -11.118   8.100  68.010  1.00  0.00    -0.451 OA 
HETATM    2  C   UNL     1      -9.951   8.284  68.821  1.00  0.00    -0.183 C  
HETATM    3  H   UNL     1     -11.785   8.708  68.307  1.00  0.00     0.000 HD 
HETATM    4  C   UNL     1      -8.858   7.288  68.336  1.00  0.00    -0.128 C  
HETATM    5  C   UNL     1      -9.405   9.767  68.629  1.00  0.00    -0.147 C  
HETATM    6  C   UNL     1     -10.359   8.034  70.286  1.00  0.00    -0.212 A  
HETATM    7  C   UNL     1      -8.946  10.144  67.198  1.00  0.00    -0.146 C  
HETATM    8  C   UNL     1     -11.698   7.766  70.632  1.00  0.00    -0.191 A  
HETATM    9  C   UNL     1      -9.826   8.002  72.670  1.00  0.00    -0.347 A  
HETATM   10  C   UNL     1      -9.424   8.127  71.332  1.00  0.00    -0.211 A  
HETATM   11  C   UNL     1     -12.094   7.639  71.965  1.00  0.00    -0.336 A  
HETATM   12  C   UNL     1     -10.086  10.303  66.200  1.00  0.00    -0.307 C  
HETATM   13  C   UNL     1     -10.353  10.890  69.095  1.00  0.00    -0.228 C  
HETATM   14  C   UNL     1     -11.161   7.768  72.985  1.00  0.00    -0.419 A  
HETATM   15  C   UNL     1     -11.155  11.278  66.683  1.00  0.00    -0.299 C  
HETATM   16  C   UNL     1     -11.529  11.158  68.161  1.00  0.00    -0.373 C  
ENDROOT
BRANCH   4  17
HETATM   17  C   UNL     1      -9.218   5.792  68.313  1.00  0.00    -0.117 C  
BRANCH  17  18
HETATM   18  N   UNL     1      -8.147   4.946  68.896  1.00  0.00    -0.083 NA 
HETATM   19  C   UNL     1      -9.404   2.688  70.353  1.00  0.00    -0.212 C  
HETATM   20  C   UNL     1      -8.204   4.929  70.369  1.00  0.00    -0.088 C  
HETATM   21  C   UNL     1      -9.361   4.098  70.939  1.00  0.00    -0.217 C  
HETATM   22  C   UNL     1      -9.281   2.709  68.833  1.00  0.00    -0.224 C  
HETATM   23  C   UNL     1      -8.086   3.560  68.403  1.00  0.00    -0.070 C  
ENDBRANCH  17  18
ENDBRANCH   4  17
TORSDOF 2
ENDMDL
MODEL       82
REMARK 921   NORMALIZED FREE ENERGY PREDICTED BY IDOCK:   -4.69 KCAL/MOL
REMARK 922        TOTAL FREE ENERGY PREDICTED BY IDOCK:   -5.70 KCAL/MOL
REMARK 923 INTER-LIGAND FREE ENERGY PREDICTED BY IDOCK:   -5.05 KCAL/MOL
REMARK 924 INTRA-LIGAND FREE ENERGY PREDICTED BY IDOCK:   -0.65 KCAL/MOL
REMARK 927      BINDING AFFINITY PREDICTED BY RF-SCORE:    0.00 PKD
ROOT
HETATM    1  O   UNL     1      -8.818   6.743  69.071  1.00  0.00    -0.130 OA 
HETATM    2  C   UNL     1     -10.178   6.294  69.083  1.00  0.00    -0.187 C  
HETATM    3  H   UNL     1      -8.441   6.571  69.926  1.00  0.00     0.000 HD 
HETATM    4  C   UNL     1     -10.797   6.575  67.682  1.00  0.00    -0.419 C  
HETATM    5  C   UNL     1     -10.213   4.724  69.346  1.00  0.00    -0.166 C  
HETATM    6  C   UNL     1     -10.909   7.056  70.206  1.00  0.00    -0.283 A  
HETATM    7  C   UNL     1      -9.523   3.839  68.278  1.00  0.00    -0.215 C  
HETATM    8  C   UNL     1     -10.215   7.944  71.052  1.00  0.00    -0.217 A  
HETATM    9  C   UNL     1     -12.904   7.464  71.555  1.00  0.00    -0.416 A  
HETATM   10  C   UNL     1     -12.274   6.845  70.466  1.00  0.00    -0.253 A  
HETATM   11  C   UNL     1     -10.846   8.561  72.134  1.00  0.00    -0.427 A  
HETATM   12  C   UNL     1      -8.002   3.930  68.283  1.00  0.00    -0.076 C  
HETATM   13  C   UNL     1      -9.667   4.267  70.714  1.00  0.00    -0.274 C  
HETATM   14  C   UNL     1     -12.188   8.313  72.394  1.00  0.00    -0.412 A  
HETATM   15  C   UNL     1      -7.403   3.658  69.658  1.00  0.00    -0.045 C  
HETATM   16  C   UNL     1      -8.146   4.296  70.833  1.00  0.00    -0.071 C  
ENDROOT
BRANCH   4  17
HETATM   17  C   UNL     1     -10.754   8.022  67.162  1.00  0.00    -0.215 C  
BRANCH  17  18
HETATM   18  N   UNL     1      -9.369   8.544  67.063  1.00  0.00    -0.153 NA 
HETATM   19  C   UNL     1      -9.425  11.125  65.602  1.00  0.00    -0.252 C  
HETATM   20  C   UNL     1      -8.917   8.634  65.663  1.00  0.00    -0.182 C  
HETATM   21  C   UNL     1      -9.554   9.787  64.876  1.00  0.00    -0.316 C  
HETATM   22  C   UNL     1      -9.834  11.009  67.066  1.00  0.00    -0.211 C  
HETATM   23  C   UNL     1      -9.120   9.833  67.732  1.00  0.00    -0.131 C  
ENDBRANCH  17  18
ENDBRANCH   4  17
TORSDOF 2
ENDMDL
MODEL       83
REMARK 921   NORMALIZED FREE ENERGY PREDICTED BY IDOCK:   -4.67 KCAL/MOL
REMARK 922        TOTAL FREE ENERGY PREDICTED BY IDOCK:   -5.68 KCAL/MOL
REMARK 923 INTER-LIGAND FREE ENERGY PREDICTED BY IDOCK:   -5.30 KCAL/MOL
REMARK 924 INTRA-LIGAND FREE ENERGY PREDICTED BY IDOCK:   -0.38 KCAL/MOL
REMARK 927      BINDING AFFINITY PREDICTED BY RF-SCORE:    0.00 PKD
ROOT
HETATM    1  O   UNL     1     -10.838  13.527  67.362  1.00  0.00    -0.264 OA 
HETATM    2  C   UNL     1      -9.842  14.259  66.640  1.00  0.00    -0.281 C  
HETATM    3  H   UNL     1     -11.675  13.958  67.234  1.00  0.00     0.000 HD 
HETATM    4  C   UNL     1      -8.470  13.553  66.848  1.00  0.00    -0.066 C  
HETATM    5  C   UNL     1     -10.192  14.236  65.087  1.00  0.00    -0.414 C  
HETATM    6  C   UNL     1      -9.843  15.703  67.181  1.00  0.00    -0.229 A  
HETATM    7  C   UNL     1     -10.209  12.841  64.414  1.00  0.00    -0.344 C  
HETATM    8  C   UNL     1     -10.775  16.113  68.155  1.00  0.00    -0.315 A  
HETATM    9  C   UNL     1      -9.038  18.008  67.103  1.00  0.00    -0.256 A  
HETATM   10  C   UNL     1      -8.959  16.674  66.679  1.00  0.00    -0.285 A  
HETATM   11  C   UNL     1     -10.850  17.442  68.577  1.00  0.00    -0.190 A  
HETATM   12  C   UNL     1     -11.392  11.969  64.819  1.00  0.00    -0.369 C  
HETATM   13  C   UNL     1     -11.511  14.929  64.692  1.00  0.00    -0.380 C  
HETATM   14  C   UNL     1      -9.989  18.393  68.044  1.00  0.00    -0.374 A  
HETATM   15  C   UNL     1     -12.732  12.668  64.616  1.00  0.00    -0.458 C  
HETATM   16  C   UNL     1     -12.771  14.139  65.031  1.00  0.00    -0.336 C  
ENDROOT
BRANCH   4  17
HETATM   17  C   UNL     1      -7.988  13.349  68.295  1.00  0.00    -0.147 C  
BRANCH  17  18
HETATM   18  N   UNL     1      -6.508  13.290  68.393  1.00  0.00    -0.082 NA 
HETATM   19  C   UNL     1      -5.694  10.473  68.843  1.00  0.00    -0.040 C  
HETATM   20  C   UNL     1      -6.066  12.830  69.721  1.00  0.00    -0.131 C  
HETATM   21  C   UNL     1      -6.279  11.330  69.965  1.00  0.00    -0.149 C  
HETATM   22  C   UNL     1      -6.105  10.993  67.469  1.00  0.00    -0.050 C  
HETATM   23  C   UNL     1      -5.829  12.493  67.358  1.00  0.00    -0.137 C  
ENDBRANCH  17  18
ENDBRANCH   4  17
TORSDOF 2
ENDMDL
MODEL       84
REMARK 921   NORMALIZED FREE ENERGY PREDICTED BY IDOCK:   -4.67 KCAL/MOL
REMARK 922        TOTAL FREE ENERGY PREDICTED BY IDOCK:   -5.68 KCAL/MOL
REMARK 923 INTER-LIGAND FREE ENERGY PREDICTED BY IDOCK:   -5.18 KCAL/MOL
REMARK 924 INTRA-LIGAND FREE ENERGY PREDICTED BY IDOCK:   -0.50 KCAL/MOL
REMARK 927      BINDING AFFINITY PREDICTED BY RF-SCORE:    0.00 PKD
ROOT
HETATM    1  O   UNL     1     -10.442  16.484  66.747  1.00  0.00    -0.296 OA 
HETATM    2  C   UNL     1      -9.679  16.267  67.939  1.00  0.00    -0.233 C  
HETATM    3  H   UNL     1     -11.146  17.089  66.950  1.00  0.00     0.000 HD 
HETATM    4  C   UNL     1      -8.525  15.276  67.607  1.00  0.00    -0.172 C  
HETATM    5  C   UNL     1      -9.040  17.646  68.414  1.00  0.00    -0.277 C  
HETATM    6  C   UNL     1     -10.637  15.709  69.010  1.00  0.00    -0.234 A  
HETATM    7  C   UNL     1      -8.042  18.308  67.431  1.00  0.00    -0.232 C  
HETATM    8  C   UNL     1     -12.015  15.570  68.750  1.00  0.00    -0.265 A  
HETATM    9  C   UNL     1     -11.080  14.972  71.296  1.00  0.00    -0.187 A  
HETATM   10  C   UNL     1     -10.183  15.379  70.299  1.00  0.00    -0.134 A  
HETATM   11  C   UNL     1     -12.906  15.161  69.744  1.00  0.00     0.049 A  
HETATM   12  C   UNL     1      -8.694  18.898  66.186  1.00  0.00    -0.175 C  
HETATM   13  C   UNL     1     -10.046  18.741  68.820  1.00  0.00    -0.407 C  
HETATM   14  C   UNL     1     -12.441  14.872  71.021  1.00  0.00    -0.396 A  
HETATM   15  C   UNL     1      -9.825  19.865  66.518  1.00  0.00    -0.567 C  
HETATM   16  C   UNL     1     -10.752  19.422  67.651  1.00  0.00    -0.536 C  
ENDROOT
BRANCH   4  17
HETATM   17  C   UNL     1      -8.910  13.913  67.007  1.00  0.00    -0.218 C  
BRANCH  17  18
HETATM   18  N   UNL     1      -8.699  12.797  67.962  1.00  0.00    -0.187 NA 
HETATM   19  C   UNL     1      -6.768  10.881  66.779  1.00  0.00    -0.120 C  
HETATM   20  C   UNL     1      -9.151  11.509  67.406  1.00  0.00    -0.166 C  
HETATM   21  C   UNL     1      -8.225  10.938  66.323  1.00  0.00    -0.165 C  
HETATM   22  C   UNL     1      -6.327  12.197  67.410  1.00  0.00    -0.144 C  
HETATM   23  C   UNL     1      -7.328  12.644  68.476  1.00  0.00    -0.115 C  
ENDBRANCH  17  18
ENDBRANCH   4  17
TORSDOF 2
ENDMDL
MODEL       85
REMARK 921   NORMALIZED FREE ENERGY PREDICTED BY IDOCK:   -4.63 KCAL/MOL
REMARK 922        TOTAL FREE ENERGY PREDICTED BY IDOCK:   -5.63 KCAL/MOL
REMARK 923 INTER-LIGAND FREE ENERGY PREDICTED BY IDOCK:   -5.20 KCAL/MOL
REMARK 924 INTRA-LIGAND FREE ENERGY PREDICTED BY IDOCK:   -0.43 KCAL/MOL
REMARK 927      BINDING AFFINITY PREDICTED BY RF-SCORE:    0.00 PKD
ROOT
HETATM    1  O   UNL     1      -9.848  10.560  70.326  1.00  0.00    -0.327 OA 
HETATM    2  C   UNL     1     -10.547   9.886  69.273  1.00  0.00    -0.224 C  
HETATM    3  H   UNL     1      -9.702  11.460  70.058  1.00  0.00     0.000 HD 
HETATM    4  C   UNL     1     -10.788   8.412  69.711  1.00  0.00    -0.184 C  
HETATM    5  C   UNL     1     -11.960  10.584  69.046  1.00  0.00    -0.095 C  
HETATM    6  C   UNL     1      -9.677   9.982  68.004  1.00  0.00    -0.158 A  
HETATM    7  C   UNL     1     -12.939  10.545  70.246  1.00  0.00    -0.115 C  
HETATM    8  C   UNL     1      -8.470  10.710  68.003  1.00  0.00    -0.119 A  
HETATM    9  C   UNL     1      -9.339   9.583  65.617  1.00  0.00    -0.302 A  
HETATM   10  C   UNL     1     -10.086   9.401  66.790  1.00  0.00    -0.325 A  
HETATM   11  C   UNL     1      -7.728  10.886  66.834  1.00  0.00    -0.135 A  
HETATM   12  C   UNL     1     -12.540  11.450  71.404  1.00  0.00    -0.439 C  
HETATM   13  C   UNL     1     -11.908  12.050  68.570  1.00  0.00    -0.369 C  
HETATM   14  C   UNL     1      -8.167  10.332  65.638  1.00  0.00    -0.153 A  
HETATM   15  C   UNL     1     -12.301  12.892  70.967  1.00  0.00    -0.318 C  
HETATM   16  C   UNL     1     -11.537  13.058  69.653  1.00  0.00    -0.322 C  
ENDROOT
BRANCH   4  17
HETATM   17  C   UNL     1      -9.558   7.578  70.108  1.00  0.00    -0.168 C  
BRANCH  17  18
HETATM   18  N   UNL     1      -9.903   6.469  71.033  1.00  0.00    -0.179 NA 
HETATM   19  C   UNL     1      -9.502   7.397  73.822  1.00  0.00    -0.328 C  
HETATM   20  C   UNL     1      -8.737   6.031  71.819  1.00  0.00    -0.138 C  
HETATM   21  C   UNL     1      -8.326   7.010  72.927  1.00  0.00    -0.121 C  
HETATM   22  C   UNL     1     -10.726   7.789  73.001  1.00  0.00    -0.446 C  
HETATM   23  C   UNL     1     -11.029   6.725  71.947  1.00  0.00    -0.239 C  
ENDBRANCH  17  18
ENDBRANCH   4  17
TORSDOF 2
ENDMDL
MODEL       86
REMARK 921   NORMALIZED FREE ENERGY PREDICTED BY IDOCK:   -4.62 KCAL/MOL
REMARK 922        TOTAL FREE ENERGY PREDICTED BY IDOCK:   -5.62 KCAL/MOL
REMARK 923 INTER-LIGAND FREE ENERGY PREDICTED BY IDOCK:   -4.91 KCAL/MOL
REMARK 924 INTRA-LIGAND FREE ENERGY PREDICTED BY IDOCK:   -0.71 KCAL/MOL
REMARK 927      BINDING AFFINITY PREDICTED BY RF-SCORE:    0.00 PKD
ROOT
HETATM    1  O   UNL     1      -8.573   7.188  67.996  1.00  0.00    -0.127 OA 
HETATM    2  C   UNL     1      -9.961   6.845  68.075  1.00  0.00    -0.154 C  
HETATM    3  H   UNL     1      -8.086   6.589  68.551  1.00  0.00     0.000 HD 
HETATM    4  C   UNL     1     -10.759   7.825  67.166  1.00  0.00    -0.337 C  
HETATM    5  C   UNL     1     -10.170   5.364  67.529  1.00  0.00    -0.243 C  
HETATM    6  C   UNL     1     -10.382   6.949  69.554  1.00  0.00    -0.224 A  
HETATM    7  C   UNL     1      -9.797   5.127  66.044  1.00  0.00    -0.184 C  
HETATM    8  C   UNL     1      -9.441   7.253  70.558  1.00  0.00    -0.165 A  
HETATM    9  C   UNL     1     -12.049   6.678  71.319  1.00  0.00    -0.395 A  
HETATM   10  C   UNL     1     -11.702   6.683  69.961  1.00  0.00    -0.378 A  
HETATM   11  C   UNL     1      -9.791   7.250  71.910  1.00  0.00    -0.180 A  
HETATM   12  C   UNL     1      -8.299   5.149  65.768  1.00  0.00    -0.120 C  
HETATM   13  C   UNL     1      -9.474   4.252  68.338  1.00  0.00    -0.215 C  
HETATM   14  C   UNL     1     -11.093   6.952  72.292  1.00  0.00    -0.284 A  
HETATM   15  C   UNL     1      -7.523   4.190  66.664  1.00  0.00    -0.080 C  
HETATM   16  C   UNL     1      -7.965   4.161  68.128  1.00  0.00    -0.081 C  
ENDROOT
BRANCH   4  17
HETATM   17  C   UNL     1     -10.601   9.331  67.434  1.00  0.00    -0.255 C  
BRANCH  17  18
HETATM   18  N   UNL     1      -9.381   9.892  66.802  1.00  0.00    -0.147 NA 
HETATM   19  C   UNL     1     -10.160  12.198  65.107  1.00  0.00    -0.288 C  
HETATM   20  C   UNL     1      -9.423   9.775  65.334  1.00  0.00    -0.269 C  
HETATM   21  C   UNL     1     -10.390  10.756  64.658  1.00  0.00    -0.394 C  
HETATM   22  C   UNL     1     -10.054  12.302  66.624  1.00  0.00    -0.231 C  
HETATM   23  C   UNL     1      -9.052  11.281  67.164  1.00  0.00    -0.157 C  
ENDBRANCH  17  18
ENDBRANCH   4  17
TORSDOF 2
ENDMDL
MODEL       87
REMARK 921   NORMALIZED FREE ENERGY PREDICTED BY IDOCK:   -4.58 KCAL/MOL
REMARK 922        TOTAL FREE ENERGY PREDICTED BY IDOCK:   -5.58 KCAL/MOL
REMARK 923 INTER-LIGAND FREE ENERGY PREDICTED BY IDOCK:   -4.83 KCAL/MOL
REMARK 924 INTRA-LIGAND FREE ENERGY PREDICTED BY IDOCK:   -0.75 KCAL/MOL
REMARK 927      BINDING AFFINITY PREDICTED BY RF-SCORE:    0.00 PKD
ROOT
HETATM    1  O   UNL     1      -8.902   6.643  70.418  1.00  0.00    -0.149 OA 
HETATM    2  C   UNL     1      -9.995   6.742  69.497  1.00  0.00    -0.162 C  
HETATM    3  H   UNL     1      -8.711   7.513  70.748  1.00  0.00     0.000 HD 
HETATM    4  C   UNL     1     -10.310   5.317  68.957  1.00  0.00    -0.246 C  
HETATM    5  C   UNL     1     -11.280   7.289  70.262  1.00  0.00    -0.287 C  
HETATM    6  C   UNL     1      -9.571   7.711  68.376  1.00  0.00    -0.155 A  
HETATM    7  C   UNL     1     -11.820   6.397  71.409  1.00  0.00    -0.340 C  
HETATM    8  C   UNL     1      -8.330   8.377  68.421  1.00  0.00    -0.131 A  
HETATM    9  C   UNL     1     -10.077   8.971  66.345  1.00  0.00    -0.351 A  
HETATM   10  C   UNL     1     -10.430   8.011  67.304  1.00  0.00    -0.384 A  
HETATM   11  C   UNL     1      -7.981   9.331  67.464  1.00  0.00    -0.099 A  
HETATM   12  C   UNL     1     -10.937   6.379  72.650  1.00  0.00    -0.284 C  
HETATM   13  C   UNL     1     -11.157   8.714  70.837  1.00  0.00    -0.310 C  
HETATM   14  C   UNL     1      -8.858   9.637  66.431  1.00  0.00    -0.168 A  
HETATM   15  C   UNL     1     -10.630   7.778  73.173  1.00  0.00    -0.415 C  
HETATM   16  C   UNL     1     -10.308   8.820  72.100  1.00  0.00    -0.378 C  
ENDROOT
BRANCH   4  17
HETATM   17  C   UNL     1      -9.163   4.541  68.287  1.00  0.00    -0.132 C  
BRANCH  17  18
HETATM   18  N   UNL     1      -9.605   3.828  67.063  1.00  0.00    -0.210 NA 
HETATM   19  C   UNL     1      -7.568   4.219  64.942  1.00  0.00    -0.077 C  
HETATM   20  C   UNL     1      -9.842   4.756  65.944  1.00  0.00    -0.211 C  
HETATM   21  C   UNL     1      -8.559   5.319  65.317  1.00  0.00    -0.150 C  
HETATM   22  C   UNL     1      -7.375   3.226  66.083  1.00  0.00    -0.072 C  
HETATM   23  C   UNL     1      -8.727   2.738  66.604  1.00  0.00    -0.122 C  
ENDBRANCH  17  18
ENDBRANCH   4  17
TORSDOF 2
ENDMDL
MODEL       88
REMARK 921   NORMALIZED FREE ENERGY PREDICTED BY IDOCK:   -4.55 KCAL/MOL
REMARK 922        TOTAL FREE ENERGY PREDICTED BY IDOCK:   -5.55 KCAL/MOL
REMARK 923 INTER-LIGAND FREE ENERGY PREDICTED BY IDOCK:   -4.95 KCAL/MOL
REMARK 924 INTRA-LIGAND FREE ENERGY PREDICTED BY IDOCK:   -0.60 KCAL/MOL
REMARK 927      BINDING AFFINITY PREDICTED BY RF-SCORE:    0.00 PKD
ROOT
HETATM    1  O   UNL     1     -11.384   7.584  69.229  1.00  0.00    -0.441 OA 
HETATM    2  C   UNL     1      -9.971   7.634  69.463  1.00  0.00    -0.182 C  
HETATM    3  H   UNL     1     -11.825   7.579  70.071  1.00  0.00     0.000 HD 
HETATM    4  C   UNL     1      -9.248   7.643  68.085  1.00  0.00    -0.138 C  
HETATM    5  C   UNL     1      -9.611   8.980  70.233  1.00  0.00    -0.230 C  
HETATM    6  C   UNL     1      -9.597   6.401  70.309  1.00  0.00    -0.177 A  
HETATM    7  C   UNL     1      -9.925  10.298  69.483  1.00  0.00    -0.252 C  
HETATM    8  C   UNL     1     -10.587   5.511  70.774  1.00  0.00    -0.320 A  
HETATM    9  C   UNL     1      -7.954   5.090  71.554  1.00  0.00    -0.112 A  
HETATM   10  C   UNL     1      -8.269   6.155  70.698  1.00  0.00    -0.121 A  
HETATM   11  C   UNL     1     -10.270   4.449  71.624  1.00  0.00    -0.186 A  
HETATM   12  C   UNL     1     -11.412  10.613  69.374  1.00  0.00    -0.356 C  
HETATM   13  C   UNL     1     -10.219   9.123  71.643  1.00  0.00    -0.372 C  
HETATM   14  C   UNL     1      -8.955   4.244  72.024  1.00  0.00    -0.145 A  
HETATM   15  C   UNL     1     -12.115  10.598  70.727  1.00  0.00    -0.474 C  
HETATM   16  C   UNL     1     -11.707   9.460  71.663  1.00  0.00    -0.468 C  
ENDROOT
BRANCH   4  17
HETATM   17  C   UNL     1      -9.553   6.490  67.114  1.00  0.00    -0.136 C  
BRANCH  17  18
HETATM   18  N   UNL     1      -8.352   5.669  66.819  1.00  0.00    -0.108 NA 
HETATM   19  C   UNL     1      -9.216   3.144  65.525  1.00  0.00    -0.145 C  
HETATM   20  C   UNL     1      -8.361   4.398  67.565  1.00  0.00    -0.099 C  
HETATM   21  C   UNL     1      -9.365   3.368  67.029  1.00  0.00    -0.212 C  
HETATM   22  C   UNL     1      -9.143   4.465  64.766  1.00  0.00    -0.152 C  
HETATM   23  C   UNL     1      -8.100   5.389  65.395  1.00  0.00    -0.120 C  
ENDBRANCH  17  18
ENDBRANCH   4  17
TORSDOF 2
ENDMDL
MODEL       89
REMARK 921   NORMALIZED FREE ENERGY PREDICTED BY IDOCK:   -4.55 KCAL/MOL
REMARK 922        TOTAL FREE ENERGY PREDICTED BY IDOCK:   -5.55 KCAL/MOL
REMARK 923 INTER-LIGAND FREE ENERGY PREDICTED BY IDOCK:   -4.93 KCAL/MOL
REMARK 924 INTRA-LIGAND FREE ENERGY PREDICTED BY IDOCK:   -0.62 KCAL/MOL
REMARK 927      BINDING AFFINITY PREDICTED BY RF-SCORE:    0.00 PKD
ROOT
HETATM    1  O   UNL     1      -9.204   6.702  70.148  1.00  0.00    -0.154 OA 
HETATM    2  C   UNL     1     -10.323   7.253  69.444  1.00  0.00    -0.208 C  
HETATM    3  H   UNL     1      -8.808   7.394  70.665  1.00  0.00     0.000 HD 
HETATM    4  C   UNL     1     -10.974   6.120  68.598  1.00  0.00    -0.415 C  
HETATM    5  C   UNL     1     -11.398   7.783  70.493  1.00  0.00    -0.253 C  
HETATM    6  C   UNL     1      -9.798   8.406  68.567  1.00  0.00    -0.186 A  
HETATM    7  C   UNL     1     -12.018   6.716  71.429  1.00  0.00    -0.405 C  
HETATM    8  C   UNL     1      -8.444   8.798  68.615  1.00  0.00    -0.129 A  
HETATM    9  C   UNL     1     -10.190  10.259  67.024  1.00  0.00    -0.282 A  
HETATM   10  C   UNL     1     -10.658   9.147  67.738  1.00  0.00    -0.289 A  
HETATM   11  C   UNL     1      -7.980   9.904  67.901  1.00  0.00    -0.104 A  
HETATM   12  C   UNL     1     -11.061   6.188  72.491  1.00  0.00    -0.313 C  
HETATM   13  C   UNL     1     -10.930   8.941  71.396  1.00  0.00    -0.380 C  
HETATM   14  C   UNL     1      -8.855  10.643  67.114  1.00  0.00    -0.139 A  
HETATM   15  C   UNL     1     -10.424   7.303  73.313  1.00  0.00    -0.416 C  
HETATM   16  C   UNL     1      -9.978   8.530  72.516  1.00  0.00    -0.322 C  
ENDROOT
BRANCH   4  17
HETATM   17  C   UNL     1     -10.075   5.372  67.599  1.00  0.00    -0.175 C  
BRANCH  17  18
HETATM   18  N   UNL     1      -8.882   4.776  68.251  1.00  0.00    -0.102 NA 
HETATM   19  C   UNL     1      -8.228   2.223  66.889  1.00  0.00    -0.084 C  
HETATM   20  C   UNL     1      -9.193   3.479  68.878  1.00  0.00    -0.162 C  
HETATM   21  C   UNL     1      -9.388   2.333  67.877  1.00  0.00    -0.232 C  
HETATM   22  C   UNL     1      -7.871   3.579  66.291  1.00  0.00    -0.088 C  
HETATM   23  C   UNL     1      -7.693   4.622  67.395  1.00  0.00    -0.090 C  
ENDBRANCH  17  18
ENDBRANCH   4  17
TORSDOF 2
ENDMDL
MODEL       90
REMARK 921   NORMALIZED FREE ENERGY PREDICTED BY IDOCK:   -4.51 KCAL/MOL
REMARK 922        TOTAL FREE ENERGY PREDICTED BY IDOCK:   -5.51 KCAL/MOL
REMARK 923 INTER-LIGAND FREE ENERGY PREDICTED BY IDOCK:   -5.07 KCAL/MOL
REMARK 924 INTRA-LIGAND FREE ENERGY PREDICTED BY IDOCK:   -0.43 KCAL/MOL
REMARK 927      BINDING AFFINITY PREDICTED BY RF-SCORE:    0.00 PKD
ROOT
HETATM    1  O   UNL     1      -8.722   7.971  69.142  1.00  0.00    -0.136 OA 
HETATM    2  C   UNL     1      -9.927   7.600  68.462  1.00  0.00    -0.180 C  
HETATM    3  H   UNL     1      -8.051   8.139  68.490  1.00  0.00     0.000 HD 
HETATM    4  C   UNL     1     -11.025   7.325  69.531  1.00  0.00    -0.182 C  
HETATM    5  C   UNL     1     -10.406   8.807  67.542  1.00  0.00    -0.334 C  
HETATM    6  C   UNL     1      -9.615   6.352  67.613  1.00  0.00    -0.126 A  
HETATM    7  C   UNL     1     -10.766  10.122  68.278  1.00  0.00    -0.277 C  
HETATM    8  C   UNL     1      -8.309   5.827  67.543  1.00  0.00    -0.104 A  
HETATM    9  C   UNL     1     -10.288   4.663  65.980  1.00  0.00    -0.318 A  
HETATM   10  C   UNL     1     -10.606   5.733  66.830  1.00  0.00    -0.377 A  
HETATM   11  C   UNL     1      -7.997   4.761  66.698  1.00  0.00    -0.103 A  
HETATM   12  C   UNL     1      -9.564  10.869  68.843  1.00  0.00    -0.192 C  
HETATM   13  C   UNL     1      -9.447   9.194  66.399  1.00  0.00    -0.288 C  
HETATM   14  C   UNL     1      -8.984   4.185  65.908  1.00  0.00    -0.126 A  
HETATM   15  C   UNL     1      -8.490  11.131  67.792  1.00  0.00    -0.124 C  
HETATM   16  C   UNL     1      -8.209   9.968  66.841  1.00  0.00    -0.121 C  
ENDROOT
BRANCH   4  17
HETATM   17  C   UNL     1     -10.719   6.275  70.612  1.00  0.00    -0.264 C  
BRANCH  17  18
HETATM   18  N   UNL     1     -11.615   6.398  71.788  1.00  0.00    -0.304 NA 
HETATM   19  C   UNL     1      -9.955   6.546  74.242  1.00  0.00    -0.362 C  
HETATM   20  C   UNL     1     -11.493   5.242  72.693  1.00  0.00    -0.201 C  
HETATM   21  C   UNL     1     -10.195   5.226  73.512  1.00  0.00    -0.229 C  
HETATM   22  C   UNL     1     -10.145   7.741  73.314  1.00  0.00    -0.374 C  
HETATM   23  C   UNL     1     -11.478   7.638  72.571  1.00  0.00    -0.352 C  
ENDBRANCH  17  18
ENDBRANCH   4  17
TORSDOF 2
ENDMDL
MODEL       91
REMARK 921   NORMALIZED FREE ENERGY PREDICTED BY IDOCK:   -4.51 KCAL/MOL
REMARK 922        TOTAL FREE ENERGY PREDICTED BY IDOCK:   -5.50 KCAL/MOL
REMARK 923 INTER-LIGAND FREE ENERGY PREDICTED BY IDOCK:   -4.77 KCAL/MOL
REMARK 924 INTRA-LIGAND FREE ENERGY PREDICTED BY IDOCK:   -0.73 KCAL/MOL
REMARK 927      BINDING AFFINITY PREDICTED BY RF-SCORE:    0.00 PKD
ROOT
HETATM    1  O   UNL     1      -9.325  11.120  69.491  1.00  0.00    -0.378 OA 
HETATM    2  C   UNL     1     -10.028   9.996  68.948  1.00  0.00    -0.192 C  
HETATM    3  H   UNL     1      -8.740  11.456  68.822  1.00  0.00     0.000 HD 
HETATM    4  C   UNL     1     -10.987   9.444  70.043  1.00  0.00    -0.267 C  
HETATM    5  C   UNL     1     -10.901  10.471  67.703  1.00  0.00    -0.355 C  
HETATM    6  C   UNL     1      -8.977   8.955  68.515  1.00  0.00    -0.134 A  
HETATM    7  C   UNL     1     -12.009  11.511  68.006  1.00  0.00    -0.174 C  
HETATM    8  C   UNL     1      -7.598   9.230  68.614  1.00  0.00    -0.081 A  
HETATM    9  C   UNL     1      -8.390   6.829  67.464  1.00  0.00    -0.122 A  
HETATM   10  C   UNL     1      -9.354   7.724  67.950  1.00  0.00    -0.148 A  
HETATM   11  C   UNL     1      -6.641   8.335  68.132  1.00  0.00    -0.057 A  
HETATM   12  C   UNL     1     -11.483  12.905  68.327  1.00  0.00    -0.348 C  
HETATM   13  C   UNL     1     -10.104  11.017  66.502  1.00  0.00    -0.270 C  
HETATM   14  C   UNL     1      -7.036   7.139  67.547  1.00  0.00    -0.088 A  
HETATM   15  C   UNL     1     -10.541  13.438  67.252  1.00  0.00    -0.256 C  
HETATM   16  C   UNL     1      -9.541  12.422  66.697  1.00  0.00    -0.230 C  
ENDROOT
BRANCH   4  17
HETATM   17  C   UNL     1     -10.368   9.041  71.392  1.00  0.00    -0.326 C  
BRANCH  17  18
HETATM   18  N   UNL     1     -10.839   7.710  71.852  1.00  0.00    -0.227 NA 
HETATM   19  C   UNL     1      -8.522   6.197  72.920  1.00  0.00    -0.119 C  
HETATM   20  C   UNL     1     -10.224   6.616  71.079  1.00  0.00    -0.191 C  
HETATM   21  C   UNL     1      -8.749   6.364  71.419  1.00  0.00    -0.131 C  
HETATM   22  C   UNL     1      -9.214   7.298  73.718  1.00  0.00    -0.281 C  
HETATM   23  C   UNL     1     -10.675   7.434  73.289  1.00  0.00    -0.391 C  
ENDBRANCH  17  18
ENDBRANCH   4  17
TORSDOF 2
ENDMDL
MODEL       92
REMARK 921   NORMALIZED FREE ENERGY PREDICTED BY IDOCK:   -4.49 KCAL/MOL
REMARK 922        TOTAL FREE ENERGY PREDICTED BY IDOCK:   -5.48 KCAL/MOL
REMARK 923 INTER-LIGAND FREE ENERGY PREDICTED BY IDOCK:   -5.05 KCAL/MOL
REMARK 924 INTRA-LIGAND FREE ENERGY PREDICTED BY IDOCK:   -0.43 KCAL/MOL
REMARK 927      BINDING AFFINITY PREDICTED BY RF-SCORE:    0.00 PKD
ROOT
HETATM    1  O   UNL     1     -10.272   7.257  66.358  1.00  0.00    -0.464 OA 
HETATM    2  C   UNL     1      -9.188   8.118  66.725  1.00  0.00    -0.164 C  
HETATM    3  H   UNL     1      -9.960   6.360  66.382  1.00  0.00     0.000 HD 
HETATM    4  C   UNL     1      -9.698   9.589  66.686  1.00  0.00    -0.270 C  
HETATM    5  C   UNL     1      -8.728   7.782  68.212  1.00  0.00    -0.127 C  
HETATM    6  C   UNL     1      -8.040   7.873  65.726  1.00  0.00    -0.123 A  
HETATM    7  C   UNL     1      -9.789   8.001  69.319  1.00  0.00    -0.178 C  
HETATM    8  C   UNL     1      -8.144   6.882  64.729  1.00  0.00    -0.095 A  
HETATM    9  C   UNL     1      -5.754   8.278  64.966  1.00  0.00    -0.044 A  
HETATM   10  C   UNL     1      -6.830   8.582  65.813  1.00  0.00    -0.067 A  
HETATM   11  C   UNL     1      -7.072   6.583  63.886  1.00  0.00    -0.051 A  
HETATM   12  C   UNL     1     -10.920   6.981  69.307  1.00  0.00    -0.211 C  
HETATM   13  C   UNL     1      -8.157   6.366  68.427  1.00  0.00    -0.113 C  
HETATM   14  C   UNL     1      -5.873   7.273  64.010  1.00  0.00    -0.037 A  
HETATM   15  C   UNL     1     -10.414   5.543  69.342  1.00  0.00    -0.360 C  
HETATM   16  C   UNL     1      -9.203   5.255  68.454  1.00  0.00    -0.135 C  
ENDROOT
BRANCH   4  17
HETATM   17  C   UNL     1     -10.312  10.094  65.369  1.00  0.00    -0.106 C  
BRANCH  17  18
HETATM   18  N   UNL     1     -10.002  11.523  65.114  1.00  0.00    -0.252 NA 
HETATM   19  C   UNL     1     -12.547  13.040  64.981  1.00  0.00    -0.515 C  
HETATM   20  C   UNL     1     -10.548  11.979  63.824  1.00  0.00    -0.430 C  
HETATM   21  C   UNL     1     -12.071  12.167  63.822  1.00  0.00    -0.620 C  
HETATM   22  C   UNL     1     -11.929  12.601  66.304  1.00  0.00    -0.439 C  
HETATM   23  C   UNL     1     -10.413  12.465  66.169  1.00  0.00    -0.248 C  
ENDBRANCH  17  18
ENDBRANCH   4  17
TORSDOF 2
ENDMDL
MODEL       93
REMARK 921   NORMALIZED FREE ENERGY PREDICTED BY IDOCK:   -4.49 KCAL/MOL
REMARK 922        TOTAL FREE ENERGY PREDICTED BY IDOCK:   -5.48 KCAL/MOL
REMARK 923 INTER-LIGAND FREE ENERGY PREDICTED BY IDOCK:   -4.78 KCAL/MOL
REMARK 924 INTRA-LIGAND FREE ENERGY PREDICTED BY IDOCK:   -0.70 KCAL/MOL
REMARK 927      BINDING AFFINITY PREDICTED BY RF-SCORE:    0.00 PKD
ROOT
HETATM    1  O   UNL     1     -10.835  11.907  66.713  1.00  0.00    -0.242 OA 
HETATM    2  C   UNL     1      -9.850  12.877  66.337  1.00  0.00    -0.268 C  
HETATM    3  H   UNL     1     -11.676  12.346  66.774  1.00  0.00     0.000 HD 
HETATM    4  C   UNL     1      -8.472  12.159  66.237  1.00  0.00     0.140 C  
HETATM    5  C   UNL     1     -10.215  13.473  64.907  1.00  0.00    -0.351 C  
HETATM    6  C   UNL     1      -9.854  13.983  67.411  1.00  0.00    -0.240 A  
HETATM    7  C   UNL     1     -10.232  12.464  63.732  1.00  0.00    -0.404 C  
HETATM    8  C   UNL     1     -10.779  13.961  68.474  1.00  0.00    -0.268 A  
HETATM    9  C   UNL     1      -9.063  16.134  68.256  1.00  0.00    -0.190 A  
HETATM   10  C   UNL     1      -8.980  15.082  67.333  1.00  0.00    -0.196 A  
HETATM   11  C   UNL     1     -10.857  15.009  69.393  1.00  0.00    -0.265 A  
HETATM   12  C   UNL     1     -11.405  11.492  63.763  1.00  0.00    -0.420 C  
HETATM   13  C   UNL     1     -11.542  14.255  64.832  1.00  0.00    -0.384 C  
HETATM   14  C   UNL     1     -10.007  16.101  69.279  1.00  0.00    -0.253 A  
HETATM   15  C   UNL     1     -12.751  12.201  63.866  1.00  0.00    -0.487 C  
HETATM   16  C   UNL     1     -12.795  13.383  64.835  1.00  0.00    -0.292 C  
ENDROOT
BRANCH   4  17
HETATM   17  C   UNL     1      -7.975  11.397  67.477  1.00  0.00    -0.127 C  
BRANCH  17  18
HETATM   18  N   UNL     1      -6.499  11.461  67.624  1.00  0.00    -0.059 NA 
HETATM   19  C   UNL     1      -5.845  11.984  70.469  1.00  0.00    -0.122 C  
HETATM   20  C   UNL     1      -6.051  12.792  68.067  1.00  0.00    -0.100 C  
HETATM   21  C   UNL     1      -6.347  13.091  69.543  1.00  0.00    -0.103 C  
HETATM   22  C   UNL     1      -6.260  10.605  69.969  1.00  0.00    -0.111 C  
HETATM   23  C   UNL     1      -5.897  10.437  68.494  1.00  0.00    -0.040 C  
ENDBRANCH  17  18
ENDBRANCH   4  17
TORSDOF 2
ENDMDL
MODEL       94
REMARK 921   NORMALIZED FREE ENERGY PREDICTED BY IDOCK:   -4.47 KCAL/MOL
REMARK 922        TOTAL FREE ENERGY PREDICTED BY IDOCK:   -5.46 KCAL/MOL
REMARK 923 INTER-LIGAND FREE ENERGY PREDICTED BY IDOCK:   -4.82 KCAL/MOL
REMARK 924 INTRA-LIGAND FREE ENERGY PREDICTED BY IDOCK:   -0.64 KCAL/MOL
REMARK 927      BINDING AFFINITY PREDICTED BY RF-SCORE:    0.00 PKD
ROOT
HETATM    1  O   UNL     1     -10.264  11.172  67.575  1.00  0.00    -0.179 OA 
HETATM    2  C   UNL     1      -8.866  10.943  67.367  1.00  0.00    -0.133 C  
HETATM    3  H   UNL     1     -10.739  10.404  67.278  1.00  0.00     0.000 HD 
HETATM    4  C   UNL     1      -8.088  12.201  67.854  1.00  0.00    -0.153 C  
HETATM    5  C   UNL     1      -8.401   9.692  68.236  1.00  0.00    -0.117 C  
HETATM    6  C   UNL     1      -8.657  10.675  65.864  1.00  0.00    -0.177 A  
HETATM    7  C   UNL     1      -8.545   9.839  69.772  1.00  0.00    -0.215 C  
HETATM    8  C   UNL     1      -9.752  10.610  64.978  1.00  0.00    -0.336 A  
HETATM    9  C   UNL     1      -7.212  10.079  63.986  1.00  0.00    -0.129 A  
HETATM   10  C   UNL     1      -7.379  10.425  65.335  1.00  0.00    -0.124 A  
HETATM   11  C   UNL     1      -9.582  10.268  63.635  1.00  0.00    -0.334 A  
HETATM   12  C   UNL     1      -9.986   9.805  70.267  1.00  0.00    -0.309 C  
HETATM   13  C   UNL     1      -9.050   8.345  67.862  1.00  0.00    -0.137 C  
HETATM   14  C   UNL     1      -8.314   9.991  63.140  1.00  0.00    -0.169 A  
HETATM   15  C   UNL     1     -10.743   8.573  69.784  1.00  0.00    -0.213 C  
HETATM   16  C   UNL     1     -10.495   8.184  68.326  1.00  0.00    -0.210 C  
ENDROOT
BRANCH   4  17
HETATM   17  C   UNL     1      -8.468  13.557  67.236  1.00  0.00    -0.193 C  
BRANCH  17  18
HETATM   18  N   UNL     1      -9.894  13.900  67.464  1.00  0.00    -0.232 NA 
HETATM   19  C   UNL     1     -10.363  16.683  66.551  1.00  0.00    -0.300 C  
HETATM   20  C   UNL     1     -10.043  15.002  68.431  1.00  0.00    -0.225 C  
HETATM   21  C   UNL     1      -9.659  16.378  67.872  1.00  0.00    -0.228 C  
HETATM   22  C   UNL     1     -10.258  15.513  65.578  1.00  0.00    -0.415 C  
HETATM   23  C   UNL     1     -10.680  14.210  66.258  1.00  0.00    -0.293 C  
ENDBRANCH  17  18
ENDBRANCH   4  17
TORSDOF 2
ENDMDL
MODEL       95
REMARK 921   NORMALIZED FREE ENERGY PREDICTED BY IDOCK:   -4.47 KCAL/MOL
REMARK 922        TOTAL FREE ENERGY PREDICTED BY IDOCK:   -5.46 KCAL/MOL
REMARK 923 INTER-LIGAND FREE ENERGY PREDICTED BY IDOCK:   -4.96 KCAL/MOL
REMARK 924 INTRA-LIGAND FREE ENERGY PREDICTED BY IDOCK:   -0.50 KCAL/MOL
REMARK 927      BINDING AFFINITY PREDICTED BY RF-SCORE:    0.00 PKD
ROOT
HETATM    1  O   UNL     1      -9.990  12.477  68.805  1.00  0.00    -0.393 OA 
HETATM    2  C   UNL     1      -9.650  11.823  67.577  1.00  0.00    -0.177 C  
HETATM    3  H   UNL     1      -9.504  13.292  68.853  1.00  0.00     0.000 HD 
HETATM    4  C   UNL     1     -10.446  10.488  67.498  1.00  0.00    -0.284 C  
HETATM    5  C   UNL     1     -10.082  12.744  66.352  1.00  0.00    -0.266 C  
HETATM    6  C   UNL     1      -8.126  11.593  67.580  1.00  0.00    -0.140 A  
HETATM    7  C   UNL     1     -11.597  13.041  66.225  1.00  0.00    -0.408 C  
HETATM    8  C   UNL     1      -7.320  12.073  68.633  1.00  0.00    -0.111 A  
HETATM    9  C   UNL     1      -6.081  10.845  66.471  1.00  0.00    -0.122 A  
HETATM   10  C   UNL     1      -7.479  10.955  66.507  1.00  0.00    -0.142 A  
HETATM   11  C   UNL     1      -5.929  11.958  68.596  1.00  0.00    -0.050 A  
HETATM   12  C   UNL     1     -12.136  13.990  67.288  1.00  0.00    -0.405 C  
HETATM   13  C   UNL     1      -9.359  14.102  66.254  1.00  0.00    -0.215 C  
HETATM   14  C   UNL     1      -5.308  11.354  67.510  1.00  0.00    -0.051 A  
HETATM   15  C   UNL     1     -11.349  15.294  67.364  1.00  0.00    -0.285 C  
HETATM   16  C   UNL     1      -9.831  15.148  67.261  1.00  0.00    -0.228 C  
ENDROOT
BRANCH   4  17
HETATM   17  C   UNL     1     -10.279   9.490  68.656  1.00  0.00    -0.195 C  
BRANCH  17  18
HETATM   18  N   UNL     1      -9.297   8.423  68.343  1.00  0.00    -0.135 NA 
HETATM   19  C   UNL     1     -10.742   5.846  68.075  1.00  0.00    -0.332 C  
HETATM   20  C   UNL     1      -9.238   7.404  69.407  1.00  0.00    -0.145 C  
HETATM   21  C   UNL     1     -10.453   6.467  69.440  1.00  0.00    -0.277 C  
HETATM   22  C   UNL     1     -10.738   6.897  66.970  1.00  0.00    -0.432 C  
HETATM   23  C   UNL     1      -9.472   7.751  67.045  1.00  0.00    -0.164 C  
ENDBRANCH  17  18
ENDBRANCH   4  17
TORSDOF 2
ENDMDL
MODEL       96
REMARK 921   NORMALIZED FREE ENERGY PREDICTED BY IDOCK:   -4.46 KCAL/MOL
REMARK 922        TOTAL FREE ENERGY PREDICTED BY IDOCK:   -5.45 KCAL/MOL
REMARK 923 INTER-LIGAND FREE ENERGY PREDICTED BY IDOCK:   -5.08 KCAL/MOL
REMARK 924 INTRA-LIGAND FREE ENERGY PREDICTED BY IDOCK:   -0.38 KCAL/MOL
REMARK 927      BINDING AFFINITY PREDICTED BY RF-SCORE:    0.00 PKD
ROOT
HETATM    1  O   UNL     1      -9.188  14.542  66.123  1.00  0.00    -0.455 OA 
HETATM    2  C   UNL     1      -9.260  14.551  67.554  1.00  0.00    -0.194 C  
HETATM    3  H   UNL     1      -8.987  13.657  65.841  1.00  0.00     0.000 HD 
HETATM    4  C   UNL     1      -9.589  16.001  68.017  1.00  0.00    -0.215 C  
HETATM    5  C   UNL     1     -10.436  13.589  68.028  1.00  0.00    -0.245 C  
HETATM    6  C   UNL     1      -7.900  14.062  68.091  1.00  0.00    -0.144 A  
HETATM    7  C   UNL     1     -11.863  13.980  67.567  1.00  0.00    -0.442 C  
HETATM    8  C   UNL     1      -6.885  13.631  67.214  1.00  0.00     0.126 A  
HETATM    9  C   UNL     1      -6.448  13.425  69.949  1.00  0.00     0.003 A  
HETATM   10  C   UNL     1      -7.649  13.969  69.471  1.00  0.00     0.292 A  
HETATM   11  C   UNL     1      -5.689  13.092  67.693  1.00  0.00    -0.118 A  
HETATM   12  C   UNL     1     -12.117  13.760  66.080  1.00  0.00    -0.477 C  
HETATM   13  C   UNL     1     -10.256  12.098  67.682  1.00  0.00    -0.206 C  
HETATM   14  C   UNL     1      -5.474  12.978  69.060  1.00  0.00    -0.069 A  
HETATM   15  C   UNL     1     -11.790  12.340  65.633  1.00  0.00    -0.423 C  
HETATM   16  C   UNL     1     -10.506  11.750  66.218  1.00  0.00    -0.281 C  
ENDROOT
BRANCH   4  17
HETATM   17  C   UNL     1      -8.644  17.125  67.558  1.00  0.00    -0.203 C  
BRANCH  17  18
HETATM   18  N   UNL     1      -8.673  18.293  68.474  1.00  0.00    -0.314 NA 
HETATM   19  C   UNL     1      -7.872  20.713  66.956  1.00  0.00    -0.307 C  
HETATM   20  C   UNL     1      -7.335  18.888  68.643  1.00  0.00    -0.310 C  
HETATM   21  C   UNL     1      -6.847  19.682  67.424  1.00  0.00    -0.234 C  
HETATM   22  C   UNL     1      -9.266  20.105  66.844  1.00  0.00    -0.499 C  
HETATM   23  C   UNL     1      -9.631  19.357  68.126  1.00  0.00    -0.358 C  
ENDBRANCH  17  18
ENDBRANCH   4  17
TORSDOF 2
ENDMDL
MODEL       97
REMARK 921   NORMALIZED FREE ENERGY PREDICTED BY IDOCK:   -4.45 KCAL/MOL
REMARK 922        TOTAL FREE ENERGY PREDICTED BY IDOCK:   -5.44 KCAL/MOL
REMARK 923 INTER-LIGAND FREE ENERGY PREDICTED BY IDOCK:   -4.75 KCAL/MOL
REMARK 924 INTRA-LIGAND FREE ENERGY PREDICTED BY IDOCK:   -0.69 KCAL/MOL
REMARK 927      BINDING AFFINITY PREDICTED BY RF-SCORE:    0.00 PKD
ROOT
HETATM    1  O   UNL     1      -8.894   8.097  69.240  1.00  0.00    -0.142 OA 
HETATM    2  C   UNL     1     -10.190   8.479  68.765  1.00  0.00    -0.200 C  
HETATM    3  H   UNL     1      -8.663   8.668  69.964  1.00  0.00     0.000 HD 
HETATM    4  C   UNL     1     -10.570   7.545  67.579  1.00  0.00    -0.331 C  
HETATM    5  C   UNL     1     -11.258   8.279  69.929  1.00  0.00    -0.031 C  
HETATM    6  C   UNL     1     -10.112   9.958  68.340  1.00  0.00    -0.189 A  
HETATM    7  C   UNL     1     -11.445   6.828  70.440  1.00  0.00    -0.419 C  
HETATM    8  C   UNL     1      -8.932  10.707  68.524  1.00  0.00    -0.156 A  
HETATM    9  C   UNL     1     -11.179  12.001  67.528  1.00  0.00    -0.357 A  
HETATM   10  C   UNL     1     -11.231  10.629  67.814  1.00  0.00    -0.383 A  
HETATM   11  C   UNL     1      -8.883  12.072  68.236  1.00  0.00    -0.182 A  
HETATM   12  C   UNL     1     -10.273   6.301  71.257  1.00  0.00    -0.238 C  
HETATM   13  C   UNL     1     -11.054   9.160  71.178  1.00  0.00    -0.393 C  
HETATM   14  C   UNL     1     -10.009  12.723  67.749  1.00  0.00    -0.219 A  
HETATM   15  C   UNL     1      -9.903   7.222  72.415  1.00  0.00    -0.188 C  
HETATM   16  C   UNL     1      -9.915   8.716  72.090  1.00  0.00    -0.386 C  
ENDROOT
BRANCH   4  17
HETATM   17  C   UNL     1      -9.601   7.481  66.386  1.00  0.00    -0.125 C  
BRANCH  17  18
HETATM   18  N   UNL     1      -8.530   6.472  66.584  1.00  0.00    -0.113 NA 
HETATM   19  C   UNL     1      -8.998   4.209  64.724  1.00  0.00    -0.140 C  
HETATM   20  C   UNL     1      -9.070   5.189  67.068  1.00  0.00    -0.112 C  
HETATM   21  C   UNL     1      -9.820   4.384  65.999  1.00  0.00    -0.241 C  
HETATM   22  C   UNL     1      -8.390   5.530  64.263  1.00  0.00    -0.107 C  
HETATM   23  C   UNL     1      -7.665   6.219  65.419  1.00  0.00    -0.097 C  
ENDBRANCH  17  18
ENDBRANCH   4  17
TORSDOF 2
ENDMDL
MODEL       98
REMARK 921   NORMALIZED FREE ENERGY PREDICTED BY IDOCK:   -4.45 KCAL/MOL
REMARK 922        TOTAL FREE ENERGY PREDICTED BY IDOCK:   -5.44 KCAL/MOL
REMARK 923 INTER-LIGAND FREE ENERGY PREDICTED BY IDOCK:   -4.87 KCAL/MOL
REMARK 924 INTRA-LIGAND FREE ENERGY PREDICTED BY IDOCK:   -0.57 KCAL/MOL
REMARK 927      BINDING AFFINITY PREDICTED BY RF-SCORE:    0.00 PKD
ROOT
HETATM    1  O   UNL     1      -8.367  15.665  66.865  1.00  0.00    -0.208 OA 
HETATM    2  C   UNL     1      -8.616  14.556  67.737  1.00  0.00    -0.175 C  
HETATM    3  H   UNL     1      -8.376  16.460  67.386  1.00  0.00     0.000 HD 
HETATM    4  C   UNL     1      -8.600  13.253  66.885  1.00  0.00    -0.116 C  
HETATM    5  C   UNL     1      -7.454  14.466  68.821  1.00  0.00    -0.133 C  
HETATM    6  C   UNL     1      -9.981  14.794  68.413  1.00  0.00    -0.223 A  
HETATM    7  C   UNL     1      -6.028  14.213  68.272  1.00  0.00    -0.119 C  
HETATM    8  C   UNL     1     -10.707  15.980  68.187  1.00  0.00    -0.311 A  
HETATM    9  C   UNL     1     -11.709  14.142  70.012  1.00  0.00    -0.358 A  
HETATM   10  C   UNL     1     -10.518  13.868  69.324  1.00  0.00    -0.001 A  
HETATM   11  C   UNL     1     -11.894  16.249  68.871  1.00  0.00    -0.060 A  
HETATM   12  C   UNL     1      -5.422  15.405  67.542  1.00  0.00     0.020 C  
HETATM   13  C   UNL     1      -7.347  15.667  69.782  1.00  0.00    -0.065 C  
HETATM   14  C   UNL     1     -12.390  15.336  69.793  1.00  0.00    -0.288 A  
HETATM   15  C   UNL     1      -5.444  16.679  68.379  1.00  0.00    -0.121 C  
HETATM   16  C   UNL     1      -6.733  16.921  69.167  1.00  0.00    -0.232 C  
ENDROOT
BRANCH   4  17
HETATM   17  C   UNL     1      -9.564  13.173  65.689  1.00  0.00     0.004 C  
BRANCH  17  18
HETATM   18  N   UNL     1     -10.416  11.959  65.732  1.00  0.00    -0.247 NA 
HETATM   19  C   UNL     1     -12.571  12.235  63.712  1.00  0.00    -0.577 C  
HETATM   20  C   UNL     1     -11.798  12.275  66.133  1.00  0.00    -0.329 C  
HETATM   21  C   UNL     1     -12.619  12.980  65.044  1.00  0.00    -0.515 C  
HETATM   22  C   UNL     1     -11.143  11.856  63.333  1.00  0.00    -0.463 C  
HETATM   23  C   UNL     1     -10.447  11.154  64.499  1.00  0.00    -0.350 C  
ENDBRANCH  17  18
ENDBRANCH   4  17
TORSDOF 2
ENDMDL
MODEL       99
REMARK 921   NORMALIZED FREE ENERGY PREDICTED BY IDOCK:   -4.44 KCAL/MOL
REMARK 922        TOTAL FREE ENERGY PREDICTED BY IDOCK:   -5.42 KCAL/MOL
REMARK 923 INTER-LIGAND FREE ENERGY PREDICTED BY IDOCK:   -5.00 KCAL/MOL
REMARK 924 INTRA-LIGAND FREE ENERGY PREDICTED BY IDOCK:   -0.43 KCAL/MOL
REMARK 927      BINDING AFFINITY PREDICTED BY RF-SCORE:    0.00 PKD
ROOT
HETATM    1  O   UNL     1      -9.300  11.594  69.274  1.00  0.00    -0.376 OA 
HETATM    2  C   UNL     1     -10.024  10.377  69.058  1.00  0.00    -0.214 C  
HETATM    3  H   UNL     1      -9.386  12.133  68.497  1.00  0.00     0.000 HD 
HETATM    4  C   UNL     1      -9.884   9.492  70.331  1.00  0.00    -0.329 C  
HETATM    5  C   UNL     1     -11.565  10.711  68.840  1.00  0.00    -0.320 C  
HETATM    6  C   UNL     1      -9.428   9.698  67.809  1.00  0.00    -0.146 A  
HETATM    7  C   UNL     1     -12.290  11.385  70.032  1.00  0.00    -0.311 C  
HETATM    8  C   UNL     1      -8.410  10.322  67.058  1.00  0.00    -0.126 A  
HETATM    9  C   UNL     1      -9.441   7.909  66.144  1.00  0.00    -0.158 A  
HETATM   10  C   UNL     1      -9.919   8.467  67.340  1.00  0.00    -0.274 A  
HETATM   11  C   UNL     1      -7.935   9.763  65.870  1.00  0.00    -0.111 A  
HETATM   12  C   UNL     1     -11.883  12.834  70.269  1.00  0.00    -0.292 C  
HETATM   13  C   UNL     1     -11.893  11.556  67.593  1.00  0.00    -0.194 C  
HETATM   14  C   UNL     1      -8.458   8.562  65.407  1.00  0.00    -0.190 A  
HETATM   15  C   UNL     1     -12.019  13.693  69.017  1.00  0.00    -0.392 C  
HETATM   16  C   UNL     1     -11.547  13.036  67.719  1.00  0.00    -0.385 C  
ENDROOT
BRANCH   4  17
HETATM   17  C   UNL     1      -8.461   9.149  70.806  1.00  0.00    -0.212 C  
BRANCH  17  18
HETATM   18  N   UNL     1      -8.316   7.716  71.162  1.00  0.00    -0.110 NA 
HETATM   19  C   UNL     1      -8.023   7.489  74.105  1.00  0.00    -0.200 C  
HETATM   20  C   UNL     1      -7.006   7.434  71.775  1.00  0.00    -0.062 C  
HETATM   21  C   UNL     1      -6.869   7.947  73.215  1.00  0.00    -0.109 C  
HETATM   22  C   UNL     1      -9.373   7.725  73.437  1.00  0.00    -0.346 C  
HETATM   23  C   UNL     1      -9.377   7.157  72.018  1.00  0.00    -0.137 C  
ENDBRANCH  17  18
ENDBRANCH   4  17
TORSDOF 2
ENDMDL
MODEL      100
REMARK 921   NORMALIZED FREE ENERGY PREDICTED BY IDOCK:   -4.41 KCAL/MOL
REMARK 922        TOTAL FREE ENERGY PREDICTED BY IDOCK:   -5.39 KCAL/MOL
REMARK 923 INTER-LIGAND FREE ENERGY PREDICTED BY IDOCK:   -4.86 KCAL/MOL
REMARK 924 INTRA-LIGAND FREE ENERGY PREDICTED BY IDOCK:   -0.53 KCAL/MOL
REMARK 927      BINDING AFFINITY PREDICTED BY RF-SCORE:    0.00 PKD
ROOT
HETATM    1  O   UNL     1      -8.225   8.186  68.080  1.00  0.00    -0.126 OA 
HETATM    2  C   UNL     1      -9.416   7.884  67.344  1.00  0.00    -0.144 C  
HETATM    3  H   UNL     1      -7.477   7.924  67.556  1.00  0.00     0.000 HD 
HETATM    4  C   UNL     1     -10.642   8.314  68.201  1.00  0.00    -0.169 C  
HETATM    5  C   UNL     1      -9.426   8.723  65.990  1.00  0.00    -0.302 C  
HETATM    6  C   UNL     1      -9.410   6.371  67.052  1.00  0.00    -0.143 A  
HETATM    7  C   UNL     1      -9.448  10.264  66.145  1.00  0.00    -0.229 C  
HETATM    8  C   UNL     1      -8.318   5.562  67.426  1.00  0.00    -0.103 A  
HETATM    9  C   UNL     1     -10.397   4.400  65.997  1.00  0.00    -0.210 A  
HETATM   10  C   UNL     1     -10.462   5.757  66.348  1.00  0.00    -0.217 A  
HETATM   11  C   UNL     1      -8.259   4.211  67.077  1.00  0.00    -0.100 A  
HETATM   12  C   UNL     1      -8.137  10.857  66.646  1.00  0.00    -0.147 C  
HETATM   13  C   UNL     1      -8.292   8.397  64.998  1.00  0.00    -0.169 C  
HETATM   14  C   UNL     1      -9.293   3.632  66.353  1.00  0.00    -0.194 A  
HETATM   15  C   UNL     1      -6.939  10.429  65.805  1.00  0.00    -0.136 C  
HETATM   16  C   UNL     1      -6.927   8.959  65.385  1.00  0.00    -0.080 C  
ENDROOT
BRANCH   4  17
HETATM   17  C   UNL     1     -10.765   7.718  69.615  1.00  0.00    -0.223 C  
BRANCH  17  18
HETATM   18  N   UNL     1     -10.283   8.652  70.663  1.00  0.00    -0.191 NA 
HETATM   19  C   UNL     1     -12.614  10.086  71.808  1.00  0.00    -0.504 C  
HETATM   20  C   UNL     1     -10.558  10.056  70.313  1.00  0.00    -0.295 C  
HETATM   21  C   UNL     1     -12.034  10.455  70.444  1.00  0.00    -0.409 C  
HETATM   22  C   UNL     1     -12.272   8.650  72.192  1.00  0.00    -0.453 C  
HETATM   23  C   UNL     1     -10.774   8.392  72.027  1.00  0.00    -0.317 C  
ENDBRANCH  17  18
ENDBRANCH   4  17
TORSDOF 2
ENDMDL
MODEL      101
REMARK 921   NORMALIZED FREE ENERGY PREDICTED BY IDOCK:   -4.39 KCAL/MOL
REMARK 922        TOTAL FREE ENERGY PREDICTED BY IDOCK:   -5.37 KCAL/MOL
REMARK 923 INTER-LIGAND FREE ENERGY PREDICTED BY IDOCK:   -4.63 KCAL/MOL
REMARK 924 INTRA-LIGAND FREE ENERGY PREDICTED BY IDOCK:   -0.74 KCAL/MOL
REMARK 927      BINDING AFFINITY PREDICTED BY RF-SCORE:    0.00 PKD
ROOT
HETATM    1  O   UNL     1      -8.458  13.127  68.917  1.00  0.00    -0.357 OA 
HETATM    2  C   UNL     1      -7.866  12.870  67.638  1.00  0.00    -0.168 C  
HETATM    3  H   UNL     1      -8.158  12.458  69.523  1.00  0.00     0.000 HD 
HETATM    4  C   UNL     1      -8.355  13.966  66.646  1.00  0.00     0.231 C  
HETATM    5  C   UNL     1      -6.282  12.969  67.760  1.00  0.00    -0.149 C  
HETATM    6  C   UNL     1      -8.296  11.456  67.203  1.00  0.00    -0.155 A  
HETATM    7  C   UNL     1      -5.716  14.349  68.178  1.00  0.00    -0.130 C  
HETATM    8  C   UNL     1      -9.066  10.636  68.053  1.00  0.00    -0.147 A  
HETATM    9  C   UNL     1      -8.194   9.586  65.634  1.00  0.00    -0.120 A  
HETATM   10  C   UNL     1      -7.885  10.911  65.974  1.00  0.00    -0.121 A  
HETATM   11  C   UNL     1      -9.374   9.318  67.710  1.00  0.00    -0.145 A  
HETATM   12  C   UNL     1      -5.974  14.712  69.635  1.00  0.00    -0.110 C  
HETATM   13  C   UNL     1      -5.620  11.926  68.683  1.00  0.00    -0.049 C  
HETATM   14  C   UNL     1      -8.930   8.788  66.506  1.00  0.00    -0.180 A  
HETATM   15  C   UNL     1      -5.496  13.634  70.602  1.00  0.00    -0.150 C  
HETATM   16  C   UNL     1      -5.793  12.196  70.175  1.00  0.00    -0.162 C  
ENDROOT
BRANCH   4  17
HETATM   17  C   UNL     1      -9.874  14.137  66.468  1.00  0.00    -0.290 C  
BRANCH  17  18
HETATM   18  N   UNL     1     -10.265  14.242  65.040  1.00  0.00    -0.406 NA 
HETATM   19  C   UNL     1     -12.763  12.698  64.622  1.00  0.00    -0.458 C  
HETATM   20  C   UNL     1     -10.244  12.929  64.370  1.00  0.00    -0.318 C  
HETATM   21  C   UNL     1     -11.407  12.009  64.764  1.00  0.00    -0.369 C  
HETATM   22  C   UNL     1     -12.759  14.081  65.263  1.00  0.00    -0.468 C  
HETATM   23  C   UNL     1     -11.559  14.894  64.777  1.00  0.00    -0.410 C  
ENDBRANCH  17  18
ENDBRANCH   4  17
TORSDOF 2
ENDMDL
MODEL      102
REMARK 921   NORMALIZED FREE ENERGY PREDICTED BY IDOCK:   -4.32 KCAL/MOL
REMARK 922        TOTAL FREE ENERGY PREDICTED BY IDOCK:   -5.30 KCAL/MOL
REMARK 923 INTER-LIGAND FREE ENERGY PREDICTED BY IDOCK:   -5.01 KCAL/MOL
REMARK 924 INTRA-LIGAND FREE ENERGY PREDICTED BY IDOCK:   -0.28 KCAL/MOL
REMARK 927      BINDING AFFINITY PREDICTED BY RF-SCORE:    0.00 PKD
ROOT
HETATM    1  O   UNL     1      -7.889  14.363  69.687  1.00  0.00    -0.366 OA 
HETATM    2  C   UNL     1      -7.897  14.579  68.270  1.00  0.00    -0.131 C  
HETATM    3  H   UNL     1      -8.265  13.507  69.859  1.00  0.00     0.000 HD 
HETATM    4  C   UNL     1      -7.281  15.980  67.987  1.00  0.00    -0.141 C  
HETATM    5  C   UNL     1      -6.992  13.476  67.564  1.00  0.00    -0.157 C  
HETATM    6  C   UNL     1      -9.359  14.478  67.793  1.00  0.00    -0.198 A  
HETATM    7  C   UNL     1      -5.491  13.479  67.948  1.00  0.00    -0.107 C  
HETATM    8  C   UNL     1     -10.394  14.140  68.688  1.00  0.00    -0.243 A  
HETATM    9  C   UNL     1     -11.018  14.460  66.000  1.00  0.00    -0.316 A  
HETATM   10  C   UNL     1      -9.702  14.657  66.441  1.00  0.00    -0.315 A  
HETATM   11  C   UNL     1     -11.704  13.947  68.246  1.00  0.00    -0.396 A  
HETATM   12  C   UNL     1      -5.209  12.982  69.360  1.00  0.00    -0.075 C  
HETATM   13  C   UNL     1      -7.479  12.021  67.712  1.00  0.00    -0.121 C  
HETATM   14  C   UNL     1     -12.016  14.096  66.900  1.00  0.00    -0.479 A  
HETATM   15  C   UNL     1      -5.818  11.611  69.632  1.00  0.00    -0.091 C  
HETATM   16  C   UNL     1      -7.232  11.404  69.086  1.00  0.00    -0.102 C  
ENDROOT
BRANCH   4  17
HETATM   17  C   UNL     1      -7.924  17.194  68.681  1.00  0.00    -0.265 C  
BRANCH  17  18
HETATM   18  N   UNL     1      -7.842  18.424  67.854  1.00  0.00    -0.251 NA 
HETATM   19  C   UNL     1      -5.402  19.926  68.622  1.00  0.00    -0.228 C  
HETATM   20  C   UNL     1      -7.928  19.643  68.678  1.00  0.00    -0.300 C  
HETATM   21  C   UNL     1      -6.660  19.938  69.490  1.00  0.00    -0.372 C  
HETATM   22  C   UNL     1      -5.352  18.693  67.726  1.00  0.00    -0.168 C  
HETATM   23  C   UNL     1      -6.669  18.524  66.970  1.00  0.00    -0.192 C  
ENDBRANCH  17  18
ENDBRANCH   4  17
TORSDOF 2
ENDMDL
MODEL      103
REMARK 921   NORMALIZED FREE ENERGY PREDICTED BY IDOCK:   -4.31 KCAL/MOL
REMARK 922        TOTAL FREE ENERGY PREDICTED BY IDOCK:   -5.28 KCAL/MOL
REMARK 923 INTER-LIGAND FREE ENERGY PREDICTED BY IDOCK:   -4.58 KCAL/MOL
REMARK 924 INTRA-LIGAND FREE ENERGY PREDICTED BY IDOCK:   -0.69 KCAL/MOL
REMARK 927      BINDING AFFINITY PREDICTED BY RF-SCORE:    0.00 PKD
ROOT
HETATM    1  O   UNL     1      -8.726   8.474  68.680  1.00  0.00    -0.137 OA 
HETATM    2  C   UNL     1      -9.977   7.960  68.208  1.00  0.00    -0.180 C  
HETATM    3  H   UNL     1      -8.164   8.624  67.928  1.00  0.00     0.000 HD 
HETATM    4  C   UNL     1     -10.899   7.714  69.438  1.00  0.00    -0.136 C  
HETATM    5  C   UNL     1     -10.669   9.039  67.264  1.00  0.00    -0.222 C  
HETATM    6  C   UNL     1      -9.682   6.661  67.431  1.00  0.00    -0.155 A  
HETATM    7  C   UNL     1     -11.033  10.391  67.929  1.00  0.00    -0.354 C  
HETATM    8  C   UNL     1      -8.358   6.222  67.225  1.00  0.00    -0.109 A  
HETATM    9  C   UNL     1     -10.428   4.784  66.057  1.00  0.00    -0.332 A  
HETATM   10  C   UNL     1     -10.715   5.905  66.849  1.00  0.00    -0.395 A  
HETATM   11  C   UNL     1      -8.077   5.103  66.439  1.00  0.00    -0.108 A  
HETATM   12  C   UNL     1      -9.830  11.267  68.256  1.00  0.00    -0.201 C  
HETATM   13  C   UNL     1      -9.904   9.380  65.970  1.00  0.00    -0.366 C  
HETATM   14  C   UNL     1      -9.110   4.390  65.845  1.00  0.00    -0.133 A  
HETATM   15  C   UNL     1      -8.929  11.501  67.048  1.00  0.00    -0.174 C  
HETATM   16  C   UNL     1      -8.684  10.274  66.169  1.00  0.00    -0.163 C  
ENDROOT
BRANCH   4  17
HETATM   17  C   UNL     1     -10.369   6.793  70.551  1.00  0.00    -0.201 C  
BRANCH  17  18
HETATM   18  N   UNL     1      -9.316   7.446  71.368  1.00  0.00    -0.143 NA 
HETATM   19  C   UNL     1      -9.268   6.178  74.049  1.00  0.00    -0.140 C  
HETATM   20  C   UNL     1      -9.882   8.132  72.543  1.00  0.00    -0.293 C  
HETATM   21  C   UNL     1     -10.349   7.182  73.655  1.00  0.00    -0.411 C  
HETATM   22  C   UNL     1      -8.642   5.518  72.825  1.00  0.00    -0.120 C  
HETATM   23  C   UNL     1      -8.213   6.574  71.807  1.00  0.00    -0.112 C  
ENDBRANCH  17  18
ENDBRANCH   4  17
TORSDOF 2
ENDMDL
MODEL      104
REMARK 921   NORMALIZED FREE ENERGY PREDICTED BY IDOCK:   -4.27 KCAL/MOL
REMARK 922        TOTAL FREE ENERGY PREDICTED BY IDOCK:   -5.24 KCAL/MOL
REMARK 923 INTER-LIGAND FREE ENERGY PREDICTED BY IDOCK:   -5.08 KCAL/MOL
REMARK 924 INTRA-LIGAND FREE ENERGY PREDICTED BY IDOCK:   -0.16 KCAL/MOL
REMARK 927      BINDING AFFINITY PREDICTED BY RF-SCORE:    0.00 PKD
ROOT
HETATM    1  O   UNL     1     -10.868   7.253  68.338  1.00  0.00    -0.377 OA 
HETATM    2  C   UNL     1      -9.602   7.881  68.569  1.00  0.00    -0.150 C  
HETATM    3  H   UNL     1     -10.863   6.888  67.460  1.00  0.00     0.000 HD 
HETATM    4  C   UNL     1      -9.609   8.479  70.006  1.00  0.00    -0.170 C  
HETATM    5  C   UNL     1      -8.448   6.787  68.482  1.00  0.00    -0.123 C  
HETATM    6  C   UNL     1      -9.415   8.963  67.488  1.00  0.00    -0.172 A  
HETATM    7  C   UNL     1      -8.511   5.646  69.528  1.00  0.00    -0.110 C  
HETATM    8  C   UNL     1     -10.365   9.136  66.461  1.00  0.00    -0.269 A  
HETATM    9  C   UNL     1      -8.057  10.680  66.404  1.00  0.00    -0.148 A  
HETATM   10  C   UNL     1      -8.265   9.771  67.451  1.00  0.00    -0.114 A  
HETATM   11  C   UNL     1     -10.156  10.045  65.421  1.00  0.00    -0.317 A  
HETATM   12  C   UNL     1      -9.640   4.651  69.295  1.00  0.00    -0.251 C  
HETATM   13  C   UNL     1      -8.273   6.113  67.107  1.00  0.00    -0.106 C  
HETATM   14  C   UNL     1      -8.997  10.809  65.386  1.00  0.00    -0.211 A  
HETATM   15  C   UNL     1      -9.630   4.071  67.884  1.00  0.00    -0.199 C  
HETATM   16  C   UNL     1      -9.339   5.075  66.768  1.00  0.00    -0.136 C  
ENDROOT
BRANCH   4  17
HETATM   17  C   UNL     1     -10.730   9.473  70.357  1.00  0.00    -0.284 C  
BRANCH  17  18
HETATM   18  N   UNL     1     -11.208   9.313  71.753  1.00  0.00    -0.374 NA 
HETATM   19  C   UNL     1     -12.226   6.549  72.102  1.00  0.00    -0.277 C  
HETATM   20  C   UNL     1     -12.655   9.038  71.808  1.00  0.00    -0.367 C  
HETATM   21  C   UNL     1     -13.036   7.617  71.369  1.00  0.00    -0.339 C  
HETATM   22  C   UNL     1     -10.736   6.873  72.096  1.00  0.00    -0.248 C  
HETATM   23  C   UNL     1     -10.497   8.309  72.563  1.00  0.00    -0.336 C  
ENDBRANCH  17  18
ENDBRANCH   4  17
TORSDOF 2
ENDMDL
MODEL      105
REMARK 921   NORMALIZED FREE ENERGY PREDICTED BY IDOCK:   -4.23 KCAL/MOL
REMARK 922        TOTAL FREE ENERGY PREDICTED BY IDOCK:   -5.20 KCAL/MOL
REMARK 923 INTER-LIGAND FREE ENERGY PREDICTED BY IDOCK:   -4.78 KCAL/MOL
REMARK 924 INTRA-LIGAND FREE ENERGY PREDICTED BY IDOCK:   -0.41 KCAL/MOL
REMARK 927      BINDING AFFINITY PREDICTED BY RF-SCORE:    0.00 PKD
ROOT
HETATM    1  O   UNL     1      -9.042  13.569  66.024  1.00  0.00    -0.468 OA 
HETATM    2  C   UNL     1      -9.141  13.361  67.438  1.00  0.00    -0.216 C  
HETATM    3  H   UNL     1      -9.156  12.731  65.591  1.00  0.00     0.000 HD 
HETATM    4  C   UNL     1      -8.955  14.735  68.147  1.00  0.00    -0.179 C  
HETATM    5  C   UNL     1     -10.590  12.802  67.789  1.00  0.00    -0.231 C  
HETATM    6  C   UNL     1      -8.050  12.348  67.835  1.00  0.00    -0.161 A  
HETATM    7  C   UNL     1     -11.779  13.736  67.451  1.00  0.00    -0.417 C  
HETATM    8  C   UNL     1      -7.228  11.745  66.862  1.00  0.00    -0.103 A  
HETATM    9  C   UNL     1      -6.955  10.942  69.507  1.00  0.00    -0.131 A  
HETATM   10  C   UNL     1      -7.879  11.942  69.171  1.00  0.00     0.206 A  
HETATM   11  C   UNL     1      -6.307  10.752  67.200  1.00  0.00    -0.072 A  
HETATM   12  C   UNL     1     -12.059  13.872  65.959  1.00  0.00    -0.465 C  
HETATM   13  C   UNL     1     -10.933  11.423  67.193  1.00  0.00    -0.340 C  
HETATM   14  C   UNL     1      -6.178  10.341  68.521  1.00  0.00    -0.047 A  
HETATM   15  C   UNL     1     -12.236  12.524  65.270  1.00  0.00    -0.493 C  
HETATM   16  C   UNL     1     -11.253  11.435  65.701  1.00  0.00    -0.144 C  
ENDROOT
BRANCH   4  17
HETATM   17  C   UNL     1      -7.667  15.521  67.847  1.00  0.00    -0.130 C  
BRANCH  17  18
HETATM   18  N   UNL     1      -7.940  16.938  67.500  1.00  0.00    -0.167 NA 
HETATM   19  C   UNL     1      -5.419  18.482  67.742  1.00  0.00    -0.164 C  
HETATM   20  C   UNL     1      -7.706  17.836  68.645  1.00  0.00    -0.283 C  
HETATM   21  C   UNL     1      -6.223  18.059  68.970  1.00  0.00    -0.230 C  
HETATM   22  C   UNL     1      -5.714  17.586  66.543  1.00  0.00    -0.234 C  
HETATM   23  C   UNL     1      -7.222  17.460  66.325  1.00  0.00    -0.311 C  
ENDBRANCH  17  18
ENDBRANCH   4  17
TORSDOF 2
ENDMDL
MODEL      106
REMARK 921   NORMALIZED FREE ENERGY PREDICTED BY IDOCK:   -4.20 KCAL/MOL
REMARK 922        TOTAL FREE ENERGY PREDICTED BY IDOCK:   -5.16 KCAL/MOL
REMARK 923 INTER-LIGAND FREE ENERGY PREDICTED BY IDOCK:   -5.11 KCAL/MOL
REMARK 924 INTRA-LIGAND FREE ENERGY PREDICTED BY IDOCK:   -0.05 KCAL/MOL
REMARK 927      BINDING AFFINITY PREDICTED BY RF-SCORE:    0.00 PKD
ROOT
HETATM    1  O   UNL     1      -7.895  18.731  68.987  1.00  0.00    -0.278 OA 
HETATM    2  C   UNL     1      -7.804  17.850  67.861  1.00  0.00    -0.230 C  
HETATM    3  H   UNL     1      -7.013  18.920  69.289  1.00  0.00     0.000 HD 
HETATM    4  C   UNL     1      -9.247  17.541  67.365  1.00  0.00    -0.238 C  
HETATM    5  C   UNL     1      -7.010  18.575  66.687  1.00  0.00    -0.228 C  
HETATM    6  C   UNL     1      -7.061  16.581  68.323  1.00  0.00    -0.151 A  
HETATM    7  C   UNL     1      -7.660  19.862  66.119  1.00  0.00    -0.338 C  
HETATM    8  C   UNL     1      -6.541  16.477  69.629  1.00  0.00    -0.169 A  
HETATM    9  C   UNL     1      -6.056  14.407  67.842  1.00  0.00    -0.161 A  
HETATM   10  C   UNL     1      -6.822  15.511  67.442  1.00  0.00    -0.224 A  
HETATM   11  C   UNL     1      -5.781  15.375  70.024  1.00  0.00    -0.137 A  
HETATM   12  C   UNL     1      -7.601  21.057  67.063  1.00  0.00    -0.164 C  
HETATM   13  C   UNL     1      -5.541  18.926  66.994  1.00  0.00    -0.153 C  
HETATM   14  C   UNL     1      -5.528  14.344  69.128  1.00  0.00    -0.080 A  
HETATM   15  C   UNL     1      -6.186  21.352  67.548  1.00  0.00    -0.375 C  
HETATM   16  C   UNL     1      -5.352  20.125  67.919  1.00  0.00    -0.211 C  
ENDROOT
BRANCH   4  17
HETATM   17  C   UNL     1     -10.236  16.948  68.383  1.00  0.00    -0.322 C  
BRANCH  17  18
HETATM   18  N   UNL     1      -9.821  15.604  68.856  1.00  0.00    -0.207 NA 
HETATM   19  C   UNL     1     -12.246  14.062  69.593  1.00  0.00    -0.383 C  
HETATM   20  C   UNL     1     -10.182  15.385  70.268  1.00  0.00    -0.111 C  
HETATM   21  C   UNL     1     -11.681  15.154  70.500  1.00  0.00    -0.344 C  
HETATM   22  C   UNL     1     -11.816  14.260  68.144  1.00  0.00    -0.374 C  
HETATM   23  C   UNL     1     -10.304  14.466  68.055  1.00  0.00    -0.227 C  
ENDBRANCH  17  18
ENDBRANCH   4  17
TORSDOF 2
ENDMDL
MODEL      107
REMARK 921   NORMALIZED FREE ENERGY PREDICTED BY IDOCK:   -4.18 KCAL/MOL
REMARK 922        TOTAL FREE ENERGY PREDICTED BY IDOCK:   -5.13 KCAL/MOL
REMARK 923 INTER-LIGAND FREE ENERGY PREDICTED BY IDOCK:   -4.71 KCAL/MOL
REMARK 924 INTRA-LIGAND FREE ENERGY PREDICTED BY IDOCK:   -0.42 KCAL/MOL
REMARK 927      BINDING AFFINITY PREDICTED BY RF-SCORE:    0.00 PKD
ROOT
HETATM    1  O   UNL     1     -11.158   8.201  68.192  1.00  0.00    -0.439 OA 
HETATM    2  C   UNL     1     -10.064   8.355  69.103  1.00  0.00    -0.203 C  
HETATM    3  H   UNL     1     -11.930   8.592  68.585  1.00  0.00     0.000 HD 
HETATM    4  C   UNL     1      -8.799   7.716  68.459  1.00  0.00    -0.130 C  
HETATM    5  C   UNL     1      -9.786   9.905  69.336  1.00  0.00    -0.228 C  
HETATM    6  C   UNL     1     -10.459   7.664  70.423  1.00  0.00    -0.221 A  
HETATM    7  C   UNL     1      -9.364  10.717  68.086  1.00  0.00    -0.152 C  
HETATM    8  C   UNL     1     -11.738   7.097  70.593  1.00  0.00    -0.348 A  
HETATM    9  C   UNL     1      -9.990   7.091  72.752  1.00  0.00    -0.204 A  
HETATM   10  C   UNL     1      -9.583   7.630  71.522  1.00  0.00    -0.179 A  
HETATM   11  C   UNL     1     -12.139   6.558  71.817  1.00  0.00    -0.393 A  
HETATM   12  C   UNL     1     -10.488  10.944  67.083  1.00  0.00    -0.281 C  
HETATM   13  C   UNL     1     -10.930  10.693  70.004  1.00  0.00    -0.325 C  
HETATM   14  C   UNL     1     -11.270   6.565  72.900  1.00  0.00    -0.215 A  
HETATM   15  C   UNL     1     -11.726  11.566  67.720  1.00  0.00    -0.299 C  
HETATM   16  C   UNL     1     -12.111  11.000  69.088  1.00  0.00    -0.333 C  
ENDROOT
BRANCH   4  17
HETATM   17  C   UNL     1      -8.887   6.242  68.030  1.00  0.00    -0.112 C  
BRANCH  17  18
HETATM   18  N   UNL     1      -7.671   5.792  67.306  1.00  0.00    -0.100 NA 
HETATM   19  C   UNL     1      -8.413   5.149  64.507  1.00  0.00    -0.141 C  
HETATM   20  C   UNL     1      -7.790   4.395  66.854  1.00  0.00    -0.098 C  
HETATM   21  C   UNL     1      -8.737   4.203  65.662  1.00  0.00    -0.119 C  
HETATM   22  C   UNL     1      -8.229   6.583  64.992  1.00  0.00    -0.115 C  
HETATM   23  C   UNL     1      -7.255   6.631  66.170  1.00  0.00    -0.071 C  
ENDBRANCH  17  18
ENDBRANCH   4  17
TORSDOF 2
ENDMDL
MODEL      108
REMARK 921   NORMALIZED FREE ENERGY PREDICTED BY IDOCK:   -4.17 KCAL/MOL
REMARK 922        TOTAL FREE ENERGY PREDICTED BY IDOCK:   -5.13 KCAL/MOL
REMARK 923 INTER-LIGAND FREE ENERGY PREDICTED BY IDOCK:   -4.53 KCAL/MOL
REMARK 924 INTRA-LIGAND FREE ENERGY PREDICTED BY IDOCK:   -0.60 KCAL/MOL
REMARK 927      BINDING AFFINITY PREDICTED BY RF-SCORE:    0.00 PKD
ROOT
HETATM    1  O   UNL     1     -11.011  10.976  66.463  1.00  0.00    -0.249 OA 
HETATM    2  C   UNL     1      -9.672  11.271  66.877  1.00  0.00    -0.192 C  
HETATM    3  H   UNL     1     -11.602  11.237  67.161  1.00  0.00     0.000 HD 
HETATM    4  C   UNL     1      -8.703  10.844  65.735  1.00  0.00    -0.196 C  
HETATM    5  C   UNL     1      -9.524  12.840  67.106  1.00  0.00    -0.223 C  
HETATM    6  C   UNL     1      -9.408  10.498  68.184  1.00  0.00    -0.150 A  
HETATM    7  C   UNL     1      -9.750  13.734  65.861  1.00  0.00    -0.217 C  
HETATM    8  C   UNL     1     -10.426   9.742  68.799  1.00  0.00    -0.240 A  
HETATM    9  C   UNL     1      -7.971   9.949  70.082  1.00  0.00    -0.181 A  
HETATM   10  C   UNL     1      -8.167  10.571  68.841  1.00  0.00    -0.141 A  
HETATM   11  C   UNL     1     -10.227   9.122  70.034  1.00  0.00    -0.229 A  
HETATM   12  C   UNL     1     -11.203  13.812  65.407  1.00  0.00    -0.306 C  
HETATM   13  C   UNL     1     -10.392  13.432  68.234  1.00  0.00    -0.251 C  
HETATM   14  C   UNL     1      -9.003   9.234  70.682  1.00  0.00    -0.296 A  
HETATM   15  C   UNL     1     -12.146  14.227  66.531  1.00  0.00    -0.454 C  
HETATM   16  C   UNL     1     -11.871  13.579  67.888  1.00  0.00    -0.397 C  
ENDROOT
BRANCH   4  17
HETATM   17  C   UNL     1      -8.767   9.383  65.258  1.00  0.00    -0.175 C  
BRANCH  17  18
HETATM   18  N   UNL     1      -7.566   8.607  65.656  1.00  0.00    -0.085 NA 
HETATM   19  C   UNL     1      -7.931   5.787  64.813  1.00  0.00    -0.124 C  
HETATM   20  C   UNL     1      -7.894   7.558  66.637  1.00  0.00    -0.106 C  
HETATM   21  C   UNL     1      -8.640   6.357  66.040  1.00  0.00    -0.149 C  
HETATM   22  C   UNL     1      -7.539   6.886  63.832  1.00  0.00    -0.109 C  
HETATM   23  C   UNL     1      -6.795   8.009  64.553  1.00  0.00    -0.063 C  
ENDBRANCH  17  18
ENDBRANCH   4  17
TORSDOF 2
ENDMDL
MODEL      109
REMARK 921   NORMALIZED FREE ENERGY PREDICTED BY IDOCK:   -4.17 KCAL/MOL
REMARK 922        TOTAL FREE ENERGY PREDICTED BY IDOCK:   -5.13 KCAL/MOL
REMARK 923 INTER-LIGAND FREE ENERGY PREDICTED BY IDOCK:   -4.43 KCAL/MOL
REMARK 924 INTRA-LIGAND FREE ENERGY PREDICTED BY IDOCK:   -0.70 KCAL/MOL
REMARK 927      BINDING AFFINITY PREDICTED BY RF-SCORE:    0.00 PKD
ROOT
HETATM    1  O   UNL     1     -10.207   8.444  66.167  1.00  0.00    -0.449 OA 
HETATM    2  C   UNL     1      -8.946   8.775  66.761  1.00  0.00    -0.135 C  
HETATM    3  H   UNL     1     -10.834   9.116  66.407  1.00  0.00     0.000 HD 
HETATM    4  C   UNL     1      -7.918   7.675  66.367  1.00  0.00    -0.107 C  
HETATM    5  C   UNL     1      -8.441  10.170  66.183  1.00  0.00    -0.134 C  
HETATM    6  C   UNL     1      -9.158   8.857  68.285  1.00  0.00    -0.140 A  
HETATM    7  C   UNL     1      -8.175  10.219  64.657  1.00  0.00    -0.161 C  
HETATM    8  C   UNL     1     -10.439   8.698  68.851  1.00  0.00    -0.211 A  
HETATM    9  C   UNL     1      -8.319   9.330  70.531  1.00  0.00    -0.237 A  
HETATM   10  C   UNL     1      -8.096   9.155  69.157  1.00  0.00    -0.105 A  
HETATM   11  C   UNL     1     -10.657   8.870  70.219  1.00  0.00    -0.246 A  
HETATM   12  C   UNL     1      -9.437  10.182  63.804  1.00  0.00    -0.330 C  
HETATM   13  C   UNL     1      -9.329  11.387  66.511  1.00  0.00    -0.204 C  
HETATM   14  C   UNL     1      -9.600   9.197  71.058  1.00  0.00    -0.350 A  
HETATM   15  C   UNL     1     -10.441  11.260  64.197  1.00  0.00    -0.431 C  
HETATM   16  C   UNL     1     -10.619  11.471  65.701  1.00  0.00    -0.326 C  
ENDROOT
BRANCH   4  17
HETATM   17  C   UNL     1      -8.266   6.218  66.717  1.00  0.00    -0.110 C  
BRANCH  17  18
HETATM   18  N   UNL     1      -9.147   5.590  65.701  1.00  0.00    -0.150 NA 
HETATM   19  C   UNL     1      -7.993   2.969  64.928  1.00  0.00    -0.082 C  
HETATM   20  C   UNL     1      -8.456   5.415  64.411  1.00  0.00    -0.106 C  
HETATM   21  C   UNL     1      -7.417   4.285  64.408  1.00  0.00    -0.071 C  
HETATM   22  C   UNL     1      -8.760   3.169  66.230  1.00  0.00    -0.131 C  
HETATM   23  C   UNL     1      -9.766   4.312  66.091  1.00  0.00    -0.212 C  
ENDBRANCH  17  18
ENDBRANCH   4  17
TORSDOF 2
ENDMDL
MODEL      110
REMARK 921   NORMALIZED FREE ENERGY PREDICTED BY IDOCK:   -4.06 KCAL/MOL
REMARK 922        TOTAL FREE ENERGY PREDICTED BY IDOCK:   -5.00 KCAL/MOL
REMARK 923 INTER-LIGAND FREE ENERGY PREDICTED BY IDOCK:   -4.26 KCAL/MOL
REMARK 924 INTRA-LIGAND FREE ENERGY PREDICTED BY IDOCK:   -0.74 KCAL/MOL
REMARK 927      BINDING AFFINITY PREDICTED BY RF-SCORE:    0.00 PKD
ROOT
HETATM    1  O   UNL     1     -12.642  12.979  69.032  1.00  0.00     0.202 OA 
HETATM    2  C   UNL     1     -11.630  13.898  68.605  1.00  0.00    -0.328 C  
HETATM    3  H   UNL     1     -12.365  12.592  69.854  1.00  0.00     0.000 HD 
HETATM    4  C   UNL     1     -12.084  14.533  67.258  1.00  0.00    -0.298 C  
HETATM    5  C   UNL     1     -11.479  15.057  69.686  1.00  0.00    -0.321 C  
HETATM    6  C   UNL     1     -10.315  13.107  68.462  1.00  0.00    -0.245 A  
HETATM    7  C   UNL     1     -12.731  15.940  69.915  1.00  0.00     0.300 C  
HETATM    8  C   UNL     1     -10.246  11.742  68.809  1.00  0.00    -0.175 A  
HETATM    9  C   UNL     1      -7.914  13.026  68.015  1.00  0.00    -0.155 A  
HETATM   10  C   UNL     1      -9.127  13.730  68.041  1.00  0.00    -0.191 A  
HETATM   11  C   UNL     1      -9.038  11.043  68.779  1.00  0.00    -0.161 A  
HETATM   12  C   UNL     1     -13.864  15.235  70.650  1.00  0.00    -0.011 C  
HETATM   13  C   UNL     1     -10.998  14.608  71.080  1.00  0.00     0.247 C  
HETATM   14  C   UNL     1      -7.869  11.687  68.392  1.00  0.00    -0.137 A  
HETATM   15  C   UNL     1     -13.412  14.612  71.966  1.00  0.00    -0.476 C  
HETATM   16  C   UNL     1     -12.057  13.903  71.922  1.00  0.00     0.148 C  
ENDROOT
BRANCH   4  17
HETATM   17  C   UNL     1     -12.414  13.579  66.097  1.00  0.00    -0.365 C  
BRANCH  17  18
HETATM   18  N   UNL     1     -11.828  14.032  64.811  1.00  0.00    -0.381 NA 
HETATM   19  C   UNL     1     -10.761  11.671  63.366  1.00  0.00    -0.460 C  
HETATM   20  C   UNL     1     -10.379  13.770  64.749  1.00  0.00    -0.398 C  
HETATM   21  C   UNL     1     -10.020  12.291  64.549  1.00  0.00    -0.217 C  
HETATM   22  C   UNL     1     -12.250  12.000  63.403  1.00  0.00    -0.627 C  
HETATM   23  C   UNL     1     -12.464  13.501  63.594  1.00  0.00    -0.207 C  
ENDBRANCH  17  18
ENDBRANCH   4  17
TORSDOF 2
ENDMDL
MODEL      111
REMARK 921   NORMALIZED FREE ENERGY PREDICTED BY IDOCK:   -4.05 KCAL/MOL
REMARK 922        TOTAL FREE ENERGY PREDICTED BY IDOCK:   -4.98 KCAL/MOL
REMARK 923 INTER-LIGAND FREE ENERGY PREDICTED BY IDOCK:   -4.52 KCAL/MOL
REMARK 924 INTRA-LIGAND FREE ENERGY PREDICTED BY IDOCK:   -0.46 KCAL/MOL
REMARK 927      BINDING AFFINITY PREDICTED BY RF-SCORE:    0.00 PKD
ROOT
HETATM    1  O   UNL     1     -10.434   8.207  68.493  1.00  0.00    -0.239 OA 
HETATM    2  C   UNL     1      -9.336   7.354  68.833  1.00  0.00    -0.145 C  
HETATM    3  H   UNL     1     -11.238   7.708  68.582  1.00  0.00     0.000 HD 
HETATM    4  C   UNL     1      -8.019   8.171  68.688  1.00  0.00    -0.115 C  
HETATM    5  C   UNL     1      -9.478   6.889  70.349  1.00  0.00    -0.169 C  
HETATM    6  C   UNL     1      -9.377   6.142  67.882  1.00  0.00    -0.113 A  
HETATM    7  C   UNL     1      -9.437   8.015  71.413  1.00  0.00    -0.194 C  
HETATM    8  C   UNL     1     -10.421   5.986  66.947  1.00  0.00    -0.344 A  
HETATM    9  C   UNL     1      -8.520   3.972  67.156  1.00  0.00    -0.100 A  
HETATM   10  C   UNL     1      -8.414   5.120  67.955  1.00  0.00    -0.104 A  
HETATM   11  C   UNL     1     -10.522   4.843  66.152  1.00  0.00    -0.346 A  
HETATM   12  C   UNL     1     -10.681   8.895  71.436  1.00  0.00    -0.382 C  
HETATM   13  C   UNL     1     -10.718   6.031  70.668  1.00  0.00    -0.341 C  
HETATM   14  C   UNL     1      -9.578   3.830  66.264  1.00  0.00    -0.176 A  
HETATM   15  C   UNL     1     -11.967   8.088  71.575  1.00  0.00    -0.331 C  
HETATM   16  C   UNL     1     -12.029   6.809  70.739  1.00  0.00    -0.433 C  
ENDROOT
BRANCH   4  17
HETATM   17  C   UNL     1      -7.737   8.829  67.326  1.00  0.00    -0.096 C  
BRANCH  17  18
HETATM   18  N   UNL     1      -7.338  10.252  67.459  1.00  0.00    -0.088 NA 
HETATM   19  C   UNL     1      -9.708  11.959  66.940  1.00  0.00    -0.212 C  
HETATM   20  C   UNL     1      -7.485  10.982  66.187  1.00  0.00    -0.076 C  
HETATM   21  C   UNL     1      -8.940  11.283  65.805  1.00  0.00    -0.191 C  
HETATM   22  C   UNL     1      -9.500  11.234  68.265  1.00  0.00    -0.190 C  
HETATM   23  C   UNL     1      -8.011  11.009  68.527  1.00  0.00    -0.137 C  
ENDBRANCH  17  18
ENDBRANCH   4  17
TORSDOF 2
ENDMDL
MODEL      112
REMARK 921   NORMALIZED FREE ENERGY PREDICTED BY IDOCK:   -4.00 KCAL/MOL
REMARK 922        TOTAL FREE ENERGY PREDICTED BY IDOCK:   -4.93 KCAL/MOL
REMARK 923 INTER-LIGAND FREE ENERGY PREDICTED BY IDOCK:   -4.51 KCAL/MOL
REMARK 924 INTRA-LIGAND FREE ENERGY PREDICTED BY IDOCK:   -0.42 KCAL/MOL
REMARK 927      BINDING AFFINITY PREDICTED BY RF-SCORE:    0.00 PKD
ROOT
HETATM    1  O   UNL     1      -7.440   9.133  66.975  1.00  0.00    -0.090 OA 
HETATM    2  C   UNL     1      -8.736   9.667  66.677  1.00  0.00    -0.134 C  
HETATM    3  H   UNL     1      -6.789   9.777  66.722  1.00  0.00     0.000 HD 
HETATM    4  C   UNL     1      -9.805   8.614  67.091  1.00  0.00    -0.269 C  
HETATM    5  C   UNL     1      -8.971  10.989  67.532  1.00  0.00    -0.137 C  
HETATM    6  C   UNL     1      -8.776   9.975  65.167  1.00  0.00    -0.183 A  
HETATM    7  C   UNL     1      -8.969  10.814  69.071  1.00  0.00    -0.141 C  
HETATM    8  C   UNL     1      -7.636   9.796  64.358  1.00  0.00    -0.135 A  
HETATM    9  C   UNL     1      -9.920  10.878  63.206  1.00  0.00    -0.399 A  
HETATM   10  C   UNL     1      -9.928  10.503  64.558  1.00  0.00    -0.413 A  
HETATM   11  C   UNL     1      -7.632  10.168  63.012  1.00  0.00    -0.143 A  
HETATM   12  C   UNL     1      -7.594  10.527  69.663  1.00  0.00    -0.134 C  
HETATM   13  C   UNL     1      -8.015  12.159  67.224  1.00  0.00    -0.176 C  
HETATM   14  C   UNL     1      -8.771  10.719  62.438  1.00  0.00    -0.331 A  
HETATM   15  C   UNL     1      -6.552  11.560  69.251  1.00  0.00    -0.113 C  
HETATM   16  C   UNL     1      -6.606  11.996  67.786  1.00  0.00    -0.093 C  
ENDROOT
BRANCH   4  17
HETATM   17  C   UNL     1      -9.692   7.207  66.478  1.00  0.00    -0.133 C  
BRANCH  17  18
HETATM   18  N   UNL     1     -10.726   6.280  67.001  1.00  0.00    -0.324 NA 
HETATM   19  C   UNL     1      -9.381   4.080  68.466  1.00  0.00    -0.221 C  
HETATM   20  C   UNL     1     -10.605   4.936  66.409  1.00  0.00    -0.223 C  
HETATM   21  C   UNL     1      -9.415   4.126  66.940  1.00  0.00    -0.212 C  
HETATM   22  C   UNL     1      -9.570   5.466  69.073  1.00  0.00    -0.191 C  
HETATM   23  C   UNL     1     -10.793   6.155  68.467  1.00  0.00    -0.314 C  
ENDBRANCH  17  18
ENDBRANCH   4  17
TORSDOF 2
ENDMDL
MODEL      113
REMARK 921   NORMALIZED FREE ENERGY PREDICTED BY IDOCK:   -3.97 KCAL/MOL
REMARK 922        TOTAL FREE ENERGY PREDICTED BY IDOCK:   -4.90 KCAL/MOL
REMARK 923 INTER-LIGAND FREE ENERGY PREDICTED BY IDOCK:   -4.46 KCAL/MOL
REMARK 924 INTRA-LIGAND FREE ENERGY PREDICTED BY IDOCK:   -0.44 KCAL/MOL
REMARK 927      BINDING AFFINITY PREDICTED BY RF-SCORE:    0.00 PKD
ROOT
HETATM    1  O   UNL     1      -7.340  15.173  66.636  1.00  0.00    -0.261 OA 
HETATM    2  C   UNL     1      -8.386  15.183  67.615  1.00  0.00    -0.160 C  
HETATM    3  H   UNL     1      -7.594  15.749  65.924  1.00  0.00     0.000 HD 
HETATM    4  C   UNL     1      -7.971  14.240  68.782  1.00  0.00    -0.119 C  
HETATM    5  C   UNL     1      -8.555  16.657  68.191  1.00  0.00    -0.200 C  
HETATM    6  C   UNL     1      -9.678  14.714  66.919  1.00  0.00    -0.249 A  
HETATM    7  C   UNL     1      -7.326  17.244  68.931  1.00  0.00    -0.243 C  
HETATM    8  C   UNL     1      -9.701  14.441  65.536  1.00  0.00    -0.214 A  
HETATM    9  C   UNL     1     -12.082  14.278  66.958  1.00  0.00    -0.424 A  
HETATM   10  C   UNL     1     -10.891  14.604  67.622  1.00  0.00    -0.284 A  
HETATM   11  C   UNL     1     -10.888  14.114  64.878  1.00  0.00    -0.423 A  
HETATM   12  C   UNL     1      -6.162  17.602  68.017  1.00  0.00    -0.158 C  
HETATM   13  C   UNL     1      -9.001  17.723  67.171  1.00  0.00    -0.249 C  
HETATM   14  C   UNL     1     -12.082  14.043  65.586  1.00  0.00    -0.432 A  
HETATM   15  C   UNL     1      -6.575  18.523  66.874  1.00  0.00    -0.204 C  
HETATM   16  C   UNL     1      -7.909  18.179  66.208  1.00  0.00    -0.280 C  
ENDROOT
BRANCH   4  17
HETATM   17  C   UNL     1      -7.630  12.781  68.432  1.00  0.00    -0.133 C  
BRANCH  17  18
HETATM   18  N   UNL     1      -6.403  12.308  69.120  1.00  0.00    -0.088 NA 
HETATM   19  C   UNL     1      -5.321   9.975  67.641  1.00  0.00    -0.034 C  
HETATM   20  C   UNL     1      -6.562  10.939  69.640  1.00  0.00    -0.123 C  
HETATM   21  C   UNL     1      -6.538   9.853  68.556  1.00  0.00    -0.054 C  
HETATM   22  C   UNL     1      -5.126  11.408  67.157  1.00  0.00    -0.070 C  
HETATM   23  C   UNL     1      -5.159  12.382  68.335  1.00  0.00    -0.055 C  
ENDBRANCH  17  18
ENDBRANCH   4  17
TORSDOF 2
ENDMDL
MODEL      114
REMARK 921   NORMALIZED FREE ENERGY PREDICTED BY IDOCK:   -3.96 KCAL/MOL
REMARK 922        TOTAL FREE ENERGY PREDICTED BY IDOCK:   -4.89 KCAL/MOL
REMARK 923 INTER-LIGAND FREE ENERGY PREDICTED BY IDOCK:   -4.17 KCAL/MOL
REMARK 924 INTRA-LIGAND FREE ENERGY PREDICTED BY IDOCK:   -0.71 KCAL/MOL
REMARK 927      BINDING AFFINITY PREDICTED BY RF-SCORE:    0.00 PKD
ROOT
HETATM    1  O   UNL     1      -8.635   6.503  68.855  1.00  0.00    -0.124 OA 
HETATM    2  C   UNL     1      -9.586   5.486  68.516  1.00  0.00    -0.127 C  
HETATM    3  H   UNL     1      -7.946   6.496  68.200  1.00  0.00     0.000 HD 
HETATM    4  C   UNL     1     -10.715   5.497  69.587  1.00  0.00    -0.349 C  
HETATM    5  C   UNL     1     -10.230   5.819  67.098  1.00  0.00    -0.250 C  
HETATM    6  C   UNL     1      -8.833   4.142  68.475  1.00  0.00    -0.139 A  
HETATM    7  C   UNL     1     -11.030   7.142  67.008  1.00  0.00    -0.304 C  
HETATM    8  C   UNL     1      -7.438   4.083  68.671  1.00  0.00    -0.055 A  
HETATM    9  C   UNL     1      -8.787   1.738  68.042  1.00  0.00    -0.149 A  
HETATM   10  C   UNL     1      -9.498   2.939  68.179  1.00  0.00    -0.220 A  
HETATM   11  C   UNL     1      -6.734   2.885  68.536  1.00  0.00    -0.040 A  
HETATM   12  C   UNL     1     -10.166   8.396  67.046  1.00  0.00    -0.377 C  
HETATM   13  C   UNL     1      -9.253   5.816  65.906  1.00  0.00    -0.128 C  
HETATM   14  C   UNL     1      -7.406   1.714  68.210  1.00  0.00    -0.043 A  
HETATM   15  C   UNL     1      -9.060   8.378  65.997  1.00  0.00    -0.235 C  
HETATM   16  C   UNL     1      -8.343   7.038  65.826  1.00  0.00    -0.143 C  
ENDROOT
BRANCH   4  17
HETATM   17  C   UNL     1     -10.301   5.321  71.059  1.00  0.00    -0.228 C  
BRANCH  17  18
HETATM   18  N   UNL     1      -9.438   6.430  71.537  1.00  0.00    -0.155 NA 
HETATM   19  C   UNL     1      -9.660   6.604  74.490  1.00  0.00    -0.299 C  
HETATM   20  C   UNL     1     -10.226   7.498  72.178  1.00  0.00    -0.196 C  
HETATM   21  C   UNL     1     -10.759   7.130  73.569  1.00  0.00    -0.375 C  
HETATM   22  C   UNL     1      -8.809   5.544  73.798  1.00  0.00    -0.124 C  
HETATM   23  C   UNL     1      -8.335   6.043  72.433  1.00  0.00    -0.116 C  
ENDBRANCH  17  18
ENDBRANCH   4  17
TORSDOF 2
ENDMDL
MODEL      115
REMARK 921   NORMALIZED FREE ENERGY PREDICTED BY IDOCK:   -3.96 KCAL/MOL
REMARK 922        TOTAL FREE ENERGY PREDICTED BY IDOCK:   -4.88 KCAL/MOL
REMARK 923 INTER-LIGAND FREE ENERGY PREDICTED BY IDOCK:   -4.89 KCAL/MOL
REMARK 924 INTRA-LIGAND FREE ENERGY PREDICTED BY IDOCK:    0.01 KCAL/MOL
REMARK 927      BINDING AFFINITY PREDICTED BY RF-SCORE:    0.00 PKD
ROOT
HETATM    1  O   UNL     1     -12.298  15.447  68.004  1.00  0.00    -0.349 OA 
HETATM    2  C   UNL     1     -11.242  14.663  67.436  1.00  0.00    -0.342 C  
HETATM    3  H   UNL     1     -12.112  15.571  68.928  1.00  0.00     0.000 HD 
HETATM    4  C   UNL     1     -11.546  14.460  65.923  1.00  0.00    -0.361 C  
HETATM    5  C   UNL     1      -9.866  15.451  67.575  1.00  0.00    -0.217 C  
HETATM    6  C   UNL     1     -11.191  13.328  68.204  1.00  0.00    -0.302 A  
HETATM    7  C   UNL     1      -9.781  16.809  66.834  1.00  0.00    -0.263 C  
HETATM    8  C   UNL     1     -12.035  13.091  69.308  1.00  0.00    -0.331 A  
HETATM    9  C   UNL     1     -10.150  11.161  68.644  1.00  0.00    -0.208 A  
HETATM   10  C   UNL     1     -10.259  12.328  67.873  1.00  0.00    -0.202 A  
HETATM   11  C   UNL     1     -11.926  11.927  70.071  1.00  0.00    -0.409 A  
HETATM   12  C   UNL     1     -10.619  17.914  67.463  1.00  0.00    -0.386 C  
HETATM   13  C   UNL     1      -9.391  15.710  69.019  1.00  0.00    -0.243 C  
HETATM   14  C   UNL     1     -10.976  10.966  69.747  1.00  0.00    -0.290 A  
HETATM   15  C   UNL     1     -10.320  18.106  68.946  1.00  0.00    -0.217 C  
HETATM   16  C   UNL     1     -10.146  16.816  69.749  1.00  0.00     0.092 C  
ENDROOT
BRANCH   4  17
HETATM   17  C   UNL     1     -12.896  13.826  65.547  1.00  0.00    -0.419 C  
BRANCH  17  18
HETATM   18  N   UNL     1     -12.866  13.190  64.206  1.00  0.00    -0.664 NA 
HETATM   19  C   UNL     1     -10.419  11.526  63.995  1.00  0.00    -0.424 C  
HETATM   20  C   UNL     1     -11.708  13.640  63.414  1.00  0.00     0.079 C  
HETATM   21  C   UNL     1     -10.369  13.048  63.875  1.00  0.00    -0.153 C  
HETATM   22  C   UNL     1     -11.654  11.065  64.762  1.00  0.00     0.556 C  
HETATM   23  C   UNL     1     -12.914  11.718  64.194  1.00  0.00     0.161 C  
ENDBRANCH  17  18
ENDBRANCH   4  17
TORSDOF 2
ENDMDL
MODEL      116
REMARK 921   NORMALIZED FREE ENERGY PREDICTED BY IDOCK:   -3.94 KCAL/MOL
REMARK 922        TOTAL FREE ENERGY PREDICTED BY IDOCK:   -4.87 KCAL/MOL
REMARK 923 INTER-LIGAND FREE ENERGY PREDICTED BY IDOCK:   -4.15 KCAL/MOL
REMARK 924 INTRA-LIGAND FREE ENERGY PREDICTED BY IDOCK:   -0.71 KCAL/MOL
REMARK 927      BINDING AFFINITY PREDICTED BY RF-SCORE:    0.00 PKD
ROOT
HETATM    1  O   UNL     1      -8.948   9.164  69.097  1.00  0.00    -0.139 OA 
HETATM    2  C   UNL     1      -9.567   8.609  67.931  1.00  0.00    -0.149 C  
HETATM    3  H   UNL     1      -8.211   9.696  68.818  1.00  0.00     0.000 HD 
HETATM    4  C   UNL     1     -10.774   7.738  68.387  1.00  0.00    -0.088 C  
HETATM    5  C   UNL     1     -10.113   9.789  67.012  1.00  0.00    -0.277 C  
HETATM    6  C   UNL     1      -8.500   7.782  67.187  1.00  0.00    -0.124 A  
HETATM    7  C   UNL     1     -11.206  10.690  67.639  1.00  0.00    -0.361 C  
HETATM    8  C   UNL     1      -7.166   7.740  67.641  1.00  0.00    -0.091 A  
HETATM    9  C   UNL     1      -7.802   6.433  65.274  1.00  0.00    -0.108 A  
HETATM   10  C   UNL     1      -8.804   7.095  65.999  1.00  0.00    -0.154 A  
HETATM   11  C   UNL     1      -6.172   7.077  66.919  1.00  0.00    -0.041 A  
HETATM   12  C   UNL     1     -10.695  11.616  68.735  1.00  0.00    -0.254 C  
HETATM   13  C   UNL     1      -9.040  10.736  66.438  1.00  0.00    -0.188 C  
HETATM   14  C   UNL     1      -6.487   6.432  65.729  1.00  0.00    -0.043 A  
HETATM   15  C   UNL     1      -9.511  12.463  68.284  1.00  0.00    -0.203 C  
HETATM   16  C   UNL     1      -8.465  11.729  67.444  1.00  0.00    -0.158 C  
ENDROOT
BRANCH   4  17
HETATM   17  C   UNL     1     -10.495   6.606  69.391  1.00  0.00    -0.219 C  
BRANCH  17  18
HETATM   18  N   UNL     1     -10.089   7.120  70.722  1.00  0.00    -0.190 NA 
HETATM   19  C   UNL     1     -11.366   5.453  72.818  1.00  0.00    -0.358 C  
HETATM   20  C   UNL     1     -11.244   7.619  71.491  1.00  0.00    -0.246 C  
HETATM   21  C   UNL     1     -12.151   6.511  72.043  1.00  0.00    -0.358 C  
HETATM   22  C   UNL     1     -10.138   4.988  72.043  1.00  0.00    -0.255 C  
HETATM   23  C   UNL     1      -9.320   6.187  71.563  1.00  0.00    -0.148 C  
ENDBRANCH  17  18
ENDBRANCH   4  17
TORSDOF 2
ENDMDL
MODEL      117
REMARK 921   NORMALIZED FREE ENERGY PREDICTED BY IDOCK:   -3.94 KCAL/MOL
REMARK 922        TOTAL FREE ENERGY PREDICTED BY IDOCK:   -4.86 KCAL/MOL
REMARK 923 INTER-LIGAND FREE ENERGY PREDICTED BY IDOCK:   -4.83 KCAL/MOL
REMARK 924 INTRA-LIGAND FREE ENERGY PREDICTED BY IDOCK:   -0.03 KCAL/MOL
REMARK 927      BINDING AFFINITY PREDICTED BY RF-SCORE:    0.00 PKD
ROOT
HETATM    1  O   UNL     1     -10.899   6.669  70.146  1.00  0.00    -0.240 OA 
HETATM    2  C   UNL     1      -9.629   6.818  70.791  1.00  0.00    -0.168 C  
HETATM    3  H   UNL     1     -11.569   6.613  70.817  1.00  0.00     0.000 HD 
HETATM    4  C   UNL     1      -8.531   6.911  69.691  1.00  0.00    -0.133 C  
HETATM    5  C   UNL     1      -9.620   8.170  71.631  1.00  0.00    -0.237 C  
HETATM    6  C   UNL     1      -9.430   5.598  71.712  1.00  0.00    -0.169 A  
HETATM    7  C   UNL     1      -9.797   9.478  70.819  1.00  0.00    -0.309 C  
HETATM    8  C   UNL     1     -10.441   4.627  71.862  1.00  0.00    -0.172 A  
HETATM    9  C   UNL     1      -8.136   4.386  73.393  1.00  0.00    -0.095 A  
HETATM   10  C   UNL     1      -8.263   5.444  72.480  1.00  0.00    -0.114 A  
HETATM   11  C   UNL     1     -10.310   3.574  72.769  1.00  0.00    -0.239 A  
HETATM   12  C   UNL     1     -11.203   9.684  70.271  1.00  0.00    -0.324 C  
HETATM   13  C   UNL     1     -10.629   8.237  72.795  1.00  0.00    -0.321 C  
HETATM   14  C   UNL     1      -9.163   3.459  73.543  1.00  0.00    -0.106 A  
HETATM   15  C   UNL     1     -12.274   9.588  71.352  1.00  0.00    -0.455 C  
HETATM   16  C   UNL     1     -12.077   8.463  72.369  1.00  0.00    -0.443 C  
ENDROOT
BRANCH   4  17
HETATM   17  C   UNL     1      -8.442   5.759  68.676  1.00  0.00    -0.107 C  
BRANCH  17  18
HETATM   18  N   UNL     1      -8.270   6.247  67.284  1.00  0.00    -0.109 NA 
HETATM   19  C   UNL     1     -10.383   8.247  66.706  1.00  0.00    -0.361 C  
HETATM   20  C   UNL     1      -9.427   5.906  66.438  1.00  0.00    -0.155 C  
HETATM   21  C   UNL     1     -10.678   6.748  66.723  1.00  0.00    -0.312 C  
HETATM   22  C   UNL     1      -9.146   8.584  67.533  1.00  0.00    -0.146 C  
HETATM   23  C   UNL     1      -7.976   7.683  67.140  1.00  0.00    -0.117 C  
ENDBRANCH  17  18
ENDBRANCH   4  17
TORSDOF 2
ENDMDL
MODEL      118
REMARK 921   NORMALIZED FREE ENERGY PREDICTED BY IDOCK:   -3.91 KCAL/MOL
REMARK 922        TOTAL FREE ENERGY PREDICTED BY IDOCK:   -4.83 KCAL/MOL
REMARK 923 INTER-LIGAND FREE ENERGY PREDICTED BY IDOCK:   -4.11 KCAL/MOL
REMARK 924 INTRA-LIGAND FREE ENERGY PREDICTED BY IDOCK:   -0.73 KCAL/MOL
REMARK 927      BINDING AFFINITY PREDICTED BY RF-SCORE:    0.00 PKD
ROOT
HETATM    1  O   UNL     1     -10.234   8.113  66.444  1.00  0.00    -0.454 OA 
HETATM    2  C   UNL     1      -9.217   8.211  67.447  1.00  0.00    -0.137 C  
HETATM    3  H   UNL     1     -11.039   8.473  66.799  1.00  0.00     0.000 HD 
HETATM    4  C   UNL     1      -7.899   7.622  66.865  1.00  0.00    -0.111 C  
HETATM    5  C   UNL     1      -8.973   9.744  67.802  1.00  0.00    -0.132 C  
HETATM    6  C   UNL     1      -9.707   7.432  68.683  1.00  0.00    -0.152 A  
HETATM    7  C   UNL     1      -8.462  10.638  66.645  1.00  0.00    -0.137 C  
HETATM    8  C   UNL     1     -10.990   6.849  68.714  1.00  0.00    -0.210 A  
HETATM    9  C   UNL     1      -9.417   6.709  70.999  1.00  0.00    -0.168 A  
HETATM   10  C   UNL     1      -8.920   7.330  69.844  1.00  0.00    -0.142 A  
HETATM   11  C   UNL     1     -11.481   6.229  69.865  1.00  0.00    -0.459 A  
HETATM   12  C   UNL     1      -9.507  10.926  65.574  1.00  0.00    -0.249 C  
HETATM   13  C   UNL     1     -10.174  10.481  68.428  1.00  0.00    -0.192 C  
HETATM   14  C   UNL     1     -10.700   6.169  71.012  1.00  0.00    -0.317 A  
HETATM   15  C   UNL     1     -10.797  11.498  66.151  1.00  0.00    -0.330 C  
HETATM   16  C   UNL     1     -11.282  10.842  67.444  1.00  0.00    -0.345 C  
ENDROOT
BRANCH   4  17
HETATM   17  C   UNL     1      -7.938   6.179  66.334  1.00  0.00    -0.106 C  
BRANCH  17  18
HETATM   18  N   UNL     1      -8.640   6.077  65.030  1.00  0.00    -0.093 NA 
HETATM   19  C   UNL     1      -6.844   4.740  63.084  1.00  0.00    -0.038 C  
HETATM   20  C   UNL     1      -7.952   6.846  63.978  1.00  0.00    -0.070 C  
HETATM   21  C   UNL     1      -6.650   6.201  63.483  1.00  0.00    -0.033 C  
HETATM   22  C   UNL     1      -7.612   3.965  64.150  1.00  0.00    -0.078 C  
HETATM   23  C   UNL     1      -8.888   4.710  64.541  1.00  0.00    -0.153 C  
ENDBRANCH  17  18
ENDBRANCH   4  17
TORSDOF 2
ENDMDL
MODEL      119
REMARK 921   NORMALIZED FREE ENERGY PREDICTED BY IDOCK:   -3.90 KCAL/MOL
REMARK 922        TOTAL FREE ENERGY PREDICTED BY IDOCK:   -4.82 KCAL/MOL
REMARK 923 INTER-LIGAND FREE ENERGY PREDICTED BY IDOCK:   -4.45 KCAL/MOL
REMARK 924 INTRA-LIGAND FREE ENERGY PREDICTED BY IDOCK:   -0.37 KCAL/MOL
REMARK 927      BINDING AFFINITY PREDICTED BY RF-SCORE:    0.00 PKD
ROOT
HETATM    1  O   UNL     1     -10.826   8.352  68.058  1.00  0.00    -0.454 OA 
HETATM    2  C   UNL     1      -9.832   8.641  69.048  1.00  0.00    -0.182 C  
HETATM    3  H   UNL     1     -11.621   8.818  68.289  1.00  0.00     0.000 HD 
HETATM    4  C   UNL     1      -8.529   7.878  68.669  1.00  0.00    -0.128 C  
HETATM    5  C   UNL     1      -9.523  10.203  69.044  1.00  0.00    -0.195 C  
HETATM    6  C   UNL     1     -10.392   8.196  70.413  1.00  0.00    -0.208 A  
HETATM    7  C   UNL     1      -8.938  10.778  67.729  1.00  0.00    -0.137 C  
HETATM    8  C   UNL     1     -11.703   7.690  70.531  1.00  0.00    -0.148 A  
HETATM    9  C   UNL     1     -10.200   8.027  72.843  1.00  0.00    -0.384 A  
HETATM   10  C   UNL     1      -9.643   8.337  71.594  1.00  0.00    -0.261 A  
HETATM   11  C   UNL     1     -12.254   7.379  71.775  1.00  0.00    -0.359 A  
HETATM   12  C   UNL     1      -9.938  10.848  66.582  1.00  0.00    -0.250 C  
HETATM   13  C   UNL     1     -10.702  11.116  69.435  1.00  0.00    -0.220 C  
HETATM   14  C   UNL     1     -11.508   7.558  72.933  1.00  0.00    -0.311 A  
HETATM   15  C   UNL     1     -11.214  11.593  66.960  1.00  0.00    -0.376 C  
HETATM   16  C   UNL     1     -11.765  11.280  68.352  1.00  0.00    -0.365 C  
ENDROOT
BRANCH   4  17
HETATM   17  C   UNL     1      -8.625   6.353  68.490  1.00  0.00    -0.122 C  
BRANCH  17  18
HETATM   18  N   UNL     1      -7.329   5.674  68.741  1.00  0.00    -0.081 NA 
HETATM   19  C   UNL     1      -6.711   5.841  71.638  1.00  0.00    -0.055 C  
HETATM   20  C   UNL     1      -6.310   6.610  69.248  1.00  0.00    -0.035 C  
HETATM   21  C   UNL     1      -6.526   7.037  70.706  1.00  0.00    -0.047 C  
HETATM   22  C   UNL     1      -7.721   4.845  71.076  1.00  0.00    -0.082 C  
HETATM   23  C   UNL     1      -7.383   4.498  69.626  1.00  0.00    -0.051 C  
ENDBRANCH  17  18
ENDBRANCH   4  17
TORSDOF 2
ENDMDL
MODEL      120
REMARK 921   NORMALIZED FREE ENERGY PREDICTED BY IDOCK:   -3.89 KCAL/MOL
REMARK 922        TOTAL FREE ENERGY PREDICTED BY IDOCK:   -4.82 KCAL/MOL
REMARK 923 INTER-LIGAND FREE ENERGY PREDICTED BY IDOCK:   -4.38 KCAL/MOL
REMARK 924 INTRA-LIGAND FREE ENERGY PREDICTED BY IDOCK:   -0.44 KCAL/MOL
REMARK 927      BINDING AFFINITY PREDICTED BY RF-SCORE:    0.00 PKD
ROOT
HETATM    1  O   UNL     1      -7.532  12.899  66.580  1.00  0.00    -0.271 OA 
HETATM    2  C   UNL     1      -8.375  12.770  67.732  1.00  0.00    -0.177 C  
HETATM    3  H   UNL     1      -7.582  13.797  66.275  1.00  0.00     0.000 HD 
HETATM    4  C   UNL     1      -8.294  11.299  68.234  1.00  0.00    -0.150 C  
HETATM    5  C   UNL     1      -7.841  13.729  68.886  1.00  0.00     0.005 C  
HETATM    6  C   UNL     1      -9.803  13.164  67.309  1.00  0.00    -0.232 A  
HETATM    7  C   UNL     1      -6.415  13.430  69.414  1.00  0.00    -0.100 C  
HETATM    8  C   UNL     1     -10.073  13.633  66.007  1.00  0.00    -0.320 A  
HETATM    9  C   UNL     1     -12.147  13.588  67.854  1.00  0.00    -0.304 A  
HETATM   10  C   UNL     1     -10.873  13.129  68.220  1.00  0.00    -0.274 A  
HETATM   11  C   UNL     1     -11.343  14.086  65.645  1.00  0.00    -0.313 A  
HETATM   12  C   UNL     1      -5.302  13.784  68.435  1.00  0.00    -0.100 C  
HETATM   13  C   UNL     1      -7.884  15.237  68.570  1.00  0.00    -0.134 C  
HETATM   14  C   UNL     1     -12.378  14.075  66.571  1.00  0.00    -0.442 A  
HETATM   15  C   UNL     1      -5.390  15.225  67.945  1.00  0.00    -0.125 C  
HETATM   16  C   UNL     1      -6.798  15.718  67.611  1.00  0.00    -0.198 C  
ENDROOT
BRANCH   4  17
HETATM   17  C   UNL     1      -8.645  10.185  67.232  1.00  0.00    -0.125 C  
BRANCH  17  18
HETATM   18  N   UNL     1      -8.254   8.841  67.724  1.00  0.00    -0.110 NA 
HETATM   19  C   UNL     1     -10.712   7.282  68.293  1.00  0.00    -0.174 C  
HETATM   20  C   UNL     1      -8.705   8.613  69.108  1.00  0.00    -0.136 C  
HETATM   21  C   UNL     1     -10.215   8.372  69.240  1.00  0.00    -0.211 C  
HETATM   22  C   UNL     1     -10.189   7.489  66.876  1.00  0.00    -0.359 C  
HETATM   23  C   UNL     1      -8.676   7.704  66.888  1.00  0.00    -0.129 C  
ENDBRANCH  17  18
ENDBRANCH   4  17
TORSDOF 2
ENDMDL
MODEL      121
REMARK 921   NORMALIZED FREE ENERGY PREDICTED BY IDOCK:   -3.87 KCAL/MOL
REMARK 922        TOTAL FREE ENERGY PREDICTED BY IDOCK:   -4.79 KCAL/MOL
REMARK 923 INTER-LIGAND FREE ENERGY PREDICTED BY IDOCK:   -4.04 KCAL/MOL
REMARK 924 INTRA-LIGAND FREE ENERGY PREDICTED BY IDOCK:   -0.75 KCAL/MOL
REMARK 927      BINDING AFFINITY PREDICTED BY RF-SCORE:    0.00 PKD
ROOT
HETATM    1  O   UNL     1     -10.517  10.365  65.998  1.00  0.00    -0.219 OA 
HETATM    2  C   UNL     1      -9.370  10.071  66.805  1.00  0.00    -0.160 C  
HETATM    3  H   UNL     1     -11.296  10.183  66.511  1.00  0.00     0.000 HD 
HETATM    4  C   UNL     1      -8.094  10.369  65.965  1.00  0.00    -0.143 C  
HETATM    5  C   UNL     1      -9.368  11.019  68.084  1.00  0.00    -0.173 C  
HETATM    6  C   UNL     1      -9.462   8.589  67.219  1.00  0.00    -0.199 A  
HETATM    7  C   UNL     1      -9.264  12.539  67.804  1.00  0.00    -0.198 C  
HETATM    8  C   UNL     1     -10.578   7.804  66.869  1.00  0.00    -0.347 A  
HETATM    9  C   UNL     1      -8.613   6.671  68.472  1.00  0.00    -0.124 A  
HETATM   10  C   UNL     1      -8.468   7.988  68.013  1.00  0.00    -0.126 A  
HETATM   11  C   UNL     1     -10.717   6.491  67.325  1.00  0.00    -0.427 A  
HETATM   12  C   UNL     1     -10.525  13.148  67.203  1.00  0.00    -0.247 C  
HETATM   13  C   UNL     1     -10.552  10.831  69.053  1.00  0.00    -0.250 C  
HETATM   14  C   UNL     1      -9.740   5.927  68.136  1.00  0.00    -0.143 A  
HETATM   15  C   UNL     1     -11.772  12.849  68.028  1.00  0.00    -0.401 C  
HETATM   16  C   UNL     1     -11.872  11.421  68.566  1.00  0.00    -0.364 C  
ENDROOT
BRANCH   4  17
HETATM   17  C   UNL     1      -7.949   9.652  64.612  1.00  0.00    -0.135 C  
BRANCH  17  18
HETATM   18  N   UNL     1      -6.579   9.121  64.399  1.00  0.00    -0.079 NA 
HETATM   19  C   UNL     1      -6.782   6.395  63.248  1.00  0.00    -0.041 C  
HETATM   20  C   UNL     1      -6.322   7.928  65.224  1.00  0.00    -0.041 C  
HETATM   21  C   UNL     1      -7.037   6.662  64.730  1.00  0.00    -0.057 C  
HETATM   22  C   UNL     1      -6.990   7.651  62.409  1.00  0.00    -0.076 C  
HETATM   23  C   UNL     1      -6.215   8.828  63.002  1.00  0.00    -0.090 C  
ENDBRANCH  17  18
ENDBRANCH   4  17
TORSDOF 2
ENDMDL
MODEL      122
REMARK 921   NORMALIZED FREE ENERGY PREDICTED BY IDOCK:   -3.86 KCAL/MOL
REMARK 922        TOTAL FREE ENERGY PREDICTED BY IDOCK:   -4.78 KCAL/MOL
REMARK 923 INTER-LIGAND FREE ENERGY PREDICTED BY IDOCK:   -4.27 KCAL/MOL
REMARK 924 INTRA-LIGAND FREE ENERGY PREDICTED BY IDOCK:   -0.51 KCAL/MOL
REMARK 927      BINDING AFFINITY PREDICTED BY RF-SCORE:    0.00 PKD
ROOT
HETATM    1  O   UNL     1     -11.364   6.905  70.186  1.00  0.00    -0.298 OA 
HETATM    2  C   UNL     1     -10.084   7.054  70.812  1.00  0.00    -0.194 C  
HETATM    3  H   UNL     1     -12.034   7.124  70.823  1.00  0.00     0.000 HD 
HETATM    4  C   UNL     1      -8.986   6.695  69.768  1.00  0.00    -0.143 C  
HETATM    5  C   UNL     1      -9.886   8.570  71.254  1.00  0.00    -0.279 C  
HETATM    6  C   UNL     1     -10.054   6.117  72.035  1.00  0.00    -0.206 A  
HETATM    7  C   UNL     1      -9.883   9.617  70.112  1.00  0.00    -0.310 C  
HETATM    8  C   UNL     1     -11.189   5.368  72.406  1.00  0.00    -0.272 A  
HETATM    9  C   UNL     1      -8.936   5.248  74.027  1.00  0.00    -0.119 A  
HETATM   10  C   UNL     1      -8.918   6.024  72.858  1.00  0.00    -0.125 A  
HETATM   11  C   UNL     1     -11.204   4.595  73.569  1.00  0.00    -0.400 A  
HETATM   12  C   UNL     1     -11.248   9.852  69.478  1.00  0.00    -0.220 C  
HETATM   13  C   UNL     1     -10.874   9.087  72.319  1.00  0.00    -0.089 C  
HETATM   14  C   UNL     1     -10.081   4.544  74.386  1.00  0.00    -0.253 A  
HETATM   15  C   UNL     1     -12.320  10.198  70.506  1.00  0.00    -0.330 C  
HETATM   16  C   UNL     1     -12.278   9.379  71.796  1.00  0.00    -0.465 C  
ENDROOT
BRANCH   4  17
HETATM   17  C   UNL     1      -9.060   5.308  69.106  1.00  0.00    -0.108 C  
BRANCH  17  18
HETATM   18  N   UNL     1      -7.806   4.533  69.281  1.00  0.00    -0.062 NA 
HETATM   19  C   UNL     1      -8.502   1.758  70.064  1.00  0.00    -0.081 C  
HETATM   20  C   UNL     1      -7.638   4.071  70.670  1.00  0.00    -0.048 C  
HETATM   21  C   UNL     1      -8.568   2.914  71.060  1.00  0.00    -0.107 C  
HETATM   22  C   UNL     1      -8.613   2.251  68.625  1.00  0.00    -0.108 C  
HETATM   23  C   UNL     1      -7.627   3.390  68.370  1.00  0.00    -0.056 C  
ENDBRANCH  17  18
ENDBRANCH   4  17
TORSDOF 2
ENDMDL
MODEL      123
REMARK 921   NORMALIZED FREE ENERGY PREDICTED BY IDOCK:   -3.85 KCAL/MOL
REMARK 922        TOTAL FREE ENERGY PREDICTED BY IDOCK:   -4.76 KCAL/MOL
REMARK 923 INTER-LIGAND FREE ENERGY PREDICTED BY IDOCK:   -4.85 KCAL/MOL
REMARK 924 INTRA-LIGAND FREE ENERGY PREDICTED BY IDOCK:    0.09 KCAL/MOL
REMARK 927      BINDING AFFINITY PREDICTED BY RF-SCORE:    0.00 PKD
ROOT
HETATM    1  O   UNL     1     -11.398   7.185  69.369  1.00  0.00    -0.473 OA 
HETATM    2  C   UNL     1      -9.984   7.360  69.515  1.00  0.00    -0.179 C  
HETATM    3  H   UNL     1     -11.680   6.516  69.982  1.00  0.00     0.000 HD 
HETATM    4  C   UNL     1      -9.521   8.456  68.511  1.00  0.00    -0.149 C  
HETATM    5  C   UNL     1      -9.664   7.859  70.993  1.00  0.00    -0.178 C  
HETATM    6  C   UNL     1      -9.317   5.998  69.239  1.00  0.00    -0.146 A  
HETATM    7  C   UNL     1     -10.266   9.229  71.393  1.00  0.00    -0.371 C  
HETATM    8  C   UNL     1     -10.090   4.847  68.986  1.00  0.00    -0.210 A  
HETATM    9  C   UNL     1      -7.330   4.579  69.144  1.00  0.00    -0.052 A  
HETATM   10  C   UNL     1      -7.920   5.843  69.293  1.00  0.00    -0.099 A  
HETATM   11  C   UNL     1      -9.500   3.591  68.836  1.00  0.00    -0.210 A  
HETATM   12  C   UNL     1     -11.776   9.210  71.595  1.00  0.00    -0.448 C  
HETATM   13  C   UNL     1     -10.028   6.874  72.121  1.00  0.00    -0.176 C  
HETATM   14  C   UNL     1      -8.120   3.454  68.926  1.00  0.00    -0.071 A  
HETATM   15  C   UNL     1     -12.224   8.132  72.576  1.00  0.00    -0.335 C  
HETATM   16  C   UNL     1     -11.519   6.782  72.430  1.00  0.00    -0.302 C  
ENDROOT
BRANCH   4  17
HETATM   17  C   UNL     1      -9.846   8.240  67.023  1.00  0.00    -0.232 C  
BRANCH  17  18
HETATM   18  N   UNL     1     -10.343   9.477  66.370  1.00  0.00    -0.214 NA 
HETATM   19  C   UNL     1      -8.258  11.575  66.588  1.00  0.00    -0.156 C  
HETATM   20  C   UNL     1     -10.479  10.586  67.330  1.00  0.00    -0.244 C  
HETATM   21  C   UNL     1      -9.142  11.194  67.774  1.00  0.00    -0.149 C  
HETATM   22  C   UNL     1      -8.173  10.445  65.567  1.00  0.00    -0.162 C  
HETATM   23  C   UNL     1      -9.570   9.942  65.206  1.00  0.00    -0.295 C  
ENDBRANCH  17  18
ENDBRANCH   4  17
TORSDOF 2
ENDMDL
MODEL      124
REMARK 921   NORMALIZED FREE ENERGY PREDICTED BY IDOCK:   -3.84 KCAL/MOL
REMARK 922        TOTAL FREE ENERGY PREDICTED BY IDOCK:   -4.75 KCAL/MOL
REMARK 923 INTER-LIGAND FREE ENERGY PREDICTED BY IDOCK:   -4.08 KCAL/MOL
REMARK 924 INTRA-LIGAND FREE ENERGY PREDICTED BY IDOCK:   -0.67 KCAL/MOL
REMARK 927      BINDING AFFINITY PREDICTED BY RF-SCORE:    0.00 PKD
ROOT
HETATM    1  O   UNL     1      -8.120  12.555  68.864  1.00  0.00    -0.333 OA 
HETATM    2  C   UNL     1      -7.458  11.645  67.977  1.00  0.00    -0.100 C  
HETATM    3  H   UNL     1      -7.829  12.372  69.750  1.00  0.00     0.000 HD 
HETATM    4  C   UNL     1      -7.934  11.944  66.526  1.00  0.00     0.041 C  
HETATM    5  C   UNL     1      -5.886  11.885  68.054  1.00  0.00    -0.048 C  
HETATM    6  C   UNL     1      -7.817  10.215  68.426  1.00  0.00    -0.093 A  
HETATM    7  C   UNL     1      -5.389  13.285  67.614  1.00  0.00    -0.039 C  
HETATM    8  C   UNL     1      -8.599   9.989  69.577  1.00  0.00    -0.197 A  
HETATM    9  C   UNL     1      -7.574   7.793  68.219  1.00  0.00    -0.109 A  
HETATM   10  C   UNL     1      -7.327   9.088  67.742  1.00  0.00    -0.084 A  
HETATM   11  C   UNL     1      -8.845   8.697  70.047  1.00  0.00    -0.142 A  
HETATM   12  C   UNL     1      -5.731  14.402  68.592  1.00  0.00    -0.088 C  
HETATM   13  C   UNL     1      -5.235  11.599  69.422  1.00  0.00    -0.052 C  
HETATM   14  C   UNL     1      -8.323   7.599  69.376  1.00  0.00    -0.131 A  
HETATM   15  C   UNL     1      -5.265  14.102  70.012  1.00  0.00    -0.091 C  
HETATM   16  C   UNL     1      -5.491  12.665  70.484  1.00  0.00    -0.161 C  
ENDROOT
BRANCH   4  17
HETATM   17  C   UNL     1      -9.447  11.897  66.250  1.00  0.00    -0.227 C  
BRANCH  17  18
HETATM   18  N   UNL     1     -10.182  12.981  66.949  1.00  0.00    -0.241 NA 
HETATM   19  C   UNL     1     -11.742  14.518  64.949  1.00  0.00    -0.402 C  
HETATM   20  C   UNL     1      -9.741  14.315  66.504  1.00  0.00    -0.291 C  
HETATM   21  C   UNL     1     -10.233  14.699  65.102  1.00  0.00    -0.414 C  
HETATM   22  C   UNL     1     -12.199  13.160  65.470  1.00  0.00    -0.513 C  
HETATM   23  C   UNL     1     -11.651  12.910  66.875  1.00  0.00    -0.368 C  
ENDBRANCH  17  18
ENDBRANCH   4  17
TORSDOF 2
ENDMDL
MODEL      125
REMARK 921   NORMALIZED FREE ENERGY PREDICTED BY IDOCK:   -3.82 KCAL/MOL
REMARK 922        TOTAL FREE ENERGY PREDICTED BY IDOCK:   -4.73 KCAL/MOL
REMARK 923 INTER-LIGAND FREE ENERGY PREDICTED BY IDOCK:   -4.13 KCAL/MOL
REMARK 924 INTRA-LIGAND FREE ENERGY PREDICTED BY IDOCK:   -0.60 KCAL/MOL
REMARK 927      BINDING AFFINITY PREDICTED BY RF-SCORE:    0.00 PKD
ROOT
HETATM    1  O   UNL     1      -7.401  13.507  66.729  1.00  0.00    -0.261 OA 
HETATM    2  C   UNL     1      -8.354  13.470  67.798  1.00  0.00    -0.181 C  
HETATM    3  H   UNL     1      -7.451  14.361  66.315  1.00  0.00     0.000 HD 
HETATM    4  C   UNL     1      -8.272  12.071  68.476  1.00  0.00    -0.113 C  
HETATM    5  C   UNL     1      -7.979  14.579  68.877  1.00  0.00    -0.126 C  
HETATM    6  C   UNL     1      -9.744  13.743  67.190  1.00  0.00    -0.244 A  
HETATM    7  C   UNL     1      -6.606  14.412  69.576  1.00  0.00    -0.141 C  
HETATM    8  C   UNL     1      -9.892  14.046  65.822  1.00  0.00    -0.280 A  
HETATM    9  C   UNL     1     -12.145  14.113  67.446  1.00  0.00    -0.379 A  
HETATM   10  C   UNL     1     -10.901  13.761  67.989  1.00  0.00    -0.263 A  
HETATM   11  C   UNL     1     -11.133  14.393  65.284  1.00  0.00    -0.344 A  
HETATM   12  C   UNL     1      -5.411  14.705  68.678  1.00  0.00    -0.095 C  
HETATM   13  C   UNL     1      -8.043  16.037  68.381  1.00  0.00    -0.159 C  
HETATM   14  C   UNL     1     -12.258  14.438  66.097  1.00  0.00    -0.358 A  
HETATM   15  C   UNL     1      -5.499  16.075  68.013  1.00  0.00    -0.129 C  
HETATM   16  C   UNL     1      -6.882  16.457  67.485  1.00  0.00    -0.180 C  
ENDROOT
BRANCH   4  17
HETATM   17  C   UNL     1      -8.475  10.835  67.584  1.00  0.00    -0.119 C  
BRANCH  17  18
HETATM   18  N   UNL     1      -7.656  10.891  66.348  1.00  0.00    -0.144 NA 
HETATM   19  C   UNL     1      -7.566   8.183  65.140  1.00  0.00    -0.097 C  
HETATM   20  C   UNL     1      -6.449  10.052  66.453  1.00  0.00    -0.075 C  
HETATM   21  C   UNL     1      -6.728   8.545  66.364  1.00  0.00    -0.070 C  
HETATM   22  C   UNL     1      -8.780   9.097  65.002  1.00  0.00    -0.222 C  
HETATM   23  C   UNL     1      -8.361  10.564  65.097  1.00  0.00    -0.150 C  
ENDBRANCH  17  18
ENDBRANCH   4  17
TORSDOF 2
ENDMDL
MODEL      126
REMARK 921   NORMALIZED FREE ENERGY PREDICTED BY IDOCK:   -3.81 KCAL/MOL
REMARK 922        TOTAL FREE ENERGY PREDICTED BY IDOCK:   -4.72 KCAL/MOL
REMARK 923 INTER-LIGAND FREE ENERGY PREDICTED BY IDOCK:   -4.25 KCAL/MOL
REMARK 924 INTRA-LIGAND FREE ENERGY PREDICTED BY IDOCK:   -0.47 KCAL/MOL
REMARK 927      BINDING AFFINITY PREDICTED BY RF-SCORE:    0.00 PKD
ROOT
HETATM    1  O   UNL     1      -8.775   7.890  68.346  1.00  0.00    -0.131 OA 
HETATM    2  C   UNL     1      -9.973   8.010  69.121  1.00  0.00    -0.188 C  
HETATM    3  H   UNL     1      -8.318   7.104  68.624  1.00  0.00     0.000 HD 
HETATM    4  C   UNL     1     -10.722   9.297  68.667  1.00  0.00    -0.180 C  
HETATM    5  C   UNL     1     -10.910   6.754  68.841  1.00  0.00    -0.288 C  
HETATM    6  C   UNL     1      -9.563   8.068  70.606  1.00  0.00    -0.172 A  
HETATM    7  C   UNL     1     -11.408   6.588  67.383  1.00  0.00    -0.116 C  
HETATM    8  C   UNL     1      -8.214   7.928  70.993  1.00  0.00    -0.100 A  
HETATM    9  C   UNL     1     -10.147   8.145  72.977  1.00  0.00    -0.290 A  
HETATM   10  C   UNL     1     -10.521   8.198  71.626  1.00  0.00    -0.288 A  
HETATM   11  C   UNL     1      -7.845   7.878  72.339  1.00  0.00    -0.144 A  
HETATM   12  C   UNL     1     -10.325   6.155  66.402  1.00  0.00    -0.102 C  
HETATM   13  C   UNL     1     -10.336   5.388  69.266  1.00  0.00    -0.322 C  
HETATM   14  C   UNL     1      -8.812   7.975  73.332  1.00  0.00    -0.334 A  
HETATM   15  C   UNL     1      -9.593   4.896  66.854  1.00  0.00    -0.171 C  
HETATM   16  C   UNL     1      -9.252   4.838  68.344  1.00  0.00    -0.162 C  
ENDROOT
BRANCH   4  17
HETATM   17  C   UNL     1      -9.952  10.627  68.731  1.00  0.00    -0.193 C  
BRANCH  17  18
HETATM   18  N   UNL     1      -9.748  11.225  67.388  1.00  0.00    -0.173 NA 
HETATM   19  C   UNL     1      -8.084  13.665  67.673  1.00  0.00    -0.179 C  
HETATM   20  C   UNL     1     -10.347  12.569  67.291  1.00  0.00    -0.220 C  
HETATM   21  C   UNL     1      -9.566  13.655  68.044  1.00  0.00    -0.216 C  
HETATM   22  C   UNL     1      -7.488  12.262  67.714  1.00  0.00    -0.126 C  
HETATM   23  C   UNL     1      -8.354  11.286  66.918  1.00  0.00    -0.155 C  
ENDBRANCH  17  18
ENDBRANCH   4  17
TORSDOF 2
ENDMDL
MODEL      127
REMARK 921   NORMALIZED FREE ENERGY PREDICTED BY IDOCK:   -3.71 KCAL/MOL
REMARK 922        TOTAL FREE ENERGY PREDICTED BY IDOCK:   -4.61 KCAL/MOL
REMARK 923 INTER-LIGAND FREE ENERGY PREDICTED BY IDOCK:   -4.19 KCAL/MOL
REMARK 924 INTRA-LIGAND FREE ENERGY PREDICTED BY IDOCK:   -0.42 KCAL/MOL
REMARK 927      BINDING AFFINITY PREDICTED BY RF-SCORE:    0.00 PKD
ROOT
HETATM    1  O   UNL     1      -8.563  10.361  68.370  1.00  0.00    -0.119 OA 
HETATM    2  C   UNL     1      -8.887  10.120  66.996  1.00  0.00    -0.135 C  
HETATM    3  H   UNL     1      -8.170  11.224  68.435  1.00  0.00     0.000 HD 
HETATM    4  C   UNL     1      -9.531   8.706  66.888  1.00  0.00    -0.235 C  
HETATM    5  C   UNL     1      -9.952  11.199  66.508  1.00  0.00    -0.252 C  
HETATM    6  C   UNL     1      -7.582  10.229  66.184  1.00  0.00    -0.124 A  
HETATM    7  C   UNL     1     -11.319  11.184  67.237  1.00  0.00    -0.302 C  
HETATM    8  C   UNL     1      -6.370  10.596  66.802  1.00  0.00    -0.084 A  
HETATM    9  C   UNL     1      -6.395  10.235  64.048  1.00  0.00    -0.097 A  
HETATM   10  C   UNL     1      -7.567  10.030  64.792  1.00  0.00    -0.143 A  
HETATM   11  C   UNL     1      -5.205  10.797  66.059  1.00  0.00    -0.107 A  
HETATM   12  C   UNL     1     -11.266  11.703  68.668  1.00  0.00    -0.308 C  
HETATM   13  C   UNL     1      -9.466  12.662  66.515  1.00  0.00    -0.247 C  
HETATM   14  C   UNL     1      -5.219  10.627  64.680  1.00  0.00    -0.146 A  
HETATM   15  C   UNL     1     -10.631  13.086  68.768  1.00  0.00    -0.218 C  
HETATM   16  C   UNL     1      -9.391  13.300  67.899  1.00  0.00    -0.214 C  
ENDROOT
BRANCH   4  17
HETATM   17  C   UNL     1      -8.722   7.513  67.426  1.00  0.00    -0.124 C  
BRANCH  17  18
HETATM   18  N   UNL     1      -9.367   6.212  67.122  1.00  0.00    -0.116 NA 
HETATM   19  C   UNL     1     -10.035   4.859  69.676  1.00  0.00    -0.302 C  
HETATM   20  C   UNL     1      -8.565   5.077  67.613  1.00  0.00    -0.104 C  
HETATM   21  C   UNL     1      -8.607   4.896  69.136  1.00  0.00    -0.091 C  
HETATM   22  C   UNL     1     -10.876   6.000  69.114  1.00  0.00    -0.422 C  
HETATM   23  C   UNL     1     -10.754   6.059  67.591  1.00  0.00    -0.296 C  
ENDBRANCH  17  18
ENDBRANCH   4  17
TORSDOF 2
ENDMDL
MODEL      128
REMARK 921   NORMALIZED FREE ENERGY PREDICTED BY IDOCK:   -3.68 KCAL/MOL
REMARK 922        TOTAL FREE ENERGY PREDICTED BY IDOCK:   -4.58 KCAL/MOL
REMARK 923 INTER-LIGAND FREE ENERGY PREDICTED BY IDOCK:   -4.20 KCAL/MOL
REMARK 924 INTRA-LIGAND FREE ENERGY PREDICTED BY IDOCK:   -0.38 KCAL/MOL
REMARK 927      BINDING AFFINITY PREDICTED BY RF-SCORE:    0.00 PKD
ROOT
HETATM    1  O   UNL     1     -10.287   6.375  69.562  1.00  0.00    -0.183 OA 
HETATM    2  C   UNL     1      -8.948   6.842  69.769  1.00  0.00    -0.144 C  
HETATM    3  H   UNL     1     -10.311   5.897  68.740  1.00  0.00     0.000 HD 
HETATM    4  C   UNL     1      -8.907   7.623  71.114  1.00  0.00    -0.140 C  
HETATM    5  C   UNL     1      -7.965   5.594  69.877  1.00  0.00    -0.095 C  
HETATM    6  C   UNL     1      -8.575   7.731  68.566  1.00  0.00    -0.128 A  
HETATM    7  C   UNL     1      -8.224   4.625  71.058  1.00  0.00    -0.091 C  
HETATM    8  C   UNL     1      -9.461   7.897  67.482  1.00  0.00    -0.175 A  
HETATM    9  C   UNL     1      -6.950   9.076  67.333  1.00  0.00    -0.078 A  
HETATM   10  C   UNL     1      -7.318   8.355  68.479  1.00  0.00    -0.093 A  
HETATM   11  C   UNL     1      -9.093   8.618  66.345  1.00  0.00    -0.218 A  
HETATM   12  C   UNL     1      -9.481   3.777  70.904  1.00  0.00    -0.236 C  
HETATM   13  C   UNL     1      -7.855   4.722  68.611  1.00  0.00    -0.077 C  
HETATM   14  C   UNL     1      -7.833   9.198  66.265  1.00  0.00    -0.103 A  
HETATM   15  C   UNL     1      -9.517   3.018  69.582  1.00  0.00    -0.177 C  
HETATM   16  C   UNL     1      -9.052   3.810  68.360  1.00  0.00    -0.194 C  
ENDROOT
BRANCH   4  17
HETATM   17  C   UNL     1      -9.878   8.804  71.281  1.00  0.00    -0.266 C  
BRANCH  17  18
HETATM   18  N   UNL     1     -11.183   8.559  70.617  1.00  0.00    -0.254 NA 
HETATM   19  C   UNL     1     -13.134  10.579  71.572  1.00  0.00    -0.532 C  
HETATM   20  C   UNL     1     -12.232   8.202  71.588  1.00  0.00    -0.308 C  
HETATM   21  C   UNL     1     -12.729   9.383  72.432  1.00  0.00    -0.350 C  
HETATM   22  C   UNL     1     -12.071  10.903  70.528  1.00  0.00    -0.464 C  
HETATM   23  C   UNL     1     -11.677   9.645  69.754  1.00  0.00     0.108 C  
ENDBRANCH  17  18
ENDBRANCH   4  17
TORSDOF 2
ENDMDL
MODEL      129
REMARK 921   NORMALIZED FREE ENERGY PREDICTED BY IDOCK:   -3.68 KCAL/MOL
REMARK 922        TOTAL FREE ENERGY PREDICTED BY IDOCK:   -4.58 KCAL/MOL
REMARK 923 INTER-LIGAND FREE ENERGY PREDICTED BY IDOCK:   -4.11 KCAL/MOL
REMARK 924 INTRA-LIGAND FREE ENERGY PREDICTED BY IDOCK:   -0.47 KCAL/MOL
REMARK 927      BINDING AFFINITY PREDICTED BY RF-SCORE:    0.00 PKD
ROOT
HETATM    1  O   UNL     1      -9.016   7.361  71.843  1.00  0.00    -0.125 OA 
HETATM    2  C   UNL     1      -9.408   6.535  70.740  1.00  0.00    -0.158 C  
HETATM    3  H   UNL     1      -8.808   8.226  71.508  1.00  0.00     0.000 HD 
HETATM    4  C   UNL     1      -9.749   5.118  71.288  1.00  0.00    -0.228 C  
HETATM    5  C   UNL     1     -10.715   7.144  70.065  1.00  0.00    -0.268 C  
HETATM    6  C   UNL     1      -8.236   6.508  69.740  1.00  0.00    -0.126 A  
HETATM    7  C   UNL     1     -11.976   7.215  70.963  1.00  0.00    -0.387 C  
HETATM    8  C   UNL     1      -7.075   7.277  69.959  1.00  0.00    -0.066 A  
HETATM    9  C   UNL     1      -7.279   5.831  67.596  1.00  0.00    -0.076 A  
HETATM   10  C   UNL     1      -8.308   5.766  68.548  1.00  0.00    -0.107 A  
HETATM   11  C   UNL     1      -6.052   7.337  69.011  1.00  0.00    -0.027 A  
HETATM   12  C   UNL     1     -11.900   8.271  72.058  1.00  0.00    -0.408 C  
HETATM   13  C   UNL     1     -10.549   8.541  69.433  1.00  0.00    -0.203 C  
HETATM   14  C   UNL     1      -6.158   6.623  67.824  1.00  0.00    -0.028 A  
HETATM   15  C   UNL     1     -11.563   9.656  71.516  1.00  0.00    -0.451 C  
HETATM   16  C   UNL     1     -10.481   9.689  70.436  1.00  0.00    -0.352 C  
ENDROOT
BRANCH   4  17
HETATM   17  C   UNL     1      -8.662   4.388  72.095  1.00  0.00    -0.113 C  
BRANCH  17  18
HETATM   18  N   UNL     1      -8.899   4.465  73.558  1.00  0.00    -0.101 NA 
HETATM   19  C   UNL     1     -10.498   2.110  74.390  1.00  0.00    -0.192 C  
HETATM   20  C   UNL     1     -10.332   4.594  73.874  1.00  0.00    -0.228 C  
HETATM   21  C   UNL     1     -11.133   3.300  73.674  1.00  0.00    -0.316 C  
HETATM   22  C   UNL     1      -9.002   2.021  74.110  1.00  0.00    -0.069 C  
HETATM   23  C   UNL     1      -8.327   3.369  74.359  1.00  0.00    -0.077 C  
ENDBRANCH  17  18
ENDBRANCH   4  17
TORSDOF 2
ENDMDL
MODEL      130
REMARK 921   NORMALIZED FREE ENERGY PREDICTED BY IDOCK:   -3.66 KCAL/MOL
REMARK 922        TOTAL FREE ENERGY PREDICTED BY IDOCK:   -4.56 KCAL/MOL
REMARK 923 INTER-LIGAND FREE ENERGY PREDICTED BY IDOCK:   -3.92 KCAL/MOL
REMARK 924 INTRA-LIGAND FREE ENERGY PREDICTED BY IDOCK:   -0.64 KCAL/MOL
REMARK 927      BINDING AFFINITY PREDICTED BY RF-SCORE:    0.00 PKD
ROOT
HETATM    1  O   UNL     1      -9.338  14.142  67.992  1.00  0.00    -0.190 OA 
HETATM    2  C   UNL     1     -10.625  14.753  67.850  1.00  0.00    -0.248 C  
HETATM    3  H   UNL     1      -9.421  13.406  68.588  1.00  0.00     0.000 HD 
HETATM    4  C   UNL     1     -10.489  15.958  66.874  1.00  0.00    -0.309 C  
HETATM    5  C   UNL     1     -11.641  13.703  67.218  1.00  0.00    -0.387 C  
HETATM    6  C   UNL     1     -11.089  15.190  69.254  1.00  0.00    -0.279 A  
HETATM    7  C   UNL     1     -11.296  13.193  65.797  1.00  0.00    -0.331 C  
HETATM    8  C   UNL     1     -10.320  14.896  70.398  1.00  0.00     0.168 A  
HETATM    9  C   UNL     1     -12.782  16.136  70.740  1.00  0.00     0.433 A  
HETATM   10  C   UNL     1     -12.322  15.837  69.449  1.00  0.00    -0.034 A  
HETATM   11  C   UNL     1     -10.780  15.197  71.681  1.00  0.00     0.390 A  
HETATM   12  C   UNL     1     -10.099  12.252  65.747  1.00  0.00    -0.274 C  
HETATM   13  C   UNL     1     -11.924  12.453  68.075  1.00  0.00    -0.264 C  
HETATM   14  C   UNL     1     -12.016  15.807  71.854  1.00  0.00    -0.552 A  
HETATM   15  C   UNL     1     -10.237  11.076  66.707  1.00  0.00    -0.272 C  
HETATM   16  C   UNL     1     -10.799  11.421  68.087  1.00  0.00    -0.259 C  
ENDROOT
BRANCH   4  17
HETATM   17  C   UNL     1      -9.457  17.044  67.225  1.00  0.00    -0.240 C  
BRANCH  17  18
HETATM   18  N   UNL     1      -8.061  16.564  67.078  1.00  0.00    -0.182 NA 
HETATM   19  C   UNL     1      -6.214  18.817  67.636  1.00  0.00    -0.199 C  
HETATM   20  C   UNL     1      -7.357  17.258  65.985  1.00  0.00    -0.190 C  
HETATM   21  C   UNL     1      -6.969  18.706  66.313  1.00  0.00    -0.267 C  
HETATM   22  C   UNL     1      -6.915  18.044  68.748  1.00  0.00    -0.264 C  
HETATM   23  C   UNL     1      -7.232  16.619  68.294  1.00  0.00    -0.169 C  
ENDBRANCH  17  18
ENDBRANCH   4  17
TORSDOF 2
ENDMDL
MODEL      131
REMARK 921   NORMALIZED FREE ENERGY PREDICTED BY IDOCK:   -3.66 KCAL/MOL
REMARK 922        TOTAL FREE ENERGY PREDICTED BY IDOCK:   -4.56 KCAL/MOL
REMARK 923 INTER-LIGAND FREE ENERGY PREDICTED BY IDOCK:   -3.85 KCAL/MOL
REMARK 924 INTRA-LIGAND FREE ENERGY PREDICTED BY IDOCK:   -0.70 KCAL/MOL
REMARK 927      BINDING AFFINITY PREDICTED BY RF-SCORE:    0.00 PKD
ROOT
HETATM    1  O   UNL     1      -9.714  10.062  67.630  1.00  0.00    -0.153 OA 
HETATM    2  C   UNL     1      -8.382  10.160  68.150  1.00  0.00    -0.117 C  
HETATM    3  H   UNL     1      -9.767  10.596  66.846  1.00  0.00     0.000 HD 
HETATM    4  C   UNL     1      -8.294   9.284  69.434  1.00  0.00    -0.127 C  
HETATM    5  C   UNL     1      -7.354   9.590  67.077  1.00  0.00    -0.087 C  
HETATM    6  C   UNL     1      -8.105  11.648  68.439  1.00  0.00    -0.153 A  
HETATM    7  C   UNL     1      -7.515   8.094  66.707  1.00  0.00    -0.090 C  
HETATM    8  C   UNL     1      -9.054  12.640  68.118  1.00  0.00    -0.204 A  
HETATM    9  C   UNL     1      -6.595  13.439  69.135  1.00  0.00    -0.106 A  
HETATM   10  C   UNL     1      -6.876  12.074  68.974  1.00  0.00    -0.105 A  
HETATM   11  C   UNL     1      -8.772  13.998  68.283  1.00  0.00    -0.182 A  
HETATM   12  C   UNL     1      -8.750   7.791  65.867  1.00  0.00    -0.175 C  
HETATM   13  C   UNL     1      -7.283  10.365  65.746  1.00  0.00    -0.143 C  
HETATM   14  C   UNL     1      -7.538  14.399  68.781  1.00  0.00    -0.131 A  
HETATM   15  C   UNL     1      -8.833   8.654  64.613  1.00  0.00     0.006 C  
HETATM   16  C   UNL     1      -8.461  10.125  64.807  1.00  0.00    -0.180 C  
ENDROOT
BRANCH   4  17
HETATM   17  C   UNL     1      -9.294   9.578  70.566  1.00  0.00    -0.237 C  
BRANCH  17  18
HETATM   18  N   UNL     1     -10.621   8.960  70.320  1.00  0.00    -0.210 NA 
HETATM   19  C   UNL     1     -11.037   6.780  72.287  1.00  0.00    -0.286 C  
HETATM   20  C   UNL     1     -10.501   7.546  69.923  1.00  0.00    -0.229 C  
HETATM   21  C   UNL     1     -10.124   6.605  71.075  1.00  0.00    -0.207 C  
HETATM   22  C   UNL     1     -11.207   8.251  72.653  1.00  0.00    -0.410 C  
HETATM   23  C   UNL     1     -11.593   9.069  71.421  1.00  0.00    -0.326 C  
ENDBRANCH  17  18
ENDBRANCH   4  17
TORSDOF 2
ENDMDL
MODEL      132
REMARK 921   NORMALIZED FREE ENERGY PREDICTED BY IDOCK:   -3.66 KCAL/MOL
REMARK 922        TOTAL FREE ENERGY PREDICTED BY IDOCK:   -4.55 KCAL/MOL
REMARK 923 INTER-LIGAND FREE ENERGY PREDICTED BY IDOCK:   -4.61 KCAL/MOL
REMARK 924 INTRA-LIGAND FREE ENERGY PREDICTED BY IDOCK:    0.06 KCAL/MOL
REMARK 927      BINDING AFFINITY PREDICTED BY RF-SCORE:    0.00 PKD
ROOT
HETATM    1  O   UNL     1     -10.535   9.104  66.537  1.00  0.00    -0.228 OA 
HETATM    2  C   UNL     1      -9.625   9.859  67.346  1.00  0.00    -0.155 C  
HETATM    3  H   UNL     1     -10.630   9.548  65.703  1.00  0.00     0.000 HD 
HETATM    4  C   UNL     1      -9.469   9.132  68.714  1.00  0.00    -0.147 C  
HETATM    5  C   UNL     1      -8.202   9.909  66.634  1.00  0.00    -0.121 C  
HETATM    6  C   UNL     1     -10.210  11.276  67.503  1.00  0.00    -0.217 A  
HETATM    7  C   UNL     1      -7.496   8.545  66.428  1.00  0.00    -0.087 C  
HETATM    8  C   UNL     1     -11.396  11.651  66.839  1.00  0.00    -0.364 A  
HETATM    9  C   UNL     1     -10.037  13.576  68.310  1.00  0.00    -0.247 A  
HETATM   10  C   UNL     1      -9.551  12.261  68.260  1.00  0.00    -0.212 A  
HETATM   11  C   UNL     1     -11.879  12.960  66.894  1.00  0.00    -0.444 A  
HETATM   12  C   UNL     1      -8.137   7.667  65.361  1.00  0.00    -0.128 C  
HETATM   13  C   UNL     1      -8.165  10.631  65.272  1.00  0.00    -0.105 C  
HETATM   14  C   UNL     1     -11.194  13.926  67.620  1.00  0.00    -0.316 A  
HETATM   15  C   UNL     1      -8.291   8.386  64.025  1.00  0.00    -0.068 C  
HETATM   16  C   UNL     1      -8.764   9.838  64.114  1.00  0.00    -0.233 C  
ENDROOT
BRANCH   4  17
HETATM   17  C   UNL     1     -10.748   8.859  69.524  1.00  0.00    -0.199 C  
BRANCH  17  18
HETATM   18  N   UNL     1     -10.464   8.179  70.813  1.00  0.00    -0.200 NA 
HETATM   19  C   UNL     1      -9.298   5.511  70.247  1.00  0.00    -0.194 C  
HETATM   20  C   UNL     1     -11.263   6.952  70.971  1.00  0.00    -0.282 C  
HETATM   21  C   UNL     1     -10.793   5.783  70.094  1.00  0.00    -0.383 C  
HETATM   22  C   UNL     1      -8.482   6.795  70.144  1.00  0.00    -0.139 C  
HETATM   23  C   UNL     1      -9.048   7.867  71.074  1.00  0.00    -0.143 C  
ENDBRANCH  17  18
ENDBRANCH   4  17
TORSDOF 2
ENDMDL
MODEL      133
REMARK 921   NORMALIZED FREE ENERGY PREDICTED BY IDOCK:   -3.65 KCAL/MOL
REMARK 922        TOTAL FREE ENERGY PREDICTED BY IDOCK:   -4.55 KCAL/MOL
REMARK 923 INTER-LIGAND FREE ENERGY PREDICTED BY IDOCK:   -4.31 KCAL/MOL
REMARK 924 INTRA-LIGAND FREE ENERGY PREDICTED BY IDOCK:   -0.24 KCAL/MOL
REMARK 927      BINDING AFFINITY PREDICTED BY RF-SCORE:    0.00 PKD
ROOT
HETATM    1  O   UNL     1     -10.775   8.918  67.473  1.00  0.00    -0.400 OA 
HETATM    2  C   UNL     1      -9.674   8.928  68.389  1.00  0.00    -0.161 C  
HETATM    3  H   UNL     1     -11.581   8.960  67.975  1.00  0.00     0.000 HD 
HETATM    4  C   UNL     1      -8.354   8.860  67.567  1.00  0.00    -0.109 C  
HETATM    5  C   UNL     1      -9.687  10.290  69.214  1.00  0.00    -0.240 C  
HETATM    6  C   UNL     1      -9.840   7.717  69.328  1.00  0.00    -0.168 A  
HETATM    7  C   UNL     1      -9.514  11.588  68.386  1.00  0.00    -0.195 C  
HETATM    8  C   UNL     1     -10.971   6.880  69.242  1.00  0.00    -0.260 A  
HETATM    9  C   UNL     1      -9.117   6.399  71.255  1.00  0.00    -0.148 A  
HETATM   10  C   UNL     1      -8.904   7.441  70.340  1.00  0.00    -0.149 A  
HETATM   11  C   UNL     1     -11.179   5.842  70.152  1.00  0.00    -0.219 A  
HETATM   12  C   UNL     1     -10.724  11.949  67.534  1.00  0.00    -0.263 C  
HETATM   13  C   UNL     1     -10.916  10.508  70.119  1.00  0.00    -0.338 C  
HETATM   14  C   UNL     1     -10.258   5.608  71.166  1.00  0.00    -0.280 A  
HETATM   15  C   UNL     1     -12.014  12.011  68.345  1.00  0.00    -0.256 C  
HETATM   16  C   UNL     1     -12.192  10.896  69.377  1.00  0.00    -0.293 C  
ENDROOT
BRANCH   4  17
HETATM   17  C   UNL     1      -8.182   7.680  66.595  1.00  0.00    -0.124 C  
BRANCH  17  18
HETATM   18  N   UNL     1      -8.555   8.038  65.203  1.00  0.00    -0.104 NA 
HETATM   19  C   UNL     1      -6.373   9.661  64.018  1.00  0.00    -0.110 C  
HETATM   20  C   UNL     1      -8.698   9.495  65.033  1.00  0.00    -0.177 C  
HETATM   21  C   UNL     1      -7.365  10.255  65.017  1.00  0.00    -0.117 C  
HETATM   22  C   UNL     1      -6.278   8.145  64.158  1.00  0.00    -0.066 C  
HETATM   23  C   UNL     1      -7.671   7.516  64.148  1.00  0.00    -0.132 C  
ENDBRANCH  17  18
ENDBRANCH   4  17
TORSDOF 2
ENDMDL
MODEL      134
REMARK 921   NORMALIZED FREE ENERGY PREDICTED BY IDOCK:   -3.63 KCAL/MOL
REMARK 922        TOTAL FREE ENERGY PREDICTED BY IDOCK:   -4.52 KCAL/MOL
REMARK 923 INTER-LIGAND FREE ENERGY PREDICTED BY IDOCK:   -3.98 KCAL/MOL
REMARK 924 INTRA-LIGAND FREE ENERGY PREDICTED BY IDOCK:   -0.55 KCAL/MOL
REMARK 927      BINDING AFFINITY PREDICTED BY RF-SCORE:    0.00 PKD
ROOT
HETATM    1  O   UNL     1      -7.230   9.954  69.142  1.00  0.00    -0.065 OA 
HETATM    2  C   UNL     1      -8.362   9.902  68.266  1.00  0.00    -0.110 C  
HETATM    3  H   UNL     1      -6.462   9.684  68.652  1.00  0.00     0.000 HD 
HETATM    4  C   UNL     1      -9.621  10.344  69.068  1.00  0.00    -0.212 C  
HETATM    5  C   UNL     1      -8.145  10.921  67.062  1.00  0.00    -0.131 C  
HETATM    6  C   UNL     1      -8.481   8.456  67.746  1.00  0.00    -0.131 A  
HETATM    7  C   UNL     1      -8.025  12.416  67.450  1.00  0.00    -0.178 C  
HETATM    8  C   UNL     1      -7.522   7.480  68.086  1.00  0.00    -0.105 A  
HETATM    9  C   UNL     1      -9.548   6.786  66.318  1.00  0.00    -0.087 A  
HETATM   10  C   UNL     1      -9.510   8.076  66.867  1.00  0.00    -0.244 A  
HETATM   11  C   UNL     1      -7.565   6.196  67.540  1.00  0.00    -0.093 A  
HETATM   12  C   UNL     1      -6.720  12.774  68.150  1.00  0.00    -0.092 C  
HETATM   13  C   UNL     1      -6.953  10.611  66.136  1.00  0.00    -0.135 C  
HETATM   14  C   UNL     1      -8.571   5.851  66.647  1.00  0.00    -0.119 A  
HETATM   15  C   UNL     1      -5.491  12.335  67.362  1.00  0.00    -0.127 C  
HETATM   16  C   UNL     1      -5.585  10.949  66.723  1.00  0.00    -0.074 C  
ENDROOT
BRANCH   4  17
HETATM   17  C   UNL     1      -9.951   9.571  70.356  1.00  0.00    -0.267 C  
BRANCH  17  18
HETATM   18  N   UNL     1     -11.227   8.820  70.252  1.00  0.00    -0.233 NA 
HETATM   19  C   UNL     1     -11.218   6.639  72.262  1.00  0.00    -0.303 C  
HETATM   20  C   UNL     1     -11.006   7.419  69.851  1.00  0.00    -0.223 C  
HETATM   21  C   UNL     1     -10.420   6.538  70.963  1.00  0.00    -0.260 C  
HETATM   22  C   UNL     1     -11.497   8.090  72.636  1.00  0.00    -0.465 C  
HETATM   23  C   UNL     1     -12.087   8.848  71.447  1.00  0.00    -0.322 C  
ENDBRANCH  17  18
ENDBRANCH   4  17
TORSDOF 2
ENDMDL
MODEL      135
REMARK 921   NORMALIZED FREE ENERGY PREDICTED BY IDOCK:   -3.61 KCAL/MOL
REMARK 922        TOTAL FREE ENERGY PREDICTED BY IDOCK:   -4.49 KCAL/MOL
REMARK 923 INTER-LIGAND FREE ENERGY PREDICTED BY IDOCK:   -4.34 KCAL/MOL
REMARK 924 INTRA-LIGAND FREE ENERGY PREDICTED BY IDOCK:   -0.15 KCAL/MOL
REMARK 927      BINDING AFFINITY PREDICTED BY RF-SCORE:    0.00 PKD
ROOT
HETATM    1  O   UNL     1      -9.050   7.262  71.503  1.00  0.00    -0.140 OA 
HETATM    2  C   UNL     1      -9.526   6.559  70.349  1.00  0.00    -0.162 C  
HETATM    3  H   UNL     1      -8.920   8.173  71.264  1.00  0.00     0.000 HD 
HETATM    4  C   UNL     1      -9.740   5.068  70.739  1.00  0.00    -0.263 C  
HETATM    5  C   UNL     1     -10.927   7.170  69.900  1.00  0.00    -0.278 C  
HETATM    6  C   UNL     1      -8.473   6.726  69.236  1.00  0.00    -0.129 A  
HETATM    7  C   UNL     1     -12.080   7.054  70.928  1.00  0.00    -0.403 C  
HETATM    8  C   UNL     1      -7.331   7.528  69.430  1.00  0.00    -0.085 A  
HETATM    9  C   UNL     1      -7.733   6.379  66.934  1.00  0.00    -0.100 A  
HETATM   10  C   UNL     1      -8.645   6.136  67.971  1.00  0.00    -0.115 A  
HETATM   11  C   UNL     1      -6.424   7.766  68.396  1.00  0.00    -0.053 A  
HETATM   12  C   UNL     1     -11.930   7.968  72.138  1.00  0.00    -0.399 C  
HETATM   13  C   UNL     1     -10.894   8.642  69.443  1.00  0.00    -0.108 C  
HETATM   14  C   UNL     1      -6.630   7.201  67.144  1.00  0.00    -0.059 A  
HETATM   15  C   UNL     1     -11.718   9.427  71.749  1.00  0.00    -0.444 C  
HETATM   16  C   UNL     1     -10.766   9.658  70.574  1.00  0.00    -0.374 C  
ENDROOT
BRANCH   4  17
HETATM   17  C   UNL     1      -8.538   4.307  71.325  1.00  0.00    -0.101 C  
BRANCH  17  18
HETATM   18  N   UNL     1      -8.928   3.410  72.441  1.00  0.00    -0.091 NA 
HETATM   19  C   UNL     1     -10.215   5.034  74.564  1.00  0.00    -0.305 C  
HETATM   20  C   UNL     1      -8.211   3.740  73.685  1.00  0.00    -0.087 C  
HETATM   21  C   UNL     1      -8.701   5.026  74.366  1.00  0.00    -0.112 C  
HETATM   22  C   UNL     1     -10.949   4.630  73.290  1.00  0.00    -0.381 C  
HETATM   23  C   UNL     1     -10.371   3.332  72.726  1.00  0.00    -0.156 C  
ENDBRANCH  17  18
ENDBRANCH   4  17
TORSDOF 2
ENDMDL
MODEL      136
REMARK 921   NORMALIZED FREE ENERGY PREDICTED BY IDOCK:   -3.60 KCAL/MOL
REMARK 922        TOTAL FREE ENERGY PREDICTED BY IDOCK:   -4.49 KCAL/MOL
REMARK 923 INTER-LIGAND FREE ENERGY PREDICTED BY IDOCK:   -3.79 KCAL/MOL
REMARK 924 INTRA-LIGAND FREE ENERGY PREDICTED BY IDOCK:   -0.70 KCAL/MOL
REMARK 927      BINDING AFFINITY PREDICTED BY RF-SCORE:    0.00 PKD
ROOT
HETATM    1  O   UNL     1      -9.210   9.290  67.606  1.00  0.00    -0.125 OA 
HETATM    2  C   UNL     1      -8.002  10.034  67.414  1.00  0.00    -0.106 C  
HETATM    3  H   UNL     1      -8.989   8.366  67.636  1.00  0.00     0.000 HD 
HETATM    4  C   UNL     1      -8.364  11.548  67.365  1.00  0.00    -0.148 C  
HETATM    5  C   UNL     1      -7.027   9.786  68.647  1.00  0.00    -0.063 C  
HETATM    6  C   UNL     1      -7.360   9.546  66.100  1.00  0.00    -0.093 A  
HETATM    7  C   UNL     1      -7.549  10.247  70.031  1.00  0.00    -0.116 C  
HETATM    8  C   UNL     1      -7.926   8.486  65.364  1.00  0.00    -0.113 A  
HETATM    9  C   UNL     1      -5.528   9.576  64.484  1.00  0.00    -0.061 A  
HETATM   10  C   UNL     1      -6.158  10.098  65.623  1.00  0.00    -0.095 A  
HETATM   11  C   UNL     1      -7.298   7.970  64.229  1.00  0.00    -0.095 A  
HETATM   12  C   UNL     1      -8.675   9.387  70.590  1.00  0.00    -0.263 C  
HETATM   13  C   UNL     1      -6.536   8.335  68.826  1.00  0.00    -0.054 C  
HETATM   14  C   UNL     1      -6.093   8.507  63.794  1.00  0.00    -0.072 A  
HETATM   15  C   UNL     1      -8.316   7.905  70.631  1.00  0.00    -0.123 C  
HETATM   16  C   UNL     1      -7.576   7.378  69.401  1.00  0.00    -0.096 C  
ENDROOT
BRANCH   4  17
HETATM   17  C   UNL     1      -9.399  11.999  66.321  1.00  0.00    -0.223 C  
BRANCH  17  18
HETATM   18  N   UNL     1     -10.794  11.812  66.793  1.00  0.00    -0.257 NA 
HETATM   19  C   UNL     1     -11.998  14.479  67.283  1.00  0.00    -0.375 C  
HETATM   20  C   UNL     1     -10.979  12.322  68.164  1.00  0.00    -0.231 C  
HETATM   21  C   UNL     1     -11.005  13.853  68.262  1.00  0.00    -0.274 C  
HETATM   22  C   UNL     1     -11.842  13.901  65.881  1.00  0.00    -0.399 C  
HETATM   23  C   UNL     1     -11.844  12.373  65.927  1.00  0.00    -0.405 C  
ENDBRANCH  17  18
ENDBRANCH   4  17
TORSDOF 2
ENDMDL
MODEL      137
REMARK 921   NORMALIZED FREE ENERGY PREDICTED BY IDOCK:   -3.59 KCAL/MOL
REMARK 922        TOTAL FREE ENERGY PREDICTED BY IDOCK:   -4.47 KCAL/MOL
REMARK 923 INTER-LIGAND FREE ENERGY PREDICTED BY IDOCK:   -4.86 KCAL/MOL
REMARK 924 INTRA-LIGAND FREE ENERGY PREDICTED BY IDOCK:    0.39 KCAL/MOL
REMARK 927      BINDING AFFINITY PREDICTED BY RF-SCORE:    0.00 PKD
ROOT
HETATM    1  O   UNL     1      -9.233  16.087  69.072  1.00  0.00    -0.218 OA 
HETATM    2  C   UNL     1      -8.724  16.437  67.780  1.00  0.00    -0.180 C  
HETATM    3  H   UNL     1     -10.179  16.016  69.009  1.00  0.00     0.000 HD 
HETATM    4  C   UNL     1      -7.175  16.553  67.881  1.00  0.00    -0.153 C  
HETATM    5  C   UNL     1      -9.078  15.282  66.743  1.00  0.00    -0.283 C  
HETATM    6  C   UNL     1      -9.381  17.768  67.366  1.00  0.00    -0.252 A  
HETATM    7  C   UNL     1      -8.464  13.891  67.037  1.00  0.00    -0.153 C  
HETATM    8  C   UNL     1     -10.361  18.378  68.175  1.00  0.00    -0.393 A  
HETATM    9  C   UNL     1      -9.756  19.541  65.727  1.00  0.00    -0.099 A  
HETATM   10  C   UNL     1      -9.075  18.386  66.141  1.00  0.00    -0.123 A  
HETATM   11  C   UNL     1     -11.035  19.528  67.761  1.00  0.00    -0.251 A  
HETATM   12  C   UNL     1      -9.084  13.177  68.232  1.00  0.00    -0.181 C  
HETATM   13  C   UNL     1     -10.582  15.053  66.491  1.00  0.00    -0.305 C  
HETATM   14  C   UNL     1     -10.741  20.104  66.532  1.00  0.00    -0.234 A  
HETATM   15  C   UNL     1     -10.602  13.071  68.128  1.00  0.00    -0.257 C  
HETATM   16  C   UNL     1     -11.311  14.324  67.616  1.00  0.00    -0.344 C  
ENDROOT
BRANCH   4  17
HETATM   17  C   UNL     1      -6.601  17.527  68.924  1.00  0.00    -0.226 C  
BRANCH  17  18
HETATM   18  N   UNL     1      -7.203  18.880  68.823  1.00  0.00    -0.309 NA 
HETATM   19  C   UNL     1      -5.174  20.890  69.625  1.00  0.00    -0.410 C  
HETATM   20  C   UNL     1      -7.272  19.547  70.135  1.00  0.00     0.341 C  
HETATM   21  C   UNL     1      -5.916  20.041  70.656  1.00  0.00    -0.362 C  
HETATM   22  C   UNL     1      -5.162  20.221  68.254  1.00  0.00    -0.227 C  
HETATM   23  C   UNL     1      -6.572  19.791  67.853  1.00  0.00    -0.241 C  
ENDBRANCH  17  18
ENDBRANCH   4  17
TORSDOF 2
ENDMDL
MODEL      138
REMARK 921   NORMALIZED FREE ENERGY PREDICTED BY IDOCK:   -3.59 KCAL/MOL
REMARK 922        TOTAL FREE ENERGY PREDICTED BY IDOCK:   -4.47 KCAL/MOL
REMARK 923 INTER-LIGAND FREE ENERGY PREDICTED BY IDOCK:   -4.63 KCAL/MOL
REMARK 924 INTRA-LIGAND FREE ENERGY PREDICTED BY IDOCK:    0.16 KCAL/MOL
REMARK 927      BINDING AFFINITY PREDICTED BY RF-SCORE:    0.00 PKD
ROOT
HETATM    1  O   UNL     1      -8.499  16.054  68.563  1.00  0.00    -0.172 OA 
HETATM    2  C   UNL     1      -9.193  16.609  67.440  1.00  0.00    -0.213 C  
HETATM    3  H   UNL     1      -9.100  16.025  69.299  1.00  0.00     0.000 HD 
HETATM    4  C   UNL     1      -8.210  16.656  66.234  1.00  0.00    -0.365 C  
HETATM    5  C   UNL     1     -10.417  15.665  67.057  1.00  0.00    -0.303 C  
HETATM    6  C   UNL     1      -9.687  18.011  67.845  1.00  0.00    -0.297 A  
HETATM    7  C   UNL     1     -10.055  14.225  66.616  1.00  0.00    -0.274 C  
HETATM    8  C   UNL     1      -9.495  18.500  69.153  1.00  0.00    -0.084 A  
HETATM    9  C   UNL     1     -10.934  20.055  67.356  1.00  0.00    -0.118 A  
HETATM   10  C   UNL     1     -10.399  18.825  66.946  1.00  0.00    -0.456 A  
HETATM   11  C   UNL     1     -10.027  19.726  69.557  1.00  0.00    -0.119 A  
HETATM   12  C   UNL     1      -9.561  13.333  67.748  1.00  0.00    -0.214 C  
HETATM   13  C   UNL     1     -11.514  15.530  68.132  1.00  0.00    -0.332 C  
HETATM   14  C   UNL     1     -10.756  20.499  68.663  1.00  0.00     0.393 A  
HETATM   15  C   UNL     1     -10.527  13.293  68.927  1.00  0.00    -0.123 C  
HETATM   16  C   UNL     1     -11.142  14.639  69.314  1.00  0.00    -0.290 C  
ENDROOT
BRANCH   4  17
HETATM   17  C   UNL     1      -6.885  17.414  66.426  1.00  0.00    -0.274 C  
BRANCH  17  18
HETATM   18  N   UNL     1      -6.691  18.477  65.408  1.00  0.00    -0.497 NA 
HETATM   19  C   UNL     1      -6.258  21.061  66.799  1.00  0.00    -0.360 C  
HETATM   20  C   UNL     1      -7.756  19.494  65.471  1.00  0.00     0.086 C  
HETATM   21  C   UNL     1      -7.647  20.438  66.676  1.00  0.00    -0.291 C  
HETATM   22  C   UNL     1      -5.160  20.011  66.670  1.00  0.00    -0.168 C  
HETATM   23  C   UNL     1      -5.382  19.151  65.426  1.00  0.00    -0.161 C  
ENDBRANCH  17  18
ENDBRANCH   4  17
TORSDOF 2
ENDMDL
MODEL      139
REMARK 921   NORMALIZED FREE ENERGY PREDICTED BY IDOCK:   -3.57 KCAL/MOL
REMARK 922        TOTAL FREE ENERGY PREDICTED BY IDOCK:   -4.46 KCAL/MOL
REMARK 923 INTER-LIGAND FREE ENERGY PREDICTED BY IDOCK:   -4.12 KCAL/MOL
REMARK 924 INTRA-LIGAND FREE ENERGY PREDICTED BY IDOCK:   -0.34 KCAL/MOL
REMARK 927      BINDING AFFINITY PREDICTED BY RF-SCORE:    0.00 PKD
ROOT
HETATM    1  O   UNL     1      -8.438   6.793  70.070  1.00  0.00    -0.136 OA 
HETATM    2  C   UNL     1      -9.368   5.712  70.212  1.00  0.00    -0.152 C  
HETATM    3  H   UNL     1      -8.370   7.007  69.147  1.00  0.00     0.000 HD 
HETATM    4  C   UNL     1      -9.481   5.361  71.724  1.00  0.00    -0.177 C  
HETATM    5  C   UNL     1     -10.800   6.177  69.692  1.00  0.00    -0.424 C  
HETATM    6  C   UNL     1      -8.838   4.530  69.377  1.00  0.00    -0.129 A  
HETATM    7  C   UNL     1     -11.453   7.354  70.459  1.00  0.00    -0.281 C  
HETATM    8  C   UNL     1      -7.675   4.659  68.591  1.00  0.00    -0.072 A  
HETATM    9  C   UNL     1      -9.094   2.274  68.476  1.00  0.00    -0.209 A  
HETATM   10  C   UNL     1      -9.528   3.306  69.320  1.00  0.00    -0.199 A  
HETATM   11  C   UNL     1      -7.244   3.628  67.754  1.00  0.00    -0.059 A  
HETATM   12  C   UNL     1     -10.790   8.703  70.213  1.00  0.00    -0.250 C  
HETATM   13  C   UNL     1     -10.880   6.532  68.194  1.00  0.00    -0.370 C  
HETATM   14  C   UNL     1      -7.959   2.439  67.687  1.00  0.00    -0.064 A  
HETATM   15  C   UNL     1     -10.679   9.039  68.730  1.00  0.00    -0.140 C  
HETATM   16  C   UNL     1     -10.263   7.878  67.825  1.00  0.00    -0.276 C  
ENDROOT
BRANCH   4  17
HETATM   17  C   UNL     1      -8.184   5.003  72.470  1.00  0.00    -0.116 C  
BRANCH  17  18
HETATM   18  N   UNL     1      -8.284   5.260  73.929  1.00  0.00    -0.111 NA 
HETATM   19  C   UNL     1      -7.678   8.119  74.437  1.00  0.00    -0.282 C  
HETATM   20  C   UNL     1      -6.990   5.672  74.501  1.00  0.00    -0.084 C  
HETATM   21  C   UNL     1      -6.576   7.105  74.138  1.00  0.00    -0.077 C  
HETATM   22  C   UNL     1      -9.027   7.655  73.897  1.00  0.00    -0.321 C  
HETATM   23  C   UNL     1      -9.319   6.222  74.341  1.00  0.00    -0.188 C  
ENDBRANCH  17  18
ENDBRANCH   4  17
TORSDOF 2
ENDMDL
MODEL      140
REMARK 921   NORMALIZED FREE ENERGY PREDICTED BY IDOCK:   -3.56 KCAL/MOL
REMARK 922        TOTAL FREE ENERGY PREDICTED BY IDOCK:   -4.44 KCAL/MOL
REMARK 923 INTER-LIGAND FREE ENERGY PREDICTED BY IDOCK:   -3.92 KCAL/MOL
REMARK 924 INTRA-LIGAND FREE ENERGY PREDICTED BY IDOCK:   -0.52 KCAL/MOL
REMARK 927      BINDING AFFINITY PREDICTED BY RF-SCORE:    0.00 PKD
ROOT
HETATM    1  O   UNL     1     -10.268   6.332  68.657  1.00  0.00    -0.152 OA 
HETATM    2  C   UNL     1      -8.993   6.211  68.015  1.00  0.00    -0.113 C  
HETATM    3  H   UNL     1     -10.626   5.459  68.773  1.00  0.00     0.000 HD 
HETATM    4  C   UNL     1      -8.405   7.640  67.825  1.00  0.00    -0.118 C  
HETATM    5  C   UNL     1      -8.009   5.379  68.949  1.00  0.00    -0.094 C  
HETATM    6  C   UNL     1      -9.216   5.490  66.671  1.00  0.00    -0.137 A  
HETATM    7  C   UNL     1      -7.689   6.005  70.330  1.00  0.00    -0.097 C  
HETATM    8  C   UNL     1     -10.490   5.010  66.306  1.00  0.00    -0.352 A  
HETATM    9  C   UNL     1      -8.344   4.481  64.624  1.00  0.00    -0.117 A  
HETATM   10  C   UNL     1      -8.149   5.229  65.794  1.00  0.00    -0.112 A  
HETATM   11  C   UNL     1     -10.682   4.267  65.140  1.00  0.00    -0.134 A  
HETATM   12  C   UNL     1      -8.851   5.968  71.314  1.00  0.00    -0.136 C  
HETATM   13  C   UNL     1      -8.422   3.918  69.216  1.00  0.00    -0.096 C  
HETATM   14  C   UNL     1      -9.607   3.992  64.303  1.00  0.00    -0.166 A  
HETATM   15  C   UNL     1      -9.425   4.567  71.492  1.00  0.00    -0.214 C  
HETATM   16  C   UNL     1      -9.570   3.752  70.207  1.00  0.00    -0.257 C  
ENDROOT
BRANCH   4  17
HETATM   17  C   UNL     1      -9.257   8.663  67.054  1.00  0.00    -0.151 C  
BRANCH  17  18
HETATM   18  N   UNL     1      -9.009  10.056  67.503  1.00  0.00    -0.134 NA 
HETATM   19  C   UNL     1     -11.291  10.938  69.180  1.00  0.00    -0.350 C  
HETATM   20  C   UNL     1     -10.021  10.988  66.978  1.00  0.00    -0.190 C  
HETATM   21  C   UNL     1     -11.392  10.869  67.657  1.00  0.00    -0.345 C  
HETATM   22  C   UNL     1     -10.198  10.017  69.711  1.00  0.00    -0.286 C  
HETATM   23  C   UNL     1      -8.888  10.248  68.958  1.00  0.00    -0.168 C  
ENDBRANCH  17  18
ENDBRANCH   4  17
TORSDOF 2
ENDMDL
MODEL      141
REMARK 921   NORMALIZED FREE ENERGY PREDICTED BY IDOCK:   -3.55 KCAL/MOL
REMARK 922        TOTAL FREE ENERGY PREDICTED BY IDOCK:   -4.44 KCAL/MOL
REMARK 923 INTER-LIGAND FREE ENERGY PREDICTED BY IDOCK:   -4.27 KCAL/MOL
REMARK 924 INTRA-LIGAND FREE ENERGY PREDICTED BY IDOCK:   -0.16 KCAL/MOL
REMARK 927      BINDING AFFINITY PREDICTED BY RF-SCORE:    0.00 PKD
ROOT
HETATM    1  O   UNL     1     -10.049   7.000  66.295  1.00  0.00    -0.438 OA 
HETATM    2  C   UNL     1      -9.027   7.698  67.015  1.00  0.00    -0.133 C  
HETATM    3  H   UNL     1      -9.965   7.216  65.373  1.00  0.00     0.000 HD 
HETATM    4  C   UNL     1      -9.164   7.344  68.524  1.00  0.00    -0.142 C  
HETATM    5  C   UNL     1      -7.598   7.210  66.508  1.00  0.00    -0.092 C  
HETATM    6  C   UNL     1      -9.218   9.204  66.750  1.00  0.00    -0.195 A  
HETATM    7  C   UNL     1      -7.273   5.711  66.730  1.00  0.00    -0.074 C  
HETATM    8  C   UNL     1     -10.212   9.666  65.864  1.00  0.00    -0.219 A  
HETATM    9  C   UNL     1      -8.486  11.522  67.003  1.00  0.00    -0.164 A  
HETATM   10  C   UNL     1      -8.370  10.163  67.332  1.00  0.00    -0.118 A  
HETATM   11  C   UNL     1     -10.326  11.020  65.540  1.00  0.00    -0.321 A  
HETATM   12  C   UNL     1      -8.054   4.765  65.826  1.00  0.00    -0.111 C  
HETATM   13  C   UNL     1      -7.277   7.515  65.032  1.00  0.00    -0.066 C  
HETATM   14  C   UNL     1      -9.457  11.947  66.101  1.00  0.00    -0.243 A  
HETATM   15  C   UNL     1      -7.918   5.120  64.349  1.00  0.00    -0.107 C  
HETATM   16  C   UNL     1      -7.988   6.613  64.026  1.00  0.00    -0.084 C  
ENDROOT
BRANCH   4  17
HETATM   17  C   UNL     1     -10.520   7.614  69.198  1.00  0.00    -0.214 C  
BRANCH  17  18
HETATM   18  N   UNL     1     -10.690   6.840  70.453  1.00  0.00    -0.230 NA 
HETATM   19  C   UNL     1      -9.325   8.285  72.655  1.00  0.00    -0.350 C  
HETATM   20  C   UNL     1      -9.399   6.370  70.984  1.00  0.00    -0.164 C  
HETATM   21  C   UNL     1      -8.545   7.476  71.620  1.00  0.00    -0.125 C  
HETATM   22  C   UNL     1     -10.687   8.715  72.120  1.00  0.00    -0.417 C  
HETATM   23  C   UNL     1     -11.433   7.519  71.529  1.00  0.00    -0.265 C  
ENDBRANCH  17  18
ENDBRANCH   4  17
TORSDOF 2
ENDMDL
MODEL      142
REMARK 921   NORMALIZED FREE ENERGY PREDICTED BY IDOCK:   -3.45 KCAL/MOL
REMARK 922        TOTAL FREE ENERGY PREDICTED BY IDOCK:   -4.33 KCAL/MOL
REMARK 923 INTER-LIGAND FREE ENERGY PREDICTED BY IDOCK:   -4.74 KCAL/MOL
REMARK 924 INTRA-LIGAND FREE ENERGY PREDICTED BY IDOCK:    0.42 KCAL/MOL
REMARK 927      BINDING AFFINITY PREDICTED BY RF-SCORE:    0.00 PKD
ROOT
HETATM    1  O   UNL     1      -9.301  12.633  69.074  1.00  0.00    -0.370 OA 
HETATM    2  C   UNL     1     -10.337  11.908  68.400  1.00  0.00    -0.209 C  
HETATM    3  H   UNL     1      -8.933  13.262  68.463  1.00  0.00     0.000 HD 
HETATM    4  C   UNL     1     -10.941  10.878  69.399  1.00  0.00    -0.304 C  
HETATM    5  C   UNL     1     -11.486  12.918  67.959  1.00  0.00    -0.361 C  
HETATM    6  C   UNL     1      -9.704  11.226  67.172  1.00  0.00    -0.201 A  
HETATM    7  C   UNL     1     -12.216  13.662  69.106  1.00  0.00    -0.265 C  
HETATM    8  C   UNL     1      -8.350  11.437  66.840  1.00  0.00    -0.159 A  
HETATM    9  C   UNL     1      -9.907   9.894  65.134  1.00  0.00    -0.348 A  
HETATM   10  C   UNL     1     -10.467  10.424  66.305  1.00  0.00    -0.229 A  
HETATM   11  C   UNL     1      -7.795  10.906  65.674  1.00  0.00    -0.011 A  
HETATM   12  C   UNL     1     -11.372  14.728  69.793  1.00  0.00    -0.319 C  
HETATM   13  C   UNL     1     -11.069  13.994  66.936  1.00  0.00    -0.310 C  
HETATM   14  C   UNL     1      -8.576  10.143  64.815  1.00  0.00    -0.191 A  
HETATM   15  C   UNL     1     -10.781  15.732  68.809  1.00  0.00    -0.253 C  
HETATM   16  C   UNL     1     -10.232  15.131  67.513  1.00  0.00    -0.238 C  
ENDROOT
BRANCH   4  17
HETATM   17  C   UNL     1      -9.977   9.875  70.056  1.00  0.00    -0.254 C  
BRANCH  17  18
HETATM   18  N   UNL     1      -8.802   9.579  69.198  1.00  0.00    -0.140 NA 
HETATM   19  C   UNL     1      -7.292   7.324  70.396  1.00  0.00    -0.078 C  
HETATM   20  C   UNL     1      -7.533   9.808  69.912  1.00  0.00    -0.141 C  
HETATM   21  C   UNL     1      -7.207   8.739  70.964  1.00  0.00    -0.088 C  
HETATM   22  C   UNL     1      -8.579   7.114  69.605  1.00  0.00    -0.137 C  
HETATM   23  C   UNL     1      -8.775   8.239  68.589  1.00  0.00    -0.133 C  
ENDBRANCH  17  18
ENDBRANCH   4  17
TORSDOF 2
ENDMDL
MODEL      143
REMARK 921   NORMALIZED FREE ENERGY PREDICTED BY IDOCK:   -3.45 KCAL/MOL
REMARK 922        TOTAL FREE ENERGY PREDICTED BY IDOCK:   -4.32 KCAL/MOL
REMARK 923 INTER-LIGAND FREE ENERGY PREDICTED BY IDOCK:   -3.93 KCAL/MOL
REMARK 924 INTRA-LIGAND FREE ENERGY PREDICTED BY IDOCK:   -0.39 KCAL/MOL
REMARK 927      BINDING AFFINITY PREDICTED BY RF-SCORE:    0.00 PKD
ROOT
HETATM    1  O   UNL     1      -9.119   6.380  69.956  1.00  0.00    -0.148 OA 
HETATM    2  C   UNL     1      -9.322   7.720  70.422  1.00  0.00    -0.160 C  
HETATM    3  H   UNL     1      -9.772   6.194  69.291  1.00  0.00     0.000 HD 
HETATM    4  C   UNL     1      -8.252   8.025  71.511  1.00  0.00    -0.135 C  
HETATM    5  C   UNL     1      -9.118   8.735  69.212  1.00  0.00    -0.145 C  
HETATM    6  C   UNL     1     -10.758   7.807  70.975  1.00  0.00    -0.241 A  
HETATM    7  C   UNL     1      -7.707   8.757  68.573  1.00  0.00    -0.099 C  
HETATM    8  C   UNL     1     -11.637   6.708  70.892  1.00  0.00    -0.416 A  
HETATM    9  C   UNL     1     -12.601   9.099  71.926  1.00  0.00    -0.463 A  
HETATM   10  C   UNL     1     -11.261   9.000  71.522  1.00  0.00    -0.418 A  
HETATM   11  C   UNL     1     -12.969   6.808  71.298  1.00  0.00    -0.216 A  
HETATM   12  C   UNL     1      -7.377   7.518  67.750  1.00  0.00    -0.103 C  
HETATM   13  C   UNL     1     -10.122   8.597  68.051  1.00  0.00    -0.241 C  
HETATM   14  C   UNL     1     -13.455   8.007  71.805  1.00  0.00    -0.378 A  
HETATM   15  C   UNL     1      -8.430   7.222  66.688  1.00  0.00    -0.124 C  
HETATM   16  C   UNL     1      -9.881   7.397  67.140  1.00  0.00    -0.253 C  
ENDROOT
BRANCH   4  17
HETATM   17  C   UNL     1      -8.182   7.081  72.723  1.00  0.00    -0.107 C  
BRANCH  17  18
HETATM   18  N   UNL     1      -6.792   6.662  73.031  1.00  0.00    -0.075 NA 
HETATM   19  C   UNL     1      -6.097   4.340  71.322  1.00  0.00    -0.017 C  
HETATM   20  C   UNL     1      -6.743   5.298  73.586  1.00  0.00    -0.075 C  
HETATM   21  C   UNL     1      -6.992   4.193  72.550  1.00  0.00    -0.052 C  
HETATM   22  C   UNL     1      -6.103   5.769  70.790  1.00  0.00    -0.030 C  
HETATM   23  C   UNL     1      -5.831   6.763  71.919  1.00  0.00    -0.037 C  
ENDBRANCH  17  18
ENDBRANCH   4  17
TORSDOF 2
ENDMDL
MODEL      144
REMARK 921   NORMALIZED FREE ENERGY PREDICTED BY IDOCK:   -3.41 KCAL/MOL
REMARK 922        TOTAL FREE ENERGY PREDICTED BY IDOCK:   -4.28 KCAL/MOL
REMARK 923 INTER-LIGAND FREE ENERGY PREDICTED BY IDOCK:   -3.90 KCAL/MOL
REMARK 924 INTRA-LIGAND FREE ENERGY PREDICTED BY IDOCK:   -0.38 KCAL/MOL
REMARK 927      BINDING AFFINITY PREDICTED BY RF-SCORE:    0.00 PKD
ROOT
HETATM    1  O   UNL     1     -10.498   8.315  66.365  1.00  0.00    -0.410 OA 
HETATM    2  C   UNL     1      -9.234   8.142  67.017  1.00  0.00    -0.153 C  
HETATM    3  H   UNL     1     -10.840   9.169  66.602  1.00  0.00     0.000 HD 
HETATM    4  C   UNL     1      -8.673   6.743  66.630  1.00  0.00    -0.128 C  
HETATM    5  C   UNL     1      -8.219   9.255  66.501  1.00  0.00    -0.107 C  
HETATM    6  C   UNL     1      -9.471   8.276  68.534  1.00  0.00    -0.149 A  
HETATM    7  C   UNL     1      -7.882   9.221  64.989  1.00  0.00    -0.111 C  
HETATM    8  C   UNL     1     -10.744   8.600  69.045  1.00  0.00    -0.122 A  
HETATM    9  C   UNL     1      -8.623   8.370  70.823  1.00  0.00    -0.159 A  
HETATM   10  C   UNL     1      -8.417   8.143  69.455  1.00  0.00    -0.127 A  
HETATM   11  C   UNL     1     -10.947   8.822  70.409  1.00  0.00    -0.262 A  
HETATM   12  C   UNL     1      -9.025   9.671  64.088  1.00  0.00    -0.269 C  
HETATM   13  C   UNL     1      -8.603  10.711  66.833  1.00  0.00    -0.126 C  
HETATM   14  C   UNL     1      -9.884   8.718  71.297  1.00  0.00    -0.336 A  
HETATM   15  C   UNL     1      -9.573  11.041  64.474  1.00  0.00    -0.299 C  
HETATM   16  C   UNL     1      -9.729  11.282  65.976  1.00  0.00    -0.253 C  
ENDROOT
BRANCH   4  17
HETATM   17  C   UNL     1      -9.556   5.517  66.922  1.00  0.00    -0.141 C  
BRANCH  17  18
HETATM   18  N   UNL     1      -8.755   4.305  67.227  1.00  0.00    -0.104 NA 
HETATM   19  C   UNL     1      -8.107   4.296  70.122  1.00  0.00    -0.060 C  
HETATM   20  C   UNL     1      -7.404   4.649  67.705  1.00  0.00    -0.074 C  
HETATM   21  C   UNL     1      -7.370   5.200  69.137  1.00  0.00    -0.058 C  
HETATM   22  C   UNL     1      -9.480   3.892  69.593  1.00  0.00    -0.263 C  
HETATM   23  C   UNL     1      -9.368   3.352  68.167  1.00  0.00    -0.184 C  
ENDBRANCH  17  18
ENDBRANCH   4  17
TORSDOF 2
ENDMDL
MODEL      145
REMARK 921   NORMALIZED FREE ENERGY PREDICTED BY IDOCK:   -3.28 KCAL/MOL
REMARK 922        TOTAL FREE ENERGY PREDICTED BY IDOCK:   -4.13 KCAL/MOL
REMARK 923 INTER-LIGAND FREE ENERGY PREDICTED BY IDOCK:   -3.76 KCAL/MOL
REMARK 924 INTRA-LIGAND FREE ENERGY PREDICTED BY IDOCK:   -0.37 KCAL/MOL
REMARK 927      BINDING AFFINITY PREDICTED BY RF-SCORE:    0.00 PKD
ROOT
HETATM    1  O   UNL     1      -8.681   7.064  71.157  1.00  0.00    -0.135 OA 
HETATM    2  C   UNL     1      -9.299   5.852  70.707  1.00  0.00    -0.160 C  
HETATM    3  H   UNL     1      -9.140   7.796  70.763  1.00  0.00     0.000 HD 
HETATM    4  C   UNL     1      -8.547   4.652  71.352  1.00  0.00    -0.123 C  
HETATM    5  C   UNL     1     -10.814   5.821  71.193  1.00  0.00    -0.316 C  
HETATM    6  C   UNL     1      -9.215   5.832  69.168  1.00  0.00    -0.135 A  
HETATM    7  C   UNL     1     -11.037   5.822  72.726  1.00  0.00    -0.327 C  
HETATM    8  C   UNL     1      -8.678   6.923  68.455  1.00  0.00    -0.124 A  
HETATM    9  C   UNL     1      -9.742   4.797  67.019  1.00  0.00    -0.205 A  
HETATM   10  C   UNL     1      -9.728   4.758  68.421  1.00  0.00    -0.209 A  
HETATM   11  C   UNL     1      -8.691   6.958  67.059  1.00  0.00    -0.119 A  
HETATM   12  C   UNL     1     -10.720   7.151  73.400  1.00  0.00    -0.410 C  
HETATM   13  C   UNL     1     -11.721   6.927  70.618  1.00  0.00    -0.417 C  
HETATM   14  C   UNL     1      -9.233   5.900  66.340  1.00  0.00    -0.160 A  
HETATM   15  C   UNL     1     -11.457   8.323  72.761  1.00  0.00    -0.338 C  
HETATM   16  C   UNL     1     -11.508   8.308  71.232  1.00  0.00    -0.314 C  
ENDROOT
BRANCH   4  17
HETATM   17  C   UNL     1      -7.029   4.555  71.119  1.00  0.00    -0.036 C  
BRANCH  17  18
HETATM   18  N   UNL     1      -6.544   3.152  71.145  1.00  0.00    -0.030 NA 
HETATM   19  C   UNL     1      -7.476   1.775  68.689  1.00  0.00    -0.043 C  
HETATM   20  C   UNL     1      -7.658   2.189  71.191  1.00  0.00    -0.032 C  
HETATM   21  C   UNL     1      -8.414   2.047  69.863  1.00  0.00    -0.085 C  
HETATM   22  C   UNL     1      -6.291   2.735  68.685  1.00  0.00    -0.029 C  
HETATM   23  C   UNL     1      -5.624   2.772  70.060  1.00  0.00    -0.017 C  
ENDBRANCH  17  18
ENDBRANCH   4  17
TORSDOF 2
ENDMDL
MODEL      146
REMARK 921   NORMALIZED FREE ENERGY PREDICTED BY IDOCK:   -3.27 KCAL/MOL
REMARK 922        TOTAL FREE ENERGY PREDICTED BY IDOCK:   -4.12 KCAL/MOL
REMARK 923 INTER-LIGAND FREE ENERGY PREDICTED BY IDOCK:   -3.76 KCAL/MOL
REMARK 924 INTRA-LIGAND FREE ENERGY PREDICTED BY IDOCK:   -0.35 KCAL/MOL
REMARK 927      BINDING AFFINITY PREDICTED BY RF-SCORE:    0.00 PKD
ROOT
HETATM    1  O   UNL     1      -8.732   6.945  70.882  1.00  0.00    -0.139 OA 
HETATM    2  C   UNL     1      -9.496   5.801  70.481  1.00  0.00    -0.167 C  
HETATM    3  H   UNL     1      -9.067   7.704  70.419  1.00  0.00     0.000 HD 
HETATM    4  C   UNL     1      -8.947   4.557  71.239  1.00  0.00    -0.167 C  
HETATM    5  C   UNL     1     -11.019   6.014  70.893  1.00  0.00    -0.355 C  
HETATM    6  C   UNL     1      -9.355   5.661  68.953  1.00  0.00    -0.144 A  
HETATM    7  C   UNL     1     -11.301   6.155  72.409  1.00  0.00    -0.340 C  
HETATM    8  C   UNL     1      -8.640   6.613  68.198  1.00  0.00    -0.115 A  
HETATM    9  C   UNL     1      -9.936   4.558  66.851  1.00  0.00    -0.229 A  
HETATM   10  C   UNL     1      -9.984   4.617  68.252  1.00  0.00    -0.130 A  
HETATM   11  C   UNL     1      -8.592   6.550  66.804  1.00  0.00    -0.117 A  
HETATM   12  C   UNL     1     -10.827   7.472  73.010  1.00  0.00    -0.445 C  
HETATM   13  C   UNL     1     -11.736   7.191  70.202  1.00  0.00    -0.165 C  
HETATM   14  C   UNL     1      -9.249   5.529  66.129  1.00  0.00    -0.166 A  
HETATM   15  C   UNL     1     -11.364   8.686  72.261  1.00  0.00    -0.411 C  
HETATM   16  C   UNL     1     -11.356   8.569  70.736  1.00  0.00    -0.296 C  
ENDROOT
BRANCH   4  17
HETATM   17  C   UNL     1      -7.451   4.235  71.088  1.00  0.00    -0.051 C  
BRANCH  17  18
HETATM   18  N   UNL     1      -6.853   3.729  72.349  1.00  0.00    -0.039 NA 
HETATM   19  C   UNL     1      -6.534   5.999  74.232  1.00  0.00    -0.075 C  
HETATM   20  C   UNL     1      -5.529   4.324  72.604  1.00  0.00    -0.004 C  
HETATM   21  C   UNL     1      -5.581   5.790  73.057  1.00  0.00    -0.031 C  
HETATM   22  C   UNL     1      -7.881   5.326  73.987  1.00  0.00    -0.097 C  
HETATM   23  C   UNL     1      -7.685   3.873  73.556  1.00  0.00    -0.079 C  
ENDBRANCH  17  18
ENDBRANCH   4  17
TORSDOF 2
ENDMDL
MODEL      147
REMARK 921   NORMALIZED FREE ENERGY PREDICTED BY IDOCK:   -3.21 KCAL/MOL
REMARK 922        TOTAL FREE ENERGY PREDICTED BY IDOCK:   -4.05 KCAL/MOL
REMARK 923 INTER-LIGAND FREE ENERGY PREDICTED BY IDOCK:   -3.31 KCAL/MOL
REMARK 924 INTRA-LIGAND FREE ENERGY PREDICTED BY IDOCK:   -0.74 KCAL/MOL
REMARK 927      BINDING AFFINITY PREDICTED BY RF-SCORE:    0.00 PKD
ROOT
HETATM    1  O   UNL     1      -8.912   8.302  67.410  1.00  0.00    -0.132 OA 
HETATM    2  C   UNL     1      -8.474   7.252  68.279  1.00  0.00    -0.124 C  
HETATM    3  H   UNL     1      -8.151   8.803  67.140  1.00  0.00     0.000 HD 
HETATM    4  C   UNL     1      -9.721   6.431  68.720  1.00  0.00    -0.135 C  
HETATM    5  C   UNL     1      -7.488   6.286  67.484  1.00  0.00    -0.088 C  
HETATM    6  C   UNL     1      -7.755   7.907  69.474  1.00  0.00    -0.104 A  
HETATM    7  C   UNL     1      -8.094   5.550  66.263  1.00  0.00    -0.106 C  
HETATM    8  C   UNL     1      -7.559   9.302  69.529  1.00  0.00    -0.081 A  
HETATM    9  C   UNL     1      -6.473   7.732  71.547  1.00  0.00    -0.038 A  
HETATM   10  C   UNL     1      -7.215   7.135  70.518  1.00  0.00    -0.067 A  
HETATM   11  C   UNL     1      -6.821   9.894  70.556  1.00  0.00    -0.122 A  
HETATM   12  C   UNL     1      -8.372   6.453  65.068  1.00  0.00    -0.087 C  
HETATM   13  C   UNL     1      -6.174   6.930  67.000  1.00  0.00    -0.040 C  
HETATM   14  C   UNL     1      -6.268   9.109  71.559  1.00  0.00    -0.069 A  
HETATM   15  C   UNL     1      -7.148   7.257  64.643  1.00  0.00    -0.057 C  
HETATM   16  C   UNL     1      -6.323   7.845  65.788  1.00  0.00    -0.042 C  
ENDROOT
BRANCH   4  17
HETATM   17  C   UNL     1     -10.870   7.194  69.401  1.00  0.00    -0.206 C  
BRANCH  17  18
HETATM   18  N   UNL     1     -11.559   6.375  70.430  1.00  0.00    -0.399 NA 
HETATM   19  C   UNL     1     -11.366   7.767  73.042  1.00  0.00    -0.331 C  
HETATM   20  C   UNL     1     -10.627   5.909  71.472  1.00  0.00    -0.245 C  
HETATM   21  C   UNL     1     -10.182   7.007  72.447  1.00  0.00    -0.210 C  
HETATM   22  C   UNL     1     -12.358   8.191  71.965  1.00  0.00    -0.380 C  
HETATM   23  C   UNL     1     -12.724   7.004  71.075  1.00  0.00    -0.246 C  
ENDBRANCH  17  18
ENDBRANCH   4  17
TORSDOF 2
ENDMDL
MODEL      148
REMARK 921   NORMALIZED FREE ENERGY PREDICTED BY IDOCK:   -3.19 KCAL/MOL
REMARK 922        TOTAL FREE ENERGY PREDICTED BY IDOCK:   -4.03 KCAL/MOL
REMARK 923 INTER-LIGAND FREE ENERGY PREDICTED BY IDOCK:   -3.72 KCAL/MOL
REMARK 924 INTRA-LIGAND FREE ENERGY PREDICTED BY IDOCK:   -0.31 KCAL/MOL
REMARK 927      BINDING AFFINITY PREDICTED BY RF-SCORE:    0.00 PKD
ROOT
HETATM    1  O   UNL     1      -8.384   8.187  69.705  1.00  0.00    -0.120 OA 
HETATM    2  C   UNL     1      -9.487   7.395  70.163  1.00  0.00    -0.165 C  
HETATM    3  H   UNL     1      -8.301   8.067  68.766  1.00  0.00     0.000 HD 
HETATM    4  C   UNL     1      -9.624   7.593  71.701  1.00  0.00    -0.182 C  
HETATM    5  C   UNL     1     -10.825   7.903  69.466  1.00  0.00    -0.141 C  
HETATM    6  C   UNL     1      -9.194   5.930  69.787  1.00  0.00    -0.160 A  
HETATM    7  C   UNL     1     -11.242   9.363  69.775  1.00  0.00    -0.139 C  
HETATM    8  C   UNL     1      -8.045   5.585  69.046  1.00  0.00    -0.095 A  
HETATM    9  C   UNL     1      -9.866   3.583  69.676  1.00  0.00     0.067 A  
HETATM   10  C   UNL     1     -10.090   4.897  70.114  1.00  0.00    -0.332 A  
HETATM   11  C   UNL     1      -7.824   4.275  68.615  1.00  0.00    -0.073 A  
HETATM   12  C   UNL     1     -10.357  10.415  69.120  1.00  0.00    -0.241 C  
HETATM   13  C   UNL     1     -10.877   7.748  67.933  1.00  0.00    -0.080 C  
HETATM   14  C   UNL     1      -8.739   3.276  68.920  1.00  0.00    -0.143 A  
HETATM   15  C   UNL     1     -10.223  10.214  67.614  1.00  0.00    -0.246 C  
HETATM   16  C   UNL     1     -10.040   8.765  67.162  1.00  0.00    -0.320 C  
ENDROOT
BRANCH   4  17
HETATM   17  C   UNL     1      -8.394   7.283  72.570  1.00  0.00    -0.107 C  
BRANCH  17  18
HETATM   18  N   UNL     1      -8.767   6.785  73.918  1.00  0.00    -0.139 NA 
HETATM   19  C   UNL     1     -10.084   4.143  73.627  1.00  0.00    -0.194 C  
HETATM   20  C   UNL     1     -10.226   6.644  74.064  1.00  0.00    -0.369 C  
HETATM   21  C   UNL     1     -10.816   5.445  73.307  1.00  0.00    -0.345 C  
HETATM   22  C   UNL     1      -8.571   4.314  73.536  1.00  0.00    -0.092 C  
HETATM   23  C   UNL     1      -8.118   5.532  74.340  1.00  0.00    -0.104 C  
ENDBRANCH  17  18
ENDBRANCH   4  17
TORSDOF 2
ENDMDL
MODEL      149
REMARK 921   NORMALIZED FREE ENERGY PREDICTED BY IDOCK:   -3.18 KCAL/MOL
REMARK 922        TOTAL FREE ENERGY PREDICTED BY IDOCK:   -4.02 KCAL/MOL
REMARK 923 INTER-LIGAND FREE ENERGY PREDICTED BY IDOCK:   -3.51 KCAL/MOL
REMARK 924 INTRA-LIGAND FREE ENERGY PREDICTED BY IDOCK:   -0.51 KCAL/MOL
REMARK 927      BINDING AFFINITY PREDICTED BY RF-SCORE:    0.00 PKD
ROOT
HETATM    1  O   UNL     1      -7.518   7.664  69.855  1.00  0.00    -0.079 OA 
HETATM    2  C   UNL     1      -8.728   7.057  69.386  1.00  0.00    -0.133 C  
HETATM    3  H   UNL     1      -7.335   7.328  70.725  1.00  0.00     0.000 HD 
HETATM    4  C   UNL     1      -9.028   7.607  67.961  1.00  0.00    -0.126 C  
HETATM    5  C   UNL     1      -8.524   5.481  69.288  1.00  0.00    -0.101 C  
HETATM    6  C   UNL     1      -9.843   7.406  70.392  1.00  0.00    -0.183 A  
HETATM    7  C   UNL     1      -7.438   4.996  68.296  1.00  0.00    -0.075 C  
HETATM    8  C   UNL     1      -9.560   8.128  71.569  1.00  0.00    -0.226 A  
HETATM    9  C   UNL     1     -12.147   7.196  71.176  1.00  0.00    -0.397 A  
HETATM   10  C   UNL     1     -11.164   6.963  70.203  1.00  0.00    -0.361 A  
HETATM   11  C   UNL     1     -10.542   8.360  72.534  1.00  0.00    -0.368 A  
HETATM   12  C   UNL     1      -6.011   5.275  68.750  1.00  0.00    -0.021 C  
HETATM   13  C   UNL     1      -8.251   4.762  70.624  1.00  0.00    -0.092 C  
HETATM   14  C   UNL     1     -11.833   7.885  72.344  1.00  0.00    -0.402 A  
HETATM   15  C   UNL     1      -5.724   4.738  70.148  1.00  0.00    -0.016 C  
HETATM   16  C   UNL     1      -6.840   4.952  71.172  1.00  0.00    -0.043 C  
ENDROOT
BRANCH   4  17
HETATM   17  C   UNL     1      -9.138   9.133  67.796  1.00  0.00    -0.126 C  
BRANCH  17  18
HETATM   18  N   UNL     1      -8.755   9.581  66.434  1.00  0.00    -0.133 NA 
HETATM   19  C   UNL     1      -6.321  11.265  66.635  1.00  0.00    -0.135 C  
HETATM   20  C   UNL     1      -8.832  11.047  66.299  1.00  0.00    -0.180 C  
HETATM   21  C   UNL     1      -7.701  11.799  67.013  1.00  0.00    -0.158 C  
HETATM   22  C   UNL     1      -6.268   9.743  66.716  1.00  0.00    -0.064 C  
HETATM   23  C   UNL     1      -7.440   9.123  65.955  1.00  0.00    -0.094 C  
ENDBRANCH  17  18
ENDBRANCH   4  17
TORSDOF 2
ENDMDL
MODEL      150
REMARK 921   NORMALIZED FREE ENERGY PREDICTED BY IDOCK:   -3.17 KCAL/MOL
REMARK 922        TOTAL FREE ENERGY PREDICTED BY IDOCK:   -4.01 KCAL/MOL
REMARK 923 INTER-LIGAND FREE ENERGY PREDICTED BY IDOCK:   -3.62 KCAL/MOL
REMARK 924 INTRA-LIGAND FREE ENERGY PREDICTED BY IDOCK:   -0.39 KCAL/MOL
REMARK 927      BINDING AFFINITY PREDICTED BY RF-SCORE:    0.00 PKD
ROOT
HETATM    1  O   UNL     1      -8.119   7.977  67.038  1.00  0.00    -0.113 OA 
HETATM    2  C   UNL     1      -8.409   8.752  68.207  1.00  0.00    -0.126 C  
HETATM    3  H   UNL     1      -8.914   7.907  66.522  1.00  0.00     0.000 HD 
HETATM    4  C   UNL     1      -7.107   8.868  69.052  1.00  0.00    -0.064 C  
HETATM    5  C   UNL     1      -8.861  10.215  67.770  1.00  0.00    -0.125 C  
HETATM    6  C   UNL     1      -9.539   8.035  68.972  1.00  0.00    -0.156 A  
HETATM    7  C   UNL     1      -7.807  11.053  67.003  1.00  0.00    -0.137 C  
HETATM    8  C   UNL     1     -10.146   6.874  68.451  1.00  0.00    -0.177 A  
HETATM    9  C   UNL     1     -11.141   7.942  70.813  1.00  0.00    -0.264 A  
HETATM   10  C   UNL     1     -10.044   8.545  70.180  1.00  0.00    -0.197 A  
HETATM   11  C   UNL     1     -11.236   6.275  69.085  1.00  0.00    -0.439 A  
HETATM   12  C   UNL     1      -7.549  10.574  65.580  1.00  0.00    -0.120 C  
HETATM   13  C   UNL     1     -10.164  10.292  66.950  1.00  0.00    -0.286 C  
HETATM   14  C   UNL     1     -11.742   6.815  70.261  1.00  0.00    -0.397 A  
HETATM   15  C   UNL     1      -8.829  10.460  64.759  1.00  0.00    -0.211 C  
HETATM   16  C   UNL     1     -10.025   9.855  65.494  1.00  0.00    -0.363 C  
ENDROOT
BRANCH   4  17
HETATM   17  C   UNL     1      -6.418   7.561  69.480  1.00  0.00    -0.036 C  
BRANCH  17  18
HETATM   18  N   UNL     1      -5.710   7.695  70.777  1.00  0.00    -0.030 NA 
HETATM   19  C   UNL     1      -7.634   7.169  72.973  1.00  0.00    -0.087 C  
HETATM   20  C   UNL     1      -6.258   8.797  71.587  1.00  0.00    -0.071 C  
HETATM   21  C   UNL     1      -7.627   8.492  72.210  1.00  0.00    -0.107 C  
HETATM   22  C   UNL     1      -7.008   6.046  72.151  1.00  0.00    -0.078 C  
HETATM   23  C   UNL     1      -5.648   6.477  71.602  1.00  0.00    -0.032 C  
ENDBRANCH  17  18
ENDBRANCH   4  17
TORSDOF 2
ENDMDL
MODEL      151
REMARK 921   NORMALIZED FREE ENERGY PREDICTED BY IDOCK:   -3.11 KCAL/MOL
REMARK 922        TOTAL FREE ENERGY PREDICTED BY IDOCK:   -3.94 KCAL/MOL
REMARK 923 INTER-LIGAND FREE ENERGY PREDICTED BY IDOCK:   -3.23 KCAL/MOL
REMARK 924 INTRA-LIGAND FREE ENERGY PREDICTED BY IDOCK:   -0.71 KCAL/MOL
REMARK 927      BINDING AFFINITY PREDICTED BY RF-SCORE:    0.00 PKD
ROOT
HETATM    1  O   UNL     1     -10.316  11.997  67.811  1.00  0.00    -0.191 OA 
HETATM    2  C   UNL     1      -9.809  10.911  67.028  1.00  0.00    -0.183 C  
HETATM    3  H   UNL     1      -9.868  12.791  67.544  1.00  0.00     0.000 HD 
HETATM    4  C   UNL     1     -10.543   9.609  67.465  1.00  0.00    -0.339 C  
HETATM    5  C   UNL     1     -10.124  11.177  65.490  1.00  0.00    -0.309 C  
HETATM    6  C   UNL     1      -8.289  10.832  67.271  1.00  0.00    -0.124 A  
HETATM    7  C   UNL     1     -11.623  11.263  65.108  1.00  0.00     0.226 C  
HETATM    8  C   UNL     1      -7.632  11.783  68.078  1.00  0.00    -0.116 A  
HETATM    9  C   UNL     1      -6.102   9.854  66.792  1.00  0.00    -0.060 A  
HETATM   10  C   UNL     1      -7.497   9.852  66.647  1.00  0.00    -0.099 A  
HETATM   11  C   UNL     1      -6.243  11.780  68.223  1.00  0.00    -0.050 A  
HETATM   12  C   UNL     1     -12.318  12.528  65.596  1.00  0.00    -0.296 C  
HETATM   13  C   UNL     1      -9.444  12.417  64.877  1.00  0.00     0.219 C  
HETATM   14  C   UNL     1      -5.476  10.823  67.571  1.00  0.00    -0.043 A  
HETATM   15  C   UNL     1     -11.593  13.799  65.168  1.00  0.00    -0.341 C  
HETATM   16  C   UNL     1     -10.068  13.750  65.279  1.00  0.00    -0.312 C  
ENDROOT
BRANCH   4  17
HETATM   17  C   UNL     1     -10.480   9.223  68.953  1.00  0.00    -0.215 C  
BRANCH  17  18
HETATM   18  N   UNL     1     -10.219   7.775  69.148  1.00  0.00    -0.204 NA 
HETATM   19  C   UNL     1      -8.475   7.432  71.523  1.00  0.00    -0.114 C  
HETATM   20  C   UNL     1      -8.789   7.452  69.000  1.00  0.00    -0.132 C  
HETATM   21  C   UNL     1      -7.921   7.907  70.181  1.00  0.00    -0.107 C  
HETATM   22  C   UNL     1      -9.969   7.713  71.643  1.00  0.00    -0.207 C  
HETATM   23  C   UNL     1     -10.713   7.199  70.411  1.00  0.00    -0.235 C  
ENDBRANCH  17  18
ENDBRANCH   4  17
TORSDOF 2
ENDMDL
MODEL      152
REMARK 921   NORMALIZED FREE ENERGY PREDICTED BY IDOCK:   -3.11 KCAL/MOL
REMARK 922        TOTAL FREE ENERGY PREDICTED BY IDOCK:   -3.94 KCAL/MOL
REMARK 923 INTER-LIGAND FREE ENERGY PREDICTED BY IDOCK:   -4.48 KCAL/MOL
REMARK 924 INTRA-LIGAND FREE ENERGY PREDICTED BY IDOCK:    0.54 KCAL/MOL
REMARK 927      BINDING AFFINITY PREDICTED BY RF-SCORE:    0.00 PKD
ROOT
HETATM    1  O   UNL     1      -9.376  11.965  65.883  1.00  0.00    -0.257 OA 
HETATM    2  C   UNL     1      -9.077  11.935  67.283  1.00  0.00    -0.178 C  
HETATM    3  H   UNL     1     -10.301  11.777  65.772  1.00  0.00     0.000 HD 
HETATM    4  C   UNL     1      -7.562  12.243  67.466  1.00  0.00    -0.155 C  
HETATM    5  C   UNL     1      -9.916  13.066  68.026  1.00  0.00    -0.233 C  
HETATM    6  C   UNL     1      -9.455  10.536  67.809  1.00  0.00    -0.162 A  
HETATM    7  C   UNL     1      -9.620  14.525  67.598  1.00  0.00    -0.214 C  
HETATM    8  C   UNL     1     -10.061   9.582  66.967  1.00  0.00    -0.297 A  
HETATM    9  C   UNL     1      -9.711   8.949  69.649  1.00  0.00    -0.175 A  
HETATM   10  C   UNL     1      -9.268  10.186  69.158  1.00  0.00    -0.204 A  
HETATM   11  C   UNL     1     -10.498   8.351  67.458  1.00  0.00    -0.328 A  
HETATM   12  C   UNL     1     -10.134  14.883  66.209  1.00  0.00    -0.298 C  
HETATM   13  C   UNL     1     -11.448  12.898  67.976  1.00  0.00    -0.361 C  
HETATM   14  C   UNL     1     -10.334   8.038  68.802  1.00  0.00    -0.223 A  
HETATM   15  C   UNL     1     -11.617  14.575  66.035  1.00  0.00    -0.356 C  
HETATM   16  C   UNL     1     -12.084  13.248  66.634  1.00  0.00    -0.421 C  
ENDROOT
BRANCH   4  17
HETATM   17  C   UNL     1      -6.559  11.344  66.723  1.00  0.00    -0.136 C  
BRANCH  17  18
HETATM   18  N   UNL     1      -7.189  10.102  66.207  1.00  0.00    -0.105 NA 
HETATM   19  C   UNL     1      -5.171   8.585  64.650  1.00  0.00    -0.039 C  
HETATM   20  C   UNL     1      -7.226  10.079  64.734  1.00  0.00    -0.136 C  
HETATM   21  C   UNL     1      -5.862   9.822  64.080  1.00  0.00    -0.108 C  
HETATM   22  C   UNL     1      -5.193   8.584  66.175  1.00  0.00    -0.031 C  
HETATM   23  C   UNL     1      -6.608   8.839  66.693  1.00  0.00    -0.064 C  
ENDBRANCH  17  18
ENDBRANCH   4  17
TORSDOF 2
ENDMDL
MODEL      153
REMARK 921   NORMALIZED FREE ENERGY PREDICTED BY IDOCK:   -3.06 KCAL/MOL
REMARK 922        TOTAL FREE ENERGY PREDICTED BY IDOCK:   -3.89 KCAL/MOL
REMARK 923 INTER-LIGAND FREE ENERGY PREDICTED BY IDOCK:   -4.31 KCAL/MOL
REMARK 924 INTRA-LIGAND FREE ENERGY PREDICTED BY IDOCK:    0.42 KCAL/MOL
REMARK 927      BINDING AFFINITY PREDICTED BY RF-SCORE:    0.00 PKD
ROOT
HETATM    1  O   UNL     1      -8.478   7.936  69.062  1.00  0.00    -0.129 OA 
HETATM    2  C   UNL     1      -9.083   8.561  67.924  1.00  0.00    -0.140 C  
HETATM    3  H   UNL     1      -9.169   7.581  69.609  1.00  0.00     0.000 HD 
HETATM    4  C   UNL     1      -7.952   9.142  67.027  1.00  0.00    -0.102 C  
HETATM    5  C   UNL     1      -9.883   7.469  67.086  1.00  0.00    -0.263 C  
HETATM    6  C   UNL     1     -10.033   9.656  68.447  1.00  0.00    -0.178 A  
HETATM    7  C   UNL     1      -9.038   6.315  66.490  1.00  0.00    -0.162 C  
HETATM    8  C   UNL     1     -10.239   9.841  69.829  1.00  0.00    -0.271 A  
HETATM    9  C   UNL     1     -11.713  11.386  68.052  1.00  0.00    -0.324 A  
HETATM   10  C   UNL     1     -10.774  10.464  67.566  1.00  0.00    -0.339 A  
HETATM   11  C   UNL     1     -11.173  10.762  70.309  1.00  0.00    -0.326 A  
HETATM   12  C   UNL     1      -8.523   5.323  67.524  1.00  0.00    -0.105 C  
HETATM   13  C   UNL     1     -11.071   6.810  67.815  1.00  0.00    -0.285 C  
HETATM   14  C   UNL     1     -11.919  11.527  69.421  1.00  0.00    -0.392 A  
HETATM   15  C   UNL     1      -9.635   4.760  68.402  1.00  0.00    -0.210 C  
HETATM   16  C   UNL     1     -10.679   5.776  68.866  1.00  0.00    -0.334 C  
ENDROOT
BRANCH   4  17
HETATM   17  C   UNL     1      -6.968  10.132  67.674  1.00  0.00    -0.085 C  
BRANCH  17  18
HETATM   18  N   UNL     1      -7.588  10.898  68.784  1.00  0.00    -0.112 NA 
HETATM   19  C   UNL     1      -5.643  12.917  69.753  1.00  0.00    -0.103 C  
HETATM   20  C   UNL     1      -6.863  10.707  70.053  1.00  0.00    -0.148 C  
HETATM   21  C   UNL     1      -5.516  11.439  70.118  1.00  0.00    -0.105 C  
HETATM   22  C   UNL     1      -6.448  13.111  68.472  1.00  0.00    -0.085 C  
HETATM   23  C   UNL     1      -7.767  12.340  68.546  1.00  0.00    -0.118 C  
ENDBRANCH  17  18
ENDBRANCH   4  17
TORSDOF 2
ENDMDL
MODEL      154
REMARK 921   NORMALIZED FREE ENERGY PREDICTED BY IDOCK:   -3.03 KCAL/MOL
REMARK 922        TOTAL FREE ENERGY PREDICTED BY IDOCK:   -3.86 KCAL/MOL
REMARK 923 INTER-LIGAND FREE ENERGY PREDICTED BY IDOCK:   -3.43 KCAL/MOL
REMARK 924 INTRA-LIGAND FREE ENERGY PREDICTED BY IDOCK:   -0.43 KCAL/MOL
REMARK 927      BINDING AFFINITY PREDICTED BY RF-SCORE:    0.00 PKD
ROOT
HETATM    1  O   UNL     1      -7.389   6.326  68.962  1.00  0.00    -0.081 OA 
HETATM    2  C   UNL     1      -8.499   5.920  68.153  1.00  0.00    -0.114 C  
HETATM    3  H   UNL     1      -6.588   6.108  68.499  1.00  0.00     0.000 HD 
HETATM    4  C   UNL     1      -9.811   6.277  68.910  1.00  0.00    -0.155 C  
HETATM    5  C   UNL     1      -8.473   6.724  66.779  1.00  0.00    -0.117 C  
HETATM    6  C   UNL     1      -8.364   4.405  67.905  1.00  0.00    -0.095 A  
HETATM    7  C   UNL     1      -8.616   8.263  66.888  1.00  0.00    -0.122 C  
HETATM    8  C   UNL     1      -7.246   3.688  68.377  1.00  0.00    -0.051 A  
HETATM    9  C   UNL     1      -9.128   2.343  66.839  1.00  0.00    -0.129 A  
HETATM   10  C   UNL     1      -9.315   3.699  67.147  1.00  0.00    -0.228 A  
HETATM   11  C   UNL     1      -7.064   2.338  68.071  1.00  0.00    -0.047 A  
HETATM   12  C   UNL     1      -7.391   8.963  67.463  1.00  0.00    -0.081 C  
HETATM   13  C   UNL     1      -7.250   6.461  65.878  1.00  0.00    -0.078 C  
HETATM   14  C   UNL     1      -7.999   1.667  67.293  1.00  0.00    -0.065 A  
HETATM   15  C   UNL     1      -6.108   8.606  66.720  1.00  0.00    -0.058 C  
HETATM   16  C   UNL     1      -5.960   7.131  66.343  1.00  0.00    -0.035 C  
ENDROOT
BRANCH   4  17
HETATM   17  C   UNL     1      -9.992   5.707  70.328  1.00  0.00    -0.207 C  
BRANCH  17  18
HETATM   18  N   UNL     1     -11.224   6.211  70.985  1.00  0.00    -0.304 NA 
HETATM   19  C   UNL     1     -10.457   7.682  73.445  1.00  0.00    -0.361 C  
HETATM   20  C   UNL     1     -11.415   5.614  72.318  1.00  0.00    -0.217 C  
HETATM   21  C   UNL     1     -10.458   6.156  73.388  1.00  0.00    -0.269 C  
HETATM   22  C   UNL     1     -10.322   8.294  72.054  1.00  0.00    -0.350 C  
HETATM   23  C   UNL     1     -11.338   7.676  71.094  1.00  0.00    -0.266 C  
ENDBRANCH  17  18
ENDBRANCH   4  17
TORSDOF 2
ENDMDL
MODEL      155
REMARK 921   NORMALIZED FREE ENERGY PREDICTED BY IDOCK:   -2.99 KCAL/MOL
REMARK 922        TOTAL FREE ENERGY PREDICTED BY IDOCK:   -3.81 KCAL/MOL
REMARK 923 INTER-LIGAND FREE ENERGY PREDICTED BY IDOCK:   -3.37 KCAL/MOL
REMARK 924 INTRA-LIGAND FREE ENERGY PREDICTED BY IDOCK:   -0.43 KCAL/MOL
REMARK 927      BINDING AFFINITY PREDICTED BY RF-SCORE:    0.00 PKD
ROOT
HETATM    1  O   UNL     1      -7.138   9.307  67.716  1.00  0.00    -0.080 OA 
HETATM    2  C   UNL     1      -8.502   9.132  68.115  1.00  0.00    -0.125 C  
HETATM    3  H   UNL     1      -6.671   8.497  67.887  1.00  0.00     0.000 HD 
HETATM    4  C   UNL     1      -9.267  10.459  67.834  1.00  0.00    -0.143 C  
HETATM    5  C   UNL     1      -9.162   7.974  67.245  1.00  0.00    -0.164 C  
HETATM    6  C   UNL     1      -8.505   8.763  69.612  1.00  0.00    -0.129 A  
HETATM    7  C   UNL     1      -9.235   8.227  65.718  1.00  0.00    -0.142 C  
HETATM    8  C   UNL     1      -7.298   8.579  70.317  1.00  0.00    -0.052 A  
HETATM    9  C   UNL     1      -9.692   8.100  71.641  1.00  0.00    -0.238 A  
HETATM   10  C   UNL     1      -9.705   8.537  70.308  1.00  0.00    -0.182 A  
HETATM   11  C   UNL     1      -7.289   8.147  71.644  1.00  0.00    -0.088 A  
HETATM   12  C   UNL     1      -7.888   8.159  65.011  1.00  0.00    -0.128 C  
HETATM   13  C   UNL     1      -8.547   6.572  67.427  1.00  0.00    -0.118 C  
HETATM   14  C   UNL     1      -8.486   7.896  72.304  1.00  0.00    -0.185 A  
HETATM   15  C   UNL     1      -7.142   6.859  65.293  1.00  0.00    -0.067 C  
HETATM   16  C   UNL     1      -7.197   6.375  66.742  1.00  0.00    -0.077 C  
ENDROOT
BRANCH   4  17
HETATM   17  C   UNL     1      -8.720  11.745  68.478  1.00  0.00    -0.118 C  
BRANCH  17  18
HETATM   18  N   UNL     1      -8.538  12.836  67.489  1.00  0.00    -0.175 NA 
HETATM   19  C   UNL     1     -10.657  14.869  67.913  1.00  0.00    -0.254 C  
HETATM   20  C   UNL     1      -9.687  12.939  66.571  1.00  0.00    -0.257 C  
HETATM   21  C   UNL     1     -10.944  13.543  67.211  1.00  0.00    -0.293 C  
HETATM   22  C   UNL     1      -9.429  14.772  68.813  1.00  0.00    -0.206 C  
HETATM   23  C   UNL     1      -8.251  14.167  68.049  1.00  0.00    -0.152 C  
ENDBRANCH  17  18
ENDBRANCH   4  17
TORSDOF 2
ENDMDL
MODEL      156
REMARK 921   NORMALIZED FREE ENERGY PREDICTED BY IDOCK:   -2.96 KCAL/MOL
REMARK 922        TOTAL FREE ENERGY PREDICTED BY IDOCK:   -3.77 KCAL/MOL
REMARK 923 INTER-LIGAND FREE ENERGY PREDICTED BY IDOCK:   -3.37 KCAL/MOL
REMARK 924 INTRA-LIGAND FREE ENERGY PREDICTED BY IDOCK:   -0.41 KCAL/MOL
REMARK 927      BINDING AFFINITY PREDICTED BY RF-SCORE:    0.00 PKD
ROOT
HETATM    1  O   UNL     1      -7.640   9.451  67.147  1.00  0.00    -0.091 OA 
HETATM    2  C   UNL     1      -8.505   8.963  66.114  1.00  0.00    -0.125 C  
HETATM    3  H   UNL     1      -7.382  10.338  66.924  1.00  0.00     0.000 HD 
HETATM    4  C   UNL     1      -8.928   7.510  66.478  1.00  0.00    -0.189 C  
HETATM    5  C   UNL     1      -9.812   9.870  66.049  1.00  0.00    -0.330 C  
HETATM    6  C   UNL     1      -7.725   9.028  64.786  1.00  0.00    -0.109 A  
HETATM    7  C   UNL     1     -10.696   9.882  67.321  1.00  0.00    -0.304 C  
HETATM    8  C   UNL     1      -6.427   9.575  64.731  1.00  0.00    -0.084 A  
HETATM    9  C   UNL     1      -7.624   8.762  62.360  1.00  0.00    -0.108 A  
HETATM   10  C   UNL     1      -8.302   8.603  63.577  1.00  0.00    -0.117 A  
HETATM   11  C   UNL     1      -5.753   9.730  63.518  1.00  0.00    -0.104 A  
HETATM   12  C   UNL     1     -10.085  10.633  68.497  1.00  0.00    -0.185 C  
HETATM   13  C   UNL     1      -9.579  11.345  65.663  1.00  0.00    -0.258 C  
HETATM   14  C   UNL     1      -6.355   9.335  62.330  1.00  0.00    -0.093 A  
HETATM   15  C   UNL     1      -9.668  12.054  68.133  1.00  0.00    -0.199 C  
HETATM   16  C   UNL     1      -8.986  12.207  66.773  1.00  0.00    -0.203 C  
ENDROOT
BRANCH   4  17
HETATM   17  C   UNL     1      -7.809   6.482  66.718  1.00  0.00    -0.104 C  
BRANCH  17  18
HETATM   18  N   UNL     1      -7.852   5.364  65.743  1.00  0.00    -0.098 NA 
HETATM   19  C   UNL     1      -9.299   3.084  66.971  1.00  0.00    -0.159 C  
HETATM   20  C   UNL     1      -7.126   4.180  66.236  1.00  0.00    -0.067 C  
HETATM   21  C   UNL     1      -7.857   3.419  67.350  1.00  0.00    -0.078 C  
HETATM   22  C   UNL     1     -10.025   4.299  66.403  1.00  0.00    -0.223 C  
HETATM   23  C   UNL     1      -9.195   4.953  65.299  1.00  0.00    -0.139 C  
ENDBRANCH  17  18
ENDBRANCH   4  17
TORSDOF 2
ENDMDL
MODEL      157
REMARK 921   NORMALIZED FREE ENERGY PREDICTED BY IDOCK:   -2.94 KCAL/MOL
REMARK 922        TOTAL FREE ENERGY PREDICTED BY IDOCK:   -3.76 KCAL/MOL
REMARK 923 INTER-LIGAND FREE ENERGY PREDICTED BY IDOCK:   -3.38 KCAL/MOL
REMARK 924 INTRA-LIGAND FREE ENERGY PREDICTED BY IDOCK:   -0.37 KCAL/MOL
REMARK 927      BINDING AFFINITY PREDICTED BY RF-SCORE:    0.00 PKD
ROOT
HETATM    1  O   UNL     1      -8.668   7.972  70.739  1.00  0.00    -0.132 OA 
HETATM    2  C   UNL     1      -9.292   7.229  69.685  1.00  0.00    -0.153 C  
HETATM    3  H   UNL     1      -8.724   8.897  70.525  1.00  0.00     0.000 HD 
HETATM    4  C   UNL     1      -9.201   5.715  70.036  1.00  0.00    -0.172 C  
HETATM    5  C   UNL     1     -10.828   7.636  69.590  1.00  0.00    -0.195 C  
HETATM    6  C   UNL     1      -8.552   7.570  68.377  1.00  0.00    -0.124 A  
HETATM    7  C   UNL     1     -11.691   7.332  70.840  1.00  0.00    -0.348 C  
HETATM    8  C   UNL     1      -7.518   8.528  68.354  1.00  0.00    -0.095 A  
HETATM    9  C   UNL     1      -8.313   7.380  65.953  1.00  0.00    -0.140 A  
HETATM   10  C   UNL     1      -8.922   6.985  67.153  1.00  0.00    -0.123 A  
HETATM   11  C   UNL     1      -6.911   8.916  67.158  1.00  0.00    -0.075 A  
HETATM   12  C   UNL     1     -11.399   8.235  72.032  1.00  0.00    -0.390 C  
HETATM   13  C   UNL     1     -11.105   9.105  69.213  1.00  0.00     0.001 C  
HETATM   14  C   UNL     1      -7.316   8.351  65.955  1.00  0.00    -0.073 A  
HETATM   15  C   UNL     1     -11.485   9.716  71.682  1.00  0.00    -0.376 C  
HETATM   16  C   UNL     1     -10.866  10.107  70.339  1.00  0.00    -0.365 C  
ENDROOT
BRANCH   4  17
HETATM   17  C   UNL     1      -7.804   5.129  70.301  1.00  0.00    -0.079 C  
BRANCH  17  18
HETATM   18  N   UNL     1      -7.737   3.676  70.004  1.00  0.00    -0.048 NA 
HETATM   19  C   UNL     1      -7.961   3.291  67.071  1.00  0.00    -0.079 C  
HETATM   20  C   UNL     1      -8.986   3.185  69.395  1.00  0.00    -0.116 C  
HETATM   21  C   UNL     1      -9.179   3.613  67.934  1.00  0.00    -0.223 C  
HETATM   22  C   UNL     1      -6.667   3.746  67.737  1.00  0.00    -0.046 C  
HETATM   23  C   UNL     1      -6.598   3.242  69.178  1.00  0.00    -0.034 C  
ENDBRANCH  17  18
ENDBRANCH   4  17
TORSDOF 2
ENDMDL
MODEL      158
REMARK 921   NORMALIZED FREE ENERGY PREDICTED BY IDOCK:   -2.91 KCAL/MOL
REMARK 922        TOTAL FREE ENERGY PREDICTED BY IDOCK:   -3.72 KCAL/MOL
REMARK 923 INTER-LIGAND FREE ENERGY PREDICTED BY IDOCK:   -3.16 KCAL/MOL
REMARK 924 INTRA-LIGAND FREE ENERGY PREDICTED BY IDOCK:   -0.56 KCAL/MOL
REMARK 927      BINDING AFFINITY PREDICTED BY RF-SCORE:    0.00 PKD
ROOT
HETATM    1  O   UNL     1      -8.692  10.393  66.678  1.00  0.00    -0.133 OA 
HETATM    2  C   UNL     1      -8.078   9.301  67.372  1.00  0.00    -0.110 C  
HETATM    3  H   UNL     1      -8.006  10.977  66.375  1.00  0.00     0.000 HD 
HETATM    4  C   UNL     1      -9.201   8.345  67.868  1.00  0.00    -0.144 C  
HETATM    5  C   UNL     1      -7.138   8.500  66.368  1.00  0.00    -0.079 C  
HETATM    6  C   UNL     1      -7.259   9.893  68.537  1.00  0.00    -0.076 A  
HETATM    7  C   UNL     1      -7.842   7.841  65.156  1.00  0.00    -0.123 C  
HETATM    8  C   UNL     1      -7.152  11.287  68.716  1.00  0.00    -0.096 A  
HETATM    9  C   UNL     1      -5.717   9.619  70.412  1.00  0.00    -0.048 A  
HETATM   10  C   UNL     1      -6.542   9.067  69.420  1.00  0.00    -0.044 A  
HETATM   11  C   UNL     1      -6.332  11.833  69.705  1.00  0.00    -0.125 A  
HETATM   12  C   UNL     1      -8.329   8.831  64.105  1.00  0.00    -0.155 C  
HETATM   13  C   UNL     1      -5.942   9.291  65.802  1.00  0.00    -0.055 C  
HETATM   14  C   UNL     1      -5.605  11.000  70.547  1.00  0.00    -0.125 A  
HETATM   15  C   UNL     1      -7.225   9.767  63.626  1.00  0.00    -0.119 C  
HETATM   16  C   UNL     1      -6.303  10.305  64.721  1.00  0.00    -0.114 C  
ENDROOT
BRANCH   4  17
HETATM   17  C   UNL     1     -10.304   8.944  68.758  1.00  0.00    -0.211 C  
BRANCH  17  18
HETATM   18  N   UNL     1     -10.966   7.918  69.603  1.00  0.00    -0.171 NA 
HETATM   19  C   UNL     1      -9.747   7.978  72.306  1.00  0.00    -0.294 C  
HETATM   20  C   UNL     1     -10.021   6.872  70.034  1.00  0.00    -0.180 C  
HETATM   21  C   UNL     1      -9.038   7.329  71.120  1.00  0.00    -0.152 C  
HETATM   22  C   UNL     1     -10.768   9.015  71.850  1.00  0.00    -0.401 C  
HETATM   23  C   UNL     1     -11.689   8.427  70.780  1.00  0.00    -0.202 C  
ENDBRANCH  17  18
ENDBRANCH   4  17
TORSDOF 2
ENDMDL
MODEL      159
REMARK 921   NORMALIZED FREE ENERGY PREDICTED BY IDOCK:   -2.85 KCAL/MOL
REMARK 922        TOTAL FREE ENERGY PREDICTED BY IDOCK:   -3.65 KCAL/MOL
REMARK 923 INTER-LIGAND FREE ENERGY PREDICTED BY IDOCK:   -3.61 KCAL/MOL
REMARK 924 INTRA-LIGAND FREE ENERGY PREDICTED BY IDOCK:   -0.04 KCAL/MOL
REMARK 927      BINDING AFFINITY PREDICTED BY RF-SCORE:    0.00 PKD
ROOT
HETATM    1  O   UNL     1      -7.389   5.914  69.181  1.00  0.00    -0.079 OA 
HETATM    2  C   UNL     1      -8.677   5.308  69.338  1.00  0.00    -0.100 C  
HETATM    3  H   UNL     1      -6.801   5.269  68.804  1.00  0.00     0.000 HD 
HETATM    4  C   UNL     1      -9.641   6.364  69.954  1.00  0.00    -0.166 C  
HETATM    5  C   UNL     1      -9.238   4.883  67.910  1.00  0.00    -0.142 C  
HETATM    6  C   UNL     1      -8.503   4.077  70.248  1.00  0.00    -0.090 A  
HETATM    7  C   UNL     1      -9.473   6.035  66.901  1.00  0.00    -0.146 C  
HETATM    8  C   UNL     1      -7.228   3.683  70.703  1.00  0.00    -0.037 A  
HETATM    9  C   UNL     1      -9.414   2.093  71.347  1.00  0.00    -0.205 A  
HETATM   10  C   UNL     1      -9.598   3.269  70.605  1.00  0.00    -0.223 A  
HETATM   11  C   UNL     1      -7.049   2.513  71.443  1.00  0.00    -0.032 A  
HETATM   12  C   UNL     1      -8.192   6.651  66.351  1.00  0.00    -0.117 C  
HETATM   13  C   UNL     1      -8.419   3.809  67.167  1.00  0.00    -0.102 C  
HETATM   14  C   UNL     1      -8.140   1.711  71.756  1.00  0.00    -0.041 A  
HETATM   15  C   UNL     1      -7.251   5.611  65.753  1.00  0.00    -0.072 C  
HETATM   16  C   UNL     1      -7.117   4.314  66.551  1.00  0.00    -0.067 C  
ENDROOT
BRANCH   4  17
HETATM   17  C   UNL     1      -9.228   7.012  71.287  1.00  0.00    -0.152 C  
BRANCH  17  18
HETATM   18  N   UNL     1     -10.230   6.784  72.358  1.00  0.00    -0.179 NA 
HETATM   19  C   UNL     1     -12.749   8.165  71.618  1.00  0.00    -0.343 C  
HETATM   20  C   UNL     1     -10.627   8.043  73.013  1.00  0.00    -0.262 C  
HETATM   21  C   UNL     1     -11.542   8.930  72.157  1.00  0.00    -0.400 C  
HETATM   22  C   UNL     1     -12.337   6.834  70.998  1.00  0.00    -0.370 C  
HETATM   23  C   UNL     1     -11.442   6.049  71.957  1.00  0.00    -0.287 C  
ENDBRANCH  17  18
ENDBRANCH   4  17
TORSDOF 2
ENDMDL
MODEL      160
REMARK 921   NORMALIZED FREE ENERGY PREDICTED BY IDOCK:   -2.85 KCAL/MOL
REMARK 922        TOTAL FREE ENERGY PREDICTED BY IDOCK:   -3.65 KCAL/MOL
REMARK 923 INTER-LIGAND FREE ENERGY PREDICTED BY IDOCK:   -3.06 KCAL/MOL
REMARK 924 INTRA-LIGAND FREE ENERGY PREDICTED BY IDOCK:   -0.59 KCAL/MOL
REMARK 927      BINDING AFFINITY PREDICTED BY RF-SCORE:    0.00 PKD
ROOT
HETATM    1  O   UNL     1      -7.712   9.555  67.201  1.00  0.00    -0.091 OA 
HETATM    2  C   UNL     1      -8.554   9.038  66.164  1.00  0.00    -0.135 C  
HETATM    3  H   UNL     1      -7.558  10.477  67.028  1.00  0.00     0.000 HD 
HETATM    4  C   UNL     1      -8.807   7.529  66.448  1.00  0.00    -0.178 C  
HETATM    5  C   UNL     1      -9.952   9.800  66.191  1.00  0.00    -0.338 C  
HETATM    6  C   UNL     1      -7.830   9.266  64.822  1.00  0.00    -0.118 A  
HETATM    7  C   UNL     1     -10.789   9.640  67.484  1.00  0.00    -0.265 C  
HETATM    8  C   UNL     1      -6.601   9.954  64.766  1.00  0.00    -0.121 A  
HETATM    9  C   UNL     1      -7.782   9.158  62.382  1.00  0.00    -0.116 A  
HETATM   10  C   UNL     1      -8.399   8.853  63.604  1.00  0.00    -0.164 A  
HETATM   11  C   UNL     1      -5.989  10.253  63.548  1.00  0.00    -0.142 A  
HETATM   12  C   UNL     1     -10.223  10.382  68.688  1.00  0.00    -0.196 C  
HETATM   13  C   UNL     1      -9.892  11.311  65.892  1.00  0.00    -0.272 C  
HETATM   14  C   UNL     1      -6.584   9.865  62.354  1.00  0.00    -0.110 A  
HETATM   15  C   UNL     1      -9.973  11.859  68.403  1.00  0.00    -0.203 C  
HETATM   16  C   UNL     1      -9.357  12.166  67.037  1.00  0.00    -0.201 C  
ENDROOT
BRANCH   4  17
HETATM   17  C   UNL     1      -7.576   6.616  66.593  1.00  0.00    -0.094 C  
BRANCH  17  18
HETATM   18  N   UNL     1      -7.695   5.689  67.746  1.00  0.00    -0.095 NA 
HETATM   19  C   UNL     1      -5.614   6.380  69.743  1.00  0.00    -0.014 C  
HETATM   20  C   UNL     1      -6.489   4.857  67.905  1.00  0.00    -0.045 C  
HETATM   21  C   UNL     1      -5.278   5.616  68.464  1.00  0.00    -0.003 C  
HETATM   22  C   UNL     1      -6.898   7.189  69.591  1.00  0.00    -0.050 C  
HETATM   23  C   UNL     1      -8.022   6.313  69.039  1.00  0.00    -0.110 C  
ENDBRANCH  17  18
ENDBRANCH   4  17
TORSDOF 2
ENDMDL
MODEL      161
REMARK 921   NORMALIZED FREE ENERGY PREDICTED BY IDOCK:   -2.83 KCAL/MOL
REMARK 922        TOTAL FREE ENERGY PREDICTED BY IDOCK:   -3.62 KCAL/MOL
REMARK 923 INTER-LIGAND FREE ENERGY PREDICTED BY IDOCK:   -2.99 KCAL/MOL
REMARK 924 INTRA-LIGAND FREE ENERGY PREDICTED BY IDOCK:   -0.63 KCAL/MOL
REMARK 927      BINDING AFFINITY PREDICTED BY RF-SCORE:    0.00 PKD
ROOT
HETATM    1  O   UNL     1      -8.450   7.913  70.164  1.00  0.00    -0.126 OA 
HETATM    2  C   UNL     1      -9.291   6.904  69.591  1.00  0.00    -0.145 C  
HETATM    3  H   UNL     1      -8.239   8.544  69.485  1.00  0.00     0.000 HD 
HETATM    4  C   UNL     1      -9.638   5.870  70.702  1.00  0.00    -0.208 C  
HETATM    5  C   UNL     1     -10.643   7.573  69.081  1.00  0.00    -0.204 C  
HETATM    6  C   UNL     1      -8.519   6.265  68.420  1.00  0.00    -0.115 A  
HETATM    7  C   UNL     1     -11.524   8.241  70.167  1.00  0.00     0.010 C  
HETATM    8  C   UNL     1      -7.252   6.747  68.036  1.00  0.00    -0.091 A  
HETATM    9  C   UNL     1      -8.411   4.721  66.530  1.00  0.00    -0.107 A  
HETATM   10  C   UNL     1      -9.077   5.224  67.657  1.00  0.00    -0.113 A  
HETATM   11  C   UNL     1      -6.590   6.242  66.915  1.00  0.00    -0.059 A  
HETATM   12  C   UNL     1     -10.949   9.537  70.724  1.00  0.00    -0.389 C  
HETATM   13  C   UNL     1     -10.488   8.605  67.947  1.00  0.00    -0.269 C  
HETATM   14  C   UNL     1      -7.174   5.237  66.155  1.00  0.00    -0.073 A  
HETATM   15  C   UNL     1     -10.607  10.544  69.631  1.00  0.00    -0.281 C  
HETATM   16  C   UNL     1      -9.937   9.958  68.388  1.00  0.00    -0.177 C  
ENDROOT
BRANCH   4  17
HETATM   17  C   UNL     1      -8.467   5.188  71.430  1.00  0.00    -0.124 C  
BRANCH  17  18
HETATM   18  N   UNL     1      -8.878   3.931  72.104  1.00  0.00    -0.103 NA 
HETATM   19  C   UNL     1      -7.710   1.636  70.632  1.00  0.00    -0.035 C  
HETATM   20  C   UNL     1      -9.710   3.088  71.227  1.00  0.00    -0.138 C  
HETATM   21  C   UNL     1      -8.928   2.392  70.105  1.00  0.00    -0.158 C  
HETATM   22  C   UNL     1      -6.888   2.494  71.588  1.00  0.00    -0.030 C  
HETATM   23  C   UNL     1      -7.785   3.115  72.659  1.00  0.00    -0.058 C  
ENDBRANCH  17  18
ENDBRANCH   4  17
TORSDOF 2
ENDMDL
MODEL      162
REMARK 921   NORMALIZED FREE ENERGY PREDICTED BY IDOCK:   -2.81 KCAL/MOL
REMARK 922        TOTAL FREE ENERGY PREDICTED BY IDOCK:   -3.60 KCAL/MOL
REMARK 923 INTER-LIGAND FREE ENERGY PREDICTED BY IDOCK:   -3.82 KCAL/MOL
REMARK 924 INTRA-LIGAND FREE ENERGY PREDICTED BY IDOCK:    0.22 KCAL/MOL
REMARK 927      BINDING AFFINITY PREDICTED BY RF-SCORE:    0.00 PKD
ROOT
HETATM    1  O   UNL     1      -8.857  13.600  66.096  1.00  0.00    -0.435 OA 
HETATM    2  C   UNL     1      -8.401  12.990  67.309  1.00  0.00    -0.185 C  
HETATM    3  H   UNL     1      -9.636  14.107  66.292  1.00  0.00     0.000 HD 
HETATM    4  C   UNL     1      -7.124  12.159  66.987  1.00  0.00    -0.064 C  
HETATM    5  C   UNL     1      -8.015  14.125  68.357  1.00  0.00    -0.142 C  
HETATM    6  C   UNL     1      -9.547  12.112  67.847  1.00  0.00    -0.198 A  
HETATM    7  C   UNL     1      -6.861  15.071  67.942  1.00  0.00    -0.172 C  
HETATM    8  C   UNL     1     -10.801  12.078  67.204  1.00  0.00    -0.297 A  
HETATM    9  C   UNL     1     -10.487  10.653  69.567  1.00  0.00    -0.236 A  
HETATM   10  C   UNL     1      -9.405  11.366  69.030  1.00  0.00     0.036 A  
HETATM   11  C   UNL     1     -11.876  11.366  67.740  1.00  0.00    -0.196 A  
HETATM   12  C   UNL     1      -7.227  16.049  66.832  1.00  0.00    -0.212 C  
HETATM   13  C   UNL     1      -9.177  15.027  68.818  1.00  0.00    -0.200 C  
HETATM   14  C   UNL     1     -11.723  10.662  68.928  1.00  0.00    -0.282 A  
HETATM   15  C   UNL     1      -8.480  16.857  67.151  1.00  0.00    -0.218 C  
HETATM   16  C   UNL     1      -9.621  16.066  67.792  1.00  0.00    -0.219 C  
ENDROOT
BRANCH   4  17
HETATM   17  C   UNL     1      -7.234  11.079  65.897  1.00  0.00     0.037 C  
BRANCH  17  18
HETATM   18  N   UNL     1      -8.402  10.186  66.105  1.00  0.00    -0.127 NA 
HETATM   19  C   UNL     1      -8.004   7.713  64.515  1.00  0.00    -0.130 C  
HETATM   20  C   UNL     1      -9.146   9.959  64.853  1.00  0.00    -0.224 C  
HETATM   21  C   UNL     1      -8.435   9.026  63.864  1.00  0.00    -0.171 C  
HETATM   22  C   UNL     1      -7.290   7.953  65.841  1.00  0.00    -0.076 C  
HETATM   23  C   UNL     1      -8.110   8.886  66.732  1.00  0.00    -0.111 C  
ENDBRANCH  17  18
ENDBRANCH   4  17
TORSDOF 2
ENDMDL
MODEL      163
REMARK 921   NORMALIZED FREE ENERGY PREDICTED BY IDOCK:   -2.62 KCAL/MOL
REMARK 922        TOTAL FREE ENERGY PREDICTED BY IDOCK:   -3.39 KCAL/MOL
REMARK 923 INTER-LIGAND FREE ENERGY PREDICTED BY IDOCK:   -3.07 KCAL/MOL
REMARK 924 INTRA-LIGAND FREE ENERGY PREDICTED BY IDOCK:   -0.32 KCAL/MOL
REMARK 927      BINDING AFFINITY PREDICTED BY RF-SCORE:    0.00 PKD
ROOT
HETATM    1  O   UNL     1     -10.297   9.525  68.565  1.00  0.00    -0.193 OA 
HETATM    2  C   UNL     1      -9.135   8.920  67.985  1.00  0.00    -0.139 C  
HETATM    3  H   UNL     1     -10.013  10.236  69.127  1.00  0.00     0.000 HD 
HETATM    4  C   UNL     1      -9.600   7.755  67.063  1.00  0.00    -0.238 C  
HETATM    5  C   UNL     1      -8.370   9.995  67.094  1.00  0.00    -0.121 C  
HETATM    6  C   UNL     1      -8.242   8.428  69.140  1.00  0.00    -0.120 A  
HETATM    7  C   UNL     1      -9.155  10.562  65.885  1.00  0.00    -0.192 C  
HETATM    8  C   UNL     1      -8.589   8.675  70.484  1.00  0.00    -0.170 A  
HETATM    9  C   UNL     1      -6.167   7.423  69.950  1.00  0.00    -0.027 A  
HETATM   10  C   UNL     1      -7.022   7.773  68.895  1.00  0.00    -0.066 A  
HETATM   11  C   UNL     1      -7.737   8.322  71.532  1.00  0.00    -0.114 A  
HETATM   12  C   UNL     1     -10.290  11.504  66.267  1.00  0.00    -0.280 C  
HETATM   13  C   UNL     1      -7.805  11.210  67.858  1.00  0.00    -0.111 C  
HETATM   14  C   UNL     1      -6.521   7.706  71.266  1.00  0.00    -0.038 A  
HETATM   15  C   UNL     1      -9.829  12.640  67.173  1.00  0.00    -0.212 C  
HETATM   16  C   UNL     1      -8.850  12.240  68.277  1.00  0.00    -0.178 C  
ENDROOT
BRANCH   4  17
HETATM   17  C   UNL     1     -10.473   6.655  67.691  1.00  0.00    -0.227 C  
BRANCH  17  18
HETATM   18  N   UNL     1     -10.275   5.337  67.039  1.00  0.00    -0.214 NA 
HETATM   19  C   UNL     1      -7.481   4.454  67.503  1.00  0.00    -0.073 C  
HETATM   20  C   UNL     1      -9.269   5.404  65.965  1.00  0.00    -0.158 C  
HETATM   21  C   UNL     1      -7.825   5.525  66.469  1.00  0.00    -0.101 C  
HETATM   22  C   UNL     1      -8.559   4.347  68.577  1.00  0.00    -0.107 C  
HETATM   23  C   UNL     1      -9.942   4.220  67.939  1.00  0.00     0.010 C  
ENDBRANCH  17  18
ENDBRANCH   4  17
TORSDOF 2
ENDMDL
MODEL      164
REMARK 921   NORMALIZED FREE ENERGY PREDICTED BY IDOCK:   -2.41 KCAL/MOL
REMARK 922        TOTAL FREE ENERGY PREDICTED BY IDOCK:   -3.16 KCAL/MOL
REMARK 923 INTER-LIGAND FREE ENERGY PREDICTED BY IDOCK:   -2.76 KCAL/MOL
REMARK 924 INTRA-LIGAND FREE ENERGY PREDICTED BY IDOCK:   -0.40 KCAL/MOL
REMARK 927      BINDING AFFINITY PREDICTED BY RF-SCORE:    0.00 PKD
ROOT
HETATM    1  O   UNL     1      -8.052  12.489  69.329  1.00  0.00    -0.207 OA 
HETATM    2  C   UNL     1      -7.425  12.338  68.049  1.00  0.00    -0.115 C  
HETATM    3  H   UNL     1      -7.816  11.741  69.866  1.00  0.00     0.000 HD 
HETATM    4  C   UNL     1      -7.812  13.563  67.169  1.00  0.00    -0.025 C  
HETATM    5  C   UNL     1      -5.844  12.328  68.236  1.00  0.00    -0.057 C  
HETATM    6  C   UNL     1      -7.916  11.008  67.445  1.00  0.00    -0.119 A  
HETATM    7  C   UNL     1      -5.219  13.618  68.823  1.00  0.00    -0.074 C  
HETATM    8  C   UNL     1      -8.763  10.148  68.172  1.00  0.00    -0.122 A  
HETATM    9  C   UNL     1      -7.855   9.318  65.682  1.00  0.00    -0.099 A  
HETATM   10  C   UNL     1      -7.486  10.577  66.178  1.00  0.00    -0.136 A  
HETATM   11  C   UNL     1      -9.131   8.896  67.675  1.00  0.00    -0.144 A  
HETATM   12  C   UNL     1      -5.515  13.834  70.302  1.00  0.00    -0.120 C  
HETATM   13  C   UNL     1      -5.279  11.153  69.059  1.00  0.00    -0.040 C  
HETATM   14  C   UNL     1      -8.668   8.475  66.434  1.00  0.00    -0.153 A  
HETATM   15  C   UNL     1      -5.138  12.630  71.158  1.00  0.00    -0.156 C  
HETATM   16  C   UNL     1      -5.497  11.268  70.564  1.00  0.00    -0.129 C  
ENDROOT
BRANCH   4  17
HETATM   17  C   UNL     1      -9.310  13.844  66.960  1.00  0.00    -0.251 C  
BRANCH  17  18
HETATM   18  N   UNL     1     -10.066  13.850  68.237  1.00  0.00    -0.235 NA 
HETATM   19  C   UNL     1     -12.034  16.068  68.168  1.00  0.00     0.256 C  
HETATM   20  C   UNL     1      -9.839  15.091  69.000  1.00  0.00    -0.236 C  
HETATM   21  C   UNL     1     -10.548  16.320  68.415  1.00  0.00    -0.301 C  
HETATM   22  C   UNL     1     -12.264  14.751  67.434  1.00  0.00     0.015 C  
HETATM   23  C   UNL     1     -11.515  13.613  68.126  1.00  0.00    -0.313 C  
ENDBRANCH  17  18
ENDBRANCH   4  17
TORSDOF 2
ENDMDL
MODEL      165
REMARK 921   NORMALIZED FREE ENERGY PREDICTED BY IDOCK:   -2.40 KCAL/MOL
REMARK 922        TOTAL FREE ENERGY PREDICTED BY IDOCK:   -3.15 KCAL/MOL
REMARK 923 INTER-LIGAND FREE ENERGY PREDICTED BY IDOCK:   -2.45 KCAL/MOL
REMARK 924 INTRA-LIGAND FREE ENERGY PREDICTED BY IDOCK:   -0.69 KCAL/MOL
REMARK 927      BINDING AFFINITY PREDICTED BY RF-SCORE:    0.00 PKD
ROOT
HETATM    1  O   UNL     1      -8.896   7.173  67.479  1.00  0.00    -0.120 OA 
HETATM    2  C   UNL     1      -7.790   7.266  66.573  1.00  0.00    -0.109 C  
HETATM    3  H   UNL     1      -9.685   7.029  66.969  1.00  0.00     0.000 HD 
HETATM    4  C   UNL     1      -6.496   7.501  67.407  1.00  0.00    -0.058 C  
HETATM    5  C   UNL     1      -7.639   5.892  65.782  1.00  0.00    -0.087 C  
HETATM    6  C   UNL     1      -8.078   8.429  65.605  1.00  0.00    -0.125 A  
HETATM    7  C   UNL     1      -7.332   4.641  66.642  1.00  0.00    -0.081 C  
HETATM    8  C   UNL     1      -9.297   9.135  65.659  1.00  0.00    -0.300 A  
HETATM    9  C   UNL     1      -7.484   9.775  63.654  1.00  0.00    -0.130 A  
HETATM   10  C   UNL     1      -7.166   8.785  64.595  1.00  0.00    -0.095 A  
HETATM   11  C   UNL     1      -9.609  10.122  64.722  1.00  0.00    -0.378 A  
HETATM   12  C   UNL     1      -8.505   4.166  67.491  1.00  0.00    -0.102 C  
HETATM   13  C   UNL     1      -8.825   5.517  64.871  1.00  0.00    -0.018 C  
HETATM   14  C   UNL     1      -8.707  10.435  63.712  1.00  0.00    -0.198 A  
HETATM   15  C   UNL     1      -9.770   3.941  66.669  1.00  0.00    -0.189 C  
HETATM   16  C   UNL     1     -10.058   5.005  65.609  1.00  0.00    -0.090 C  
ENDROOT
BRANCH   4  17
HETATM   17  C   UNL     1      -6.470   8.714  68.352  1.00  0.00    -0.056 C  
BRANCH  17  18
HETATM   18  N   UNL     1      -7.391   8.551  69.504  1.00  0.00    -0.064 NA 
HETATM   19  C   UNL     1      -5.844   8.867  72.015  1.00  0.00    -0.065 C  
HETATM   20  C   UNL     1      -7.034   7.383  70.329  1.00  0.00    -0.059 C  
HETATM   21  C   UNL     1      -5.778   7.585  71.187  1.00  0.00    -0.035 C  
HETATM   22  C   UNL     1      -6.275  10.060  71.169  1.00  0.00     0.057 C  
HETATM   23  C   UNL     1      -7.540   9.727  70.377  1.00  0.00    -0.148 C  
ENDBRANCH  17  18
ENDBRANCH   4  17
TORSDOF 2
ENDMDL
MODEL      166
REMARK 921   NORMALIZED FREE ENERGY PREDICTED BY IDOCK:   -2.40 KCAL/MOL
REMARK 922        TOTAL FREE ENERGY PREDICTED BY IDOCK:   -3.14 KCAL/MOL
REMARK 923 INTER-LIGAND FREE ENERGY PREDICTED BY IDOCK:   -2.75 KCAL/MOL
REMARK 924 INTRA-LIGAND FREE ENERGY PREDICTED BY IDOCK:   -0.39 KCAL/MOL
REMARK 927      BINDING AFFINITY PREDICTED BY RF-SCORE:    0.00 PKD
ROOT
HETATM    1  O   UNL     1      -7.708   7.771  67.295  1.00  0.00    -0.108 OA 
HETATM    2  C   UNL     1      -8.677   7.857  66.245  1.00  0.00    -0.154 C  
HETATM    3  H   UNL     1      -7.459   8.653  67.544  1.00  0.00     0.000 HD 
HETATM    4  C   UNL     1      -9.085   6.411  65.837  1.00  0.00    -0.074 C  
HETATM    5  C   UNL     1      -9.970   8.615  66.782  1.00  0.00    -0.343 C  
HETATM    6  C   UNL     1      -8.032   8.631  65.079  1.00  0.00    -0.131 A  
HETATM    7  C   UNL     1     -10.725   7.931  67.949  1.00  0.00    -0.147 C  
HETATM    8  C   UNL     1      -6.738   9.177  65.197  1.00  0.00    -0.073 A  
HETATM    9  C   UNL     1      -8.175   9.668  62.871  1.00  0.00    -0.153 A  
HETATM   10  C   UNL     1      -8.732   8.873  63.884  1.00  0.00    -0.056 A  
HETATM   11  C   UNL     1      -6.185   9.965  64.186  1.00  0.00    -0.124 A  
HETATM   12  C   UNL     1      -9.989   7.985  69.282  1.00  0.00    -0.191 C  
HETATM   13  C   UNL     1      -9.755  10.083  67.200  1.00  0.00    -0.217 C  
HETATM   14  C   UNL     1      -6.907  10.220  63.027  1.00  0.00    -0.125 A  
HETATM   15  C   UNL     1      -9.589   9.404  69.674  1.00  0.00    -0.199 C  
HETATM   16  C   UNL     1      -9.041  10.266  68.536  1.00  0.00    -0.138 C  
ENDROOT
BRANCH   4  17
HETATM   17  C   UNL     1      -7.964   5.451  65.403  1.00  0.00    -0.107 C  
BRANCH  17  18
HETATM   18  N   UNL     1      -8.412   4.037  65.375  1.00  0.00    -0.109 NA 
HETATM   19  C   UNL     1      -6.708   2.534  63.468  1.00  0.00    -0.031 C  
HETATM   20  C   UNL     1      -8.918   3.650  64.046  1.00  0.00    -0.108 C  
HETATM   21  C   UNL     1      -7.820   3.466  62.990  1.00  0.00    -0.068 C  
HETATM   22  C   UNL     1      -6.233   2.902  64.869  1.00  0.00    -0.023 C  
HETATM   23  C   UNL     1      -7.422   3.042  65.820  1.00  0.00    -0.073 C  
ENDBRANCH  17  18
ENDBRANCH   4  17
TORSDOF 2
ENDMDL
MODEL      167
REMARK 921   NORMALIZED FREE ENERGY PREDICTED BY IDOCK:   -2.30 KCAL/MOL
REMARK 922        TOTAL FREE ENERGY PREDICTED BY IDOCK:   -3.03 KCAL/MOL
REMARK 923 INTER-LIGAND FREE ENERGY PREDICTED BY IDOCK:   -2.35 KCAL/MOL
REMARK 924 INTRA-LIGAND FREE ENERGY PREDICTED BY IDOCK:   -0.68 KCAL/MOL
REMARK 927      BINDING AFFINITY PREDICTED BY RF-SCORE:    0.00 PKD
ROOT
HETATM    1  O   UNL     1      -8.625   6.510  66.914  1.00  0.00    -0.112 OA 
HETATM    2  C   UNL     1      -7.402   7.222  67.140  1.00  0.00    -0.094 C  
HETATM    3  H   UNL     1      -8.507   5.951  66.155  1.00  0.00     0.000 HD 
HETATM    4  C   UNL     1      -7.593   8.138  68.384  1.00  0.00    -0.105 C  
HETATM    5  C   UNL     1      -6.236   6.183  67.450  1.00  0.00    -0.029 C  
HETATM    6  C   UNL     1      -7.093   8.030  65.864  1.00  0.00    -0.057 A  
HETATM    7  C   UNL     1      -6.419   5.315  68.720  1.00  0.00    -0.039 C  
HETATM    8  C   UNL     1      -7.909   7.923  64.720  1.00  0.00    -0.125 A  
HETATM    9  C   UNL     1      -5.625   9.497  64.575  1.00  0.00    -0.070 A  
HETATM   10  C   UNL     1      -5.954   8.850  65.775  1.00  0.00    -0.051 A  
HETATM   11  C   UNL     1      -7.581   8.571  63.528  1.00  0.00    -0.127 A  
HETATM   12  C   UNL     1      -7.501   4.251  68.596  1.00  0.00    -0.059 C  
HETATM   13  C   UNL     1      -5.887   5.214  66.304  1.00  0.00    -0.018 C  
HETATM   14  C   UNL     1      -6.433   9.350  63.451  1.00  0.00    -0.094 A  
HETATM   15  C   UNL     1      -7.311   3.360  67.374  1.00  0.00    -0.059 C  
HETATM   16  C   UNL     1      -6.893   4.086  66.095  1.00  0.00    -0.054 C  
ENDROOT
BRANCH   4  17
HETATM   17  C   UNL     1      -8.758   9.143  68.355  1.00  0.00    -0.129 C  
BRANCH  17  18
HETATM   18  N   UNL     1     -10.053   8.515  68.717  1.00  0.00    -0.192 NA 
HETATM   19  C   UNL     1     -11.611  10.425  70.368  1.00  0.00    -0.423 C  
HETATM   20  C   UNL     1     -10.183   8.330  70.173  1.00  0.00    -0.199 C  
HETATM   21  C   UNL     1     -10.442   9.630  70.946  1.00  0.00    -0.359 C  
HETATM   22  C   UNL     1     -11.502  10.558  68.852  1.00  0.00    -0.292 C  
HETATM   23  C   UNL     1     -11.258   9.193  68.209  1.00  0.00     0.335 C  
ENDBRANCH  17  18
ENDBRANCH   4  17
TORSDOF 2
ENDMDL
MODEL      168
REMARK 921   NORMALIZED FREE ENERGY PREDICTED BY IDOCK:   -2.28 KCAL/MOL
REMARK 922        TOTAL FREE ENERGY PREDICTED BY IDOCK:   -3.01 KCAL/MOL
REMARK 923 INTER-LIGAND FREE ENERGY PREDICTED BY IDOCK:   -3.35 KCAL/MOL
REMARK 924 INTRA-LIGAND FREE ENERGY PREDICTED BY IDOCK:    0.34 KCAL/MOL
REMARK 927      BINDING AFFINITY PREDICTED BY RF-SCORE:    0.00 PKD
ROOT
HETATM    1  O   UNL     1      -7.189  15.951  66.955  1.00  0.00    -0.213 OA 
HETATM    2  C   UNL     1      -8.049  16.050  68.097  1.00  0.00    -0.147 C  
HETATM    3  H   UNL     1      -7.518  16.538  66.284  1.00  0.00     0.000 HD 
HETATM    4  C   UNL     1      -7.511  15.089  69.197  1.00  0.00    -0.169 C  
HETATM    5  C   UNL     1      -8.008  17.539  68.660  1.00  0.00    -0.268 C  
HETATM    6  C   UNL     1      -9.473  15.675  67.641  1.00  0.00    -0.211 A  
HETATM    7  C   UNL     1      -6.631  18.036  69.168  1.00  0.00    -0.253 C  
HETATM    8  C   UNL     1      -9.752  15.391  66.288  1.00  0.00    -0.325 A  
HETATM    9  C   UNL     1     -11.860  15.424  68.097  1.00  0.00    -0.178 A  
HETATM   10  C   UNL     1     -10.551  15.665  68.542  1.00  0.00    -0.256 A  
HETATM   11  C   UNL     1     -11.055  15.150  65.849  1.00  0.00    -0.319 A  
HETATM   12  C   UNL     1      -5.617  18.296  68.061  1.00  0.00    -0.164 C  
HETATM   13  C   UNL     1      -8.542  18.626  67.707  1.00  0.00    -0.294 C  
HETATM   14  C   UNL     1     -12.111  15.177  66.750  1.00  0.00     0.267 A  
HETATM   15  C   UNL     1      -6.151  19.235  66.985  1.00  0.00    -0.174 C  
HETATM   16  C   UNL     1      -7.600  18.988  66.563  1.00  0.00    -0.264 C  
ENDROOT
BRANCH   4  17
HETATM   17  C   UNL     1      -7.344  13.606  68.826  1.00  0.00    -0.093 C  
BRANCH  17  18
HETATM   18  N   UNL     1      -8.484  13.093  68.026  1.00  0.00    -0.171 NA 
HETATM   19  C   UNL     1      -8.489  10.130  68.164  1.00  0.00    -0.118 C  
HETATM   20  C   UNL     1      -8.029  12.279  66.885  1.00  0.00    -0.068 C  
HETATM   21  C   UNL     1      -7.504  10.891  67.279  1.00  0.00    -0.104 C  
HETATM   22  C   UNL     1      -9.004  10.999  69.306  1.00  0.00     0.083 C  
HETATM   23  C   UNL     1      -9.506  12.342  68.775  1.00  0.00     0.086 C  
ENDBRANCH  17  18
ENDBRANCH   4  17
TORSDOF 2
ENDMDL
MODEL      169
REMARK 921   NORMALIZED FREE ENERGY PREDICTED BY IDOCK:   -2.22 KCAL/MOL
REMARK 922        TOTAL FREE ENERGY PREDICTED BY IDOCK:   -2.94 KCAL/MOL
REMARK 923 INTER-LIGAND FREE ENERGY PREDICTED BY IDOCK:   -2.42 KCAL/MOL
REMARK 924 INTRA-LIGAND FREE ENERGY PREDICTED BY IDOCK:   -0.52 KCAL/MOL
REMARK 927      BINDING AFFINITY PREDICTED BY RF-SCORE:    0.00 PKD
ROOT
HETATM    1  O   UNL     1      -6.596   5.157  65.851  1.00  0.00    -0.045 OA 
HETATM    2  C   UNL     1      -7.977   4.846  66.067  1.00  0.00    -0.107 C  
HETATM    3  H   UNL     1      -6.080   4.390  66.070  1.00  0.00     0.000 HD 
HETATM    4  C   UNL     1      -8.822   6.103  65.707  1.00  0.00    -0.133 C  
HETATM    5  C   UNL     1      -8.407   3.655  65.103  1.00  0.00    -0.097 C  
HETATM    6  C   UNL     1      -8.136   4.441  67.545  1.00  0.00    -0.099 A  
HETATM    7  C   UNL     1      -8.308   3.940  63.583  1.00  0.00    -0.092 C  
HETATM    8  C   UNL     1      -7.018   4.350  68.399  1.00  0.00    -0.052 A  
HETATM    9  C   UNL     1      -9.506   3.618  69.394  1.00  0.00    -0.249 A  
HETATM   10  C   UNL     1      -9.389   4.086  68.077  1.00  0.00    -0.220 A  
HETATM   11  C   UNL     1      -7.138   3.887  69.710  1.00  0.00    -0.042 A  
HETATM   12  C   UNL     1      -6.880   4.015  63.056  1.00  0.00    -0.035 C  
HETATM   13  C   UNL     1      -7.689   2.312  65.344  1.00  0.00    -0.076 C  
HETATM   14  C   UNL     1      -8.381   3.510  70.205  1.00  0.00    -0.084 A  
HETATM   15  C   UNL     1      -6.057   2.783  63.415  1.00  0.00    -0.010 C  
HETATM   16  C   UNL     1      -6.251   2.259  64.838  1.00  0.00    -0.019 C  
ENDROOT
BRANCH   4  17
HETATM   17  C   UNL     1      -8.487   7.417  66.434  1.00  0.00    -0.129 C  
BRANCH  17  18
HETATM   18  N   UNL     1      -9.383   7.666  67.591  1.00  0.00    -0.141 NA 
HETATM   19  C   UNL     1      -8.618  10.238  68.854  1.00  0.00    -0.150 C  
HETATM   20  C   UNL     1      -8.638   7.696  68.862  1.00  0.00    -0.129 C  
HETATM   21  C   UNL     1      -7.799   8.966  69.064  1.00  0.00    -0.091 C  
HETATM   22  C   UNL     1      -9.435  10.173  67.568  1.00  0.00    -0.172 C  
HETATM   23  C   UNL     1     -10.228   8.868  67.501  1.00  0.00    -0.248 C  
ENDBRANCH  17  18
ENDBRANCH   4  17
TORSDOF 2
ENDMDL
MODEL      170
REMARK 921   NORMALIZED FREE ENERGY PREDICTED BY IDOCK:   -2.17 KCAL/MOL
REMARK 922        TOTAL FREE ENERGY PREDICTED BY IDOCK:   -2.89 KCAL/MOL
REMARK 923 INTER-LIGAND FREE ENERGY PREDICTED BY IDOCK:   -2.21 KCAL/MOL
REMARK 924 INTRA-LIGAND FREE ENERGY PREDICTED BY IDOCK:   -0.68 KCAL/MOL
REMARK 927      BINDING AFFINITY PREDICTED BY RF-SCORE:    0.00 PKD
ROOT
HETATM    1  O   UNL     1      -6.487   6.196  66.626  1.00  0.00    -0.043 OA 
HETATM    2  C   UNL     1      -7.615   5.800  67.416  1.00  0.00    -0.096 C  
HETATM    3  H   UNL     1      -5.806   5.542  66.731  1.00  0.00     0.000 HD 
HETATM    4  C   UNL     1      -8.732   6.870  67.243  1.00  0.00    -0.119 C  
HETATM    5  C   UNL     1      -8.165   4.403  66.887  1.00  0.00    -0.102 C  
HETATM    6  C   UNL     1      -7.139   5.684  68.878  1.00  0.00    -0.069 A  
HETATM    7  C   UNL     1      -8.690   4.386  65.429  1.00  0.00    -0.125 C  
HETATM    8  C   UNL     1      -5.785   5.877  69.219  1.00  0.00    -0.008 A  
HETATM    9  C   UNL     1      -7.560   5.117  71.217  1.00  0.00    -0.095 A  
HETATM   10  C   UNL     1      -8.024   5.321  69.909  1.00  0.00    -0.083 A  
HETATM   11  C   UNL     1      -5.327   5.676  70.523  1.00  0.00    -0.009 A  
HETATM   12  C   UNL     1      -7.597   4.495  64.373  1.00  0.00    -0.072 C  
HETATM   13  C   UNL     1      -7.194   3.213  67.016  1.00  0.00    -0.058 C  
HETATM   14  C   UNL     1      -6.212   5.285  71.520  1.00  0.00    -0.030 A  
HETATM   15  C   UNL     1      -6.504   3.447  64.550  1.00  0.00    -0.034 C  
HETATM   16  C   UNL     1      -6.062   3.202  65.993  1.00  0.00    -0.024 C  
ENDROOT
BRANCH   4  17
HETATM   17  C   UNL     1      -8.377   8.329  67.577  1.00  0.00    -0.130 C  
BRANCH  17  18
HETATM   18  N   UNL     1      -7.874   9.071  66.394  1.00  0.00    -0.099 NA 
HETATM   19  C   UNL     1      -9.666  11.380  65.885  1.00  0.00    -0.257 C  
HETATM   20  C   UNL     1      -8.843   9.051  65.284  1.00  0.00    -0.193 C  
HETATM   21  C   UNL     1     -10.063   9.955  65.503  1.00  0.00    -0.297 C  
HETATM   22  C   UNL     1      -8.617  11.391  66.991  1.00  0.00    -0.157 C  
HETATM   23  C   UNL     1      -7.456  10.462  66.640  1.00  0.00    -0.114 C  
ENDBRANCH  17  18
ENDBRANCH   4  17
TORSDOF 2
ENDMDL
MODEL      171
REMARK 921   NORMALIZED FREE ENERGY PREDICTED BY IDOCK:   -1.99 KCAL/MOL
REMARK 922        TOTAL FREE ENERGY PREDICTED BY IDOCK:   -2.69 KCAL/MOL
REMARK 923 INTER-LIGAND FREE ENERGY PREDICTED BY IDOCK:   -2.20 KCAL/MOL
REMARK 924 INTRA-LIGAND FREE ENERGY PREDICTED BY IDOCK:   -0.49 KCAL/MOL
REMARK 927      BINDING AFFINITY PREDICTED BY RF-SCORE:    0.00 PKD
ROOT
HETATM    1  O   UNL     1      -7.510  15.426  69.583  1.00  0.00    -0.209 OA 
HETATM    2  C   UNL     1      -8.251  15.173  68.384  1.00  0.00    -0.145 C  
HETATM    3  H   UNL     1      -7.602  14.672  70.154  1.00  0.00     0.000 HD 
HETATM    4  C   UNL     1      -8.101  16.407  67.447  1.00  0.00    -0.175 C  
HETATM    5  C   UNL     1      -7.641  13.901  67.646  1.00  0.00    -0.188 C  
HETATM    6  C   UNL     1      -9.717  14.923  68.788  1.00  0.00    -0.225 A  
HETATM    7  C   UNL     1      -6.172  14.028  67.173  1.00  0.00     0.729 C  
HETATM    8  C   UNL     1     -10.103  14.892  70.143  1.00  0.00     0.159 A  
HETATM    9  C   UNL     1     -12.015  14.326  68.210  1.00  0.00    -0.346 A  
HETATM   10  C   UNL     1     -10.707  14.655  67.825  1.00  0.00    -0.265 A  
HETATM   11  C   UNL     1     -11.407  14.567  70.522  1.00  0.00    -0.166 A  
HETATM   12  C   UNL     1      -5.151  14.014  68.304  1.00  0.00    -0.111 C  
HETATM   13  C   UNL     1      -7.739  12.572  68.422  1.00  0.00    -0.136 C  
HETATM   14  C   UNL     1     -12.361  14.273  69.556  1.00  0.00    -0.272 A  
HETATM   15  C   UNL     1      -5.306  12.805  69.220  1.00  0.00    -0.071 C  
HETATM   16  C   UNL     1      -6.746  12.433  69.572  1.00  0.00     0.015 C  
ENDROOT
BRANCH   4  17
HETATM   17  C   UNL     1      -8.513  17.780  68.008  1.00  0.00    -0.253 C  
BRANCH  17  18
HETATM   18  N   UNL     1      -8.412  18.857  66.991  1.00  0.00    -0.274 NA 
HETATM   19  C   UNL     1     -11.076  20.124  66.678  1.00  0.00     0.341 C  
HETATM   20  C   UNL     1      -9.253  18.577  65.814  1.00  0.00     0.451 C  
HETATM   21  C   UNL     1     -10.756  18.763  66.061  1.00  0.00    -0.337 C  
HETATM   22  C   UNL     1     -10.160  20.434  67.857  1.00  0.00    -0.408 C  
HETATM   23  C   UNL     1      -8.697  20.219  67.471  1.00  0.00    -0.315 C  
ENDBRANCH  17  18
ENDBRANCH   4  17
TORSDOF 2
ENDMDL
MODEL      172
REMARK 921   NORMALIZED FREE ENERGY PREDICTED BY IDOCK:   -1.97 KCAL/MOL
REMARK 922        TOTAL FREE ENERGY PREDICTED BY IDOCK:   -2.67 KCAL/MOL
REMARK 923 INTER-LIGAND FREE ENERGY PREDICTED BY IDOCK:   -2.27 KCAL/MOL
REMARK 924 INTRA-LIGAND FREE ENERGY PREDICTED BY IDOCK:   -0.39 KCAL/MOL
REMARK 927      BINDING AFFINITY PREDICTED BY RF-SCORE:    0.00 PKD
ROOT
HETATM    1  O   UNL     1      -7.024   8.382  68.904  1.00  0.00    -0.060 OA 
HETATM    2  C   UNL     1      -8.052   7.665  68.210  1.00  0.00    -0.124 C  
HETATM    3  H   UNL     1      -6.448   8.774  68.258  1.00  0.00     0.000 HD 
HETATM    4  C   UNL     1      -8.997   7.022  69.268  1.00  0.00    -0.138 C  
HETATM    5  C   UNL     1      -8.899   8.682  67.326  1.00  0.00    -0.141 C  
HETATM    6  C   UNL     1      -7.365   6.608  67.324  1.00  0.00    -0.090 A  
HETATM    7  C   UNL     1      -9.656   9.791  68.100  1.00  0.00    -0.158 C  
HETATM    8  C   UNL     1      -5.959   6.531  67.242  1.00  0.00    -0.020 A  
HETATM    9  C   UNL     1      -7.475   4.840  65.641  1.00  0.00    -0.081 A  
HETATM   10  C   UNL     1      -8.111   5.727  66.521  1.00  0.00    -0.102 A  
HETATM   11  C   UNL     1      -5.329   5.645  66.366  1.00  0.00    -0.012 A  
HETATM   12  C   UNL     1      -8.751  10.865  68.689  1.00  0.00    -0.154 C  
HETATM   13  C   UNL     1      -8.123   9.388  66.196  1.00  0.00    -0.111 C  
HETATM   14  C   UNL     1      -6.086   4.807  65.557  1.00  0.00    -0.030 A  
HETATM   15  C   UNL     1      -7.825  11.488  67.649  1.00  0.00    -0.125 C  
HETATM   16  C   UNL     1      -7.194  10.504  66.664  1.00  0.00    -0.119 C  
ENDROOT
BRANCH   4  17
HETATM   17  C   UNL     1      -8.363   6.094  70.317  1.00  0.00    -0.125 C  
BRANCH  17  18
HETATM   18  N   UNL     1      -9.284   5.806  71.445  1.00  0.00    -0.143 NA 
HETATM   19  C   UNL     1      -7.686   4.899  73.773  1.00  0.00    -0.095 C  
HETATM   20  C   UNL     1      -9.246   4.385  71.833  1.00  0.00    -0.129 C  
HETATM   21  C   UNL     1      -7.974   3.978  72.589  1.00  0.00    -0.086 C  
HETATM   22  C   UNL     1      -7.789   6.368  73.379  1.00  0.00    -0.096 C  
HETATM   23  C   UNL     1      -9.104   6.637  72.648  1.00  0.00    -0.133 C  
ENDBRANCH  17  18
ENDBRANCH   4  17
TORSDOF 2
ENDMDL
MODEL      173
REMARK 921   NORMALIZED FREE ENERGY PREDICTED BY IDOCK:   -1.66 KCAL/MOL
REMARK 922        TOTAL FREE ENERGY PREDICTED BY IDOCK:   -2.32 KCAL/MOL
REMARK 923 INTER-LIGAND FREE ENERGY PREDICTED BY IDOCK:   -1.81 KCAL/MOL
REMARK 924 INTRA-LIGAND FREE ENERGY PREDICTED BY IDOCK:   -0.51 KCAL/MOL
REMARK 927      BINDING AFFINITY PREDICTED BY RF-SCORE:    0.00 PKD
ROOT
HETATM    1  O   UNL     1      -6.314   6.226  69.248  1.00  0.00    -0.032 OA 
HETATM    2  C   UNL     1      -7.696   5.957  68.987  1.00  0.00    -0.091 C  
HETATM    3  H   UNL     1      -5.791   5.686  68.667  1.00  0.00     0.000 HD 
HETATM    4  C   UNL     1      -8.553   6.842  69.939  1.00  0.00    -0.141 C  
HETATM    5  C   UNL     1      -8.036   6.355  67.483  1.00  0.00    -0.117 C  
HETATM    6  C   UNL     1      -7.930   4.452  69.223  1.00  0.00    -0.061 A  
HETATM    7  C   UNL     1      -7.856   7.850  67.118  1.00  0.00    -0.109 C  
HETATM    8  C   UNL     1      -6.861   3.593  69.549  1.00  0.00    -0.041 A  
HETATM    9  C   UNL     1      -9.382   2.488  69.174  1.00  0.00    -0.194 A  
HETATM   10  C   UNL     1      -9.201   3.874  69.059  1.00  0.00    -0.217 A  
HETATM   11  C   UNL     1      -7.045   2.214  69.665  1.00  0.00    -0.033 A  
HETATM   12  C   UNL     1      -6.403   8.301  67.038  1.00  0.00    -0.056 C  
HETATM   13  C   UNL     1      -7.297   5.547  66.398  1.00  0.00    -0.079 C  
HETATM   14  C   UNL     1      -8.303   1.659  69.467  1.00  0.00    -0.069 A  
HETATM   15  C   UNL     1      -5.568   7.428  66.108  1.00  0.00    -0.028 C  
HETATM   16  C   UNL     1      -5.831   5.925  66.211  1.00  0.00    -0.017 C  
ENDROOT
BRANCH   4  17
HETATM   17  C   UNL     1      -8.298   6.716  71.450  1.00  0.00    -0.120 C  
BRANCH  17  18
HETATM   18  N   UNL     1      -8.247   8.036  72.126  1.00  0.00    -0.125 NA 
HETATM   19  C   UNL     1      -5.413   8.879  72.360  1.00  0.00    -0.062 C  
HETATM   20  C   UNL     1      -7.537   7.964  73.415  1.00  0.00    -0.144 C  
HETATM   21  C   UNL     1      -6.015   7.821  73.282  1.00  0.00    -0.061 C  
HETATM   22  C   UNL     1      -6.191   8.993  71.053  1.00  0.00    -0.058 C  
HETATM   23  C   UNL     1      -7.687   9.142  71.331  1.00  0.00     0.044 C  
ENDBRANCH  17  18
ENDBRANCH   4  17
TORSDOF 2
ENDMDL
MODEL      174
REMARK 921   NORMALIZED FREE ENERGY PREDICTED BY IDOCK:   -1.54 KCAL/MOL
REMARK 922        TOTAL FREE ENERGY PREDICTED BY IDOCK:   -2.19 KCAL/MOL
REMARK 923 INTER-LIGAND FREE ENERGY PREDICTED BY IDOCK:   -1.59 KCAL/MOL
REMARK 924 INTRA-LIGAND FREE ENERGY PREDICTED BY IDOCK:   -0.60 KCAL/MOL
REMARK 927      BINDING AFFINITY PREDICTED BY RF-SCORE:    0.00 PKD
ROOT
HETATM    1  O   UNL     1     -10.996  10.772  66.676  1.00  0.00    -0.209 OA 
HETATM    2  C   UNL     1     -10.485  11.686  67.654  1.00  0.00    -0.191 C  
HETATM    3  H   UNL     1     -11.911  10.980  66.525  1.00  0.00     0.000 HD 
HETATM    4  C   UNL     1      -8.986  11.348  67.901  1.00  0.00    -0.153 C  
HETATM    5  C   UNL     1     -10.581  13.172  67.088  1.00  0.00    -0.259 C  
HETATM    6  C   UNL     1     -11.336  11.528  68.928  1.00  0.00    -0.331 A  
HETATM    7  C   UNL     1      -9.755  13.469  65.811  1.00  0.00    -0.156 C  
HETATM    8  C   UNL     1     -12.448  10.661  68.957  1.00  0.00     0.436 A  
HETATM    9  C   UNL     1     -11.918  12.211  71.201  1.00  0.00     0.342 A  
HETATM   10  C   UNL     1     -11.074  12.286  70.083  1.00  0.00     0.546 A  
HETATM   11  C   UNL     1     -13.284  10.587  70.072  1.00  0.00     0.362 A  
HETATM   12  C   UNL     1     -10.308  12.821  64.548  1.00  0.00    -0.373 C  
HETATM   13  C   UNL     1     -12.008  13.689  66.817  1.00  0.00    -0.458 C  
HETATM   14  C   UNL     1     -13.027  11.369  71.191  1.00  0.00    -0.349 A  
HETATM   15  C   UNL     1     -11.778  13.153  64.313  1.00  0.00    -0.447 C  
HETATM   16  C   UNL     1     -12.662  13.123  65.560  1.00  0.00    -0.367 C  
ENDROOT
BRANCH   4  17
HETATM   17  C   UNL     1      -8.643   9.911  68.334  1.00  0.00    -0.116 C  
BRANCH  17  18
HETATM   18  N   UNL     1      -7.461   9.860  69.230  1.00  0.00    -0.087 NA 
HETATM   19  C   UNL     1      -7.890   7.732  71.252  1.00  0.00    -0.086 C  
HETATM   20  C   UNL     1      -7.814  10.194  70.621  1.00  0.00     0.625 C  
HETATM   21  C   UNL     1      -8.587   9.087  71.351  1.00  0.00    -0.178 C  
HETATM   22  C   UNL     1      -7.471   7.422  69.819  1.00  0.00    -0.092 C  
HETATM   23  C   UNL     1      -6.702   8.598  69.217  1.00  0.00    -0.050 C  
ENDBRANCH  17  18
ENDBRANCH   4  17
TORSDOF 2
ENDMDL
MODEL      175
REMARK 921   NORMALIZED FREE ENERGY PREDICTED BY IDOCK:   -1.54 KCAL/MOL
REMARK 922        TOTAL FREE ENERGY PREDICTED BY IDOCK:   -2.18 KCAL/MOL
REMARK 923 INTER-LIGAND FREE ENERGY PREDICTED BY IDOCK:   -2.93 KCAL/MOL
REMARK 924 INTRA-LIGAND FREE ENERGY PREDICTED BY IDOCK:    0.75 KCAL/MOL
REMARK 927      BINDING AFFINITY PREDICTED BY RF-SCORE:    0.00 PKD
ROOT
HETATM    1  O   UNL     1      -8.387  15.296  67.715  1.00  0.00    -0.143 OA 
HETATM    2  C   UNL     1      -8.168  16.638  68.166  1.00  0.00    -0.192 C  
HETATM    3  H   UNL     1      -8.626  14.765  68.467  1.00  0.00     0.000 HD 
HETATM    4  C   UNL     1      -7.777  17.508  66.935  1.00  0.00    -0.248 C  
HETATM    5  C   UNL     1      -9.517  17.214  68.785  1.00  0.00    -0.263 C  
HETATM    6  C   UNL     1      -7.051  16.595  69.227  1.00  0.00    -0.212 A  
HETATM    7  C   UNL     1     -10.719  17.324  67.814  1.00  0.00    -0.333 C  
HETATM    8  C   UNL     1      -6.494  15.370  69.648  1.00  0.00    -0.171 A  
HETATM    9  C   UNL     1      -5.653  17.704  70.895  1.00  0.00     0.065 A  
HETATM   10  C   UNL     1      -6.594  17.766  69.857  1.00  0.00     0.159 A  
HETATM   11  C   UNL     1      -5.555  15.313  70.679  1.00  0.00    -0.107 A  
HETATM   12  C   UNL     1     -11.327  15.982  67.422  1.00  0.00     0.003 C  
HETATM   13  C   UNL     1     -10.034  16.488  70.043  1.00  0.00     0.392 C  
HETATM   14  C   UNL     1      -5.142  16.479  71.311  1.00  0.00    -0.061 A  
HETATM   15  C   UNL     1     -11.704  15.134  68.631  1.00  0.00    -0.364 C  
HETATM   16  C   UNL     1     -10.686  15.135  69.773  1.00  0.00    -0.288 C  
ENDROOT
BRANCH   4  17
HETATM   17  C   UNL     1      -6.565  17.057  66.101  1.00  0.00     0.066 C  
BRANCH  17  18
HETATM   18  N   UNL     1      -5.450  18.034  66.154  1.00  0.00    -0.170 NA 
HETATM   19  C   UNL     1      -6.559  20.766  65.825  1.00  0.00    -0.211 C  
HETATM   20  C   UNL     1      -5.303  18.766  64.884  1.00  0.00    -0.200 C  
HETATM   21  C   UNL     1      -6.394  19.817  64.639  1.00  0.00    -0.261 C  
HETATM   22  C   UNL     1      -6.647  20.004  67.143  1.00  0.00    -0.235 C  
HETATM   23  C   UNL     1      -5.498  19.003  67.263  1.00  0.00    -0.157 C  
ENDBRANCH  17  18
ENDBRANCH   4  17
TORSDOF 2
ENDMDL
MODEL      176
REMARK 921   NORMALIZED FREE ENERGY PREDICTED BY IDOCK:   -1.37 KCAL/MOL
REMARK 922        TOTAL FREE ENERGY PREDICTED BY IDOCK:   -1.99 KCAL/MOL
REMARK 923 INTER-LIGAND FREE ENERGY PREDICTED BY IDOCK:   -1.45 KCAL/MOL
REMARK 924 INTRA-LIGAND FREE ENERGY PREDICTED BY IDOCK:   -0.55 KCAL/MOL
REMARK 927      BINDING AFFINITY PREDICTED BY RF-SCORE:    0.00 PKD
ROOT
HETATM    1  O   UNL     1      -7.042   5.612  69.465  1.00  0.00    -0.061 OA 
HETATM    2  C   UNL     1      -8.028   4.635  69.821  1.00  0.00    -0.065 C  
HETATM    3  H   UNL     1      -6.296   5.158  69.090  1.00  0.00     0.000 HD 
HETATM    4  C   UNL     1      -9.250   5.377  70.436  1.00  0.00    -0.190 C  
HETATM    5  C   UNL     1      -8.507   3.868  68.511  1.00  0.00    -0.107 C  
HETATM    6  C   UNL     1      -7.375   3.660  70.821  1.00  0.00    -0.037 A  
HETATM    7  C   UNL     1      -9.196   4.735  67.428  1.00  0.00    -0.142 C  
HETATM    8  C   UNL     1      -6.014   3.777  71.167  1.00  0.00    -0.014 A  
HETATM    9  C   UNL     1      -7.464   1.644  72.198  1.00  0.00    -0.039 A  
HETATM   10  C   UNL     1      -8.095   2.585  71.372  1.00  0.00    -0.058 A  
HETATM   11  C   UNL     1      -5.389   2.839  71.992  1.00  0.00    -0.004 A  
HETATM   12  C   UNL     1      -8.250   5.669  66.684  1.00  0.00    -0.105 C  
HETATM   13  C   UNL     1      -7.423   3.044  67.789  1.00  0.00    -0.057 C  
HETATM   14  C   UNL     1      -6.111   1.766  72.499  1.00  0.00    -0.009 A  
HETATM   15  C   UNL     1      -7.052   4.937  66.088  1.00  0.00    -0.072 C  
HETATM   16  C   UNL     1      -6.423   3.873  66.988  1.00  0.00    -0.041 C  
ENDROOT
BRANCH   4  17
HETATM   17  C   UNL     1      -8.993   6.290  71.647  1.00  0.00    -0.144 C  
BRANCH  17  18
HETATM   18  N   UNL     1      -9.788   7.542  71.587  1.00  0.00    -0.162 NA 
HETATM   19  C   UNL     1      -8.074   9.709  70.509  1.00  0.00    -0.145 C  
HETATM   20  C   UNL     1      -9.234   8.584  72.471  1.00  0.00    -0.233 C  
HETATM   21  C   UNL     1      -7.939   9.220  71.949  1.00  0.00     0.558 C  
HETATM   22  C   UNL     1      -8.705   8.649  69.614  1.00  0.00    -0.132 C  
HETATM   23  C   UNL     1      -9.990   8.110  70.244  1.00  0.00    -0.189 C  
ENDBRANCH  17  18
ENDBRANCH   4  17
TORSDOF 2
ENDMDL
MODEL      177
REMARK 921   NORMALIZED FREE ENERGY PREDICTED BY IDOCK:   -1.25 KCAL/MOL
REMARK 922        TOTAL FREE ENERGY PREDICTED BY IDOCK:   -1.86 KCAL/MOL
REMARK 923 INTER-LIGAND FREE ENERGY PREDICTED BY IDOCK:   -1.55 KCAL/MOL
REMARK 924 INTRA-LIGAND FREE ENERGY PREDICTED BY IDOCK:   -0.31 KCAL/MOL
REMARK 927      BINDING AFFINITY PREDICTED BY RF-SCORE:    0.00 PKD
ROOT
HETATM    1  O   UNL     1     -10.511  11.712  67.992  1.00  0.00    -0.184 OA 
HETATM    2  C   UNL     1      -9.156  11.329  67.730  1.00  0.00    -0.152 C  
HETATM    3  H   UNL     1     -10.643  12.590  67.654  1.00  0.00     0.000 HD 
HETATM    4  C   UNL     1      -8.939   9.890  68.283  1.00  0.00    -0.119 C  
HETATM    5  C   UNL     1      -8.908  11.310  66.158  1.00  0.00    -0.194 C  
HETATM    6  C   UNL     1      -8.240  12.361  68.417  1.00  0.00    -0.144 A  
HETATM    7  C   UNL     1      -9.759  10.300  65.347  1.00  0.00    -0.340 C  
HETATM    8  C   UNL     1      -8.779  13.483  69.079  1.00  0.00     0.362 A  
HETATM    9  C   UNL     1      -6.017  13.254  68.893  1.00  0.00    -0.079 A  
HETATM   10  C   UNL     1      -6.840  12.255  68.355  1.00  0.00    -0.075 A  
HETATM   11  C   UNL     1      -7.956  14.475  69.617  1.00  0.00     0.227 A  
HETATM   12  C   UNL     1     -11.231  10.676  65.234  1.00  0.00     0.538 C  
HETATM   13  C   UNL     1      -9.046  12.670  65.446  1.00  0.00     0.559 C  
HETATM   14  C   UNL     1      -6.575  14.367  69.515  1.00  0.00    -0.141 A  
HETATM   15  C   UNL     1     -11.436  12.088  64.696  1.00  0.00    -0.371 C  
HETATM   16  C   UNL     1     -10.484  13.146  65.256  1.00  0.00    -0.319 C  
ENDROOT
BRANCH   4  17
HETATM   17  C   UNL     1      -9.248   9.646  69.770  1.00  0.00    -0.219 C  
BRANCH  17  18
HETATM   18  N   UNL     1      -8.319   8.664  70.384  1.00  0.00    -0.120 NA 
HETATM   19  C   UNL     1      -9.600   5.989  70.347  1.00  0.00    -0.194 C  
HETATM   20  C   UNL     1      -8.882   8.074  71.612  1.00  0.00    -0.139 C  
HETATM   21  C   UNL     1     -10.005   7.059  71.359  1.00  0.00    -0.190 C  
HETATM   22  C   UNL     1      -8.962   6.603  69.106  1.00  0.00    -0.131 C  
HETATM   23  C   UNL     1      -7.855   7.581  69.500  1.00  0.00    -0.120 C  
ENDBRANCH  17  18
ENDBRANCH   4  17
TORSDOF 2
ENDMDL
MODEL      178
REMARK 921   NORMALIZED FREE ENERGY PREDICTED BY IDOCK:   -1.23 KCAL/MOL
REMARK 922        TOTAL FREE ENERGY PREDICTED BY IDOCK:   -1.84 KCAL/MOL
REMARK 923 INTER-LIGAND FREE ENERGY PREDICTED BY IDOCK:   -2.15 KCAL/MOL
REMARK 924 INTRA-LIGAND FREE ENERGY PREDICTED BY IDOCK:    0.31 KCAL/MOL
REMARK 927      BINDING AFFINITY PREDICTED BY RF-SCORE:    0.00 PKD
ROOT
HETATM    1  O   UNL     1      -9.792  13.710  65.667  1.00  0.00    -0.415 OA 
HETATM    2  C   UNL     1     -10.426  12.741  66.510  1.00  0.00    -0.263 C  
HETATM    3  H   UNL     1      -9.413  13.255  64.923  1.00  0.00     0.000 HD 
HETATM    4  C   UNL     1     -11.048  13.485  67.728  1.00  0.00    -0.291 C  
HETATM    5  C   UNL     1     -11.598  12.026  65.702  1.00  0.00    -0.356 C  
HETATM    6  C   UNL     1      -9.352  11.722  66.936  1.00  0.00    -0.197 A  
HETATM    7  C   UNL     1     -12.754  12.941  65.227  1.00  0.00    -0.389 C  
HETATM    8  C   UNL     1      -8.036  11.801  66.437  1.00  0.00     0.065 A  
HETATM    9  C   UNL     1      -8.702   9.664  68.082  1.00  0.00    -0.119 A  
HETATM   10  C   UNL     1      -9.660  10.644  67.784  1.00  0.00    -0.172 A  
HETATM   11  C   UNL     1      -7.083  10.826  66.738  1.00  0.00    -0.127 A  
HETATM   12  C   UNL     1     -12.376  13.880  64.088  1.00  0.00    -0.380 C  
HETATM   13  C   UNL     1     -11.155  11.206  64.474  1.00  0.00    -0.166 C  
HETATM   14  C   UNL     1      -7.418   9.751  67.551  1.00  0.00    -0.091 A  
HETATM   15  C   UNL     1     -11.765  13.145  62.900  1.00  0.00     0.647 C  
HETATM   16  C   UNL     1     -10.769  12.041  63.257  1.00  0.00    -0.400 C  
ENDROOT
BRANCH   4  17
HETATM   17  C   UNL     1     -10.110  14.354  68.584  1.00  0.00    -0.242 C  
BRANCH  17  18
HETATM   18  N   UNL     1     -10.452  14.298  70.027  1.00  0.00     0.315 NA 
HETATM   19  C   UNL     1     -13.392  14.564  70.322  1.00  0.00     0.267 C  
HETATM   20  C   UNL     1     -11.057  15.557  70.495  1.00  0.00    -0.345 C  
HETATM   21  C   UNL     1     -12.501  15.769  70.021  1.00  0.00    -0.178 C  
HETATM   22  C   UNL     1     -12.731  13.259  69.892  1.00  0.00     0.175 C  
HETATM   23  C   UNL     1     -11.307  13.172  70.440  1.00  0.00     0.513 C  
ENDBRANCH  17  18
ENDBRANCH   4  17
TORSDOF 2
ENDMDL
MODEL      179
REMARK 921   NORMALIZED FREE ENERGY PREDICTED BY IDOCK:   -1.14 KCAL/MOL
REMARK 922        TOTAL FREE ENERGY PREDICTED BY IDOCK:   -1.74 KCAL/MOL
REMARK 923 INTER-LIGAND FREE ENERGY PREDICTED BY IDOCK:   -1.32 KCAL/MOL
REMARK 924 INTRA-LIGAND FREE ENERGY PREDICTED BY IDOCK:   -0.42 KCAL/MOL
REMARK 927      BINDING AFFINITY PREDICTED BY RF-SCORE:    0.00 PKD
ROOT
HETATM    1  O   UNL     1      -6.281   6.183  70.323  1.00  0.00    -0.029 OA 
HETATM    2  C   UNL     1      -7.479   6.497  71.041  1.00  0.00    -0.085 C  
HETATM    3  H   UNL     1      -5.643   5.845  70.942  1.00  0.00     0.000 HD 
HETATM    4  C   UNL     1      -8.524   7.051  70.029  1.00  0.00    -0.140 C  
HETATM    5  C   UNL     1      -8.064   5.170  71.697  1.00  0.00    -0.115 C  
HETATM    6  C   UNL     1      -7.114   7.530  72.125  1.00  0.00    -0.067 A  
HETATM    7  C   UNL     1      -8.486   4.052  70.711  1.00  0.00    -0.097 C  
HETATM    8  C   UNL     1      -5.779   7.939  72.320  1.00  0.00    -0.036 A  
HETATM    9  C   UNL     1      -7.727   8.911  74.046  1.00  0.00     0.316 A  
HETATM   10  C   UNL     1      -8.086   8.052  72.997  1.00  0.00    -0.222 A  
HETATM   11  C   UNL     1      -5.425   8.796  73.364  1.00  0.00    -0.091 A  
HETATM   12  C   UNL     1      -7.318   3.348  70.032  1.00  0.00    -0.041 C  
HETATM   13  C   UNL     1      -7.168   4.502  72.759  1.00  0.00    -0.081 C  
HETATM   14  C   UNL     1      -6.397   9.274  74.234  1.00  0.00     0.162 A  
HETATM   15  C   UNL     1      -6.296   2.812  71.028  1.00  0.00    -0.019 C  
HETATM   16  C   UNL     1      -5.969   3.745  72.195  1.00  0.00    -0.009 C  
ENDROOT
BRANCH   4  17
HETATM   17  C   UNL     1      -8.117   8.268  69.181  1.00  0.00    -0.120 C  
BRANCH  17  18
HETATM   18  N   UNL     1      -8.931   8.393  67.946  1.00  0.00    -0.137 NA 
HETATM   19  C   UNL     1      -7.469   7.107  65.708  1.00  0.00    -0.081 C  
HETATM   20  C   UNL     1      -8.248   9.201  66.921  1.00  0.00    -0.116 C  
HETATM   21  C   UNL     1      -7.075   8.483  66.239  1.00  0.00    -0.078 C  
HETATM   22  C   UNL     1      -8.231   6.300  66.754  1.00  0.00    -0.110 C  
HETATM   23  C   UNL     1      -9.375   7.126  67.341  1.00  0.00    -0.127 C  
ENDBRANCH  17  18
ENDBRANCH   4  17
TORSDOF 2
ENDMDL
MODEL      180
REMARK 921   NORMALIZED FREE ENERGY PREDICTED BY IDOCK:   -1.00 KCAL/MOL
REMARK 922        TOTAL FREE ENERGY PREDICTED BY IDOCK:   -1.58 KCAL/MOL
REMARK 923 INTER-LIGAND FREE ENERGY PREDICTED BY IDOCK:   -1.94 KCAL/MOL
REMARK 924 INTRA-LIGAND FREE ENERGY PREDICTED BY IDOCK:    0.36 KCAL/MOL
REMARK 927      BINDING AFFINITY PREDICTED BY RF-SCORE:    0.00 PKD
ROOT
HETATM    1  O   UNL     1      -6.719   7.494  65.630  1.00  0.00    -0.045 OA 
HETATM    2  C   UNL     1      -7.979   7.677  64.973  1.00  0.00    -0.131 C  
HETATM    3  H   UNL     1      -6.505   8.298  66.090  1.00  0.00     0.000 HD 
HETATM    4  C   UNL     1      -8.331   6.362  64.219  1.00  0.00     0.074 C  
HETATM    5  C   UNL     1      -9.107   7.954  66.062  1.00  0.00    -0.181 C  
HETATM    6  C   UNL     1      -7.834   8.876  64.016  1.00  0.00    -0.137 A  
HETATM    7  C   UNL     1      -9.363   6.815  67.081  1.00  0.00    -0.154 C  
HETATM    8  C   UNL     1      -6.640   9.625  63.963  1.00  0.00    -0.112 A  
HETATM    9  C   UNL     1      -8.795  10.459  62.421  1.00  0.00    -0.279 A  
HETATM   10  C   UNL     1      -8.904   9.304  63.210  1.00  0.00    -0.159 A  
HETATM   11  C   UNL     1      -6.534  10.772  63.175  1.00  0.00     0.139 A  
HETATM   12  C   UNL     1      -8.249   6.632  68.103  1.00  0.00    -0.114 C  
HETATM   13  C   UNL     1      -8.934   9.247  66.884  1.00  0.00    -0.149 C  
HETATM   14  C   UNL     1      -7.615  11.196  62.412  1.00  0.00     0.003 A  
HETATM   15  C   UNL     1      -7.905   7.924  68.835  1.00  0.00    -0.117 C  
HETATM   16  C   UNL     1      -7.854   9.177  67.960  1.00  0.00    -0.100 C  
ENDROOT
BRANCH   4  17
HETATM   17  C   UNL     1      -7.309   5.831  63.199  1.00  0.00    -0.060 C  
BRANCH  17  18
HETATM   18  N   UNL     1      -7.144   4.358  63.281  1.00  0.00    -0.044 NA 
HETATM   19  C   UNL     1      -7.953   3.458  65.989  1.00  0.00    -0.092 C  
HETATM   20  C   UNL     1      -6.137   3.976  64.287  1.00  0.00    -0.018 C  
HETATM   21  C   UNL     1      -6.611   4.141  65.737  1.00  0.00    -0.044 C  
HETATM   22  C   UNL     1      -8.971   3.808  64.909  1.00  0.00    -0.126 C  
HETATM   23  C   UNL     1      -8.377   3.587  63.519  1.00  0.00    -0.090 C  
ENDBRANCH  17  18
ENDBRANCH   4  17
TORSDOF 2
ENDMDL
MODEL      181
REMARK 921   NORMALIZED FREE ENERGY PREDICTED BY IDOCK:   -0.92 KCAL/MOL
REMARK 922        TOTAL FREE ENERGY PREDICTED BY IDOCK:   -1.49 KCAL/MOL
REMARK 923 INTER-LIGAND FREE ENERGY PREDICTED BY IDOCK:   -0.91 KCAL/MOL
REMARK 924 INTRA-LIGAND FREE ENERGY PREDICTED BY IDOCK:   -0.58 KCAL/MOL
REMARK 927      BINDING AFFINITY PREDICTED BY RF-SCORE:    0.00 PKD
ROOT
HETATM    1  O   UNL     1     -10.992  15.878  68.391  1.00  0.00    -0.297 OA 
HETATM    2  C   UNL     1      -9.998  15.699  69.407  1.00  0.00    -0.279 C  
HETATM    3  H   UNL     1     -11.304  15.020  68.126  1.00  0.00     0.000 HD 
HETATM    4  C   UNL     1      -9.487  17.104  69.842  1.00  0.00     1.047 C  
HETATM    5  C   UNL     1     -10.657  14.987  70.670  1.00  0.00     0.016 C  
HETATM    6  C   UNL     1      -8.875  14.830  68.810  1.00  0.00    -0.179 A  
HETATM    7  C   UNL     1     -11.795  15.767  71.374  1.00  0.00    -0.503 C  
HETATM    8  C   UNL     1      -8.980  14.299  67.509  1.00  0.00    -0.197 A  
HETATM    9  C   UNL     1      -6.773  13.607  69.047  1.00  0.00    -0.111 A  
HETATM   10  C   UNL     1      -7.738  14.483  69.563  1.00  0.00     0.065 A  
HETATM   11  C   UNL     1      -8.015  13.428  66.997  1.00  0.00     0.023 A  
HETATM   12  C   UNL     1     -13.092  15.829  70.578  1.00  0.00     0.034 C  
HETATM   13  C   UNL     1     -11.189  13.561  70.426  1.00  0.00     0.453 C  
HETATM   14  C   UNL     1      -6.917  13.073  67.770  1.00  0.00    -0.143 A  
HETATM   15  C   UNL     1     -13.585  14.451  70.152  1.00  0.00     0.942 C  
HETATM   16  C   UNL     1     -12.502  13.495  69.651  1.00  0.00    -0.107 C  
ENDROOT
BRANCH   4  17
HETATM   17  C   UNL     1      -8.921  18.025  68.748  1.00  0.00    -0.210 C  
BRANCH  17  18
HETATM   18  N   UNL     1      -9.792  18.074  67.547  1.00  0.00    -0.299 NA 
HETATM   19  C   UNL     1      -8.948  20.356  65.850  1.00  0.00     0.075 C  
HETATM   20  C   UNL     1     -10.583  19.316  67.496  1.00  0.00    -0.474 C  
HETATM   21  C   UNL     1      -9.767  20.561  67.123  1.00  0.00    -0.581 C  
HETATM   22  C   UNL     1      -8.181  19.039  65.884  1.00  0.00    -0.011 C  
HETATM   23  C   UNL     1      -9.112  17.884  66.254  1.00  0.00    -0.176 C  
ENDBRANCH  17  18
ENDBRANCH   4  17
TORSDOF 2
ENDMDL
MODEL      182
REMARK 921   NORMALIZED FREE ENERGY PREDICTED BY IDOCK:   -0.08 KCAL/MOL
REMARK 922        TOTAL FREE ENERGY PREDICTED BY IDOCK:   -0.56 KCAL/MOL
REMARK 923 INTER-LIGAND FREE ENERGY PREDICTED BY IDOCK:   -0.76 KCAL/MOL
REMARK 924 INTRA-LIGAND FREE ENERGY PREDICTED BY IDOCK:    0.20 KCAL/MOL
REMARK 927      BINDING AFFINITY PREDICTED BY RF-SCORE:    0.00 PKD
ROOT
HETATM    1  O   UNL     1     -12.758  12.037  69.050  1.00  0.00     0.299 OA 
HETATM    2  C   UNL     1     -11.499  12.706  68.923  1.00  0.00    -0.306 C  
HETATM    3  H   UNL     1     -12.793  11.629  69.908  1.00  0.00     0.000 HD 
HETATM    4  C   UNL     1     -11.441  13.374  67.518  1.00  0.00    -0.357 C  
HETATM    5  C   UNL     1     -11.393  13.845  70.030  1.00  0.00    -0.127 C  
HETATM    6  C   UNL     1     -10.391  11.652  69.112  1.00  0.00    -0.045 A  
HETATM    7  C   UNL     1     -12.444  14.980  69.942  1.00  0.00    -0.269 C  
HETATM    8  C   UNL     1     -10.706  10.316  69.436  1.00  0.00    -0.272 A  
HETATM    9  C   UNL     1      -8.030  11.052  69.309  1.00  0.00    -0.034 A  
HETATM   10  C   UNL     1      -9.030  11.996  69.032  1.00  0.00     0.342 A  
HETATM   11  C   UNL     1      -9.708   9.378  69.709  1.00  0.00    -0.215 A  
HETATM   12  C   UNL     1     -13.852  14.554  70.338  1.00  0.00     0.758 C  
HETATM   13  C   UNL     1     -11.398  13.355  71.491  1.00  0.00     2.499 C  
HETATM   14  C   UNL     1      -8.370   9.748  69.656  1.00  0.00    -0.180 A  
HETATM   15  C   UNL     1     -13.902  13.897  71.713  1.00  0.00    -0.443 C  
HETATM   16  C   UNL     1     -12.765  12.919  72.011  1.00  0.00    -0.149 C  
ENDROOT
BRANCH   4  17
HETATM   17  C   UNL     1     -11.651  12.470  66.291  1.00  0.00    -0.394 C  
BRANCH  17  18
HETATM   18  N   UNL     1     -10.823  12.890  65.133  1.00  0.00    -0.289 NA 
HETATM   19  C   UNL     1     -11.328  15.762  64.590  1.00  0.00    -0.343 C  
HETATM   20  C   UNL     1     -11.653  13.313  63.991  1.00  0.00    -0.409 C  
HETATM   21  C   UNL     1     -12.325  14.679  64.181  1.00  0.00    -0.294 C  
HETATM   22  C   UNL     1     -10.430  15.294  65.731  1.00  0.00    -0.365 C  
HETATM   23  C   UNL     1      -9.818  13.931  65.408  1.00  0.00    -0.163 C  
ENDBRANCH  17  18
ENDBRANCH   4  17
TORSDOF 2
ENDMDL
MODEL      183
REMARK 921   NORMALIZED FREE ENERGY PREDICTED BY IDOCK:    2.17 KCAL/MOL
REMARK 922        TOTAL FREE ENERGY PREDICTED BY IDOCK:    1.95 KCAL/MOL
REMARK 923 INTER-LIGAND FREE ENERGY PREDICTED BY IDOCK:    2.09 KCAL/MOL
REMARK 924 INTRA-LIGAND FREE ENERGY PREDICTED BY IDOCK:   -0.14 KCAL/MOL
REMARK 927      BINDING AFFINITY PREDICTED BY RF-SCORE:    0.00 PKD
ROOT
HETATM    1  O   UNL     1      -8.289  16.603  66.941  1.00  0.00    -0.176 OA 
HETATM    2  C   UNL     1      -7.970  17.373  68.106  1.00  0.00    -0.233 C  
HETATM    3  H   UNL     1      -8.155  17.151  66.176  1.00  0.00     0.000 HD 
HETATM    4  C   UNL     1      -8.190  16.477  69.359  1.00  0.00     0.066 C  
HETATM    5  C   UNL     1      -6.437  17.800  68.052  1.00  0.00    -0.183 C  
HETATM    6  C   UNL     1      -8.886  18.613  68.108  1.00  0.00    -0.335 A  
HETATM    7  C   UNL     1      -5.408  16.643  68.060  1.00  0.00    -0.123 C  
HETATM    8  C   UNL     1      -9.773  18.864  67.042  1.00  0.00    -0.349 A  
HETATM    9  C   UNL     1      -9.585  20.744  69.078  1.00  0.00     0.900 A  
HETATM   10  C   UNL     1      -8.823  19.568  69.138  1.00  0.00    -0.125 A  
HETATM   11  C   UNL     1     -10.532  20.034  66.986  1.00  0.00    -0.513 A  
HETATM   12  C   UNL     1      -5.358  15.846  66.762  1.00  0.00     0.768 C  
HETATM   13  C   UNL     1      -6.046  18.727  66.884  1.00  0.00    -0.175 C  
HETATM   14  C   UNL     1     -10.431  20.980  67.998  1.00  0.00     0.750 A  
HETATM   15  C   UNL     1      -5.146  16.729  65.538  1.00  0.00     1.874 C  
HETATM   16  C   UNL     1      -5.944  18.034  65.528  1.00  0.00    -0.195 C  
ENDROOT
BRANCH   4  17
HETATM   17  C   UNL     1      -9.580  15.844  69.546  1.00  0.00    -0.239 C  
BRANCH  17  18
HETATM   18  N   UNL     1     -10.621  16.853  69.864  1.00  0.00    -0.144 NA 
HETATM   19  C   UNL     1     -12.941  15.474  71.094  1.00  0.00    -0.560 C  
HETATM   20  C   UNL     1     -11.859  16.620  69.099  1.00  0.00     0.487 C  
HETATM   21  C   UNL     1     -12.679  15.419  69.591  1.00  0.00     0.047 C  
HETATM   22  C   UNL     1     -11.666  15.778  71.874  1.00  0.00    -0.572 C  
HETATM   23  C   UNL     1     -10.957  16.999  71.290  1.00  0.00     1.119 C  
ENDBRANCH  17  18
ENDBRANCH   4  17
TORSDOF 2
ENDMDL
MODEL      184
REMARK 921   NORMALIZED FREE ENERGY PREDICTED BY IDOCK:    2.81 KCAL/MOL
REMARK 922        TOTAL FREE ENERGY PREDICTED BY IDOCK:    2.68 KCAL/MOL
REMARK 923 INTER-LIGAND FREE ENERGY PREDICTED BY IDOCK:    2.61 KCAL/MOL
REMARK 924 INTRA-LIGAND FREE ENERGY PREDICTED BY IDOCK:    0.07 KCAL/MOL
REMARK 927      BINDING AFFINITY PREDICTED BY RF-SCORE:    0.00 PKD
ROOT
HETATM    1  O   UNL     1      -8.127  15.842  66.499  1.00  0.00    -0.265 OA 
HETATM    2  C   UNL     1      -8.041  16.416  67.809  1.00  0.00    -0.157 C  
HETATM    3  H   UNL     1      -8.236  16.548  65.872  1.00  0.00     0.000 HD 
HETATM    4  C   UNL     1      -7.862  15.261  68.837  1.00  0.00    -0.165 C  
HETATM    5  C   UNL     1      -6.765  17.365  67.886  1.00  0.00    -0.179 C  
HETATM    6  C   UNL     1      -9.336  17.217  68.051  1.00  0.00    -0.254 A  
HETATM    7  C   UNL     1      -5.392  16.678  67.674  1.00  0.00    -0.156 C  
HETATM    8  C   UNL     1     -10.309  17.348  67.040  1.00  0.00    -0.318 A  
HETATM    9  C   UNL     1     -10.694  18.705  69.433  1.00  0.00     1.030 A  
HETATM   10  C   UNL     1      -9.562  17.895  69.262  1.00  0.00     0.065 A  
HETATM   11  C   UNL     1     -11.436  18.153  67.214  1.00  0.00     1.017 A  
HETATM   12  C   UNL     1      -5.132  16.239  66.239  1.00  0.00     1.248 C  
HETATM   13  C   UNL     1      -6.790  18.591  66.952  1.00  0.00    -0.210 C  
HETATM   14  C   UNL     1     -11.624  18.841  68.406  1.00  0.00     2.084 A  
HETATM   15  C   UNL     1      -5.312  17.374  65.236  1.00  0.00     0.745 C  
HETATM   16  C   UNL     1      -6.520  18.278  65.483  1.00  0.00    -0.277 C  
ENDROOT
BRANCH   4  17
HETATM   17  C   UNL     1      -8.925  14.149  68.849  1.00  0.00     0.019 C  
BRANCH  17  18
HETATM   18  N   UNL     1      -9.033  13.459  67.539  1.00  0.00    -0.196 NA 
HETATM   19  C   UNL     1     -11.680  12.131  67.377  1.00  0.00    -0.374 C  
HETATM   20  C   UNL     1      -9.162  12.000  67.699  1.00  0.00    -0.182 C  
HETATM   21  C   UNL     1     -10.538  11.547  68.205  1.00  0.00    -0.228 C  
HETATM   22  C   UNL     1     -11.507  13.631  67.163  1.00  0.00    -0.367 C  
HETATM   23  C   UNL     1     -10.102  13.941  66.648  1.00  0.00    -0.273 C  
ENDBRANCH  17  18
ENDBRANCH   4  17
TORSDOF 2
ENDMDL
MODEL      185
REMARK 921   NORMALIZED FREE ENERGY PREDICTED BY IDOCK:    8.08 KCAL/MOL
REMARK 922        TOTAL FREE ENERGY PREDICTED BY IDOCK:    8.56 KCAL/MOL
REMARK 923 INTER-LIGAND FREE ENERGY PREDICTED BY IDOCK:    8.23 KCAL/MOL
REMARK 924 INTRA-LIGAND FREE ENERGY PREDICTED BY IDOCK:    0.34 KCAL/MOL
REMARK 927      BINDING AFFINITY PREDICTED BY RF-SCORE:    0.00 PKD
ROOT
HETATM    1  O   UNL     1     -12.056  14.366  69.529  1.00  0.00    -0.313 OA 
HETATM    2  C   UNL     1     -11.215  13.720  70.492  1.00  0.00     0.486 C  
HETATM    3  H   UNL     1     -12.961  14.197  69.764  1.00  0.00     0.000 HD 
HETATM    4  C   UNL     1      -9.732  13.996  70.108  1.00  0.00     1.806 C  
HETATM    5  C   UNL     1     -11.489  14.341  71.932  1.00  0.00     0.808 C  
HETATM    6  C   UNL     1     -11.553  12.216  70.469  1.00  0.00     0.188 A  
HETATM    7  C   UNL     1     -11.175  15.849  72.094  1.00  0.00    -0.017 C  
HETATM    8  C   UNL     1     -12.591  11.716  69.656  1.00  0.00     0.093 A  
HETATM    9  C   UNL     1     -11.268   9.955  71.349  1.00  0.00    -0.279 A  
HETATM   10  C   UNL     1     -10.883  11.302  71.301  1.00  0.00     3.125 A  
HETATM   11  C   UNL     1     -12.970  10.374  69.704  1.00  0.00     0.624 A  
HETATM   12  C   UNL     1     -12.154  16.769  71.375  1.00  0.00     0.989 C  
HETATM   13  C   UNL     1     -12.911  14.127  72.489  1.00  0.00    -0.433 C  
HETATM   14  C   UNL     1     -12.317   9.494  70.559  1.00  0.00    -0.047 A  
HETATM   15  C   UNL     1     -13.605  16.491  71.753  1.00  0.00     2.592 C  
HETATM   16  C   UNL     1     -13.981  15.013  71.857  1.00  0.00    -0.604 C  
ENDROOT
BRANCH   4  17
HETATM   17  C   UNL     1      -9.275  13.591  68.696  1.00  0.00    -0.022 C  
BRANCH  17  18
HETATM   18  N   UNL     1      -9.856  12.294  68.266  1.00  0.00    -0.215 NA 
HETATM   19  C   UNL     1      -8.474  11.401  65.798  1.00  0.00     0.051 C  
HETATM   20  C   UNL     1     -10.510  12.397  66.950  1.00  0.00    -0.224 C  
HETATM   21  C   UNL     1      -9.531  12.504  65.773  1.00  0.00    -0.066 C  
HETATM   22  C   UNL     1      -7.846  11.258  67.180  1.00  0.00    -0.151 C  
HETATM   23  C   UNL     1      -8.929  11.150  68.253  1.00  0.00    -0.166 C  
ENDBRANCH  17  18
ENDBRANCH   4  17
TORSDOF 2
ENDMDL
MODEL      186
REMARK 921   NORMALIZED FREE ENERGY PREDICTED BY IDOCK:   22.82 KCAL/MOL
REMARK 922        TOTAL FREE ENERGY PREDICTED BY IDOCK:   25.02 KCAL/MOL
REMARK 923 INTER-LIGAND FREE ENERGY PREDICTED BY IDOCK:   24.33 KCAL/MOL
REMARK 924 INTRA-LIGAND FREE ENERGY PREDICTED BY IDOCK:    0.69 KCAL/MOL
REMARK 927      BINDING AFFINITY PREDICTED BY RF-SCORE:    0.00 PKD
ROOT
HETATM    1  O   UNL     1      -9.856  17.391  70.337  1.00  0.00     1.379 OA 
HETATM    2  C   UNL     1      -8.897  17.790  69.350  1.00  0.00     0.476 C  
HETATM    3  H   UNL     1      -9.441  17.440  71.191  1.00  0.00     0.000 HD 
HETATM    4  C   UNL     1      -9.575  17.711  67.951  1.00  0.00    -0.282 C  
HETATM    5  C   UNL     1      -8.462  19.298  69.617  1.00  0.00     0.441 C  
HETATM    6  C   UNL     1      -7.688  16.841  69.466  1.00  0.00     0.232 A  
HETATM    7  C   UNL     1      -9.587  20.359  69.516  1.00  0.00     0.580 C  
HETATM    8  C   UNL     1      -7.632  15.854  70.471  1.00  0.00     1.637 A  
HETATM    9  C   UNL     1      -5.436  16.168  68.799  1.00  0.00    -0.108 A  
HETATM   10  C   UNL     1      -6.574  16.967  68.618  1.00  0.00    -0.177 A  
HETATM   11  C   UNL     1      -6.499  15.058  70.647  1.00  0.00     0.121 A  
HETATM   12  C   UNL     1     -10.588  20.315  70.663  1.00  0.00     1.949 C  
HETATM   13  C   UNL     1      -7.737  19.555  70.953  1.00  0.00     1.952 C  
HETATM   14  C   UNL     1      -5.396  15.222  69.819  1.00  0.00    -0.100 A  
HETATM   15  C   UNL     1      -9.918  20.389  72.030  1.00  0.00     3.179 C  
HETATM   16  C   UNL     1      -8.645  19.555  72.180  1.00  0.00     4.736 C  
ENDROOT
BRANCH   4  17
HETATM   17  C   UNL     1     -10.189  16.364  67.533  1.00  0.00    -0.273 C  
BRANCH  17  18
HETATM   18  N   UNL     1     -10.447  16.290  66.074  1.00  0.00    -0.336 NA 
HETATM   19  C   UNL     1      -8.777  18.326  64.707  1.00  0.00     4.762 C  
HETATM   20  C   UNL     1     -11.039  17.538  65.560  1.00  0.00     0.382 C  
HETATM   21  C   UNL     1     -10.048  18.706  65.465  1.00  0.00     0.400 C  
HETATM   22  C   UNL     1      -8.205  17.001  65.202  1.00  0.00     2.869 C  
HETATM   23  C   UNL     1      -9.291  15.927  65.236  1.00  0.00     0.508 C  
ENDBRANCH  17  18
ENDBRANCH   4  17
TORSDOF 2
ENDMDL
MODEL      187
REMARK 921   NORMALIZED FREE ENERGY PREDICTED BY IDOCK:   26.58 KCAL/MOL
REMARK 922        TOTAL FREE ENERGY PREDICTED BY IDOCK:   29.22 KCAL/MOL
REMARK 923 INTER-LIGAND FREE ENERGY PREDICTED BY IDOCK:   29.93 KCAL/MOL
REMARK 924 INTRA-LIGAND FREE ENERGY PREDICTED BY IDOCK:   -0.71 KCAL/MOL
REMARK 927      BINDING AFFINITY PREDICTED BY RF-SCORE:    0.00 PKD
ROOT
HETATM    1  O   UNL     1      -7.045  18.325  68.215  1.00  0.00    -0.232 OA 
HETATM    2  C   UNL     1      -8.094  18.108  67.264  1.00  0.00    -0.225 C  
HETATM    3  H   UNL     1      -6.224  18.057  67.818  1.00  0.00     0.000 HD 
HETATM    4  C   UNL     1      -9.440  18.546  67.913  1.00  0.00    -0.316 C  
HETATM    5  C   UNL     1      -7.835  19.010  65.978  1.00  0.00    -0.226 C  
HETATM    6  C   UNL     1      -8.085  16.611  66.895  1.00  0.00    -0.249 A  
HETATM    7  C   UNL     1      -7.834  20.542  66.210  1.00  0.00    -0.062 C  
HETATM    8  C   UNL     1      -7.104  15.741  67.412  1.00  0.00    -0.236 A  
HETATM    9  C   UNL     1      -8.930  14.736  65.576  1.00  0.00     0.950 A  
HETATM   10  C   UNL     1      -9.013  16.076  65.984  1.00  0.00    -0.345 A  
HETATM   11  C   UNL     1      -7.027  14.407  67.006  1.00  0.00     0.605 A  
HETATM   12  C   UNL     1      -6.616  21.055  66.968  1.00  0.00    -0.413 C  
HETATM   13  C   UNL     1      -6.553  18.686  65.186  1.00  0.00    -0.133 C  
HETATM   14  C   UNL     1      -7.932  13.907  66.079  1.00  0.00     2.393 A  
HETATM   15  C   UNL     1      -5.302  20.620  66.329  1.00  0.00    -0.210 C  
HETATM   16  C   UNL     1      -5.262  19.172  65.838  1.00  0.00    -0.169 C  
ENDROOT
BRANCH   4  17
HETATM   17  C   UNL     1      -9.833  17.889  69.247  1.00  0.00    -0.043 C  
BRANCH  17  18
HETATM   18  N   UNL     1      -8.915  18.263  70.351  1.00  0.00     2.865 NA 
HETATM   19  C   UNL     1     -10.474  18.443  72.868  1.00  0.00     4.062 C  
HETATM   20  C   UNL     1      -9.266  19.569  70.935  1.00  0.00     2.381 C  
HETATM   21  C   UNL     1     -10.527  19.543  71.810  1.00  0.00     3.490 C  
HETATM   22  C   UNL     1     -10.049  17.108  72.267  1.00  0.00     6.759 C  
HETATM   23  C   UNL     1      -8.778  17.274  71.434  1.00  0.00     9.286 C  
ENDBRANCH  17  18
ENDBRANCH   4  17
TORSDOF 2
ENDMDL
MODEL      188
REMARK 921   NORMALIZED FREE ENERGY PREDICTED BY IDOCK:   26.61 KCAL/MOL
REMARK 922        TOTAL FREE ENERGY PREDICTED BY IDOCK:   29.25 KCAL/MOL
REMARK 923 INTER-LIGAND FREE ENERGY PREDICTED BY IDOCK:   25.16 KCAL/MOL
REMARK 924 INTRA-LIGAND FREE ENERGY PREDICTED BY IDOCK:    4.09 KCAL/MOL
REMARK 927      BINDING AFFINITY PREDICTED BY RF-SCORE:    0.00 PKD
ROOT
HETATM    1  O   UNL     1      -6.521  15.859  69.795  1.00  0.00    -0.182 OA 
HETATM    2  C   UNL     1      -7.904  15.773  69.431  1.00  0.00    -0.210 C  
HETATM    3  H   UNL     1      -6.469  16.023  70.730  1.00  0.00     0.000 HD 
HETATM    4  C   UNL     1      -7.990  15.504  67.901  1.00  0.00    -0.146 C  
HETATM    5  C   UNL     1      -8.576  14.551  70.199  1.00  0.00     1.166 C  
HETATM    6  C   UNL     1      -8.572  17.104  69.827  1.00  0.00     1.185 A  
HETATM    7  C   UNL     1      -8.003  13.147  69.878  1.00  0.00     1.952 C  
HETATM    8  C   UNL     1      -7.849  18.109  70.502  1.00  0.00     3.516 A  
HETATM    9  C   UNL     1     -10.559  18.509  70.045  1.00  0.00     1.522 A  
HETATM   10  C   UNL     1      -9.938  17.338  69.587  1.00  0.00     0.209 A  
HETATM   11  C   UNL     1      -8.470  19.274  70.954  1.00  0.00     3.250 A  
HETATM   12  C   UNL     1      -6.612  12.899  70.446  1.00  0.00     0.611 C  
HETATM   13  C   UNL     1      -8.610  14.669  71.736  1.00  0.00     5.480 C  
HETATM   14  C   UNL     1      -9.828  19.471  70.736  1.00  0.00     1.634 A  
HETATM   15  C   UNL     1      -6.533  13.168  71.944  1.00  0.00     2.733 C  
HETATM   16  C   UNL     1      -7.271  14.418  72.423  1.00  0.00     3.830 C  
ENDROOT
BRANCH   4  17
HETATM   17  C   UNL     1      -7.289  16.501  66.962  1.00  0.00    -0.210 C  
BRANCH  17  18
HETATM   18  N   UNL     1      -6.149  17.187  67.620  1.00  0.00    -0.131 NA 
HETATM   19  C   UNL     1      -6.132  20.031  66.775  1.00  0.00    -0.193 C  
HETATM   20  C   UNL     1      -5.168  17.682  66.638  1.00  0.00    -0.165 C  
HETATM   21  C   UNL     1      -5.637  18.916  65.855  1.00  0.00    -0.189 C  
HETATM   22  C   UNL     1      -7.098  19.500  67.829  1.00  0.00    -0.286 C  
HETATM   23  C   UNL     1      -6.503  18.283  68.538  1.00  0.00    -0.221 C  
ENDBRANCH  17  18
ENDBRANCH   4  17
TORSDOF 2
ENDMDL
