MODEL        1
REMARK 921   NORMALIZED FREE ENERGY PREDICTED BY IDOCK:   -6.21 KCAL/MOL
REMARK 922        TOTAL FREE ENERGY PREDICTED BY IDOCK:  -10.70 KCAL/MOL
REMARK 923 INTER-LIGAND FREE ENERGY PREDICTED BY IDOCK:   -9.83 KCAL/MOL
REMARK 924 INTRA-LIGAND FREE ENERGY PREDICTED BY IDOCK:   -0.86 KCAL/MOL
REMARK 927      BINDING AFFINITY PREDICTED BY RF-SCORE:    0.00 PKD
ROOT
HETATM    1  C   UNL     1     -11.224   6.529  69.942  1.00  0.00    -0.395 C  
HETATM    2  O   UNL     1     -11.308   7.511  70.974  1.00  0.00    -0.262 OA 
ENDROOT
BRANCH   2   3
HETATM    3  C   UNL     1     -11.399   8.816  70.556  1.00  0.00    -0.227 A  
HETATM    4  C   UNL     1     -10.783   9.242  69.371  1.00  0.00    -0.222 A  
HETATM    5  C   UNL     1     -10.959  10.543  68.898  1.00  0.00    -0.291 A  
HETATM    6  C   UNL     1     -11.728  11.437  69.634  1.00  0.00    -0.415 A  
HETATM    7  C   UNL     1     -12.144   9.733  71.335  1.00  0.00    -0.400 A  
HETATM    8  C   UNL     1     -12.319  11.049  70.851  1.00  0.00    -0.402 A  
BRANCH   5   9
HETATM    9  C   UNL     1     -10.380  10.882  67.569  1.00  0.00    -0.202 C  
HETATM   10  N   UNL     1     -11.255  11.289  66.592  1.00  0.00    -0.248 N  
HETATM   11  O   UNL     1      -9.168  10.806  67.397  1.00  0.00    -0.146 OA 
HETATM   12  H   UNL     1     -12.256  11.327  66.786  1.00  0.00     0.000 HD 
BRANCH  10  13
HETATM   13  C   UNL     1     -10.755  11.664  65.289  1.00  0.00    -0.291 C  
BRANCH  13  14
HETATM   14  C   UNL     1     -10.805  13.154  65.105  1.00  0.00    -0.321 A  
HETATM   15  C   UNL     1      -9.818  13.946  65.689  1.00  0.00    -0.231 A  
HETATM   16  C   UNL     1      -9.870  15.332  65.586  1.00  0.00    -0.383 A  
HETATM   17  C   UNL     1     -10.914  15.967  64.902  1.00  0.00    -0.411 A  
HETATM   18  C   UNL     1     -11.897  15.180  64.300  1.00  0.00    -0.263 A  
HETATM   19  C   UNL     1     -11.849  13.782  64.403  1.00  0.00    -0.458 A  
BRANCH  17  20
HETATM   20  O   UNL     1     -11.056  17.333  64.785  1.00  0.00    -0.954 OA 
BRANCH  20  21
HETATM   21  C   UNL     1     -10.544  18.053  65.912  1.00  0.00    -0.219 C  
BRANCH  21  22
HETATM   22  C   UNL     1     -10.570  19.577  65.739  1.00  0.00    -0.427 C  
BRANCH  22  23
HETATM   23  N   UNL     1      -9.700  20.252  66.731  1.00  0.00    -0.430 NA 
HETATM   24  C   UNL     1     -10.092  19.962  68.113  1.00  0.00    -0.441 C  
HETATM   25  C   UNL     1      -8.300  19.883  66.529  1.00  0.00    -0.336 C  
ENDBRANCH  22  23
ENDBRANCH  21  22
ENDBRANCH  20  21
ENDBRANCH  17  20
ENDBRANCH  13  14
ENDBRANCH  10  13
ENDBRANCH   5   9
BRANCH   8  26
HETATM   26  O   UNL     1     -13.037  12.079  71.407  1.00  0.00    -0.344 OA 
HETATM   27  C   UNL     1     -12.617  13.419  71.201  1.00  0.00    -0.345 C  
ENDBRANCH   8  26
BRANCH   7  28
HETATM   28  O   UNL     1     -12.797   9.404  72.498  1.00  0.00    -0.349 OA 
HETATM   29  C   UNL     1     -14.105   8.857  72.420  1.00  0.00    -0.420 C  
ENDBRANCH   7  28
ENDBRANCH   2   3
TORSDOF 10
ENDMDL
MODEL        2
REMARK 921   NORMALIZED FREE ENERGY PREDICTED BY IDOCK:   -6.08 KCAL/MOL
REMARK 922        TOTAL FREE ENERGY PREDICTED BY IDOCK:  -10.50 KCAL/MOL
REMARK 923 INTER-LIGAND FREE ENERGY PREDICTED BY IDOCK:   -9.52 KCAL/MOL
REMARK 924 INTRA-LIGAND FREE ENERGY PREDICTED BY IDOCK:   -0.97 KCAL/MOL
REMARK 927      BINDING AFFINITY PREDICTED BY RF-SCORE:    0.00 PKD
ROOT
HETATM    1  C   UNL     1     -12.937  13.525  71.498  1.00  0.00    -0.355 C  
HETATM    2  O   UNL     1     -13.253  12.151  71.715  1.00  0.00    -0.448 OA 
ENDROOT
BRANCH   2   3
HETATM    3  C   UNL     1     -12.501  11.242  71.011  1.00  0.00    -0.400 A  
HETATM    4  C   UNL     1     -11.780  11.626  69.872  1.00  0.00    -0.414 A  
HETATM    5  C   UNL     1     -10.939  10.725  69.216  1.00  0.00    -0.292 A  
HETATM    6  C   UNL     1     -10.846   9.418  69.683  1.00  0.00    -0.245 A  
HETATM    7  C   UNL     1     -12.448   9.902  71.463  1.00  0.00    -0.411 A  
HETATM    8  C   UNL     1     -11.595   8.994  70.796  1.00  0.00    -0.265 A  
BRANCH   5   9
HETATM    9  C   UNL     1     -10.110  11.242  68.094  1.00  0.00    -0.182 C  
HETATM   10  N   UNL     1     -10.759  11.533  66.919  1.00  0.00    -0.250 N  
HETATM   11  O   UNL     1      -8.904  11.404  68.255  1.00  0.00    -0.155 OA 
HETATM   12  H   UNL     1     -11.763  11.371  66.837  1.00  0.00     0.000 HD 
BRANCH  10  13
HETATM   13  C   UNL     1     -10.017  12.069  65.801  1.00  0.00    -0.241 C  
BRANCH  13  14
HETATM   14  C   UNL     1     -10.228  13.551  65.680  1.00  0.00    -0.306 A  
HETATM   15  C   UNL     1     -11.119  14.036  64.724  1.00  0.00    -0.391 A  
HETATM   16  C   UNL     1     -11.293  15.405  64.548  1.00  0.00    -0.321 A  
HETATM   17  C   UNL     1     -10.575  16.328  65.318  1.00  0.00    -0.336 A  
HETATM   18  C   UNL     1      -9.693  15.850  66.289  1.00  0.00    -0.332 A  
HETATM   19  C   UNL     1      -9.515  14.471  66.468  1.00  0.00    -0.310 A  
BRANCH  17  20
HETATM   20  O   UNL     1     -10.663  17.697  65.181  1.00  0.00    -0.658 OA 
BRANCH  20  21
HETATM   21  C   UNL     1     -10.623  18.394  66.432  1.00  0.00    -0.309 C  
BRANCH  21  22
HETATM   22  C   UNL     1     -10.106  19.835  66.323  1.00  0.00    -0.496 C  
BRANCH  22  23
HETATM   23  N   UNL     1      -9.361  20.239  67.540  1.00  0.00    -0.379 NA 
HETATM   24  C   UNL     1      -9.455  19.245  68.613  1.00  0.00    -0.405 C  
HETATM   25  C   UNL     1      -7.956  20.493  67.227  1.00  0.00    -0.314 C  
ENDBRANCH  22  23
ENDBRANCH  21  22
ENDBRANCH  20  21
ENDBRANCH  17  20
ENDBRANCH  13  14
ENDBRANCH  10  13
ENDBRANCH   5   9
BRANCH   8  26
HETATM   26  O   UNL     1     -11.348   7.676  71.089  1.00  0.00    -0.257 OA 
HETATM   27  C   UNL     1     -11.858   6.660  70.239  1.00  0.00    -0.316 C  
ENDBRANCH   8  26
BRANCH   7  28
HETATM   28  O   UNL     1     -13.104   9.438  72.577  1.00  0.00    -0.404 OA 
HETATM   29  C   UNL     1     -14.357   8.789  72.416  1.00  0.00    -0.332 C  
ENDBRANCH   7  28
ENDBRANCH   2   3
TORSDOF 10
ENDMDL
MODEL        3
REMARK 921   NORMALIZED FREE ENERGY PREDICTED BY IDOCK:   -5.92 KCAL/MOL
REMARK 922        TOTAL FREE ENERGY PREDICTED BY IDOCK:  -10.25 KCAL/MOL
REMARK 923 INTER-LIGAND FREE ENERGY PREDICTED BY IDOCK:   -9.15 KCAL/MOL
REMARK 924 INTRA-LIGAND FREE ENERGY PREDICTED BY IDOCK:   -1.10 KCAL/MOL
REMARK 927      BINDING AFFINITY PREDICTED BY RF-SCORE:    0.00 PKD
ROOT
HETATM    1  C   UNL     1      -8.406   7.895  69.757  1.00  0.00    -0.127 C  
HETATM    2  O   UNL     1      -8.767   8.726  70.859  1.00  0.00    -0.157 OA 
ENDROOT
BRANCH   2   3
HETATM    3  C   UNL     1      -9.986   9.351  70.766  1.00  0.00    -0.289 A  
HETATM    4  C   UNL     1     -10.254  10.267  69.739  1.00  0.00    -0.262 A  
HETATM    5  C   UNL     1     -11.524  10.826  69.589  1.00  0.00    -0.376 A  
HETATM    6  C   UNL     1     -12.526  10.495  70.495  1.00  0.00    -0.433 A  
HETATM    7  C   UNL     1     -10.985   9.046  71.720  1.00  0.00    -0.372 A  
HETATM    8  C   UNL     1     -12.270   9.615  71.563  1.00  0.00    -0.399 A  
BRANCH   5   9
HETATM    9  C   UNL     1     -11.766  11.688  68.400  1.00  0.00    -0.307 C  
HETATM   10  N   UNL     1     -11.854  13.042  68.617  1.00  0.00    -0.320 N  
HETATM   11  O   UNL     1     -11.859  11.177  67.289  1.00  0.00    -0.525 OA 
HETATM   12  H   UNL     1     -11.777  13.413  69.564  1.00  0.00     0.000 HD 
BRANCH  10  13
HETATM   13  C   UNL     1     -12.055  13.938  67.501  1.00  0.00    -0.331 C  
BRANCH  13  14
HETATM   14  C   UNL     1     -10.920  14.915  67.389  1.00  0.00    -0.314 A  
HETATM   15  C   UNL     1     -10.432  15.250  66.127  1.00  0.00    -0.318 A  
HETATM   16  C   UNL     1      -9.345  16.107  65.993  1.00  0.00    -0.368 A  
HETATM   17  C   UNL     1      -8.710  16.648  67.118  1.00  0.00    -0.195 A  
HETATM   18  C   UNL     1      -9.203  16.331  68.384  1.00  0.00    -0.203 A  
HETATM   19  C   UNL     1     -10.299  15.467  68.523  1.00  0.00    -0.226 A  
BRANCH  17  20
HETATM   20  O   UNL     1      -7.607  17.474  67.071  1.00  0.00    -0.190 OA 
BRANCH  20  21
HETATM   21  C   UNL     1      -7.808  18.724  67.742  1.00  0.00    -0.242 C  
BRANCH  21  22
HETATM   22  C   UNL     1      -8.195  19.876  66.805  1.00  0.00    -0.319 C  
BRANCH  22  23
HETATM   23  N   UNL     1      -9.607  20.284  66.999  1.00  0.00    -0.417 NA 
HETATM   24  C   UNL     1     -10.507  19.686  66.008  1.00  0.00    -0.523 C  
HETATM   25  C   UNL     1     -10.064  19.946  68.346  1.00  0.00    -0.437 C  
ENDBRANCH  22  23
ENDBRANCH  21  22
ENDBRANCH  20  21
ENDBRANCH  17  20
ENDBRANCH  13  14
ENDBRANCH  10  13
ENDBRANCH   5   9
BRANCH   8  26
HETATM   26  O   UNL     1     -13.393   9.421  72.329  1.00  0.00    -0.430 OA 
HETATM   27  C   UNL     1     -14.408   8.539  71.877  1.00  0.00    -0.448 C  
ENDBRANCH   8  26
BRANCH   7  28
HETATM   28  O   UNL     1     -10.822   8.149  72.748  1.00  0.00    -0.353 OA 
HETATM   29  C   UNL     1     -11.217   6.800  72.552  1.00  0.00    -0.268 C  
ENDBRANCH   7  28
ENDBRANCH   2   3
TORSDOF 10
ENDMDL
MODEL        4
REMARK 921   NORMALIZED FREE ENERGY PREDICTED BY IDOCK:   -5.89 KCAL/MOL
REMARK 922        TOTAL FREE ENERGY PREDICTED BY IDOCK:  -10.19 KCAL/MOL
REMARK 923 INTER-LIGAND FREE ENERGY PREDICTED BY IDOCK:   -9.07 KCAL/MOL
REMARK 924 INTRA-LIGAND FREE ENERGY PREDICTED BY IDOCK:   -1.12 KCAL/MOL
REMARK 927      BINDING AFFINITY PREDICTED BY RF-SCORE:    0.00 PKD
ROOT
HETATM    1  C   UNL     1     -14.399   8.543  71.897  1.00  0.00    -0.448 C  
HETATM    2  O   UNL     1     -13.312   9.316  72.404  1.00  0.00    -0.445 OA 
ENDROOT
BRANCH   2   3
HETATM    3  C   UNL     1     -12.300   9.588  71.515  1.00  0.00    -0.380 A  
HETATM    4  C   UNL     1     -12.510  10.430  70.415  1.00  0.00    -0.348 A  
HETATM    5  C   UNL     1     -11.457  10.783  69.570  1.00  0.00    -0.365 A  
HETATM    6  C   UNL     1     -10.190  10.261  69.806  1.00  0.00    -0.262 A  
HETATM    7  C   UNL     1     -11.026   9.013  71.734  1.00  0.00    -0.372 A  
HETATM    8  C   UNL     1      -9.963   9.375  70.876  1.00  0.00    -0.283 A  
BRANCH   5   9
HETATM    9  C   UNL     1     -11.730  11.783  68.502  1.00  0.00    -0.330 C  
HETATM   10  N   UNL     1     -11.905  13.087  68.897  1.00  0.00    -0.317 N  
HETATM   11  O   UNL     1     -11.770  11.424  67.329  1.00  0.00    -0.577 OA 
HETATM   12  H   UNL     1     -11.869  13.330  69.887  1.00  0.00     0.000 HD 
BRANCH  10  13
HETATM   13  C   UNL     1     -12.141  14.113  67.906  1.00  0.00    -0.274 C  
BRANCH  13  14
HETATM   14  C   UNL     1     -10.928  14.983  67.738  1.00  0.00    -0.298 A  
HETATM   15  C   UNL     1     -10.258  15.442  68.869  1.00  0.00    -0.219 A  
HETATM   16  C   UNL     1      -9.166  16.296  68.747  1.00  0.00    -0.240 A  
HETATM   17  C   UNL     1      -8.720  16.721  67.490  1.00  0.00    -0.199 A  
HETATM   18  C   UNL     1      -9.376  16.252  66.351  1.00  0.00    -0.322 A  
HETATM   19  C   UNL     1     -10.477  15.391  66.470  1.00  0.00    -0.295 A  
BRANCH  17  20
HETATM   20  O   UNL     1      -7.671  17.593  67.286  1.00  0.00    -0.197 OA 
BRANCH  20  21
HETATM   21  C   UNL     1      -7.825  18.836  67.980  1.00  0.00    -0.272 C  
BRANCH  21  22
HETATM   22  C   UNL     1      -8.216  20.009  67.073  1.00  0.00    -0.321 C  
BRANCH  22  23
HETATM   23  N   UNL     1      -9.652  20.351  67.214  1.00  0.00    -0.434 NA 
HETATM   24  C   UNL     1     -10.472  19.797  66.134  1.00  0.00    -0.509 C  
HETATM   25  C   UNL     1     -10.168  19.899  68.505  1.00  0.00    -0.409 C  
ENDBRANCH  22  23
ENDBRANCH  21  22
ENDBRANCH  20  21
ENDBRANCH  17  20
ENDBRANCH  13  14
ENDBRANCH  10  13
ENDBRANCH   5   9
BRANCH   8  26
HETATM   26  O   UNL     1      -8.647   8.987  70.930  1.00  0.00    -0.183 OA 
HETATM   27  C   UNL     1      -7.661   9.748  70.250  1.00  0.00    -0.172 C  
ENDBRANCH   8  26
BRANCH   7  28
HETATM   28  O   UNL     1     -10.722   8.193  72.793  1.00  0.00    -0.345 OA 
HETATM   29  C   UNL     1     -10.907   6.792  72.651  1.00  0.00    -0.250 C  
ENDBRANCH   7  28
ENDBRANCH   2   3
TORSDOF 10
ENDMDL
MODEL        5
REMARK 921   NORMALIZED FREE ENERGY PREDICTED BY IDOCK:   -5.88 KCAL/MOL
REMARK 922        TOTAL FREE ENERGY PREDICTED BY IDOCK:  -10.19 KCAL/MOL
REMARK 923 INTER-LIGAND FREE ENERGY PREDICTED BY IDOCK:   -9.28 KCAL/MOL
REMARK 924 INTRA-LIGAND FREE ENERGY PREDICTED BY IDOCK:   -0.91 KCAL/MOL
REMARK 927      BINDING AFFINITY PREDICTED BY RF-SCORE:    0.00 PKD
ROOT
HETATM    1  C   UNL     1     -10.417   3.667  73.685  1.00  0.00    -0.180 C  
HETATM    2  O   UNL     1      -9.601   4.274  72.684  1.00  0.00    -0.124 OA 
ENDROOT
BRANCH   2   3
HETATM    3  C   UNL     1     -10.267   4.972  71.707  1.00  0.00    -0.207 A  
HETATM    4  C   UNL     1     -11.280   5.885  72.031  1.00  0.00    -0.330 A  
HETATM    5  C   UNL     1     -11.887   6.665  71.046  1.00  0.00    -0.427 A  
HETATM    6  C   UNL     1     -11.503   6.505  69.719  1.00  0.00    -0.443 A  
HETATM    7  C   UNL     1      -9.905   4.769  70.354  1.00  0.00    -0.239 A  
HETATM    8  C   UNL     1     -10.523   5.562  69.360  1.00  0.00    -0.290 A  
BRANCH   5   9
HETATM    9  C   UNL     1     -12.860   7.703  71.484  1.00  0.00    -0.344 C  
HETATM   10  N   UNL     1     -12.373   8.971  71.685  1.00  0.00    -0.326 N  
HETATM   11  O   UNL     1     -14.041   7.404  71.630  1.00  0.00    -0.412 OA 
HETATM   12  H   UNL     1     -11.379   9.163  71.556  1.00  0.00     0.000 HD 
BRANCH  10  13
HETATM   13  C   UNL     1     -13.272  10.033  72.079  1.00  0.00    -0.443 C  
BRANCH  13  14
HETATM   14  C   UNL     1     -12.852  11.341  71.473  1.00  0.00    -0.519 A  
HETATM   15  C   UNL     1     -13.227  12.531  72.094  1.00  0.00    -0.508 A  
HETATM   16  C   UNL     1     -12.903  13.759  71.526  1.00  0.00    -0.445 A  
HETATM   17  C   UNL     1     -12.202  13.832  70.316  1.00  0.00    -0.359 A  
HETATM   18  C   UNL     1     -11.808  12.645  69.697  1.00  0.00    -0.379 A  
HETATM   19  C   UNL     1     -12.133  11.405  70.266  1.00  0.00    -0.459 A  
BRANCH  17  20
HETATM   20  O   UNL     1     -11.874  15.006  69.671  1.00  0.00    -0.290 OA 
BRANCH  20  21
HETATM   21  C   UNL     1     -10.717  14.888  68.836  1.00  0.00    -0.245 C  
BRANCH  21  22
HETATM   22  C   UNL     1     -10.845  15.616  67.492  1.00  0.00    -0.316 C  
BRANCH  22  23
HETATM   23  N   UNL     1     -10.871  14.663  66.357  1.00  0.00    -0.309 NA 
HETATM   24  C   UNL     1     -12.133  13.922  66.274  1.00  0.00    -0.451 C  
HETATM   25  C   UNL     1     -10.622  15.354  65.093  1.00  0.00    -0.434 C  
ENDBRANCH  22  23
ENDBRANCH  21  22
ENDBRANCH  20  21
ENDBRANCH  17  20
ENDBRANCH  13  14
ENDBRANCH  10  13
ENDBRANCH   5   9
BRANCH   8  26
HETATM   26  O   UNL     1     -10.293   5.572  68.006  1.00  0.00    -0.185 OA 
HETATM   27  C   UNL     1     -10.997   6.487  67.182  1.00  0.00    -0.408 C  
ENDBRANCH   8  26
BRANCH   7  28
HETATM   28  O   UNL     1      -8.915   3.911  69.942  1.00  0.00    -0.080 OA 
HETATM   29  C   UNL     1      -9.270   2.597  69.535  1.00  0.00    -0.127 C  
ENDBRANCH   7  28
ENDBRANCH   2   3
TORSDOF 10
ENDMDL
MODEL        6
REMARK 921   NORMALIZED FREE ENERGY PREDICTED BY IDOCK:   -5.87 KCAL/MOL
REMARK 922        TOTAL FREE ENERGY PREDICTED BY IDOCK:  -10.17 KCAL/MOL
REMARK 923 INTER-LIGAND FREE ENERGY PREDICTED BY IDOCK:   -9.26 KCAL/MOL
REMARK 924 INTRA-LIGAND FREE ENERGY PREDICTED BY IDOCK:   -0.92 KCAL/MOL
REMARK 927      BINDING AFFINITY PREDICTED BY RF-SCORE:    0.00 PKD
ROOT
HETATM    1  C   UNL     1     -11.111   6.170  69.210  1.00  0.00    -0.393 C  
HETATM    2  O   UNL     1     -10.354   7.144  69.926  1.00  0.00    -0.202 OA 
ENDROOT
BRANCH   2   3
HETATM    3  C   UNL     1     -10.864   8.420  69.928  1.00  0.00    -0.207 A  
HETATM    4  C   UNL     1     -10.641   9.291  68.852  1.00  0.00    -0.222 A  
HETATM    5  C   UNL     1     -11.242  10.550  68.812  1.00  0.00    -0.317 A  
HETATM    6  C   UNL     1     -12.043  10.957  69.872  1.00  0.00    -0.428 A  
HETATM    7  C   UNL     1     -11.638   8.845  71.033  1.00  0.00    -0.293 A  
HETATM    8  C   UNL     1     -12.245  10.121  70.986  1.00  0.00    -0.374 A  
BRANCH   5   9
HETATM    9  C   UNL     1     -11.062  11.364  67.579  1.00  0.00    -0.281 C  
HETATM   10  N   UNL     1     -12.017  12.315  67.313  1.00  0.00    -0.240 N  
HETATM   11  O   UNL     1     -10.081  11.179  66.865  1.00  0.00    -0.203 OA 
HETATM   12  H   UNL     1     -12.818  12.422  67.936  1.00  0.00     0.000 HD 
BRANCH  10  13
HETATM   13  C   UNL     1     -11.886  13.162  66.149  1.00  0.00    -0.401 C  
BRANCH  13  14
HETATM   14  C   UNL     1     -11.339  14.509  66.527  1.00  0.00    -0.354 A  
HETATM   15  C   UNL     1     -11.467  14.951  67.842  1.00  0.00    -0.357 A  
HETATM   16  C   UNL     1     -11.023  16.217  68.210  1.00  0.00    -0.340 A  
HETATM   17  C   UNL     1     -10.445  17.080  67.270  1.00  0.00    -0.301 A  
HETATM   18  C   UNL     1     -10.297  16.638  65.955  1.00  0.00    -0.355 A  
HETATM   19  C   UNL     1     -10.745  15.362  65.580  1.00  0.00    -0.381 A  
BRANCH  17  20
HETATM   20  O   UNL     1     -10.013  18.360  67.546  1.00  0.00    -0.310 OA 
BRANCH  20  21
HETATM   21  C   UNL     1      -9.599  19.081  66.380  1.00  0.00    -0.353 C  
BRANCH  21  22
HETATM   22  C   UNL     1      -8.146  19.568  66.435  1.00  0.00    -0.320 C  
BRANCH  22  23
HETATM   23  N   UNL     1      -7.265  18.753  65.565  1.00  0.00    -0.513 NA 
HETATM   24  C   UNL     1      -6.168  19.534  64.985  1.00  0.00    -0.273 C  
HETATM   25  C   UNL     1      -6.722  17.612  66.300  1.00  0.00    -0.282 C  
ENDBRANCH  22  23
ENDBRANCH  21  22
ENDBRANCH  20  21
ENDBRANCH  17  20
ENDBRANCH  13  14
ENDBRANCH  10  13
ENDBRANCH   5   9
BRANCH   8  26
HETATM   26  O   UNL     1     -13.070  10.712  71.910  1.00  0.00    -0.469 OA 
HETATM   27  C   UNL     1     -13.165  12.127  71.963  1.00  0.00    -0.391 C  
ENDBRANCH   8  26
BRANCH   7  28
HETATM   28  O   UNL     1     -11.926   8.057  72.121  1.00  0.00    -0.312 OA 
HETATM   29  C   UNL     1     -10.880   7.723  73.022  1.00  0.00    -0.389 C  
ENDBRANCH   7  28
ENDBRANCH   2   3
TORSDOF 10
ENDMDL
MODEL        7
REMARK 921   NORMALIZED FREE ENERGY PREDICTED BY IDOCK:   -5.86 KCAL/MOL
REMARK 922        TOTAL FREE ENERGY PREDICTED BY IDOCK:  -10.15 KCAL/MOL
REMARK 923 INTER-LIGAND FREE ENERGY PREDICTED BY IDOCK:   -9.40 KCAL/MOL
REMARK 924 INTRA-LIGAND FREE ENERGY PREDICTED BY IDOCK:   -0.75 KCAL/MOL
REMARK 927      BINDING AFFINITY PREDICTED BY RF-SCORE:    0.00 PKD
ROOT
HETATM    1  C   UNL     1     -11.550  13.665  65.282  1.00  0.00    -0.320 C  
HETATM    2  O   UNL     1     -10.671  14.775  65.461  1.00  0.00    -0.315 OA 
ENDROOT
BRANCH   2   3
HETATM    3  C   UNL     1     -10.795  15.455  66.648  1.00  0.00    -0.302 A  
HETATM    4  C   UNL     1     -11.557  14.936  67.704  1.00  0.00    -0.357 A  
HETATM    5  C   UNL     1     -11.602  15.580  68.941  1.00  0.00    -0.384 A  
HETATM    6  C   UNL     1     -10.907  16.773  69.114  1.00  0.00    -0.287 A  
HETATM    7  C   UNL     1     -10.125  16.692  66.800  1.00  0.00    -0.291 A  
HETATM    8  C   UNL     1     -10.173  17.339  68.056  1.00  0.00    -0.332 A  
BRANCH   5   9
HETATM    9  C   UNL     1     -12.326  14.902  70.051  1.00  0.00    -0.312 C  
HETATM   10  N   UNL     1     -12.254  13.531  70.098  1.00  0.00    -0.340 N  
HETATM   11  O   UNL     1     -12.935  15.573  70.879  1.00  0.00    -0.463 OA 
HETATM   12  H   UNL     1     -11.740  13.021  69.379  1.00  0.00     0.000 HD 
BRANCH  10  13
HETATM   13  C   UNL     1     -12.908  12.812  71.168  1.00  0.00    -0.226 C  
BRANCH  13  14
HETATM   14  C   UNL     1     -12.521  11.361  71.152  1.00  0.00    -0.465 A  
HETATM   15  C   UNL     1     -13.234  10.457  71.937  1.00  0.00    -0.535 A  
HETATM   16  C   UNL     1     -12.863   9.118  71.989  1.00  0.00    -0.483 A  
HETATM   17  C   UNL     1     -11.763   8.645  71.263  1.00  0.00    -0.289 A  
HETATM   18  C   UNL     1     -11.054   9.541  70.461  1.00  0.00    -0.342 A  
HETATM   19  C   UNL     1     -11.424  10.892  70.407  1.00  0.00    -0.367 A  
BRANCH  17  20
HETATM   20  O   UNL     1     -11.311   7.343  71.288  1.00  0.00    -0.254 OA 
BRANCH  20  21
HETATM   21  C   UNL     1     -11.713   6.582  70.143  1.00  0.00    -0.353 C  
BRANCH  21  22
HETATM   22  C   UNL     1     -10.542   6.069  69.295  1.00  0.00    -0.299 C  
BRANCH  22  23
HETATM   23  N   UNL     1     -10.284   6.952  68.133  1.00  0.00    -0.167 NA 
HETATM   24  C   UNL     1      -8.854   7.177  67.903  1.00  0.00    -0.124 C  
HETATM   25  C   UNL     1     -10.897   6.409  66.922  1.00  0.00    -0.357 C  
ENDBRANCH  22  23
ENDBRANCH  21  22
ENDBRANCH  20  21
ENDBRANCH  17  20
ENDBRANCH  13  14
ENDBRANCH  10  13
ENDBRANCH   5   9
BRANCH   8  26
HETATM   26  O   UNL     1      -9.563  18.507  68.443  1.00  0.00    -0.320 OA 
HETATM   27  C   UNL     1     -10.175  19.752  68.144  1.00  0.00    -0.452 C  
ENDBRANCH   8  26
BRANCH   7  28
HETATM   28  O   UNL     1      -9.342  17.269  65.830  1.00  0.00    -0.507 OA 
HETATM   29  C   UNL     1      -7.932  17.283  66.005  1.00  0.00    -0.161 C  
ENDBRANCH   7  28
ENDBRANCH   2   3
TORSDOF 10
ENDMDL
MODEL        8
REMARK 921   NORMALIZED FREE ENERGY PREDICTED BY IDOCK:   -5.85 KCAL/MOL
REMARK 922        TOTAL FREE ENERGY PREDICTED BY IDOCK:  -10.13 KCAL/MOL
REMARK 923 INTER-LIGAND FREE ENERGY PREDICTED BY IDOCK:   -9.19 KCAL/MOL
REMARK 924 INTRA-LIGAND FREE ENERGY PREDICTED BY IDOCK:   -0.94 KCAL/MOL
REMARK 927      BINDING AFFINITY PREDICTED BY RF-SCORE:    0.00 PKD
ROOT
HETATM    1  C   UNL     1     -10.827   6.166  67.198  1.00  0.00    -0.360 C  
HETATM    2  O   UNL     1     -10.284   5.233  68.130  1.00  0.00    -0.172 OA 
ENDROOT
BRANCH   2   3
HETATM    3  C   UNL     1     -10.547   5.484  69.455  1.00  0.00    -0.279 A  
HETATM    4  C   UNL     1     -11.444   6.492  69.837  1.00  0.00    -0.467 A  
HETATM    5  C   UNL     1     -11.785   6.679  71.177  1.00  0.00    -0.399 A  
HETATM    6  C   UNL     1     -11.198   5.875  72.148  1.00  0.00    -0.342 A  
HETATM    7  C   UNL     1      -9.909   4.695  70.440  1.00  0.00    -0.236 A  
HETATM    8  C   UNL     1     -10.259   4.888  71.796  1.00  0.00    -0.200 A  
BRANCH   5   9
HETATM    9  C   UNL     1     -12.840   7.681  71.490  1.00  0.00    -0.344 C  
HETATM   10  N   UNL     1     -12.421   8.920  71.909  1.00  0.00    -0.351 N  
HETATM   11  O   UNL     1     -14.022   7.382  71.351  1.00  0.00    -0.411 OA 
HETATM   12  H   UNL     1     -11.425   9.113  72.015  1.00  0.00     0.000 HD 
BRANCH  10  13
HETATM   13  C   UNL     1     -13.393   9.949  72.198  1.00  0.00    -0.399 C  
BRANCH  13  14
HETATM   14  C   UNL     1     -13.018  11.242  71.532  1.00  0.00    -0.520 A  
HETATM   15  C   UNL     1     -12.259  11.210  70.363  1.00  0.00    -0.457 A  
HETATM   16  C   UNL     1     -11.847  12.392  69.755  1.00  0.00    -0.387 A  
HETATM   17  C   UNL     1     -12.175  13.638  70.302  1.00  0.00    -0.353 A  
HETATM   18  C   UNL     1     -12.950  13.678  71.462  1.00  0.00    -0.443 A  
HETATM   19  C   UNL     1     -13.366  12.490  72.079  1.00  0.00    -0.528 A  
BRANCH  17  20
HETATM   20  O   UNL     1     -11.776  14.851  69.781  1.00  0.00    -0.270 OA 
BRANCH  20  21
HETATM   21  C   UNL     1     -10.720  14.733  68.821  1.00  0.00    -0.253 C  
BRANCH  21  22
HETATM   22  C   UNL     1     -10.923  15.592  67.566  1.00  0.00    -0.316 C  
BRANCH  22  23
HETATM   23  N   UNL     1     -11.032  14.755  66.347  1.00  0.00    -0.326 NA 
HETATM   24  C   UNL     1     -12.274  13.978  66.307  1.00  0.00    -0.462 C  
HETATM   25  C   UNL     1     -10.927  15.577  65.143  1.00  0.00    -0.409 C  
ENDBRANCH  22  23
ENDBRANCH  21  22
ENDBRANCH  20  21
ENDBRANCH  17  20
ENDBRANCH  13  14
ENDBRANCH  10  13
ENDBRANCH   5   9
BRANCH   8  26
HETATM   26  O   UNL     1      -9.811   4.209  72.903  1.00  0.00    -0.128 OA 
HETATM   27  C   UNL     1     -10.357   4.508  74.178  1.00  0.00    -0.241 C  
ENDBRANCH   8  26
BRANCH   7  28
HETATM   28  O   UNL     1      -9.032   3.674  70.162  1.00  0.00    -0.090 OA 
HETATM   29  C   UNL     1      -7.642   3.960  70.107  1.00  0.00    -0.048 C  
ENDBRANCH   7  28
ENDBRANCH   2   3
TORSDOF 10
ENDMDL
MODEL        9
REMARK 921   NORMALIZED FREE ENERGY PREDICTED BY IDOCK:   -5.85 KCAL/MOL
REMARK 922        TOTAL FREE ENERGY PREDICTED BY IDOCK:  -10.13 KCAL/MOL
REMARK 923 INTER-LIGAND FREE ENERGY PREDICTED BY IDOCK:   -9.17 KCAL/MOL
REMARK 924 INTRA-LIGAND FREE ENERGY PREDICTED BY IDOCK:   -0.96 KCAL/MOL
REMARK 927      BINDING AFFINITY PREDICTED BY RF-SCORE:    0.00 PKD
ROOT
HETATM    1  C   UNL     1      -9.793  19.135  68.840  1.00  0.00    -0.424 C  
HETATM    2  O   UNL     1     -10.538  18.474  67.819  1.00  0.00    -0.406 OA 
ENDROOT
BRANCH   2   3
HETATM    3  C   UNL     1     -10.588  17.104  67.902  1.00  0.00    -0.376 A  
HETATM    4  C   UNL     1     -11.285  16.466  68.937  1.00  0.00    -0.304 A  
HETATM    5  C   UNL     1     -11.418  15.077  68.964  1.00  0.00    -0.322 A  
HETATM    6  C   UNL     1     -10.817  14.316  67.967  1.00  0.00    -0.247 A  
HETATM    7  C   UNL     1      -9.934  16.335  66.911  1.00  0.00    -0.260 A  
HETATM    8  C   UNL     1     -10.071  14.929  66.943  1.00  0.00    -0.242 A  
BRANCH   5   9
HETATM    9  C   UNL     1     -12.280  14.483  70.022  1.00  0.00    -0.342 C  
HETATM   10  N   UNL     1     -12.075  13.159  70.325  1.00  0.00    -0.418 N  
HETATM   11  O   UNL     1     -13.115  15.182  70.588  1.00  0.00    -0.377 OA 
HETATM   12  H   UNL     1     -11.372  12.621  69.817  1.00  0.00     0.000 HD 
BRANCH  10  13
HETATM   13  C   UNL     1     -12.857  12.530  71.365  1.00  0.00    -0.260 C  
BRANCH  13  14
HETATM   14  C   UNL     1     -12.633  11.044  71.378  1.00  0.00    -0.498 A  
HETATM   15  C   UNL     1     -11.540  10.515  70.694  1.00  0.00    -0.445 A  
HETATM   16  C   UNL     1     -11.339   9.139  70.639  1.00  0.00    -0.323 A  
HETATM   17  C   UNL     1     -12.229   8.254  71.259  1.00  0.00    -0.270 A  
HETATM   18  C   UNL     1     -13.316   8.778  71.960  1.00  0.00    -0.455 A  
HETATM   19  C   UNL     1     -13.523  10.164  72.018  1.00  0.00    -0.418 A  
BRANCH  17  20
HETATM   20  O   UNL     1     -12.119   6.880  71.221  1.00  0.00    -0.335 OA 
BRANCH  20  21
HETATM   21  C   UNL     1     -10.821   6.427  70.820  1.00  0.00    -0.267 C  
BRANCH  21  22
HETATM   22  C   UNL     1     -10.811   5.682  69.479  1.00  0.00    -0.274 C  
BRANCH  22  23
HETATM   23  N   UNL     1     -10.107   6.457  68.430  1.00  0.00    -0.148 NA 
HETATM   24  C   UNL     1      -8.966   5.730  67.865  1.00  0.00    -0.111 C  
HETATM   25  C   UNL     1     -11.026   6.838  67.360  1.00  0.00    -0.337 C  
ENDBRANCH  22  23
ENDBRANCH  21  22
ENDBRANCH  20  21
ENDBRANCH  17  20
ENDBRANCH  13  14
ENDBRANCH  10  13
ENDBRANCH   5   9
BRANCH   8  26
HETATM   26  O   UNL     1      -9.573  13.998  66.065  1.00  0.00    -0.275 OA 
HETATM   27  C   UNL     1     -10.395  13.511  65.016  1.00  0.00    -0.362 C  
ENDBRANCH   8  26
BRANCH   7  28
HETATM   28  O   UNL     1      -9.243  16.871  65.851  1.00  0.00    -0.500 OA 
HETATM   29  C   UNL     1      -7.895  17.273  66.042  1.00  0.00    -0.175 C  
ENDBRANCH   7  28
ENDBRANCH   2   3
TORSDOF 10
ENDMDL
MODEL       10
REMARK 921   NORMALIZED FREE ENERGY PREDICTED BY IDOCK:   -5.81 KCAL/MOL
REMARK 922        TOTAL FREE ENERGY PREDICTED BY IDOCK:  -10.07 KCAL/MOL
REMARK 923 INTER-LIGAND FREE ENERGY PREDICTED BY IDOCK:   -9.22 KCAL/MOL
REMARK 924 INTRA-LIGAND FREE ENERGY PREDICTED BY IDOCK:   -0.85 KCAL/MOL
REMARK 927      BINDING AFFINITY PREDICTED BY RF-SCORE:    0.00 PKD
ROOT
HETATM    1  C   UNL     1     -10.785  14.597  65.024  1.00  0.00    -0.430 C  
HETATM    2  O   UNL     1      -9.629  15.179  65.624  1.00  0.00    -0.334 OA 
ENDROOT
BRANCH   2   3
HETATM    3  C   UNL     1      -9.859  16.005  66.697  1.00  0.00    -0.260 A  
HETATM    4  C   UNL     1     -10.649  15.586  67.776  1.00  0.00    -0.281 A  
HETATM    5  C   UNL     1     -10.801  16.387  68.909  1.00  0.00    -0.334 A  
HETATM    6  C   UNL     1     -10.186  17.634  68.948  1.00  0.00    -0.354 A  
HETATM    7  C   UNL     1      -9.270  17.291  66.709  1.00  0.00    -0.255 A  
HETATM    8  C   UNL     1      -9.427  18.098  67.859  1.00  0.00    -0.281 A  
BRANCH   5   9
HETATM    9  C   UNL     1     -11.548  15.820  70.065  1.00  0.00    -0.357 C  
HETATM   10  N   UNL     1     -12.418  14.791  69.802  1.00  0.00    -0.539 N  
HETATM   11  O   UNL     1     -11.353  16.266  71.191  1.00  0.00    -0.381 OA 
HETATM   12  H   UNL     1     -12.548  14.463  68.845  1.00  0.00     0.000 HD 
BRANCH  10  13
HETATM   13  C   UNL     1     -13.150  14.173  70.885  1.00  0.00    -0.272 C  
BRANCH  13  14
HETATM   14  C   UNL     1     -12.838  12.706  70.973  1.00  0.00    -0.254 A  
HETATM   15  C   UNL     1     -12.033  12.121  69.997  1.00  0.00    -0.391 A  
HETATM   16  C   UNL     1     -11.774  10.755  70.019  1.00  0.00    -0.417 A  
HETATM   17  C   UNL     1     -12.319   9.933  71.013  1.00  0.00    -0.357 A  
HETATM   18  C   UNL     1     -13.112  10.514  72.004  1.00  0.00    -0.511 A  
HETATM   19  C   UNL     1     -13.376  11.891  71.985  1.00  0.00    -0.425 A  
BRANCH  17  20
HETATM   20  O   UNL     1     -12.139   8.568  71.085  1.00  0.00    -0.288 OA 
BRANCH  20  21
HETATM   21  C   UNL     1     -10.762   8.176  71.059  1.00  0.00    -0.217 C  
BRANCH  21  22
HETATM   22  C   UNL     1     -10.136   8.016  72.450  1.00  0.00    -0.266 C  
BRANCH  22  23
HETATM   23  N   UNL     1      -9.717   6.616  72.700  1.00  0.00    -0.160 NA 
HETATM   24  C   UNL     1     -10.834   5.760  73.111  1.00  0.00    -0.276 C  
HETATM   25  C   UNL     1      -9.072   6.048  71.517  1.00  0.00    -0.143 C  
ENDBRANCH  22  23
ENDBRANCH  21  22
ENDBRANCH  20  21
ENDBRANCH  17  20
ENDBRANCH  13  14
ENDBRANCH  10  13
ENDBRANCH   5   9
BRANCH   8  26
HETATM   26  O   UNL     1      -8.907  19.344  68.109  1.00  0.00    -0.312 OA 
HETATM   27  C   UNL     1      -7.677  19.465  68.807  1.00  0.00    -0.362 C  
ENDBRANCH   8  26
BRANCH   7  28
HETATM   28  O   UNL     1      -8.467  17.780  65.707  1.00  0.00    -0.519 OA 
HETATM   29  C   UNL     1      -7.057  17.730  65.871  1.00  0.00    -0.243 C  
ENDBRANCH   7  28
ENDBRANCH   2   3
TORSDOF 10
ENDMDL
MODEL       11
REMARK 921   NORMALIZED FREE ENERGY PREDICTED BY IDOCK:   -5.77 KCAL/MOL
REMARK 922        TOTAL FREE ENERGY PREDICTED BY IDOCK:  -10.01 KCAL/MOL
REMARK 923 INTER-LIGAND FREE ENERGY PREDICTED BY IDOCK:   -9.17 KCAL/MOL
REMARK 924 INTRA-LIGAND FREE ENERGY PREDICTED BY IDOCK:   -0.84 KCAL/MOL
REMARK 927      BINDING AFFINITY PREDICTED BY RF-SCORE:    0.00 PKD
ROOT
HETATM    1  C   UNL     1     -11.048  13.915  64.652  1.00  0.00    -0.385 C  
HETATM    2  O   UNL     1     -10.091  14.128  65.688  1.00  0.00    -0.312 OA 
ENDROOT
BRANCH   2   3
HETATM    3  C   UNL     1     -10.512  14.892  66.749  1.00  0.00    -0.284 A  
HETATM    4  C   UNL     1     -11.311  14.345  67.763  1.00  0.00    -0.331 A  
HETATM    5  C   UNL     1     -11.655  15.095  68.889  1.00  0.00    -0.361 A  
HETATM    6  C   UNL     1     -11.228  16.415  68.985  1.00  0.00    -0.291 A  
HETATM    7  C   UNL     1     -10.114  16.248  66.816  1.00  0.00    -0.278 A  
HETATM    8  C   UNL     1     -10.465  17.002  67.959  1.00  0.00    -0.353 A  
BRANCH   5   9
HETATM    9  C   UNL     1     -12.395  14.406  69.981  1.00  0.00    -0.336 C  
HETATM   10  N   UNL     1     -12.049  13.103  70.245  1.00  0.00    -0.418 N  
HETATM   11  O   UNL     1     -13.257  15.014  70.608  1.00  0.00    -0.361 OA 
HETATM   12  H   UNL     1     -11.330  12.643  69.687  1.00  0.00     0.000 HD 
BRANCH  10  13
HETATM   13  C   UNL     1     -12.707  12.387  71.315  1.00  0.00    -0.248 C  
BRANCH  13  14
HETATM   14  C   UNL     1     -12.446  10.911  71.209  1.00  0.00    -0.493 A  
HETATM   15  C   UNL     1     -13.230  10.027  71.948  1.00  0.00    -0.557 A  
HETATM   16  C   UNL     1     -12.976   8.660  71.916  1.00  0.00    -0.409 A  
HETATM   17  C   UNL     1     -11.926   8.139  71.151  1.00  0.00    -0.273 A  
HETATM   18  C   UNL     1     -11.147   9.016  70.394  1.00  0.00    -0.279 A  
HETATM   19  C   UNL     1     -11.400  10.395  70.425  1.00  0.00    -0.417 A  
BRANCH  17  20
HETATM   20  O   UNL     1     -11.587   6.803  71.094  1.00  0.00    -0.292 OA 
BRANCH  20  21
HETATM   21  C   UNL     1     -11.835   6.104  72.319  1.00  0.00    -0.275 C  
BRANCH  21  22
HETATM   22  C   UNL     1     -10.586   5.454  72.926  1.00  0.00    -0.229 C  
BRANCH  22  23
HETATM   23  N   UNL     1      -9.380   6.289  72.714  1.00  0.00    -0.144 NA 
HETATM   24  C   UNL     1      -9.021   7.071  73.900  1.00  0.00    -0.186 C  
HETATM   25  C   UNL     1      -8.243   5.464  72.307  1.00  0.00    -0.115 C  
ENDBRANCH  22  23
ENDBRANCH  21  22
ENDBRANCH  20  21
ENDBRANCH  17  20
ENDBRANCH  13  14
ENDBRANCH  10  13
ENDBRANCH   5   9
BRANCH   8  26
HETATM   26  O   UNL     1     -10.146  18.304  68.258  1.00  0.00    -0.347 OA 
HETATM   27  C   UNL     1     -10.777  19.362  67.553  1.00  0.00    -0.453 C  
ENDBRANCH   8  26
BRANCH   7  28
HETATM   28  O   UNL     1      -9.318  16.865  65.881  1.00  0.00    -0.489 OA 
HETATM   29  C   UNL     1      -7.918  16.931  66.108  1.00  0.00    -0.255 C  
ENDBRANCH   7  28
ENDBRANCH   2   3
TORSDOF 10
ENDMDL
MODEL       12
REMARK 921   NORMALIZED FREE ENERGY PREDICTED BY IDOCK:   -5.77 KCAL/MOL
REMARK 922        TOTAL FREE ENERGY PREDICTED BY IDOCK:  -10.00 KCAL/MOL
REMARK 923 INTER-LIGAND FREE ENERGY PREDICTED BY IDOCK:   -9.07 KCAL/MOL
REMARK 924 INTRA-LIGAND FREE ENERGY PREDICTED BY IDOCK:   -0.94 KCAL/MOL
REMARK 927      BINDING AFFINITY PREDICTED BY RF-SCORE:    0.00 PKD
ROOT
HETATM    1  C   UNL     1      -9.860   7.736  70.574  1.00  0.00    -0.182 C  
HETATM    2  O   UNL     1     -11.230   8.123  70.669  1.00  0.00    -0.261 OA 
ENDROOT
BRANCH   2   3
HETATM    3  C   UNL     1     -11.486   9.466  70.536  1.00  0.00    -0.262 A  
HETATM    4  C   UNL     1     -10.942  10.206  69.478  1.00  0.00    -0.295 A  
HETATM    5  C   UNL     1     -11.283  11.546  69.289  1.00  0.00    -0.336 A  
HETATM    6  C   UNL     1     -12.147  12.162  70.187  1.00  0.00    -0.368 A  
HETATM    7  C   UNL     1     -12.328  10.097  71.481  1.00  0.00    -0.408 A  
HETATM    8  C   UNL     1     -12.670  11.455  71.285  1.00  0.00    -0.393 A  
BRANCH   5   9
HETATM    9  C   UNL     1     -10.766  12.228  68.070  1.00  0.00    -0.218 C  
HETATM   10  N   UNL     1     -11.640  13.042  67.392  1.00  0.00    -0.335 N  
HETATM   11  O   UNL     1      -9.600  12.060  67.729  1.00  0.00    -0.183 OA 
HETATM   12  H   UNL     1     -12.603  13.140  67.716  1.00  0.00     0.000 HD 
BRANCH  10  13
HETATM   13  C   UNL     1     -11.193  13.759  66.219  1.00  0.00    -0.306 C  
BRANCH  13  14
HETATM   14  C   UNL     1     -10.895  15.193  66.551  1.00  0.00    -0.317 A  
HETATM   15  C   UNL     1     -10.989  15.620  67.874  1.00  0.00    -0.319 A  
HETATM   16  C   UNL     1     -10.775  16.954  68.205  1.00  0.00    -0.375 A  
HETATM   17  C   UNL     1     -10.469  17.901  67.220  1.00  0.00    -0.366 A  
HETATM   18  C   UNL     1     -10.356  17.479  65.895  1.00  0.00    -0.265 A  
HETATM   19  C   UNL     1     -10.572  16.134  65.558  1.00  0.00    -0.394 A  
BRANCH  17  20
HETATM   20  O   UNL     1     -10.278  19.246  67.460  1.00  0.00    -0.362 OA 
BRANCH  20  21
HETATM   21  C   UNL     1      -9.098  19.522  68.222  1.00  0.00    -0.342 C  
BRANCH  21  22
HETATM   22  C   UNL     1      -7.850  19.771  67.366  1.00  0.00    -0.276 C  
BRANCH  22  23
HETATM   23  N   UNL     1      -6.632  19.217  68.004  1.00  0.00    -0.233 NA 
HETATM   24  C   UNL     1      -5.906  20.216  68.794  1.00  0.00    -0.272 C  
HETATM   25  C   UNL     1      -6.965  18.071  68.848  1.00  0.00    -0.260 C  
ENDBRANCH  22  23
ENDBRANCH  21  22
ENDBRANCH  20  21
ENDBRANCH  17  20
ENDBRANCH  13  14
ENDBRANCH  10  13
ENDBRANCH   5   9
BRANCH   8  26
HETATM   26  O   UNL     1     -13.503  12.247  72.037  1.00  0.00    -0.467 OA 
HETATM   27  C   UNL     1     -13.242  13.638  72.143  1.00  0.00    -0.449 C  
ENDBRANCH   8  26
BRANCH   7  28
HETATM   28  O   UNL     1     -12.921   9.451  72.539  1.00  0.00    -0.380 OA 
HETATM   29  C   UNL     1     -14.146   8.764  72.324  1.00  0.00    -0.441 C  
ENDBRANCH   7  28
ENDBRANCH   2   3
TORSDOF 10
ENDMDL
MODEL       13
REMARK 921   NORMALIZED FREE ENERGY PREDICTED BY IDOCK:   -5.76 KCAL/MOL
REMARK 922        TOTAL FREE ENERGY PREDICTED BY IDOCK:   -9.99 KCAL/MOL
REMARK 923 INTER-LIGAND FREE ENERGY PREDICTED BY IDOCK:   -8.86 KCAL/MOL
REMARK 924 INTRA-LIGAND FREE ENERGY PREDICTED BY IDOCK:   -1.13 KCAL/MOL
REMARK 927      BINDING AFFINITY PREDICTED BY RF-SCORE:    0.00 PKD
ROOT
HETATM    1  C   UNL     1     -12.374  12.539  64.864  1.00  0.00    -0.470 C  
HETATM    2  O   UNL     1     -11.219  12.714  65.683  1.00  0.00    -0.290 OA 
ENDROOT
BRANCH   2   3
HETATM    3  C   UNL     1     -11.373  13.537  66.772  1.00  0.00    -0.328 A  
HETATM    4  C   UNL     1     -11.891  13.050  67.980  1.00  0.00    -0.391 A  
HETATM    5  C   UNL     1     -11.954  13.862  69.113  1.00  0.00    -0.404 A  
HETATM    6  C   UNL     1     -11.530  15.183  69.029  1.00  0.00    -0.325 A  
HETATM    7  C   UNL     1     -10.985  14.893  66.664  1.00  0.00    -0.325 A  
HETATM    8  C   UNL     1     -11.051  15.711  67.816  1.00  0.00    -0.311 A  
BRANCH   5   9
HETATM    9  C   UNL     1     -12.395  13.237  70.391  1.00  0.00    -0.295 C  
HETATM   10  N   UNL     1     -12.523  11.870  70.406  1.00  0.00    -0.218 N  
HETATM   11  O   UNL     1     -12.606  13.944  71.371  1.00  0.00    -0.344 OA 
HETATM   12  H   UNL     1     -12.342  11.330  69.559  1.00  0.00     0.000 HD 
BRANCH  10  13
HETATM   13  C   UNL     1     -12.915  11.197  71.624  1.00  0.00    -0.443 C  
BRANCH  13  14
HETATM   14  C   UNL     1     -12.499   9.754  71.595  1.00  0.00    -0.500 A  
HETATM   15  C   UNL     1     -11.162   9.435  71.369  1.00  0.00    -0.452 A  
HETATM   16  C   UNL     1     -10.756   8.108  71.279  1.00  0.00    -0.270 A  
HETATM   17  C   UNL     1     -11.678   7.061  71.405  1.00  0.00    -0.306 A  
HETATM   18  C   UNL     1     -13.016   7.372  71.649  1.00  0.00    -0.409 A  
HETATM   19  C   UNL     1     -13.429   8.709  71.739  1.00  0.00    -0.418 A  
BRANCH  17  20
HETATM   20  O   UNL     1     -11.363   5.723  71.293  1.00  0.00    -0.217 OA 
BRANCH  20  21
HETATM   21  C   UNL     1     -10.065   5.493  70.734  1.00  0.00    -0.212 C  
BRANCH  21  22
HETATM   22  C   UNL     1     -10.093   4.836  69.348  1.00  0.00    -0.171 C  
BRANCH  22  23
HETATM   23  N   UNL     1      -9.585   5.754  68.301  1.00  0.00    -0.117 NA 
HETATM   24  C   UNL     1     -10.638   6.607  67.741  1.00  0.00    -0.252 C  
HETATM   25  C   UNL     1      -8.502   6.586  68.821  1.00  0.00    -0.122 C  
ENDBRANCH  22  23
ENDBRANCH  21  22
ENDBRANCH  20  21
ENDBRANCH  17  20
ENDBRANCH  13  14
ENDBRANCH  10  13
ENDBRANCH   5   9
BRANCH   8  26
HETATM   26  O   UNL     1     -10.681  17.026  67.956  1.00  0.00    -0.357 OA 
HETATM   27  C   UNL     1      -9.391  17.343  68.454  1.00  0.00    -0.285 C  
ENDBRANCH   8  26
BRANCH   7  28
HETATM   28  O   UNL     1     -10.451  15.454  65.530  1.00  0.00    -0.322 OA 
HETATM   29  C   UNL     1     -11.325  16.052  64.583  1.00  0.00    -0.306 C  
ENDBRANCH   7  28
ENDBRANCH   2   3
TORSDOF 10
ENDMDL
MODEL       14
REMARK 921   NORMALIZED FREE ENERGY PREDICTED BY IDOCK:   -5.73 KCAL/MOL
REMARK 922        TOTAL FREE ENERGY PREDICTED BY IDOCK:   -9.95 KCAL/MOL
REMARK 923 INTER-LIGAND FREE ENERGY PREDICTED BY IDOCK:   -9.12 KCAL/MOL
REMARK 924 INTRA-LIGAND FREE ENERGY PREDICTED BY IDOCK:   -0.83 KCAL/MOL
REMARK 927      BINDING AFFINITY PREDICTED BY RF-SCORE:    0.00 PKD
ROOT
HETATM    1  C   UNL     1     -10.773  19.770  65.832  1.00  0.00    -0.383 C  
HETATM    2  O   UNL     1     -10.641  18.354  65.718  1.00  0.00    -0.570 OA 
ENDROOT
BRANCH   2   3
HETATM    3  C   UNL     1     -10.071  17.714  66.792  1.00  0.00    -0.334 A  
HETATM    4  C   UNL     1     -10.857  17.242  67.853  1.00  0.00    -0.283 A  
HETATM    5  C   UNL     1     -10.289  16.506  68.894  1.00  0.00    -0.292 A  
HETATM    6  C   UNL     1      -8.918  16.271  68.894  1.00  0.00    -0.248 A  
HETATM    7  C   UNL     1      -8.670  17.521  66.808  1.00  0.00    -0.257 A  
HETATM    8  C   UNL     1      -8.101  16.774  67.865  1.00  0.00    -0.185 A  
BRANCH   5   9
HETATM    9  C   UNL     1     -11.205  15.930  69.916  1.00  0.00    -0.348 C  
HETATM   10  N   UNL     1     -11.778  14.715  69.626  1.00  0.00    -0.295 N  
HETATM   11  O   UNL     1     -11.401  16.533  70.966  1.00  0.00    -0.307 OA 
HETATM   12  H   UNL     1     -11.587  14.260  68.734  1.00  0.00     0.000 HD 
BRANCH  10  13
HETATM   13  C   UNL     1     -12.652  14.084  70.589  1.00  0.00    -0.344 C  
BRANCH  13  14
HETATM   14  C   UNL     1     -12.398  12.605  70.653  1.00  0.00    -0.375 A  
HETATM   15  C   UNL     1     -11.591  12.010  69.685  1.00  0.00    -0.371 A  
HETATM   16  C   UNL     1     -11.385  10.635  69.683  1.00  0.00    -0.360 A  
HETATM   17  C   UNL     1     -11.986   9.813  70.645  1.00  0.00    -0.259 A  
HETATM   18  C   UNL     1     -12.782  10.404  71.628  1.00  0.00    -0.560 A  
HETATM   19  C   UNL     1     -12.993  11.790  71.632  1.00  0.00    -0.467 A  
BRANCH  17  20
HETATM   20  O   UNL     1     -11.861   8.441  70.690  1.00  0.00    -0.224 OA 
BRANCH  20  21
HETATM   21  C   UNL     1     -12.147   7.890  71.981  1.00  0.00    -0.320 C  
BRANCH  21  22
HETATM   22  C   UNL     1     -12.151   6.356  72.013  1.00  0.00    -0.303 C  
BRANCH  22  23
HETATM   23  N   UNL     1     -10.939   5.823  72.679  1.00  0.00    -0.251 NA 
HETATM   24  C   UNL     1     -10.336   6.787  73.604  1.00  0.00    -0.344 C  
HETATM   25  C   UNL     1     -11.241   4.582  73.391  1.00  0.00    -0.315 C  
ENDBRANCH  22  23
ENDBRANCH  21  22
ENDBRANCH  20  21
ENDBRANCH  17  20
ENDBRANCH  13  14
ENDBRANCH  10  13
ENDBRANCH   5   9
BRANCH   8  26
HETATM   26  O   UNL     1      -6.787  16.422  68.056  1.00  0.00    -0.128 OA 
HETATM   27  C   UNL     1      -6.322  16.126  69.364  1.00  0.00    -0.179 C  
ENDBRANCH   8  26
BRANCH   7  28
HETATM   28  O   UNL     1      -7.823  17.931  65.807  1.00  0.00    -0.542 OA 
HETATM   29  C   UNL     1      -7.147  19.171  65.945  1.00  0.00    -0.273 C  
ENDBRANCH   7  28
ENDBRANCH   2   3
TORSDOF 10
ENDMDL
MODEL       15
REMARK 921   NORMALIZED FREE ENERGY PREDICTED BY IDOCK:   -5.73 KCAL/MOL
REMARK 922        TOTAL FREE ENERGY PREDICTED BY IDOCK:   -9.94 KCAL/MOL
REMARK 923 INTER-LIGAND FREE ENERGY PREDICTED BY IDOCK:   -8.94 KCAL/MOL
REMARK 924 INTRA-LIGAND FREE ENERGY PREDICTED BY IDOCK:   -1.00 KCAL/MOL
REMARK 927      BINDING AFFINITY PREDICTED BY RF-SCORE:    0.00 PKD
ROOT
HETATM    1  C   UNL     1     -11.778  12.746  67.345  1.00  0.00    -0.366 C  
HETATM    2  O   UNL     1     -11.087  12.837  68.589  1.00  0.00    -0.240 OA 
ENDROOT
BRANCH   2   3
HETATM    3  C   UNL     1     -11.844  12.624  69.715  1.00  0.00    -0.309 A  
HETATM    4  C   UNL     1     -12.052  11.330  70.214  1.00  0.00    -0.459 A  
HETATM    5  C   UNL     1     -12.738  11.125  71.412  1.00  0.00    -0.524 A  
HETATM    6  C   UNL     1     -13.253  12.219  72.099  1.00  0.00    -0.466 A  
HETATM    7  C   UNL     1     -12.406  13.738  70.382  1.00  0.00    -0.353 A  
HETATM    8  C   UNL     1     -13.099  13.523  71.595  1.00  0.00    -0.374 A  
BRANCH   5   9
HETATM    9  C   UNL     1     -12.806   9.736  71.943  1.00  0.00    -0.427 C  
HETATM   10  N   UNL     1     -11.654   8.989  71.888  1.00  0.00    -0.365 N  
HETATM   11  O   UNL     1     -13.857   9.317  72.418  1.00  0.00    -0.470 OA 
HETATM   12  H   UNL     1     -10.809   9.383  71.475  1.00  0.00     0.000 HD 
BRANCH  10  13
HETATM   13  C   UNL     1     -11.643   7.644  72.416  1.00  0.00    -0.336 C  
BRANCH  13  14
HETATM   14  C   UNL     1     -10.991   6.695  71.451  1.00  0.00    -0.291 A  
HETATM   15  C   UNL     1     -11.326   6.762  70.100  1.00  0.00    -0.404 A  
HETATM   16  C   UNL     1     -10.783   5.860  69.191  1.00  0.00    -0.394 A  
HETATM   17  C   UNL     1      -9.897   4.860  69.608  1.00  0.00    -0.218 A  
HETATM   18  C   UNL     1      -9.544   4.797  70.957  1.00  0.00    -0.242 A  
HETATM   19  C   UNL     1     -10.089   5.704  71.877  1.00  0.00    -0.235 A  
BRANCH  17  20
HETATM   20  O   UNL     1      -9.344   3.908  68.778  1.00  0.00    -0.144 OA 
BRANCH  20  21
HETATM   21  C   UNL     1      -8.292   4.419  67.953  1.00  0.00    -0.095 C  
BRANCH  21  22
HETATM   22  C   UNL     1      -8.243   3.797  66.551  1.00  0.00    -0.100 C  
BRANCH  22  23
HETATM   23  N   UNL     1      -8.945   4.642  65.556  1.00  0.00    -0.136 NA 
HETATM   24  C   UNL     1     -10.390   4.397  65.529  1.00  0.00    -0.224 C  
HETATM   25  C   UNL     1      -8.691   6.059  65.808  1.00  0.00    -0.151 C  
ENDBRANCH  22  23
ENDBRANCH  21  22
ENDBRANCH  20  21
ENDBRANCH  17  20
ENDBRANCH  13  14
ENDBRANCH  10  13
ENDBRANCH   5   9
BRANCH   8  26
HETATM   26  O   UNL     1     -13.675  14.450  72.429  1.00  0.00    -0.418 OA 
HETATM   27  C   UNL     1     -12.896  15.057  73.449  1.00  0.00    -0.528 C  
ENDBRANCH   8  26
BRANCH   7  28
HETATM   28  O   UNL     1     -12.241  15.041  69.979  1.00  0.00    -0.311 OA 
HETATM   29  C   UNL     1     -11.070  15.740  70.377  1.00  0.00    -0.366 C  
ENDBRANCH   7  28
ENDBRANCH   2   3
TORSDOF 10
ENDMDL
MODEL       16
REMARK 921   NORMALIZED FREE ENERGY PREDICTED BY IDOCK:   -5.71 KCAL/MOL
REMARK 922        TOTAL FREE ENERGY PREDICTED BY IDOCK:   -9.91 KCAL/MOL
REMARK 923 INTER-LIGAND FREE ENERGY PREDICTED BY IDOCK:   -9.11 KCAL/MOL
REMARK 924 INTRA-LIGAND FREE ENERGY PREDICTED BY IDOCK:   -0.80 KCAL/MOL
REMARK 927      BINDING AFFINITY PREDICTED BY RF-SCORE:    0.00 PKD
ROOT
HETATM    1  C   UNL     1      -9.624  19.366  68.777  1.00  0.00    -0.432 C  
HETATM    2  O   UNL     1     -10.512  18.742  67.851  1.00  0.00    -0.392 OA 
ENDROOT
BRANCH   2   3
HETATM    3  C   UNL     1     -10.530  17.368  67.867  1.00  0.00    -0.383 A  
HETATM    4  C   UNL     1     -11.198  16.664  68.878  1.00  0.00    -0.200 A  
HETATM    5  C   UNL     1     -11.299  15.272  68.838  1.00  0.00    -0.315 A  
HETATM    6  C   UNL     1     -10.694  14.576  67.797  1.00  0.00    -0.256 A  
HETATM    7  C   UNL     1      -9.871  16.665  66.831  1.00  0.00    -0.263 A  
HETATM    8  C   UNL     1      -9.977  15.255  66.795  1.00  0.00    -0.242 A  
BRANCH   5   9
HETATM    9  C   UNL     1     -12.133  14.607  69.875  1.00  0.00    -0.335 C  
HETATM   10  N   UNL     1     -11.904  13.272  70.100  1.00  0.00    -0.485 N  
HETATM   11  O   UNL     1     -12.967  15.260  70.494  1.00  0.00    -0.383 OA 
HETATM   12  H   UNL     1     -11.203  12.774  69.550  1.00  0.00     0.000 HD 
BRANCH  10  13
HETATM   13  C   UNL     1     -12.658  12.573  71.116  1.00  0.00    -0.253 C  
BRANCH  13  14
HETATM   14  C   UNL     1     -12.361  11.101  71.086  1.00  0.00    -0.451 A  
HETATM   15  C   UNL     1     -11.303  10.636  70.307  1.00  0.00    -0.401 A  
HETATM   16  C   UNL     1     -11.039   9.274  70.212  1.00  0.00    -0.289 A  
HETATM   17  C   UNL     1     -11.831   8.337  70.887  1.00  0.00    -0.216 A  
HETATM   18  C   UNL     1     -12.882   8.796  71.682  1.00  0.00    -0.392 A  
HETATM   19  C   UNL     1     -13.151  10.169  71.780  1.00  0.00    -0.568 A  
BRANCH  17  20
HETATM   20  O   UNL     1     -11.658   6.971  70.817  1.00  0.00    -0.304 OA 
BRANCH  20  21
HETATM   21  C   UNL     1     -11.804   6.316  72.082  1.00  0.00    -0.315 C  
BRANCH  21  22
HETATM   22  C   UNL     1     -10.755   5.227  72.342  1.00  0.00    -0.229 C  
BRANCH  22  23
HETATM   23  N   UNL     1     -10.951   4.588  73.666  1.00  0.00    -0.291 NA 
HETATM   24  C   UNL     1     -11.222   3.152  73.563  1.00  0.00    -0.185 C  
HETATM   25  C   UNL     1      -9.790   4.810  74.525  1.00  0.00    -0.186 C  
ENDBRANCH  22  23
ENDBRANCH  21  22
ENDBRANCH  20  21
ENDBRANCH  17  20
ENDBRANCH  13  14
ENDBRANCH  10  13
ENDBRANCH   5   9
BRANCH   8  26
HETATM   26  O   UNL     1      -9.469  14.381  65.866  1.00  0.00    -0.256 OA 
HETATM   27  C   UNL     1     -10.322  13.848  64.865  1.00  0.00    -0.406 C  
ENDBRANCH   8  26
BRANCH   7  28
HETATM   28  O   UNL     1      -9.207  17.267  65.790  1.00  0.00    -0.517 OA 
HETATM   29  C   UNL     1      -7.866  17.691  65.985  1.00  0.00    -0.166 C  
ENDBRANCH   7  28
ENDBRANCH   2   3
TORSDOF 10
ENDMDL
MODEL       17
REMARK 921   NORMALIZED FREE ENERGY PREDICTED BY IDOCK:   -5.69 KCAL/MOL
REMARK 922        TOTAL FREE ENERGY PREDICTED BY IDOCK:   -9.88 KCAL/MOL
REMARK 923 INTER-LIGAND FREE ENERGY PREDICTED BY IDOCK:   -8.99 KCAL/MOL
REMARK 924 INTRA-LIGAND FREE ENERGY PREDICTED BY IDOCK:   -0.89 KCAL/MOL
REMARK 927      BINDING AFFINITY PREDICTED BY RF-SCORE:    0.00 PKD
ROOT
HETATM    1  C   UNL     1     -10.210   5.000  74.469  1.00  0.00    -0.274 C  
HETATM    2  O   UNL     1     -10.231   4.287  73.233  1.00  0.00    -0.141 OA 
ENDROOT
BRANCH   2   3
HETATM    3  C   UNL     1     -10.633   5.004  72.132  1.00  0.00    -0.193 A  
HETATM    4  C   UNL     1     -11.460   6.128  72.261  1.00  0.00    -0.360 A  
HETATM    5  C   UNL     1     -11.786   6.911  71.153  1.00  0.00    -0.381 A  
HETATM    6  C   UNL     1     -11.310   6.547  69.898  1.00  0.00    -0.469 A  
HETATM    7  C   UNL     1     -10.185   4.599  70.853  1.00  0.00    -0.143 A  
HETATM    8  C   UNL     1     -10.518   5.396  69.734  1.00  0.00    -0.307 A  
BRANCH   5   9
HETATM    9  C   UNL     1     -12.560   8.160  71.390  1.00  0.00    -0.283 C  
HETATM   10  N   UNL     1     -11.868   9.345  71.334  1.00  0.00    -0.346 N  
HETATM   11  O   UNL     1     -13.767   8.095  71.604  1.00  0.00    -0.352 OA 
HETATM   12  H   UNL     1     -10.862   9.341  71.160  1.00  0.00     0.000 HD 
BRANCH  10  13
HETATM   13  C   UNL     1     -12.566  10.596  71.523  1.00  0.00    -0.412 C  
BRANCH  13  14
HETATM   14  C   UNL     1     -12.317  11.526  70.370  1.00  0.00    -0.390 A  
HETATM   15  C   UNL     1     -11.978  10.995  69.127  1.00  0.00    -0.394 A  
HETATM   16  C   UNL     1     -11.685  11.832  68.056  1.00  0.00    -0.363 A  
HETATM   17  C   UNL     1     -11.715  13.225  68.198  1.00  0.00    -0.362 A  
HETATM   18  C   UNL     1     -12.070  13.765  69.435  1.00  0.00    -0.377 A  
HETATM   19  C   UNL     1     -12.365  12.924  70.518  1.00  0.00    -0.362 A  
BRANCH  17  20
HETATM   20  O   UNL     1     -11.404  14.121  67.198  1.00  0.00    -0.305 OA 
BRANCH  20  21
HETATM   21  C   UNL     1     -12.225  13.976  66.034  1.00  0.00    -0.458 C  
BRANCH  21  22
HETATM   22  C   UNL     1     -11.433  13.776  64.735  1.00  0.00    -0.356 C  
BRANCH  22  23
HETATM   23  N   UNL     1     -11.427  12.354  64.315  1.00  0.00    -0.340 NA 
HETATM   24  C   UNL     1     -12.635  11.981  63.574  1.00  0.00    -0.507 C  
HETATM   25  C   UNL     1     -10.244  12.056  63.510  1.00  0.00    -0.450 C  
ENDBRANCH  22  23
ENDBRANCH  21  22
ENDBRANCH  20  21
ENDBRANCH  17  20
ENDBRANCH  13  14
ENDBRANCH  10  13
ENDBRANCH   5   9
BRANCH   8  26
HETATM   26  O   UNL     1     -10.153   5.226  68.421  1.00  0.00    -0.167 OA 
HETATM   27  C   UNL     1     -10.706   6.070  67.423  1.00  0.00    -0.310 C  
ENDBRANCH   8  26
BRANCH   7  28
HETATM   28  O   UNL     1      -9.359   3.524  70.629  1.00  0.00    -0.130 OA 
HETATM   29  C   UNL     1      -7.953   3.717  70.675  1.00  0.00    -0.054 C  
ENDBRANCH   7  28
ENDBRANCH   2   3
TORSDOF 10
ENDMDL
MODEL       18
REMARK 921   NORMALIZED FREE ENERGY PREDICTED BY IDOCK:   -5.68 KCAL/MOL
REMARK 922        TOTAL FREE ENERGY PREDICTED BY IDOCK:   -9.87 KCAL/MOL
REMARK 923 INTER-LIGAND FREE ENERGY PREDICTED BY IDOCK:   -9.05 KCAL/MOL
REMARK 924 INTRA-LIGAND FREE ENERGY PREDICTED BY IDOCK:   -0.82 KCAL/MOL
REMARK 927      BINDING AFFINITY PREDICTED BY RF-SCORE:    0.00 PKD
ROOT
HETATM    1  C   UNL     1      -7.148  17.947  66.062  1.00  0.00    -0.305 C  
HETATM    2  O   UNL     1      -8.538  18.260  65.985  1.00  0.00    -0.494 OA 
ENDROOT
BRANCH   2   3
HETATM    3  C   UNL     1      -9.392  17.350  66.559  1.00  0.00    -0.270 A  
HETATM    4  C   UNL     1      -9.850  16.235  65.842  1.00  0.00    -0.365 A  
HETATM    5  C   UNL     1     -10.637  15.261  66.457  1.00  0.00    -0.304 A  
HETATM    6  C   UNL     1     -11.001  15.420  67.790  1.00  0.00    -0.311 A  
HETATM    7  C   UNL     1      -9.797  17.544  67.900  1.00  0.00    -0.293 A  
HETATM    8  C   UNL     1     -10.594  16.553  68.518  1.00  0.00    -0.318 A  
BRANCH   5   9
HETATM    9  C   UNL     1     -10.976  14.044  65.669  1.00  0.00    -0.300 C  
HETATM   10  N   UNL     1      -9.973  13.125  65.478  1.00  0.00    -0.426 N  
HETATM   11  O   UNL     1     -12.116  13.895  65.242  1.00  0.00    -0.368 OA 
HETATM   12  H   UNL     1      -9.040  13.302  65.849  1.00  0.00     0.000 HD 
BRANCH  10  13
HETATM   13  C   UNL     1     -10.244  11.906  64.750  1.00  0.00    -0.276 C  
BRANCH  13  14
HETATM   14  C   UNL     1     -10.229  10.719  65.669  1.00  0.00    -0.320 A  
HETATM   15  C   UNL     1     -10.834  10.819  66.921  1.00  0.00    -0.288 A  
HETATM   16  C   UNL     1     -10.785   9.756  67.817  1.00  0.00    -0.329 A  
HETATM   17  C   UNL     1     -10.124   8.566  67.491  1.00  0.00    -0.221 A  
HETATM   18  C   UNL     1      -9.530   8.452  66.234  1.00  0.00    -0.292 A  
HETATM   19  C   UNL     1      -9.575   9.521  65.327  1.00  0.00    -0.314 A  
BRANCH  17  20
HETATM   20  O   UNL     1     -10.000   7.483  68.336  1.00  0.00    -0.160 OA 
BRANCH  20  21
HETATM   21  C   UNL     1     -10.676   7.661  69.586  1.00  0.00    -0.228 C  
BRANCH  21  22
HETATM   22  C   UNL     1     -11.505   6.446  70.021  1.00  0.00    -0.428 C  
BRANCH  22  23
HETATM   23  N   UNL     1     -12.100   6.647  71.364  1.00  0.00    -0.353 NA 
HETATM   24  C   UNL     1     -11.161   6.341  72.447  1.00  0.00    -0.280 C  
HETATM   25  C   UNL     1     -12.594   8.015  71.513  1.00  0.00    -0.312 C  
ENDBRANCH  22  23
ENDBRANCH  21  22
ENDBRANCH  20  21
ENDBRANCH  17  20
ENDBRANCH  13  14
ENDBRANCH  10  13
ENDBRANCH   5   9
BRANCH   8  26
HETATM   26  O   UNL     1     -11.055  16.506  69.811  1.00  0.00    -0.337 OA 
HETATM   27  C   UNL     1     -12.051  15.560  70.167  1.00  0.00    -0.378 C  
ENDBRANCH   8  26
BRANCH   7  28
HETATM   28  O   UNL     1      -9.386  18.593  68.686  1.00  0.00    -0.335 OA 
HETATM   29  C   UNL     1     -10.141  19.796  68.674  1.00  0.00    -0.440 C  
ENDBRANCH   7  28
ENDBRANCH   2   3
TORSDOF 10
ENDMDL
MODEL       19
REMARK 921   NORMALIZED FREE ENERGY PREDICTED BY IDOCK:   -5.66 KCAL/MOL
REMARK 922        TOTAL FREE ENERGY PREDICTED BY IDOCK:   -9.84 KCAL/MOL
REMARK 923 INTER-LIGAND FREE ENERGY PREDICTED BY IDOCK:   -8.80 KCAL/MOL
REMARK 924 INTRA-LIGAND FREE ENERGY PREDICTED BY IDOCK:   -1.04 KCAL/MOL
REMARK 927      BINDING AFFINITY PREDICTED BY RF-SCORE:    0.00 PKD
ROOT
HETATM    1  C   UNL     1     -11.358  14.839  65.234  1.00  0.00    -0.363 C  
HETATM    2  O   UNL     1     -10.589  15.288  66.348  1.00  0.00    -0.294 OA 
ENDROOT
BRANCH   2   3
HETATM    3  C   UNL     1     -11.057  14.925  67.588  1.00  0.00    -0.311 A  
HETATM    4  C   UNL     1     -11.496  13.618  67.841  1.00  0.00    -0.348 A  
HETATM    5  C   UNL     1     -11.877  13.225  69.125  1.00  0.00    -0.378 A  
HETATM    6  C   UNL     1     -11.855  14.156  70.157  1.00  0.00    -0.382 A  
HETATM    7  C   UNL     1     -11.077  15.890  68.621  1.00  0.00    -0.337 A  
HETATM    8  C   UNL     1     -11.464  15.487  69.920  1.00  0.00    -0.327 A  
BRANCH   5   9
HETATM    9  C   UNL     1     -12.206  11.789  69.342  1.00  0.00    -0.157 C  
HETATM   10  N   UNL     1     -12.443  11.391  70.634  1.00  0.00    -0.340 N  
HETATM   11  O   UNL     1     -12.272  11.029  68.380  1.00  0.00    -0.586 OA 
HETATM   12  H   UNL     1     -12.367  12.063  71.398  1.00  0.00     0.000 HD 
BRANCH  10  13
HETATM   13  C   UNL     1     -12.800  10.017  70.910  1.00  0.00    -0.324 C  
BRANCH  13  14
HETATM   14  C   UNL     1     -11.630   9.265  71.479  1.00  0.00    -0.452 A  
HETATM   15  C   UNL     1     -11.838   8.382  72.537  1.00  0.00    -0.427 A  
HETATM   16  C   UNL     1     -10.767   7.715  73.122  1.00  0.00    -0.445 A  
HETATM   17  C   UNL     1      -9.457   7.917  72.672  1.00  0.00    -0.222 A  
HETATM   18  C   UNL     1      -9.243   8.787  71.602  1.00  0.00    -0.333 A  
HETATM   19  C   UNL     1     -10.320   9.462  71.009  1.00  0.00    -0.382 A  
BRANCH  17  20
HETATM   20  O   UNL     1      -8.340   7.323  73.221  1.00  0.00    -0.112 OA 
BRANCH  20  21
HETATM   21  C   UNL     1      -8.435   5.896  73.288  1.00  0.00    -0.118 C  
BRANCH  21  22
HETATM   22  C   UNL     1      -8.124   5.190  71.962  1.00  0.00    -0.113 C  
BRANCH  22  23
HETATM   23  N   UNL     1      -9.273   4.379  71.495  1.00  0.00    -0.130 NA 
HETATM   24  C   UNL     1     -10.247   4.118  72.559  1.00  0.00    -0.174 C  
HETATM   25  C   UNL     1      -9.940   5.027  70.367  1.00  0.00    -0.247 C  
ENDBRANCH  22  23
ENDBRANCH  21  22
ENDBRANCH  20  21
ENDBRANCH  17  20
ENDBRANCH  13  14
ENDBRANCH  10  13
ENDBRANCH   5   9
BRANCH   8  26
HETATM   26  O   UNL     1     -11.509  16.232  71.072  1.00  0.00    -0.407 OA 
HETATM   27  C   UNL     1     -11.986  15.643  72.271  1.00  0.00    -0.467 C  
ENDBRANCH   8  26
BRANCH   7  28
HETATM   28  O   UNL     1     -10.651  17.188  68.472  1.00  0.00    -0.345 OA 
HETATM   29  C   UNL     1      -9.262  17.468  68.559  1.00  0.00    -0.278 C  
ENDBRANCH   7  28
ENDBRANCH   2   3
TORSDOF 10
ENDMDL
MODEL       20
REMARK 921   NORMALIZED FREE ENERGY PREDICTED BY IDOCK:   -5.66 KCAL/MOL
REMARK 922        TOTAL FREE ENERGY PREDICTED BY IDOCK:   -9.83 KCAL/MOL
REMARK 923 INTER-LIGAND FREE ENERGY PREDICTED BY IDOCK:   -8.93 KCAL/MOL
REMARK 924 INTRA-LIGAND FREE ENERGY PREDICTED BY IDOCK:   -0.90 KCAL/MOL
REMARK 927      BINDING AFFINITY PREDICTED BY RF-SCORE:    0.00 PKD
ROOT
HETATM    1  C   UNL     1     -10.458   8.296  67.183  1.00  0.00    -0.316 C  
HETATM    2  O   UNL     1      -9.621   8.223  68.336  1.00  0.00    -0.142 OA 
ENDROOT
BRANCH   2   3
HETATM    3  C   UNL     1     -10.238   8.443  69.543  1.00  0.00    -0.207 A  
HETATM    4  C   UNL     1     -10.861   9.667  69.825  1.00  0.00    -0.274 A  
HETATM    5  C   UNL     1     -11.572   9.854  71.012  1.00  0.00    -0.470 A  
HETATM    6  C   UNL     1     -11.630   8.821  71.941  1.00  0.00    -0.432 A  
HETATM    7  C   UNL     1     -10.252   7.405  70.503  1.00  0.00    -0.193 A  
HETATM    8  C   UNL     1     -10.974   7.599  71.703  1.00  0.00    -0.233 A  
BRANCH   5   9
HETATM    9  C   UNL     1     -12.313  11.133  71.182  1.00  0.00    -0.346 C  
HETATM   10  N   UNL     1     -11.837  12.227  70.501  1.00  0.00    -0.517 N  
HETATM   11  O   UNL     1     -13.313  11.166  71.893  1.00  0.00    -0.417 OA 
HETATM   12  H   UNL     1     -10.996  12.146  69.928  1.00  0.00     0.000 HD 
BRANCH  10  13
HETATM   13  C   UNL     1     -12.530  13.492  70.596  1.00  0.00    -0.333 C  
BRANCH  13  14
HETATM   14  C   UNL     1     -11.998  14.470  69.588  1.00  0.00    -0.375 A  
HETATM   15  C   UNL     1     -11.940  14.100  68.245  1.00  0.00    -0.367 A  
HETATM   16  C   UNL     1     -11.399  14.962  67.297  1.00  0.00    -0.355 A  
HETATM   17  C   UNL     1     -10.894  16.215  67.665  1.00  0.00    -0.297 A  
HETATM   18  C   UNL     1     -10.965  16.600  69.005  1.00  0.00    -0.279 A  
HETATM   19  C   UNL     1     -11.508  15.733  69.964  1.00  0.00    -0.359 A  
BRANCH  17  20
HETATM   20  O   UNL     1     -10.311  17.110  66.793  1.00  0.00    -0.311 OA 
BRANCH  20  21
HETATM   21  C   UNL     1     -10.292  18.453  67.290  1.00  0.00    -0.392 C  
BRANCH  21  22
HETATM   22  C   UNL     1      -9.149  19.307  66.727  1.00  0.00    -0.323 C  
BRANCH  22  23
HETATM   23  N   UNL     1      -8.311  19.877  67.809  1.00  0.00    -0.304 NA 
HETATM   24  C   UNL     1      -7.709  18.844  68.657  1.00  0.00    -0.340 C  
HETATM   25  C   UNL     1      -7.262  20.732  67.257  1.00  0.00    -0.360 C  
ENDBRANCH  22  23
ENDBRANCH  21  22
ENDBRANCH  20  21
ENDBRANCH  17  20
ENDBRANCH  13  14
ENDBRANCH  10  13
ENDBRANCH   5   9
BRANCH   8  26
HETATM   26  O   UNL     1     -11.165   6.721  72.741  1.00  0.00    -0.262 OA 
HETATM   27  C   UNL     1     -10.315   6.778  73.875  1.00  0.00    -0.368 C  
ENDBRANCH   8  26
BRANCH   7  28
HETATM   28  O   UNL     1      -9.686   6.168  70.309  1.00  0.00    -0.161 OA 
HETATM   29  C   UNL     1     -10.455   5.151  69.683  1.00  0.00    -0.191 C  
ENDBRANCH   7  28
ENDBRANCH   2   3
TORSDOF 10
ENDMDL
MODEL       21
REMARK 921   NORMALIZED FREE ENERGY PREDICTED BY IDOCK:   -5.65 KCAL/MOL
REMARK 922        TOTAL FREE ENERGY PREDICTED BY IDOCK:   -9.82 KCAL/MOL
REMARK 923 INTER-LIGAND FREE ENERGY PREDICTED BY IDOCK:   -8.83 KCAL/MOL
REMARK 924 INTRA-LIGAND FREE ENERGY PREDICTED BY IDOCK:   -0.99 KCAL/MOL
REMARK 927      BINDING AFFINITY PREDICTED BY RF-SCORE:    0.00 PKD
ROOT
HETATM    1  C   UNL     1     -12.981  14.945  73.385  1.00  0.00    -0.474 C  
HETATM    2  O   UNL     1     -13.757  14.386  72.326  1.00  0.00    -0.392 OA 
ENDROOT
BRANCH   2   3
HETATM    3  C   UNL     1     -13.165  13.368  71.619  1.00  0.00    -0.364 A  
HETATM    4  C   UNL     1     -13.260  12.037  72.049  1.00  0.00    -0.481 A  
HETATM    5  C   UNL     1     -12.742  10.995  71.278  1.00  0.00    -0.537 A  
HETATM    6  C   UNL     1     -12.092  11.289  70.084  1.00  0.00    -0.448 A  
HETATM    7  C   UNL     1     -12.463  13.679  70.431  1.00  0.00    -0.294 A  
HETATM    8  C   UNL     1     -11.942  12.620  69.654  1.00  0.00    -0.286 A  
BRANCH   5   9
HETATM    9  C   UNL     1     -12.996   9.602  71.736  1.00  0.00    -0.420 C  
HETATM   10  N   UNL     1     -12.331   8.597  71.077  1.00  0.00    -0.466 N  
HETATM   11  O   UNL     1     -13.758   9.401  72.676  1.00  0.00    -0.425 OA 
HETATM   12  H   UNL     1     -11.714   8.819  70.295  1.00  0.00     0.000 HD 
BRANCH  10  13
HETATM   13  C   UNL     1     -12.508   7.224  71.493  1.00  0.00    -0.373 C  
BRANCH  13  14
HETATM   14  C   UNL     1     -11.483   6.334  70.850  1.00  0.00    -0.377 A  
HETATM   15  C   UNL     1     -11.308   6.384  69.468  1.00  0.00    -0.460 A  
HETATM   16  C   UNL     1     -10.408   5.532  68.837  1.00  0.00    -0.289 A  
HETATM   17  C   UNL     1      -9.663   4.599  69.568  1.00  0.00    -0.208 A  
HETATM   18  C   UNL     1      -9.819   4.554  70.954  1.00  0.00    -0.269 A  
HETATM   19  C   UNL     1     -10.726   5.412  71.594  1.00  0.00    -0.266 A  
BRANCH  17  20
HETATM   20  O   UNL     1      -8.779   3.697  69.015  1.00  0.00    -0.080 OA 
BRANCH  20  21
HETATM   21  C   UNL     1      -9.223   3.167  67.761  1.00  0.00    -0.196 C  
BRANCH  21  22
HETATM   22  C   UNL     1      -8.193   3.297  66.632  1.00  0.00    -0.096 C  
BRANCH  22  23
HETATM   23  N   UNL     1      -8.627   4.278  65.609  1.00  0.00    -0.117 NA 
HETATM   24  C   UNL     1     -10.083   4.311  65.444  1.00  0.00    -0.225 C  
HETATM   25  C   UNL     1      -8.139   5.617  65.934  1.00  0.00    -0.111 C  
ENDBRANCH  22  23
ENDBRANCH  21  22
ENDBRANCH  20  21
ENDBRANCH  17  20
ENDBRANCH  13  14
ENDBRANCH  10  13
ENDBRANCH   5   9
BRANCH   8  26
HETATM   26  O   UNL     1     -11.278  12.683  68.453  1.00  0.00    -0.242 OA 
HETATM   27  C   UNL     1     -11.605  11.766  67.421  1.00  0.00    -0.280 C  
ENDBRANCH   8  26
BRANCH   7  28
HETATM   28  O   UNL     1     -12.333  14.949  69.922  1.00  0.00    -0.314 OA 
HETATM   29  C   UNL     1     -11.183  15.710  70.261  1.00  0.00    -0.344 C  
ENDBRANCH   7  28
ENDBRANCH   2   3
TORSDOF 10
ENDMDL
MODEL       22
REMARK 921   NORMALIZED FREE ENERGY PREDICTED BY IDOCK:   -5.65 KCAL/MOL
REMARK 922        TOTAL FREE ENERGY PREDICTED BY IDOCK:   -9.82 KCAL/MOL
REMARK 923 INTER-LIGAND FREE ENERGY PREDICTED BY IDOCK:   -9.05 KCAL/MOL
REMARK 924 INTRA-LIGAND FREE ENERGY PREDICTED BY IDOCK:   -0.76 KCAL/MOL
REMARK 927      BINDING AFFINITY PREDICTED BY RF-SCORE:    0.00 PKD
ROOT
HETATM    1  C   UNL     1      -9.928   8.174  67.573  1.00  0.00    -0.192 C  
HETATM    2  O   UNL     1      -9.214   7.941  68.786  1.00  0.00    -0.144 OA 
ENDROOT
BRANCH   2   3
HETATM    3  C   UNL     1      -9.939   8.075  69.946  1.00  0.00    -0.189 A  
HETATM    4  C   UNL     1     -10.680   9.235  70.208  1.00  0.00    -0.284 A  
HETATM    5  C   UNL     1     -11.493   9.328  71.338  1.00  0.00    -0.439 A  
HETATM    6  C   UNL     1     -11.538   8.266  72.234  1.00  0.00    -0.449 A  
HETATM    7  C   UNL     1      -9.941   7.009  70.876  1.00  0.00    -0.193 A  
HETATM    8  C   UNL     1     -10.767   7.109  72.020  1.00  0.00    -0.214 A  
BRANCH   5   9
HETATM    9  C   UNL     1     -12.348  10.539  71.480  1.00  0.00    -0.341 C  
HETATM   10  N   UNL     1     -11.934  11.675  70.830  1.00  0.00    -0.433 N  
HETATM   11  O   UNL     1     -13.379  10.479  72.141  1.00  0.00    -0.437 OA 
HETATM   12  H   UNL     1     -11.063  11.672  70.299  1.00  0.00     0.000 HD 
BRANCH  10  13
HETATM   13  C   UNL     1     -12.735  12.876  70.899  1.00  0.00    -0.207 C  
BRANCH  13  14
HETATM   14  C   UNL     1     -12.123  13.976  70.080  1.00  0.00    -0.419 A  
HETATM   15  C   UNL     1     -11.676  15.132  70.718  1.00  0.00    -0.370 A  
HETATM   16  C   UNL     1     -11.157  16.192  69.981  1.00  0.00    -0.363 A  
HETATM   17  C   UNL     1     -11.078  16.129  68.584  1.00  0.00    -0.356 A  
HETATM   18  C   UNL     1     -11.508  14.969  67.939  1.00  0.00    -0.354 A  
HETATM   19  C   UNL     1     -12.033  13.898  68.679  1.00  0.00    -0.401 A  
BRANCH  17  20
HETATM   20  O   UNL     1     -10.611  17.148  67.781  1.00  0.00    -0.352 OA 
BRANCH  20  21
HETATM   21  C   UNL     1      -9.860  18.134  68.498  1.00  0.00    -0.382 C  
BRANCH  21  22
HETATM   22  C   UNL     1     -10.367  19.568  68.296  1.00  0.00    -0.411 C  
BRANCH  22  23
HETATM   23  N   UNL     1      -9.582  20.282  67.261  1.00  0.00    -0.420 NA 
HETATM   24  C   UNL     1      -8.138  20.080  67.412  1.00  0.00    -0.323 C  
HETATM   25  C   UNL     1      -9.998  19.874  65.920  1.00  0.00    -0.393 C  
ENDBRANCH  22  23
ENDBRANCH  21  22
ENDBRANCH  20  21
ENDBRANCH  17  20
ENDBRANCH  13  14
ENDBRANCH  10  13
ENDBRANCH   5   9
BRANCH   8  26
HETATM   26  O   UNL     1     -10.965   6.186  73.018  1.00  0.00    -0.251 OA 
HETATM   27  C   UNL     1     -10.242   6.301  74.233  1.00  0.00    -0.335 C  
ENDBRANCH   8  26
BRANCH   7  28
HETATM   28  O   UNL     1      -9.262   5.828  70.698  1.00  0.00    -0.148 OA 
HETATM   29  C   UNL     1      -9.937   4.731  70.100  1.00  0.00    -0.251 C  
ENDBRANCH   7  28
ENDBRANCH   2   3
TORSDOF 10
ENDMDL
MODEL       23
REMARK 921   NORMALIZED FREE ENERGY PREDICTED BY IDOCK:   -5.63 KCAL/MOL
REMARK 922        TOTAL FREE ENERGY PREDICTED BY IDOCK:   -9.79 KCAL/MOL
REMARK 923 INTER-LIGAND FREE ENERGY PREDICTED BY IDOCK:   -8.95 KCAL/MOL
REMARK 924 INTRA-LIGAND FREE ENERGY PREDICTED BY IDOCK:   -0.84 KCAL/MOL
REMARK 927      BINDING AFFINITY PREDICTED BY RF-SCORE:    0.00 PKD
ROOT
HETATM    1  C   UNL     1      -8.137   6.944  70.630  1.00  0.00    -0.118 C  
HETATM    2  O   UNL     1      -8.426   8.049  71.486  1.00  0.00    -0.107 OA 
ENDROOT
BRANCH   2   3
HETATM    3  C   UNL     1      -9.650   8.647  71.304  1.00  0.00    -0.225 A  
HETATM    4  C   UNL     1      -9.880   9.513  70.226  1.00  0.00    -0.313 A  
HETATM    5  C   UNL     1     -11.149  10.040  69.987  1.00  0.00    -0.350 A  
HETATM    6  C   UNL     1     -12.191   9.729  70.854  1.00  0.00    -0.390 A  
HETATM    7  C   UNL     1     -10.691   8.364  72.218  1.00  0.00    -0.347 A  
HETATM    8  C   UNL     1     -11.975   8.901  71.971  1.00  0.00    -0.369 A  
BRANCH   5   9
HETATM    9  C   UNL     1     -11.344  10.846  68.751  1.00  0.00    -0.292 C  
HETATM   10  N   UNL     1     -11.707  12.161  68.912  1.00  0.00    -0.311 N  
HETATM   11  O   UNL     1     -11.161  10.329  67.653  1.00  0.00    -0.306 OA 
HETATM   12  H   UNL     1     -11.855  12.539  69.848  1.00  0.00     0.000 HD 
BRANCH  10  13
HETATM   13  C   UNL     1     -11.881  13.007  67.753  1.00  0.00    -0.347 C  
BRANCH  13  14
HETATM   14  C   UNL     1     -11.464  14.419  68.055  1.00  0.00    -0.336 A  
HETATM   15  C   UNL     1     -11.105  15.262  67.005  1.00  0.00    -0.305 A  
HETATM   16  C   UNL     1     -10.660  16.555  67.256  1.00  0.00    -0.285 A  
HETATM   17  C   UNL     1     -10.553  17.040  68.566  1.00  0.00    -0.370 A  
HETATM   18  C   UNL     1     -10.926  16.207  69.622  1.00  0.00    -0.346 A  
HETATM   19  C   UNL     1     -11.375  14.902  69.372  1.00  0.00    -0.312 A  
BRANCH  17  20
HETATM   20  O   UNL     1     -10.087  18.294  68.900  1.00  0.00    -0.389 OA 
BRANCH  20  21
HETATM   21  C   UNL     1      -8.790  18.577  68.364  1.00  0.00    -0.322 C  
BRANCH  21  22
HETATM   22  C   UNL     1      -8.804  19.573  67.197  1.00  0.00    -0.304 C  
BRANCH  22  23
HETATM   23  N   UNL     1      -8.068  19.046  66.023  1.00  0.00    -0.461 NA 
HETATM   24  C   UNL     1      -7.083  19.999  65.503  1.00  0.00    -0.310 C  
HETATM   25  C   UNL     1      -7.405  17.785  66.349  1.00  0.00    -0.275 C  
ENDBRANCH  22  23
ENDBRANCH  21  22
ENDBRANCH  20  21
ENDBRANCH  17  20
ENDBRANCH  13  14
ENDBRANCH  10  13
ENDBRANCH   5   9
BRANCH   8  26
HETATM   26  O   UNL     1     -13.133   8.719  72.687  1.00  0.00    -0.391 OA 
HETATM   27  C   UNL     1     -14.348   8.459  72.002  1.00  0.00    -0.464 C  
ENDBRANCH   8  26
BRANCH   7  28
HETATM   28  O   UNL     1     -10.566   7.515  73.291  1.00  0.00    -0.356 OA 
HETATM   29  C   UNL     1     -10.831   6.132  73.108  1.00  0.00    -0.254 C  
ENDBRANCH   7  28
ENDBRANCH   2   3
TORSDOF 10
ENDMDL
MODEL       24
REMARK 921   NORMALIZED FREE ENERGY PREDICTED BY IDOCK:   -5.62 KCAL/MOL
REMARK 922        TOTAL FREE ENERGY PREDICTED BY IDOCK:   -9.78 KCAL/MOL
REMARK 923 INTER-LIGAND FREE ENERGY PREDICTED BY IDOCK:   -8.99 KCAL/MOL
REMARK 924 INTRA-LIGAND FREE ENERGY PREDICTED BY IDOCK:   -0.79 KCAL/MOL
REMARK 927      BINDING AFFINITY PREDICTED BY RF-SCORE:    0.00 PKD
ROOT
HETATM    1  C   UNL     1     -10.908   6.383  67.332  1.00  0.00    -0.375 C  
HETATM    2  O   UNL     1     -10.486   5.364  68.237  1.00  0.00    -0.178 OA 
ENDROOT
BRANCH   2   3
HETATM    3  C   UNL     1     -10.717   5.609  69.569  1.00  0.00    -0.310 A  
HETATM    4  C   UNL     1     -11.566   6.646  69.978  1.00  0.00    -0.423 A  
HETATM    5  C   UNL     1     -11.877   6.830  71.326  1.00  0.00    -0.396 A  
HETATM    6  C   UNL     1     -11.305   5.992  72.277  1.00  0.00    -0.353 A  
HETATM    7  C   UNL     1     -10.094   4.782  70.533  1.00  0.00    -0.220 A  
HETATM    8  C   UNL     1     -10.413   4.973  71.897  1.00  0.00    -0.187 A  
BRANCH   5   9
HETATM    9  C   UNL     1     -12.885   7.870  71.670  1.00  0.00    -0.334 C  
HETATM   10  N   UNL     1     -12.457   9.174  71.686  1.00  0.00    -0.337 N  
HETATM   11  O   UNL     1     -14.043   7.538  71.904  1.00  0.00    -0.354 OA 
HETATM   12  H   UNL     1     -11.480   9.394  71.491  1.00  0.00     0.000 HD 
BRANCH  10  13
HETATM   13  C   UNL     1     -13.394  10.236  71.980  1.00  0.00    -0.361 C  
BRANCH  13  14
HETATM   14  C   UNL     1     -12.925  11.539  71.398  1.00  0.00    -0.450 A  
HETATM   15  C   UNL     1     -13.306  12.733  72.008  1.00  0.00    -0.565 A  
HETATM   16  C   UNL     1     -12.937  13.957  71.460  1.00  0.00    -0.436 A  
HETATM   17  C   UNL     1     -12.183  14.022  70.282  1.00  0.00    -0.361 A  
HETATM   18  C   UNL     1     -11.783  12.831  69.675  1.00  0.00    -0.372 A  
HETATM   19  C   UNL     1     -12.154  11.594  70.224  1.00  0.00    -0.443 A  
BRANCH  17  20
HETATM   20  O   UNL     1     -11.807  15.192  69.658  1.00  0.00    -0.297 OA 
BRANCH  20  21
HETATM   21  C   UNL     1     -11.643  15.050  68.242  1.00  0.00    -0.334 C  
BRANCH  21  22
HETATM   22  C   UNL     1     -10.450  15.830  67.674  1.00  0.00    -0.282 C  
BRANCH  22  23
HETATM   23  N   UNL     1     -10.677  17.293  67.736  1.00  0.00    -0.361 NA 
HETATM   24  C   UNL     1      -9.791  17.960  68.695  1.00  0.00    -0.374 C  
HETATM   25  C   UNL     1     -10.517  17.900  66.416  1.00  0.00    -0.317 C  
ENDBRANCH  22  23
ENDBRANCH  21  22
ENDBRANCH  20  21
ENDBRANCH  17  20
ENDBRANCH  13  14
ENDBRANCH  10  13
ENDBRANCH   5   9
BRANCH   8  26
HETATM   26  O   UNL     1      -9.973   4.263  72.988  1.00  0.00    -0.137 OA 
HETATM   27  C   UNL     1     -10.537   4.518  74.265  1.00  0.00    -0.262 C  
ENDBRANCH   8  26
BRANCH   7  28
HETATM   28  O   UNL     1      -9.263   3.732  70.227  1.00  0.00    -0.116 OA 
HETATM   29  C   UNL     1      -7.864   3.961  70.157  1.00  0.00    -0.048 C  
ENDBRANCH   7  28
ENDBRANCH   2   3
TORSDOF 10
ENDMDL
MODEL       25
REMARK 921   NORMALIZED FREE ENERGY PREDICTED BY IDOCK:   -5.62 KCAL/MOL
REMARK 922        TOTAL FREE ENERGY PREDICTED BY IDOCK:   -9.77 KCAL/MOL
REMARK 923 INTER-LIGAND FREE ENERGY PREDICTED BY IDOCK:   -8.59 KCAL/MOL
REMARK 924 INTRA-LIGAND FREE ENERGY PREDICTED BY IDOCK:   -1.18 KCAL/MOL
REMARK 927      BINDING AFFINITY PREDICTED BY RF-SCORE:    0.00 PKD
ROOT
HETATM    1  C   UNL     1     -10.659   7.013  67.055  1.00  0.00    -0.341 C  
HETATM    2  O   UNL     1      -9.953   7.547  68.173  1.00  0.00    -0.161 OA 
ENDROOT
BRANCH   2   3
HETATM    3  C   UNL     1     -10.530   8.631  68.788  1.00  0.00    -0.185 A  
HETATM    4  C   UNL     1     -10.784   9.814  68.081  1.00  0.00    -0.280 A  
HETATM    5  C   UNL     1     -11.460  10.878  68.680  1.00  0.00    -0.380 A  
HETATM    6  C   UNL     1     -11.853  10.772  70.010  1.00  0.00    -0.424 A  
HETATM    7  C   UNL     1     -10.883   8.534  70.154  1.00  0.00    -0.233 A  
HETATM    8  C   UNL     1     -11.568   9.614  70.756  1.00  0.00    -0.321 A  
BRANCH   5   9
HETATM    9  C   UNL     1     -11.806  12.048  67.828  1.00  0.00    -0.238 C  
HETATM   10  N   UNL     1     -11.835  13.278  68.437  1.00  0.00    -0.354 N  
HETATM   11  O   UNL     1     -12.032  11.883  66.633  1.00  0.00    -0.601 OA 
HETATM   12  H   UNL     1     -11.647  13.358  69.437  1.00  0.00     0.000 HD 
BRANCH  10  13
HETATM   13  C   UNL     1     -12.133  14.460  67.659  1.00  0.00    -0.277 C  
BRANCH  13  14
HETATM   14  C   UNL     1     -10.871  15.181  67.278  1.00  0.00    -0.316 A  
HETATM   15  C   UNL     1      -9.854  15.318  68.220  1.00  0.00    -0.218 A  
HETATM   16  C   UNL     1      -8.698  16.030  67.915  1.00  0.00    -0.165 A  
HETATM   17  C   UNL     1      -8.531  16.632  66.662  1.00  0.00    -0.259 A  
HETATM   18  C   UNL     1      -9.538  16.485  65.707  1.00  0.00    -0.191 A  
HETATM   19  C   UNL     1     -10.705  15.768  66.011  1.00  0.00    -0.311 A  
BRANCH  17  20
HETATM   20  O   UNL     1      -7.434  17.383  66.295  1.00  0.00    -0.271 OA 
BRANCH  20  21
HETATM   21  C   UNL     1      -7.742  18.764  66.075  1.00  0.00    -0.199 C  
BRANCH  21  22
HETATM   22  C   UNL     1      -7.886  19.581  67.365  1.00  0.00    -0.257 C  
BRANCH  22  23
HETATM   23  N   UNL     1      -9.247  20.153  67.497  1.00  0.00    -0.358 NA 
HETATM   24  C   UNL     1     -10.012  20.080  66.250  1.00  0.00    -0.481 C  
HETATM   25  C   UNL     1      -9.987  19.488  68.568  1.00  0.00    -0.446 C  
ENDBRANCH  22  23
ENDBRANCH  21  22
ENDBRANCH  20  21
ENDBRANCH  17  20
ENDBRANCH  13  14
ENDBRANCH  10  13
ENDBRANCH   5   9
BRANCH   8  26
HETATM   26  O   UNL     1     -12.048   9.718  72.039  1.00  0.00    -0.328 OA 
HETATM   27  C   UNL     1     -13.404   9.397  72.309  1.00  0.00    -0.461 C  
ENDBRANCH   8  26
BRANCH   7  28
HETATM   28  O   UNL     1     -10.691   7.411  70.923  1.00  0.00    -0.229 OA 
HETATM   29  C   UNL     1     -11.677   6.390  70.905  1.00  0.00    -0.303 C  
ENDBRANCH   7  28
ENDBRANCH   2   3
TORSDOF 10
ENDMDL
MODEL       26
REMARK 921   NORMALIZED FREE ENERGY PREDICTED BY IDOCK:   -5.61 KCAL/MOL
REMARK 922        TOTAL FREE ENERGY PREDICTED BY IDOCK:   -9.75 KCAL/MOL
REMARK 923 INTER-LIGAND FREE ENERGY PREDICTED BY IDOCK:   -8.71 KCAL/MOL
REMARK 924 INTRA-LIGAND FREE ENERGY PREDICTED BY IDOCK:   -1.04 KCAL/MOL
REMARK 927      BINDING AFFINITY PREDICTED BY RF-SCORE:    0.00 PKD
ROOT
HETATM    1  C   UNL     1      -6.323  14.456  67.989  1.00  0.00    -0.155 C  
HETATM    2  O   UNL     1      -6.510  15.669  67.261  1.00  0.00    -0.248 OA 
ENDROOT
BRANCH   2   3
HETATM    3  C   UNL     1      -7.792  15.928  66.842  1.00  0.00    -0.247 A  
HETATM    4  C   UNL     1      -8.736  14.899  66.721  1.00  0.00    -0.278 A  
HETATM    5  C   UNL     1     -10.063  15.178  66.390  1.00  0.00    -0.286 A  
HETATM    6  C   UNL     1     -10.442  16.492  66.143  1.00  0.00    -0.301 A  
HETATM    7  C   UNL     1      -8.157  17.262  66.545  1.00  0.00    -0.278 A  
HETATM    8  C   UNL     1      -9.503  17.538  66.212  1.00  0.00    -0.219 A  
BRANCH   5   9
HETATM    9  C   UNL     1     -11.034  14.049  66.407  1.00  0.00    -0.308 C  
HETATM   10  N   UNL     1     -10.519  12.785  66.557  1.00  0.00    -0.260 N  
HETATM   11  O   UNL     1     -12.235  14.280  66.308  1.00  0.00    -0.436 OA 
HETATM   12  H   UNL     1      -9.510  12.649  66.628  1.00  0.00     0.000 HD 
BRANCH  10  13
HETATM   13  C   UNL     1     -11.409  11.647  66.615  1.00  0.00    -0.270 C  
BRANCH  13  14
HETATM   14  C   UNL     1     -11.324  10.969  67.953  1.00  0.00    -0.381 A  
HETATM   15  C   UNL     1     -11.963  11.543  69.050  1.00  0.00    -0.377 A  
HETATM   16  C   UNL     1     -11.854  10.970  70.312  1.00  0.00    -0.456 A  
HETATM   17  C   UNL     1     -11.096   9.810  70.515  1.00  0.00    -0.321 A  
HETATM   18  C   UNL     1     -10.467   9.219  69.418  1.00  0.00    -0.229 A  
HETATM   19  C   UNL     1     -10.574   9.795  68.144  1.00  0.00    -0.276 A  
BRANCH  17  20
HETATM   20  O   UNL     1     -10.910   9.201  71.739  1.00  0.00    -0.351 OA 
BRANCH  20  21
HETATM   21  C   UNL     1     -12.108   8.629  72.274  1.00  0.00    -0.373 C  
BRANCH  21  22
HETATM   22  C   UNL     1     -12.375   7.194  71.803  1.00  0.00    -0.350 C  
BRANCH  22  23
HETATM   23  N   UNL     1     -11.162   6.350  71.915  1.00  0.00    -0.266 NA 
HETATM   24  C   UNL     1     -11.315   5.271  72.895  1.00  0.00    -0.301 C  
HETATM   25  C   UNL     1     -10.800   5.786  70.615  1.00  0.00    -0.267 C  
ENDBRANCH  22  23
ENDBRANCH  21  22
ENDBRANCH  20  21
ENDBRANCH  17  20
ENDBRANCH  13  14
ENDBRANCH  10  13
ENDBRANCH   5   9
BRANCH   8  26
HETATM   26  O   UNL     1     -10.087  18.751  65.940  1.00  0.00    -0.512 OA 
HETATM   27  C   UNL     1     -10.656  19.509  66.995  1.00  0.00    -0.492 C  
ENDBRANCH   8  26
BRANCH   7  28
HETATM   28  O   UNL     1      -7.308  18.336  66.653  1.00  0.00    -0.204 OA 
HETATM   29  C   UNL     1      -6.590  18.762  65.504  1.00  0.00    -0.272 C  
ENDBRANCH   7  28
ENDBRANCH   2   3
TORSDOF 10
ENDMDL
MODEL       27
REMARK 921   NORMALIZED FREE ENERGY PREDICTED BY IDOCK:   -5.60 KCAL/MOL
REMARK 922        TOTAL FREE ENERGY PREDICTED BY IDOCK:   -9.75 KCAL/MOL
REMARK 923 INTER-LIGAND FREE ENERGY PREDICTED BY IDOCK:   -8.89 KCAL/MOL
REMARK 924 INTRA-LIGAND FREE ENERGY PREDICTED BY IDOCK:   -0.86 KCAL/MOL
REMARK 927      BINDING AFFINITY PREDICTED BY RF-SCORE:    0.00 PKD
ROOT
HETATM    1  C   UNL     1     -10.492   7.304  73.573  1.00  0.00    -0.374 C  
HETATM    2  O   UNL     1     -11.333   7.099  72.439  1.00  0.00    -0.257 OA 
ENDROOT
BRANCH   2   3
HETATM    3  C   UNL     1     -11.195   8.005  71.416  1.00  0.00    -0.252 A  
HETATM    4  C   UNL     1     -11.798   9.268  71.480  1.00  0.00    -0.444 A  
HETATM    5  C   UNL     1     -11.575  10.222  70.485  1.00  0.00    -0.424 A  
HETATM    6  C   UNL     1     -10.771   9.897  69.399  1.00  0.00    -0.255 A  
HETATM    7  C   UNL     1     -10.414   7.650  70.290  1.00  0.00    -0.224 A  
HETATM    8  C   UNL     1     -10.191   8.620  69.286  1.00  0.00    -0.211 A  
BRANCH   5   9
HETATM    9  C   UNL     1     -12.145  11.582  70.688  1.00  0.00    -0.353 C  
HETATM   10  N   UNL     1     -11.633  12.596  69.916  1.00  0.00    -0.511 N  
HETATM   11  O   UNL     1     -13.045  11.747  71.505  1.00  0.00    -0.407 OA 
HETATM   12  H   UNL     1     -10.878  12.404  69.256  1.00  0.00     0.000 HD 
BRANCH  10  13
HETATM   13  C   UNL     1     -12.165  13.934  70.040  1.00  0.00    -0.344 C  
BRANCH  13  14
HETATM   14  C   UNL     1     -11.564  14.846  69.009  1.00  0.00    -0.330 A  
HETATM   15  C   UNL     1     -11.167  16.129  69.383  1.00  0.00    -0.335 A  
HETATM   16  C   UNL     1     -10.661  17.016  68.439  1.00  0.00    -0.375 A  
HETATM   17  C   UNL     1     -10.545  16.649  67.092  1.00  0.00    -0.264 A  
HETATM   18  C   UNL     1     -10.925  15.361  66.713  1.00  0.00    -0.282 A  
HETATM   19  C   UNL     1     -11.436  14.463  67.662  1.00  0.00    -0.369 A  
BRANCH  17  20
HETATM   20  O   UNL     1     -10.089  17.481  66.091  1.00  0.00    -0.369 OA 
BRANCH  20  21
HETATM   21  C   UNL     1     -10.050  18.860  66.476  1.00  0.00    -0.398 C  
BRANCH  21  22
HETATM   22  C   UNL     1      -8.697  19.537  66.224  1.00  0.00    -0.359 C  
BRANCH  22  23
HETATM   23  N   UNL     1      -8.202  20.231  67.436  1.00  0.00    -0.336 NA 
HETATM   24  C   UNL     1      -7.977  19.314  68.558  1.00  0.00    -0.361 C  
HETATM   25  C   UNL     1      -6.971  20.965  67.148  1.00  0.00    -0.364 C  
ENDBRANCH  22  23
ENDBRANCH  21  22
ENDBRANCH  20  21
ENDBRANCH  17  20
ENDBRANCH  13  14
ENDBRANCH  10  13
ENDBRANCH   5   9
BRANCH   8  26
HETATM   26  O   UNL     1      -9.434   8.515  68.146  1.00  0.00    -0.139 OA 
HETATM   27  C   UNL     1      -8.211   9.228  68.047  1.00  0.00    -0.115 C  
ENDBRANCH   8  26
BRANCH   7  28
HETATM   28  O   UNL     1      -9.770   6.445  70.148  1.00  0.00    -0.165 OA 
HETATM   29  C   UNL     1     -10.449   5.375  69.506  1.00  0.00    -0.273 C  
ENDBRANCH   7  28
ENDBRANCH   2   3
TORSDOF 10
ENDMDL
MODEL       28
REMARK 921   NORMALIZED FREE ENERGY PREDICTED BY IDOCK:   -5.59 KCAL/MOL
REMARK 922        TOTAL FREE ENERGY PREDICTED BY IDOCK:   -9.73 KCAL/MOL
REMARK 923 INTER-LIGAND FREE ENERGY PREDICTED BY IDOCK:   -8.57 KCAL/MOL
REMARK 924 INTRA-LIGAND FREE ENERGY PREDICTED BY IDOCK:   -1.16 KCAL/MOL
REMARK 927      BINDING AFFINITY PREDICTED BY RF-SCORE:    0.00 PKD
ROOT
HETATM    1  C   UNL     1     -14.227   8.476  71.830  1.00  0.00    -0.455 C  
HETATM    2  O   UNL     1     -13.238   9.399  72.283  1.00  0.00    -0.422 OA 
ENDROOT
BRANCH   2   3
HETATM    3  C   UNL     1     -12.093   9.474  71.526  1.00  0.00    -0.389 A  
HETATM    4  C   UNL     1     -12.045  10.251  70.361  1.00  0.00    -0.373 A  
HETATM    5  C   UNL     1     -10.854  10.404  69.649  1.00  0.00    -0.320 A  
HETATM    6  C   UNL     1      -9.710   9.745  70.085  1.00  0.00    -0.299 A  
HETATM    7  C   UNL     1     -10.947   8.762  71.950  1.00  0.00    -0.365 A  
HETATM    8  C   UNL     1      -9.743   8.921  71.225  1.00  0.00    -0.289 A  
BRANCH   5   9
HETATM    9  C   UNL     1     -10.851  11.348  68.498  1.00  0.00    -0.211 C  
HETATM   10  N   UNL     1     -11.972  12.121  68.321  1.00  0.00    -0.286 N  
HETATM   11  O   UNL     1      -9.864  11.416  67.772  1.00  0.00    -0.170 OA 
HETATM   12  H   UNL     1     -12.768  12.018  68.950  1.00  0.00     0.000 HD 
BRANCH  10  13
HETATM   13  C   UNL     1     -12.020  13.081  67.241  1.00  0.00    -0.321 C  
BRANCH  13  14
HETATM   14  C   UNL     1     -11.579  14.438  67.712  1.00  0.00    -0.384 A  
HETATM   15  C   UNL     1     -10.849  15.253  66.849  1.00  0.00    -0.317 A  
HETATM   16  C   UNL     1     -10.377  16.490  67.275  1.00  0.00    -0.296 A  
HETATM   17  C   UNL     1     -10.613  16.943  68.578  1.00  0.00    -0.367 A  
HETATM   18  C   UNL     1     -11.357  16.139  69.443  1.00  0.00    -0.323 A  
HETATM   19  C   UNL     1     -11.835  14.891  69.018  1.00  0.00    -0.333 A  
BRANCH  17  20
HETATM   20  O   UNL     1     -10.149  18.138  69.087  1.00  0.00    -0.341 OA 
BRANCH  20  21
HETATM   21  C   UNL     1     -10.499  19.269  68.282  1.00  0.00    -0.300 C  
BRANCH  21  22
HETATM   22  C   UNL     1      -9.305  20.152  67.898  1.00  0.00    -0.290 C  
BRANCH  22  23
HETATM   23  N   UNL     1      -9.075  20.149  66.434  1.00  0.00    -0.317 NA 
HETATM   24  C   UNL     1      -8.028  19.206  66.030  1.00  0.00    -0.217 C  
HETATM   25  C   UNL     1     -10.311  19.847  65.715  1.00  0.00    -0.410 C  
ENDBRANCH  22  23
ENDBRANCH  21  22
ENDBRANCH  20  21
ENDBRANCH  17  20
ENDBRANCH  13  14
ENDBRANCH  10  13
ENDBRANCH   5   9
BRANCH   8  26
HETATM   26  O   UNL     1      -8.510   8.374  71.481  1.00  0.00    -0.128 OA 
HETATM   27  C   UNL     1      -8.084   7.231  70.756  1.00  0.00    -0.111 C  
ENDBRANCH   8  26
BRANCH   7  28
HETATM   28  O   UNL     1     -10.894   7.991  73.086  1.00  0.00    -0.335 OA 
HETATM   29  C   UNL     1     -11.101   6.590  72.975  1.00  0.00    -0.198 C  
ENDBRANCH   7  28
ENDBRANCH   2   3
TORSDOF 10
ENDMDL
MODEL       29
REMARK 921   NORMALIZED FREE ENERGY PREDICTED BY IDOCK:   -5.54 KCAL/MOL
REMARK 922        TOTAL FREE ENERGY PREDICTED BY IDOCK:   -9.65 KCAL/MOL
REMARK 923 INTER-LIGAND FREE ENERGY PREDICTED BY IDOCK:   -8.63 KCAL/MOL
REMARK 924 INTRA-LIGAND FREE ENERGY PREDICTED BY IDOCK:   -1.02 KCAL/MOL
REMARK 927      BINDING AFFINITY PREDICTED BY RF-SCORE:    0.00 PKD
ROOT
HETATM    1  C   UNL     1     -12.863  10.331  71.587  1.00  0.00    -0.463 C  
HETATM    2  O   UNL     1     -11.538   9.828  71.425  1.00  0.00    -0.364 OA 
ENDROOT
BRANCH   2   3
HETATM    3  C   UNL     1     -11.173   9.496  70.143  1.00  0.00    -0.234 A  
HETATM    4  C   UNL     1     -11.223  10.440  69.108  1.00  0.00    -0.301 A  
HETATM    5  C   UNL     1     -10.759  10.129  67.829  1.00  0.00    -0.328 A  
HETATM    6  C   UNL     1     -10.275   8.851  67.573  1.00  0.00    -0.309 A  
HETATM    7  C   UNL     1     -10.727   8.179  69.879  1.00  0.00    -0.241 A  
HETATM    8  C   UNL     1     -10.258   7.870  68.581  1.00  0.00    -0.205 A  
BRANCH   5   9
HETATM    9  C   UNL     1     -10.725  11.221  66.819  1.00  0.00    -0.275 C  
HETATM   10  N   UNL     1     -11.782  12.098  66.810  1.00  0.00    -0.343 N  
HETATM   11  O   UNL     1      -9.767  11.314  66.057  1.00  0.00    -0.205 OA 
HETATM   12  H   UNL     1     -12.557  11.970  67.461  1.00  0.00     0.000 HD 
BRANCH  10  13
HETATM   13  C   UNL     1     -11.794  13.201  65.876  1.00  0.00    -0.406 C  
BRANCH  13  14
HETATM   14  C   UNL     1     -11.364  14.474  66.547  1.00  0.00    -0.354 A  
HETATM   15  C   UNL     1     -11.744  14.711  67.866  1.00  0.00    -0.379 A  
HETATM   16  C   UNL     1     -11.410  15.906  68.495  1.00  0.00    -0.374 A  
HETATM   17  C   UNL     1     -10.693  16.901  67.820  1.00  0.00    -0.315 A  
HETATM   18  C   UNL     1     -10.294  16.665  66.504  1.00  0.00    -0.300 A  
HETATM   19  C   UNL     1     -10.629  15.462  65.866  1.00  0.00    -0.349 A  
BRANCH  17  20
HETATM   20  O   UNL     1     -10.355  18.124  68.360  1.00  0.00    -0.374 OA 
BRANCH  20  21
HETATM   21  C   UNL     1     -10.664  19.227  67.500  1.00  0.00    -0.463 C  
BRANCH  21  22
HETATM   22  C   UNL     1      -9.531  20.253  67.374  1.00  0.00    -0.414 C  
BRANCH  22  23
HETATM   23  N   UNL     1      -8.219  19.593  67.176  1.00  0.00    -0.279 NA 
HETATM   24  C   UNL     1      -7.629  19.895  65.868  1.00  0.00    -0.321 C  
HETATM   25  C   UNL     1      -7.283  19.968  68.235  1.00  0.00    -0.277 C  
ENDBRANCH  22  23
ENDBRANCH  21  22
ENDBRANCH  20  21
ENDBRANCH  17  20
ENDBRANCH  13  14
ENDBRANCH  10  13
ENDBRANCH   5   9
BRANCH   8  26
HETATM   26  O   UNL     1      -9.737   6.687  68.118  1.00  0.00    -0.130 OA 
HETATM   27  C   UNL     1     -10.593   5.731  67.513  1.00  0.00    -0.253 C  
ENDBRANCH   8  26
BRANCH   7  28
HETATM   28  O   UNL     1     -10.627   7.194  70.830  1.00  0.00    -0.217 OA 
HETATM   29  C   UNL     1      -9.369   6.961  71.448  1.00  0.00    -0.156 C  
ENDBRANCH   7  28
ENDBRANCH   2   3
TORSDOF 10
ENDMDL
MODEL       30
REMARK 921   NORMALIZED FREE ENERGY PREDICTED BY IDOCK:   -5.51 KCAL/MOL
REMARK 922        TOTAL FREE ENERGY PREDICTED BY IDOCK:   -9.60 KCAL/MOL
REMARK 923 INTER-LIGAND FREE ENERGY PREDICTED BY IDOCK:   -8.68 KCAL/MOL
REMARK 924 INTRA-LIGAND FREE ENERGY PREDICTED BY IDOCK:   -0.92 KCAL/MOL
REMARK 927      BINDING AFFINITY PREDICTED BY RF-SCORE:    0.00 PKD
ROOT
HETATM    1  C   UNL     1     -10.407   6.693  74.018  1.00  0.00    -0.351 C  
HETATM    2  O   UNL     1     -11.048   6.252  72.823  1.00  0.00    -0.245 OA 
ENDROOT
BRANCH   2   3
HETATM    3  C   UNL     1     -11.112   7.168  71.801  1.00  0.00    -0.236 A  
HETATM    4  C   UNL     1     -11.784   8.388  71.963  1.00  0.00    -0.417 A  
HETATM    5  C   UNL     1     -11.763   9.358  70.960  1.00  0.00    -0.395 A  
HETATM    6  C   UNL     1     -11.096   9.092  69.769  1.00  0.00    -0.140 A  
HETATM    7  C   UNL     1     -10.471   6.871  70.576  1.00  0.00    -0.211 A  
HETATM    8  C   UNL     1     -10.453   7.857  69.563  1.00  0.00    -0.226 A  
BRANCH   5   9
HETATM    9  C   UNL     1     -12.389  10.675  71.256  1.00  0.00    -0.383 C  
HETATM   10  N   UNL     1     -11.869  11.773  70.614  1.00  0.00    -0.469 N  
HETATM   11  O   UNL     1     -13.339  10.736  72.030  1.00  0.00    -0.447 OA 
HETATM   12  H   UNL     1     -11.073  11.667  69.985  1.00  0.00     0.000 HD 
BRANCH  10  13
HETATM   13  C   UNL     1     -12.452  13.077  70.832  1.00  0.00    -0.310 C  
BRANCH  13  14
HETATM   14  C   UNL     1     -12.036  14.036  69.753  1.00  0.00    -0.393 A  
HETATM   15  C   UNL     1     -11.874  13.567  68.451  1.00  0.00    -0.408 A  
HETATM   16  C   UNL     1     -11.434  14.417  67.442  1.00  0.00    -0.377 A  
HETATM   17  C   UNL     1     -11.135  15.759  67.709  1.00  0.00    -0.313 A  
HETATM   18  C   UNL     1     -11.310  16.241  69.007  1.00  0.00    -0.301 A  
HETATM   19  C   UNL     1     -11.753  15.386  70.027  1.00  0.00    -0.349 A  
BRANCH  17  20
HETATM   20  O   UNL     1     -10.661  16.655  66.774  1.00  0.00    -0.293 OA 
BRANCH  20  21
HETATM   21  C   UNL     1      -9.240  16.831  66.829  1.00  0.00    -0.243 C  
BRANCH  21  22
HETATM   22  C   UNL     1      -8.801  18.295  66.958  1.00  0.00    -0.266 C  
BRANCH  22  23
HETATM   23  N   UNL     1      -8.733  18.719  68.377  1.00  0.00    -0.328 NA 
HETATM   24  C   UNL     1      -7.509  19.466  68.683  1.00  0.00    -0.350 C  
HETATM   25  C   UNL     1      -9.901  19.523  68.735  1.00  0.00    -0.451 C  
ENDBRANCH  22  23
ENDBRANCH  21  22
ENDBRANCH  20  21
ENDBRANCH  17  20
ENDBRANCH  13  14
ENDBRANCH  10  13
ENDBRANCH   5   9
BRANCH   8  26
HETATM   26  O   UNL     1      -9.854   7.808  68.328  1.00  0.00    -0.158 OA 
HETATM   27  C   UNL     1     -10.656   7.810  67.158  1.00  0.00    -0.331 C  
ENDBRANCH   8  26
BRANCH   7  28
HETATM   28  O   UNL     1      -9.774   5.713  70.331  1.00  0.00    -0.166 OA 
HETATM   29  C   UNL     1      -8.410   5.637  70.719  1.00  0.00    -0.123 C  
ENDBRANCH   7  28
ENDBRANCH   2   3
TORSDOF 10
ENDMDL
MODEL       31
REMARK 921   NORMALIZED FREE ENERGY PREDICTED BY IDOCK:   -5.50 KCAL/MOL
REMARK 922        TOTAL FREE ENERGY PREDICTED BY IDOCK:   -9.59 KCAL/MOL
REMARK 923 INTER-LIGAND FREE ENERGY PREDICTED BY IDOCK:   -8.74 KCAL/MOL
REMARK 924 INTRA-LIGAND FREE ENERGY PREDICTED BY IDOCK:   -0.84 KCAL/MOL
REMARK 927      BINDING AFFINITY PREDICTED BY RF-SCORE:    0.00 PKD
ROOT
HETATM    1  C   UNL     1     -10.447   2.935  73.170  1.00  0.00    -0.158 C  
HETATM    2  O   UNL     1      -9.789   4.158  72.844  1.00  0.00    -0.128 OA 
ENDROOT
BRANCH   2   3
HETATM    3  C   UNL     1     -10.341   4.884  71.818  1.00  0.00    -0.179 A  
HETATM    4  C   UNL     1     -11.281   5.894  72.068  1.00  0.00    -0.330 A  
HETATM    5  C   UNL     1     -11.766   6.696  71.034  1.00  0.00    -0.415 A  
HETATM    6  C   UNL     1     -11.337   6.463  69.732  1.00  0.00    -0.494 A  
HETATM    7  C   UNL     1      -9.936   4.609  70.491  1.00  0.00    -0.225 A  
HETATM    8  C   UNL     1     -10.431   5.425  69.447  1.00  0.00    -0.261 A  
BRANCH   5   9
HETATM    9  C   UNL     1     -12.660   7.829  71.397  1.00  0.00    -0.317 C  
HETATM   10  N   UNL     1     -12.083   9.071  71.501  1.00  0.00    -0.319 N  
HETATM   11  O   UNL     1     -13.858   7.627  71.569  1.00  0.00    -0.383 OA 
HETATM   12  H   UNL     1     -11.080   9.183  71.356  1.00  0.00     0.000 HD 
BRANCH  10  13
HETATM   13  C   UNL     1     -12.901  10.220  71.818  1.00  0.00    -0.460 C  
BRANCH  13  14
HETATM   14  C   UNL     1     -12.586  11.370  70.904  1.00  0.00    -0.453 A  
HETATM   15  C   UNL     1     -12.056  11.110  69.642  1.00  0.00    -0.406 A  
HETATM   16  C   UNL     1     -11.700  12.155  68.795  1.00  0.00    -0.374 A  
HETATM   17  C   UNL     1     -11.857  13.489  69.190  1.00  0.00    -0.340 A  
HETATM   18  C   UNL     1     -12.403  13.757  70.445  1.00  0.00    -0.423 A  
HETATM   19  C   UNL     1     -12.763  12.707  71.302  1.00  0.00    -0.354 A  
BRANCH  17  20
HETATM   20  O   UNL     1     -11.496  14.578  68.425  1.00  0.00    -0.272 OA 
BRANCH  20  21
HETATM   21  C   UNL     1     -11.647  15.826  69.112  1.00  0.00    -0.392 C  
BRANCH  21  22
HETATM   22  C   UNL     1     -10.391  16.706  69.083  1.00  0.00    -0.326 C  
BRANCH  22  23
HETATM   23  N   UNL     1     -10.575  17.888  68.207  1.00  0.00    -0.346 NA 
HETATM   24  C   UNL     1      -9.819  19.055  68.670  1.00  0.00    -0.413 C  
HETATM   25  C   UNL     1     -10.202  17.576  66.828  1.00  0.00    -0.327 C  
ENDBRANCH  22  23
ENDBRANCH  21  22
ENDBRANCH  20  21
ENDBRANCH  17  20
ENDBRANCH  13  14
ENDBRANCH  10  13
ENDBRANCH   5   9
BRANCH   8  26
HETATM   26  O   UNL     1     -10.137   5.374  68.107  1.00  0.00    -0.156 OA 
HETATM   27  C   UNL     1     -10.889   6.158  67.193  1.00  0.00    -0.360 C  
ENDBRANCH   8  26
BRANCH   7  28
HETATM   28  O   UNL     1      -9.010   3.653  70.150  1.00  0.00    -0.090 OA 
HETATM   29  C   UNL     1      -7.638   4.016  70.095  1.00  0.00    -0.045 C  
ENDBRANCH   7  28
ENDBRANCH   2   3
TORSDOF 10
ENDMDL
MODEL       32
REMARK 921   NORMALIZED FREE ENERGY PREDICTED BY IDOCK:   -5.50 KCAL/MOL
REMARK 922        TOTAL FREE ENERGY PREDICTED BY IDOCK:   -9.58 KCAL/MOL
REMARK 923 INTER-LIGAND FREE ENERGY PREDICTED BY IDOCK:   -8.71 KCAL/MOL
REMARK 924 INTRA-LIGAND FREE ENERGY PREDICTED BY IDOCK:   -0.87 KCAL/MOL
REMARK 927      BINDING AFFINITY PREDICTED BY RF-SCORE:    0.00 PKD
ROOT
HETATM    1  C   UNL     1     -12.082  15.908  72.200  1.00  0.00    -0.506 C  
HETATM    2  O   UNL     1     -11.555  16.407  70.972  1.00  0.00    -0.380 OA 
ENDROOT
BRANCH   2   3
HETATM    3  C   UNL     1     -11.426  15.491  69.957  1.00  0.00    -0.331 A  
HETATM    4  C   UNL     1     -11.687  14.130  70.171  1.00  0.00    -0.350 A  
HETATM    5  C   UNL     1     -11.651  13.217  69.116  1.00  0.00    -0.370 A  
HETATM    6  C   UNL     1     -11.317  13.662  67.842  1.00  0.00    -0.325 A  
HETATM    7  C   UNL     1     -11.039  15.943  68.674  1.00  0.00    -0.337 A  
HETATM    8  C   UNL     1     -11.005  15.014  67.609  1.00  0.00    -0.305 A  
BRANCH   5   9
HETATM    9  C   UNL     1     -12.065  11.816  69.398  1.00  0.00    -0.238 C  
HETATM   10  N   UNL     1     -12.395  11.510  70.695  1.00  0.00    -0.373 N  
HETATM   11  O   UNL     1     -12.115  11.001  68.481  1.00  0.00    -0.573 OA 
HETATM   12  H   UNL     1     -12.328  12.224  71.421  1.00  0.00     0.000 HD 
BRANCH  10  13
HETATM   13  C   UNL     1     -12.837  10.175  71.030  1.00  0.00    -0.382 C  
BRANCH  13  14
HETATM   14  C   UNL     1     -11.713   9.372  71.620  1.00  0.00    -0.468 A  
HETATM   15  C   UNL     1     -11.978   8.504  72.677  1.00  0.00    -0.309 A  
HETATM   16  C   UNL     1     -10.948   7.790  73.281  1.00  0.00    -0.261 A  
HETATM   17  C   UNL     1      -9.623   7.930  72.851  1.00  0.00    -0.264 A  
HETATM   18  C   UNL     1      -9.352   8.785  71.782  1.00  0.00    -0.350 A  
HETATM   19  C   UNL     1     -10.387   9.507  71.170  1.00  0.00    -0.330 A  
BRANCH  17  20
HETATM   20  O   UNL     1      -8.544   7.287  73.420  1.00  0.00    -0.126 OA 
BRANCH  20  21
HETATM   21  C   UNL     1      -8.920   6.212  74.288  1.00  0.00    -0.135 C  
BRANCH  21  22
HETATM   22  C   UNL     1      -8.511   4.826  73.773  1.00  0.00    -0.104 C  
BRANCH  22  23
HETATM   23  N   UNL     1      -9.654   4.117  73.151  1.00  0.00    -0.119 NA 
HETATM   24  C   UNL     1     -10.909   4.325  73.880  1.00  0.00    -0.257 C  
HETATM   25  C   UNL     1      -9.822   4.525  71.757  1.00  0.00    -0.186 C  
ENDBRANCH  22  23
ENDBRANCH  21  22
ENDBRANCH  20  21
ENDBRANCH  17  20
ENDBRANCH  13  14
ENDBRANCH  10  13
ENDBRANCH   5   9
BRANCH   8  26
HETATM   26  O   UNL     1     -10.711  15.236  66.286  1.00  0.00    -0.305 OA 
HETATM   27  C   UNL     1     -11.460  14.575  65.279  1.00  0.00    -0.355 C  
ENDBRANCH   8  26
BRANCH   7  28
HETATM   28  O   UNL     1     -10.781  17.257  68.364  1.00  0.00    -0.367 OA 
HETATM   29  C   UNL     1      -9.454  17.744  68.490  1.00  0.00    -0.304 C  
ENDBRANCH   7  28
ENDBRANCH   2   3
TORSDOF 10
ENDMDL
MODEL       33
REMARK 921   NORMALIZED FREE ENERGY PREDICTED BY IDOCK:   -5.50 KCAL/MOL
REMARK 922        TOTAL FREE ENERGY PREDICTED BY IDOCK:   -9.58 KCAL/MOL
REMARK 923 INTER-LIGAND FREE ENERGY PREDICTED BY IDOCK:   -8.30 KCAL/MOL
REMARK 924 INTRA-LIGAND FREE ENERGY PREDICTED BY IDOCK:   -1.28 KCAL/MOL
REMARK 927      BINDING AFFINITY PREDICTED BY RF-SCORE:    0.00 PKD
ROOT
HETATM    1  C   UNL     1     -11.534  12.161  66.428  1.00  0.00    -0.370 C  
HETATM    2  O   UNL     1     -10.874  12.869  67.476  1.00  0.00    -0.230 OA 
ENDROOT
BRANCH   2   3
HETATM    3  C   UNL     1     -11.547  12.940  68.671  1.00  0.00    -0.316 A  
HETATM    4  C   UNL     1     -11.788  11.790  69.436  1.00  0.00    -0.398 A  
HETATM    5  C   UNL     1     -12.384  11.877  70.695  1.00  0.00    -0.405 A  
HETATM    6  C   UNL     1     -12.776  13.120  71.179  1.00  0.00    -0.386 A  
HETATM    7  C   UNL     1     -11.986  14.202  69.135  1.00  0.00    -0.349 A  
HETATM    8  C   UNL     1     -12.588  14.284  70.411  1.00  0.00    -0.343 A  
BRANCH   5   9
HETATM    9  C   UNL     1     -12.489  10.630  71.500  1.00  0.00    -0.366 C  
HETATM   10  N   UNL     1     -11.430   9.757  71.441  1.00  0.00    -0.380 N  
HETATM   11  O   UNL     1     -13.485  10.433  72.189  1.00  0.00    -0.396 OA 
HETATM   12  H   UNL     1     -10.629   9.966  70.845  1.00  0.00     0.000 HD 
BRANCH  10  13
HETATM   13  C   UNL     1     -11.454   8.542  72.225  1.00  0.00    -0.375 C  
BRANCH  13  14
HETATM   14  C   UNL     1     -11.055   7.359  71.390  1.00  0.00    -0.263 A  
HETATM   15  C   UNL     1     -10.005   6.548  71.816  1.00  0.00    -0.192 A  
HETATM   16  C   UNL     1      -9.574   5.480  71.036  1.00  0.00    -0.217 A  
HETATM   17  C   UNL     1     -10.176   5.197  69.804  1.00  0.00    -0.287 A  
HETATM   18  C   UNL     1     -11.239   5.995  69.378  1.00  0.00    -0.397 A  
HETATM   19  C   UNL     1     -11.675   7.073  70.161  1.00  0.00    -0.238 A  
BRANCH  17  20
HETATM   20  O   UNL     1      -9.785   4.181  68.957  1.00  0.00    -0.173 OA 
BRANCH  20  21
HETATM   21  C   UNL     1      -9.402   4.644  67.658  1.00  0.00    -0.144 C  
BRANCH  21  22
HETATM   22  C   UNL     1      -7.978   5.211  67.596  1.00  0.00    -0.099 C  
BRANCH  22  23
HETATM   23  N   UNL     1      -7.965   6.590  67.051  1.00  0.00    -0.111 NA 
HETATM   24  C   UNL     1      -9.199   6.924  66.335  1.00  0.00    -0.152 C  
HETATM   25  C   UNL     1      -7.734   7.566  68.115  1.00  0.00    -0.120 C  
ENDBRANCH  22  23
ENDBRANCH  21  22
ENDBRANCH  20  21
ENDBRANCH  17  20
ENDBRANCH  13  14
ENDBRANCH  10  13
ENDBRANCH   5   9
BRANCH   8  26
HETATM   26  O   UNL     1     -13.038  15.398  71.077  1.00  0.00    -0.454 OA 
HETATM   27  C   UNL     1     -12.223  15.999  72.071  1.00  0.00    -0.506 C  
ENDBRANCH   8  26
BRANCH   7  28
HETATM   28  O   UNL     1     -11.779  15.384  68.465  1.00  0.00    -0.352 OA 
HETATM   29  C   UNL     1     -10.587  16.115  68.714  1.00  0.00    -0.279 C  
ENDBRANCH   7  28
ENDBRANCH   2   3
TORSDOF 10
ENDMDL
MODEL       34
REMARK 921   NORMALIZED FREE ENERGY PREDICTED BY IDOCK:   -5.49 KCAL/MOL
REMARK 922        TOTAL FREE ENERGY PREDICTED BY IDOCK:   -9.57 KCAL/MOL
REMARK 923 INTER-LIGAND FREE ENERGY PREDICTED BY IDOCK:   -8.67 KCAL/MOL
REMARK 924 INTRA-LIGAND FREE ENERGY PREDICTED BY IDOCK:   -0.90 KCAL/MOL
REMARK 927      BINDING AFFINITY PREDICTED BY RF-SCORE:    0.00 PKD
ROOT
HETATM    1  C   UNL     1     -10.861   5.577  73.520  1.00  0.00    -0.276 C  
HETATM    2  O   UNL     1     -11.884   5.666  72.530  1.00  0.00    -0.282 OA 
ENDROOT
BRANCH   2   3
HETATM    3  C   UNL     1     -11.729   6.658  71.593  1.00  0.00    -0.316 A  
HETATM    4  C   UNL     1     -12.241   7.945  71.809  1.00  0.00    -0.344 A  
HETATM    5  C   UNL     1     -11.998   8.977  70.901  1.00  0.00    -0.274 A  
HETATM    6  C   UNL     1     -11.267   8.712  69.749  1.00  0.00     0.008 A  
HETATM    7  C   UNL     1     -11.026   6.368  70.400  1.00  0.00    -0.308 A  
HETATM    8  C   UNL     1     -10.782   7.417  69.484  1.00  0.00    -0.224 A  
BRANCH   5   9
HETATM    9  C   UNL     1     -12.463  10.344  71.264  1.00  0.00    -0.415 C  
HETATM   10  N   UNL     1     -11.878  11.398  70.605  1.00  0.00    -0.440 N  
HETATM   11  O   UNL     1     -13.346  10.482  72.105  1.00  0.00    -0.437 OA 
HETATM   12  H   UNL     1     -11.142  11.227  69.919  1.00  0.00     0.000 HD 
BRANCH  10  13
HETATM   13  C   UNL     1     -12.308  12.749  70.887  1.00  0.00    -0.265 C  
BRANCH  13  14
HETATM   14  C   UNL     1     -11.789  13.702  69.848  1.00  0.00    -0.389 A  
HETATM   15  C   UNL     1     -12.201  15.033  69.879  1.00  0.00    -0.351 A  
HETATM   16  C   UNL     1     -11.783  15.926  68.897  1.00  0.00    -0.376 A  
HETATM   17  C   UNL     1     -10.949  15.511  67.852  1.00  0.00    -0.316 A  
HETATM   18  C   UNL     1     -10.519  14.184  67.823  1.00  0.00    -0.246 A  
HETATM   19  C   UNL     1     -10.938  13.281  68.811  1.00  0.00    -0.294 A  
BRANCH  17  20
HETATM   20  O   UNL     1     -10.521  16.324  66.823  1.00  0.00    -0.296 OA 
BRANCH  20  21
HETATM   21  C   UNL     1     -10.184  15.600  65.634  1.00  0.00    -0.375 C  
BRANCH  21  22
HETATM   22  C   UNL     1     -11.286  15.614  64.566  1.00  0.00    -0.325 C  
BRANCH  22  23
HETATM   23  N   UNL     1     -11.757  14.244  64.253  1.00  0.00    -0.364 NA 
HETATM   24  C   UNL     1     -10.664  13.268  64.212  1.00  0.00    -0.387 C  
HETATM   25  C   UNL     1     -12.767  13.810  65.216  1.00  0.00    -0.439 C  
ENDBRANCH  22  23
ENDBRANCH  21  22
ENDBRANCH  20  21
ENDBRANCH  17  20
ENDBRANCH  13  14
ENDBRANCH  10  13
ENDBRANCH   5   9
BRANCH   8  26
HETATM   26  O   UNL     1     -10.085   7.379  68.302  1.00  0.00    -0.165 OA 
HETATM   27  C   UNL     1     -10.752   7.009  67.105  1.00  0.00    -0.363 C  
ENDBRANCH   8  26
BRANCH   7  28
HETATM   28  O   UNL     1     -10.474   5.145  70.109  1.00  0.00    -0.286 OA 
HETATM   29  C   UNL     1      -9.064   4.991  70.191  1.00  0.00    -0.120 C  
ENDBRANCH   7  28
ENDBRANCH   2   3
TORSDOF 10
ENDMDL
MODEL       35
REMARK 921   NORMALIZED FREE ENERGY PREDICTED BY IDOCK:   -5.48 KCAL/MOL
REMARK 922        TOTAL FREE ENERGY PREDICTED BY IDOCK:   -9.55 KCAL/MOL
REMARK 923 INTER-LIGAND FREE ENERGY PREDICTED BY IDOCK:   -8.70 KCAL/MOL
REMARK 924 INTRA-LIGAND FREE ENERGY PREDICTED BY IDOCK:   -0.85 KCAL/MOL
REMARK 927      BINDING AFFINITY PREDICTED BY RF-SCORE:    0.00 PKD
ROOT
HETATM    1  C   UNL     1      -9.410   4.085  69.436  1.00  0.00    -0.173 C  
HETATM    2  O   UNL     1     -10.182   4.506  70.560  1.00  0.00    -0.204 OA 
ENDROOT
BRANCH   2   3
HETATM    3  C   UNL     1     -10.502   5.842  70.603  1.00  0.00    -0.264 A  
HETATM    4  C   UNL     1     -10.081   6.720  69.595  1.00  0.00    -0.197 A  
HETATM    5  C   UNL     1     -10.490   8.055  69.589  1.00  0.00    -0.224 A  
HETATM    6  C   UNL     1     -11.298   8.524  70.619  1.00  0.00    -0.265 A  
HETATM    7  C   UNL     1     -11.283   6.322  71.680  1.00  0.00    -0.285 A  
HETATM    8  C   UNL     1     -11.695   7.675  71.668  1.00  0.00    -0.281 A  
BRANCH   5   9
HETATM    9  C   UNL     1     -10.109   8.891  68.419  1.00  0.00    -0.189 C  
HETATM   10  N   UNL     1     -11.041   9.792  67.964  1.00  0.00    -0.506 N  
HETATM   11  O   UNL     1      -8.994   8.767  67.920  1.00  0.00    -0.139 OA 
HETATM   12  H   UNL     1     -11.957   9.849  68.411  1.00  0.00     0.000 HD 
BRANCH  10  13
HETATM   13  C   UNL     1     -10.722  10.658  66.852  1.00  0.00    -0.237 C  
BRANCH  13  14
HETATM   14  C   UNL     1     -10.978  12.096  67.203  1.00  0.00    -0.316 A  
HETATM   15  C   UNL     1     -10.382  12.635  68.341  1.00  0.00    -0.241 A  
HETATM   16  C   UNL     1     -10.646  13.946  68.724  1.00  0.00    -0.258 A  
HETATM   17  C   UNL     1     -11.520  14.752  67.985  1.00  0.00    -0.331 A  
HETATM   18  C   UNL     1     -12.108  14.225  66.834  1.00  0.00    -0.440 A  
HETATM   19  C   UNL     1     -11.845  12.903  66.445  1.00  0.00    -0.478 A  
BRANCH  17  20
HETATM   20  O   UNL     1     -11.861  16.047  68.317  1.00  0.00    -0.250 OA 
BRANCH  20  21
HETATM   21  C   UNL     1     -10.740  16.937  68.344  1.00  0.00    -0.368 C  
BRANCH  21  22
HETATM   22  C   UNL     1     -10.516  17.693  67.028  1.00  0.00    -0.305 C  
BRANCH  22  23
HETATM   23  N   UNL     1     -10.609  19.160  67.221  1.00  0.00    -0.455 NA 
HETATM   24  C   UNL     1     -10.069  19.593  68.512  1.00  0.00    -0.453 C  
HETATM   25  C   UNL     1      -9.928  19.870  66.140  1.00  0.00    -0.487 C  
ENDBRANCH  22  23
ENDBRANCH  21  22
ENDBRANCH  20  21
ENDBRANCH  17  20
ENDBRANCH  13  14
ENDBRANCH  10  13
ENDBRANCH   5   9
BRANCH   8  26
HETATM   26  O   UNL     1     -12.490   8.337  72.571  1.00  0.00    -0.331 OA 
HETATM   27  C   UNL     1     -13.589   9.106  72.108  1.00  0.00    -0.474 C  
ENDBRANCH   8  26
BRANCH   7  28
HETATM   28  O   UNL     1     -11.757   5.535  72.701  1.00  0.00    -0.293 OA 
HETATM   29  C   UNL     1     -10.894   5.225  73.785  1.00  0.00    -0.261 C  
ENDBRANCH   7  28
ENDBRANCH   2   3
TORSDOF 10
ENDMDL
MODEL       36
REMARK 921   NORMALIZED FREE ENERGY PREDICTED BY IDOCK:   -5.47 KCAL/MOL
REMARK 922        TOTAL FREE ENERGY PREDICTED BY IDOCK:   -9.53 KCAL/MOL
REMARK 923 INTER-LIGAND FREE ENERGY PREDICTED BY IDOCK:   -8.58 KCAL/MOL
REMARK 924 INTRA-LIGAND FREE ENERGY PREDICTED BY IDOCK:   -0.95 KCAL/MOL
REMARK 927      BINDING AFFINITY PREDICTED BY RF-SCORE:    0.00 PKD
ROOT
HETATM    1  C   UNL     1      -9.133   8.624  66.320  1.00  0.00    -0.186 C  
HETATM    2  O   UNL     1     -10.249   7.777  66.588  1.00  0.00    -0.269 OA 
ENDROOT
BRANCH   2   3
HETATM    3  C   UNL     1     -10.342   7.292  67.870  1.00  0.00    -0.201 A  
HETATM    4  C   UNL     1     -10.716   8.124  68.934  1.00  0.00    -0.090 A  
HETATM    5  C   UNL     1     -10.905   7.609  70.217  1.00  0.00    -0.253 A  
HETATM    6  C   UNL     1     -10.683   6.255  70.447  1.00  0.00    -0.329 A  
HETATM    7  C   UNL     1     -10.067   5.924  68.105  1.00  0.00    -0.166 A  
HETATM    8  C   UNL     1     -10.261   5.407  69.406  1.00  0.00    -0.264 A  
BRANCH   5   9
HETATM    9  C   UNL     1     -11.426   8.528  71.265  1.00  0.00    -0.277 C  
HETATM   10  N   UNL     1     -12.520   9.292  70.937  1.00  0.00    -0.475 N  
HETATM   11  O   UNL     1     -10.888   8.561  72.367  1.00  0.00    -0.346 OA 
HETATM   12  H   UNL     1     -12.924   9.232  70.002  1.00  0.00     0.000 HD 
BRANCH  10  13
HETATM   13  C   UNL     1     -13.096  10.183  71.919  1.00  0.00    -0.466 C  
BRANCH  13  14
HETATM   14  C   UNL     1     -12.893  11.618  71.526  1.00  0.00    -0.469 A  
HETATM   15  C   UNL     1     -13.538  12.620  72.247  1.00  0.00    -0.508 A  
HETATM   16  C   UNL     1     -13.416  13.954  71.871  1.00  0.00    -0.511 A  
HETATM   17  C   UNL     1     -12.651  14.322  70.758  1.00  0.00    -0.356 A  
HETATM   18  C   UNL     1     -11.987  13.326  70.040  1.00  0.00    -0.399 A  
HETATM   19  C   UNL     1     -12.109  11.980  70.416  1.00  0.00    -0.407 A  
BRANCH  17  20
HETATM   20  O   UNL     1     -12.509  15.615  70.300  1.00  0.00    -0.410 OA 
BRANCH  20  21
HETATM   21  C   UNL     1     -11.690  15.713  69.129  1.00  0.00    -0.390 C  
BRANCH  21  22
HETATM   22  C   UNL     1     -10.779  16.947  69.109  1.00  0.00    -0.298 C  
BRANCH  22  23
HETATM   23  N   UNL     1     -10.812  17.627  67.793  1.00  0.00    -0.319 NA 
HETATM   24  C   UNL     1     -10.364  19.021  67.868  1.00  0.00    -0.405 C  
HETATM   25  C   UNL     1     -10.003  16.903  66.814  1.00  0.00    -0.289 C  
ENDBRANCH  22  23
ENDBRANCH  21  22
ENDBRANCH  20  21
ENDBRANCH  17  20
ENDBRANCH  13  14
ENDBRANCH  10  13
ENDBRANCH   5   9
BRANCH   8  26
HETATM   26  O   UNL     1     -10.109   4.116  69.847  1.00  0.00    -0.153 OA 
HETATM   27  C   UNL     1      -9.031   3.791  70.711  1.00  0.00    -0.094 C  
ENDBRANCH   8  26
BRANCH   7  28
HETATM   28  O   UNL     1      -9.713   5.030  67.124  1.00  0.00    -0.142 OA 
HETATM   29  C   UNL     1      -8.335   4.807  66.864  1.00  0.00    -0.106 C  
ENDBRANCH   7  28
ENDBRANCH   2   3
TORSDOF 10
ENDMDL
MODEL       37
REMARK 921   NORMALIZED FREE ENERGY PREDICTED BY IDOCK:   -5.46 KCAL/MOL
REMARK 922        TOTAL FREE ENERGY PREDICTED BY IDOCK:   -9.52 KCAL/MOL
REMARK 923 INTER-LIGAND FREE ENERGY PREDICTED BY IDOCK:   -8.49 KCAL/MOL
REMARK 924 INTRA-LIGAND FREE ENERGY PREDICTED BY IDOCK:   -1.03 KCAL/MOL
REMARK 927      BINDING AFFINITY PREDICTED BY RF-SCORE:    0.00 PKD
ROOT
HETATM    1  C   UNL     1     -10.695  19.623  66.798  1.00  0.00    -0.447 C  
HETATM    2  O   UNL     1     -10.044  18.855  65.787  1.00  0.00    -0.508 OA 
ENDROOT
BRANCH   2   3
HETATM    3  C   UNL     1      -9.585  17.619  66.173  1.00  0.00    -0.188 A  
HETATM    4  C   UNL     1     -10.453  16.522  66.272  1.00  0.00    -0.285 A  
HETATM    5  C   UNL     1      -9.968  15.247  66.569  1.00  0.00    -0.278 A  
HETATM    6  C   UNL     1      -8.609  15.073  66.804  1.00  0.00    -0.279 A  
HETATM    7  C   UNL     1      -8.209  17.459  66.458  1.00  0.00    -0.276 A  
HETATM    8  C   UNL     1      -7.723  16.166  66.757  1.00  0.00    -0.253 A  
BRANCH   5   9
HETATM    9  C   UNL     1     -10.931  14.113  66.529  1.00  0.00    -0.309 C  
HETATM   10  N   UNL     1     -10.418  12.852  66.712  1.00  0.00    -0.252 N  
HETATM   11  O   UNL     1     -12.125  14.336  66.356  1.00  0.00    -0.422 OA 
HETATM   12  H   UNL     1      -9.415  12.722  66.844  1.00  0.00     0.000 HD 
BRANCH  10  13
HETATM   13  C   UNL     1     -11.304  11.709  66.717  1.00  0.00    -0.286 C  
BRANCH  13  14
HETATM   14  C   UNL     1     -11.352  11.076  68.079  1.00  0.00    -0.374 A  
HETATM   15  C   UNL     1     -12.029  11.726  69.108  1.00  0.00    -0.356 A  
HETATM   16  C   UNL     1     -12.042  11.194  70.393  1.00  0.00    -0.475 A  
HETATM   17  C   UNL     1     -11.371  10.001  70.687  1.00  0.00    -0.348 A  
HETATM   18  C   UNL     1     -10.704   9.335  69.658  1.00  0.00    -0.244 A  
HETATM   19  C   UNL     1     -10.688   9.869  68.361  1.00  0.00    -0.271 A  
BRANCH  17  20
HETATM   20  O   UNL     1     -11.306   9.428  71.940  1.00  0.00    -0.370 OA 
BRANCH  20  21
HETATM   21  C   UNL     1     -10.435   8.293  71.998  1.00  0.00    -0.280 C  
BRANCH  21  22
HETATM   22  C   UNL     1     -10.868   7.229  73.015  1.00  0.00    -0.355 C  
BRANCH  22  23
HETATM   23  N   UNL     1     -11.534   6.083  72.352  1.00  0.00    -0.302 NA 
HETATM   24  C   UNL     1     -10.924   5.745  71.063  1.00  0.00    -0.230 C  
HETATM   25  C   UNL     1     -11.530   4.907  73.221  1.00  0.00    -0.274 C  
ENDBRANCH  22  23
ENDBRANCH  21  22
ENDBRANCH  20  21
ENDBRANCH  17  20
ENDBRANCH  13  14
ENDBRANCH  10  13
ENDBRANCH   5   9
BRANCH   8  26
HETATM   26  O   UNL     1      -6.432  15.772  67.012  1.00  0.00    -0.299 OA 
HETATM   27  C   UNL     1      -5.982  15.666  68.353  1.00  0.00    -0.105 C  
ENDBRANCH   8  26
BRANCH   7  28
HETATM   28  O   UNL     1      -7.281  18.469  66.370  1.00  0.00    -0.215 OA 
HETATM   29  C   UNL     1      -6.973  19.222  67.535  1.00  0.00    -0.208 C  
ENDBRANCH   7  28
ENDBRANCH   2   3
TORSDOF 10
ENDMDL
MODEL       38
REMARK 921   NORMALIZED FREE ENERGY PREDICTED BY IDOCK:   -5.45 KCAL/MOL
REMARK 922        TOTAL FREE ENERGY PREDICTED BY IDOCK:   -9.51 KCAL/MOL
REMARK 923 INTER-LIGAND FREE ENERGY PREDICTED BY IDOCK:   -8.56 KCAL/MOL
REMARK 924 INTRA-LIGAND FREE ENERGY PREDICTED BY IDOCK:   -0.95 KCAL/MOL
REMARK 927      BINDING AFFINITY PREDICTED BY RF-SCORE:    0.00 PKD
ROOT
HETATM    1  C   UNL     1     -12.459  15.841  71.910  1.00  0.00    -0.458 C  
HETATM    2  O   UNL     1     -13.230  15.172  70.913  1.00  0.00    -0.425 OA 
ENDROOT
BRANCH   2   3
HETATM    3  C   UNL     1     -12.706  13.994  70.437  1.00  0.00    -0.253 A  
HETATM    4  C   UNL     1     -12.767  12.816  71.194  1.00  0.00    -0.355 A  
HETATM    5  C   UNL     1     -12.324  11.602  70.669  1.00  0.00    -0.437 A  
HETATM    6  C   UNL     1     -11.782  11.570  69.389  1.00  0.00    -0.413 A  
HETATM    7  C   UNL     1     -12.112  13.980  69.153  1.00  0.00    -0.337 A  
HETATM    8  C   UNL     1     -11.665  12.747  68.627  1.00  0.00    -0.324 A  
BRANCH   5   9
HETATM    9  C   UNL     1     -12.541  10.374  71.483  1.00  0.00    -0.439 C  
HETATM   10  N   UNL     1     -11.496   9.487  71.567  1.00  0.00    -0.391 N  
HETATM   11  O   UNL     1     -13.614  10.206  72.055  1.00  0.00    -0.358 OA 
HETATM   12  H   UNL     1     -10.627   9.673  71.065  1.00  0.00     0.000 HD 
BRANCH  10  13
HETATM   13  C   UNL     1     -11.629   8.291  72.368  1.00  0.00    -0.396 C  
BRANCH  13  14
HETATM   14  C   UNL     1     -11.068   7.099  71.646  1.00  0.00    -0.264 A  
HETATM   15  C   UNL     1     -11.240   6.996  70.267  1.00  0.00    -0.339 A  
HETATM   16  C   UNL     1     -10.783   5.876  69.579  1.00  0.00    -0.414 A  
HETATM   17  C   UNL     1     -10.149   4.824  70.252  1.00  0.00    -0.234 A  
HETATM   18  C   UNL     1      -9.959   4.928  71.631  1.00  0.00    -0.255 A  
HETATM   19  C   UNL     1     -10.419   6.055  72.328  1.00  0.00    -0.241 A  
BRANCH  17  20
HETATM   20  O   UNL     1      -9.701   3.668  69.650  1.00  0.00    -0.188 OA 
BRANCH  20  21
HETATM   21  C   UNL     1      -8.776   3.908  68.584  1.00  0.00    -0.100 C  
BRANCH  21  22
HETATM   22  C   UNL     1      -9.211   3.314  67.238  1.00  0.00    -0.192 C  
BRANCH  22  23
HETATM   23  N   UNL     1      -9.163   4.326  66.156  1.00  0.00    -0.136 NA 
HETATM   24  C   UNL     1     -10.468   4.947  65.908  1.00  0.00    -0.239 C  
HETATM   25  C   UNL     1      -8.176   5.361  66.457  1.00  0.00    -0.109 C  
ENDBRANCH  22  23
ENDBRANCH  21  22
ENDBRANCH  20  21
ENDBRANCH  17  20
ENDBRANCH  13  14
ENDBRANCH  10  13
ENDBRANCH   5   9
BRANCH   8  26
HETATM   26  O   UNL     1     -11.111  12.490  67.397  1.00  0.00    -0.248 OA 
HETATM   27  C   UNL     1     -11.909  12.606  66.229  1.00  0.00    -0.410 C  
ENDBRANCH   8  26
BRANCH   7  28
HETATM   28  O   UNL     1     -12.023  15.078  68.333  1.00  0.00    -0.291 OA 
HETATM   29  C   UNL     1     -10.862  15.892  68.398  1.00  0.00    -0.316 C  
ENDBRANCH   7  28
ENDBRANCH   2   3
TORSDOF 10
ENDMDL
MODEL       39
REMARK 921   NORMALIZED FREE ENERGY PREDICTED BY IDOCK:   -5.43 KCAL/MOL
REMARK 922        TOTAL FREE ENERGY PREDICTED BY IDOCK:   -9.48 KCAL/MOL
REMARK 923 INTER-LIGAND FREE ENERGY PREDICTED BY IDOCK:   -8.76 KCAL/MOL
REMARK 924 INTRA-LIGAND FREE ENERGY PREDICTED BY IDOCK:   -0.72 KCAL/MOL
REMARK 927      BINDING AFFINITY PREDICTED BY RF-SCORE:    0.00 PKD
ROOT
HETATM    1  C   UNL     1     -10.801   6.442  68.090  1.00  0.00    -0.308 C  
HETATM    2  O   UNL     1     -11.031   5.701  69.288  1.00  0.00    -0.304 OA 
ENDROOT
BRANCH   2   3
HETATM    3  C   UNL     1     -10.964   6.416  70.459  1.00  0.00    -0.306 A  
HETATM    4  C   UNL     1     -11.746   7.562  70.654  1.00  0.00    -0.240 A  
HETATM    5  C   UNL     1     -11.750   8.229  71.880  1.00  0.00    -0.381 A  
HETATM    6  C   UNL     1     -10.938   7.767  72.909  1.00  0.00    -0.467 A  
HETATM    7  C   UNL     1     -10.098   5.968  71.485  1.00  0.00    -0.192 A  
HETATM    8  C   UNL     1     -10.107   6.647  72.725  1.00  0.00    -0.177 A  
BRANCH   5   9
HETATM    9  C   UNL     1     -12.703   9.360  72.051  1.00  0.00    -0.403 C  
HETATM   10  N   UNL     1     -12.266  10.608  71.680  1.00  0.00    -0.244 N  
HETATM   11  O   UNL     1     -13.828   9.145  72.491  1.00  0.00    -0.475 OA 
HETATM   12  H   UNL     1     -11.317  10.732  71.327  1.00  0.00     0.000 HD 
BRANCH  10  13
HETATM   13  C   UNL     1     -13.153  11.744  71.790  1.00  0.00    -0.375 C  
BRANCH  13  14
HETATM   14  C   UNL     1     -12.657  12.892  70.958  1.00  0.00    -0.376 A  
HETATM   15  C   UNL     1     -12.810  14.193  71.434  1.00  0.00    -0.428 A  
HETATM   16  C   UNL     1     -12.414  15.280  70.662  1.00  0.00    -0.458 A  
HETATM   17  C   UNL     1     -11.860  15.097  69.389  1.00  0.00    -0.330 A  
HETATM   18  C   UNL     1     -11.687  13.797  68.912  1.00  0.00    -0.374 A  
HETATM   19  C   UNL     1     -12.086  12.698  69.688  1.00  0.00    -0.277 A  
BRANCH  17  20
HETATM   20  O   UNL     1     -11.475  16.121  68.549  1.00  0.00    -0.376 OA 
BRANCH  20  21
HETATM   21  C   UNL     1     -10.526  15.713  67.557  1.00  0.00    -0.285 C  
BRANCH  21  22
HETATM   22  C   UNL     1     -10.779  16.316  66.170  1.00  0.00    -0.197 C  
BRANCH  22  23
HETATM   23  N   UNL     1      -9.865  17.450  65.895  1.00  0.00    -0.537 NA 
HETATM   24  C   UNL     1     -10.517  18.752  66.065  1.00  0.00    -0.432 C  
HETATM   25  C   UNL     1      -8.679  17.380  66.747  1.00  0.00    -0.255 C  
ENDBRANCH  22  23
ENDBRANCH  21  22
ENDBRANCH  20  21
ENDBRANCH  17  20
ENDBRANCH  13  14
ENDBRANCH  10  13
ENDBRANCH   5   9
BRANCH   8  26
HETATM   26  O   UNL     1      -9.397   6.360  73.864  1.00  0.00    -0.131 OA 
HETATM   27  C   UNL     1      -8.400   7.262  74.317  1.00  0.00    -0.184 C  
ENDBRANCH   8  26
BRANCH   7  28
HETATM   28  O   UNL     1      -9.309   4.847  71.393  1.00  0.00    -0.141 OA 
HETATM   29  C   UNL     1      -9.918   3.568  71.497  1.00  0.00    -0.101 C  
ENDBRANCH   7  28
ENDBRANCH   2   3
TORSDOF 10
ENDMDL
MODEL       40
REMARK 921   NORMALIZED FREE ENERGY PREDICTED BY IDOCK:   -5.43 KCAL/MOL
REMARK 922        TOTAL FREE ENERGY PREDICTED BY IDOCK:   -9.48 KCAL/MOL
REMARK 923 INTER-LIGAND FREE ENERGY PREDICTED BY IDOCK:   -8.53 KCAL/MOL
REMARK 924 INTRA-LIGAND FREE ENERGY PREDICTED BY IDOCK:   -0.95 KCAL/MOL
REMARK 927      BINDING AFFINITY PREDICTED BY RF-SCORE:    0.00 PKD
ROOT
HETATM    1  C   UNL     1     -13.520   9.025  72.308  1.00  0.00    -0.475 C  
HETATM    2  O   UNL     1     -12.290   8.349  72.562  1.00  0.00    -0.376 OA 
ENDROOT
BRANCH   2   3
HETATM    3  C   UNL     1     -11.685   7.770  71.473  1.00  0.00    -0.280 A  
HETATM    4  C   UNL     1     -11.275   8.542  70.377  1.00  0.00    -0.224 A  
HETATM    5  C   UNL     1     -10.573   7.968  69.317  1.00  0.00    -0.193 A  
HETATM    6  C   UNL     1     -10.309   6.602  69.334  1.00  0.00    -0.228 A  
HETATM    7  C   UNL     1     -11.464   6.373  71.476  1.00  0.00    -0.306 A  
HETATM    8  C   UNL     1     -10.752   5.797  70.400  1.00  0.00    -0.302 A  
BRANCH   5   9
HETATM    9  C   UNL     1     -10.059   8.873  68.253  1.00  0.00    -0.187 C  
HETATM   10  N   UNL     1     -10.944   9.780  67.723  1.00  0.00    -0.460 N  
HETATM   11  O   UNL     1      -8.884   8.797  67.905  1.00  0.00    -0.135 OA 
HETATM   12  H   UNL     1     -11.912   9.796  68.044  1.00  0.00     0.000 HD 
BRANCH  10  13
HETATM   13  C   UNL     1     -10.500  10.711  66.710  1.00  0.00    -0.247 C  
BRANCH  13  14
HETATM   14  C   UNL     1     -10.770  12.127  67.131  1.00  0.00    -0.267 A  
HETATM   15  C   UNL     1      -9.964  12.713  68.105  1.00  0.00    -0.225 A  
HETATM   16  C   UNL     1     -10.225  14.003  68.557  1.00  0.00    -0.237 A  
HETATM   17  C   UNL     1     -11.303  14.740  68.053  1.00  0.00    -0.316 A  
HETATM   18  C   UNL     1     -12.104  14.167  67.065  1.00  0.00    -0.449 A  
HETATM   19  C   UNL     1     -11.845  12.867  66.607  1.00  0.00    -0.461 A  
BRANCH  17  20
HETATM   20  O   UNL     1     -11.649  16.007  68.474  1.00  0.00    -0.381 OA 
BRANCH  20  21
HETATM   21  C   UNL     1     -10.552  16.928  68.453  1.00  0.00    -0.365 C  
BRANCH  21  22
HETATM   22  C   UNL     1     -10.272  17.530  67.070  1.00  0.00    -0.327 C  
BRANCH  22  23
HETATM   23  N   UNL     1      -9.791  18.929  67.173  1.00  0.00    -0.310 NA 
HETATM   24  C   UNL     1     -10.293  19.777  66.089  1.00  0.00    -0.524 C  
HETATM   25  C   UNL     1     -10.158  19.510  68.463  1.00  0.00    -0.445 C  
ENDBRANCH  22  23
ENDBRANCH  21  22
ENDBRANCH  20  21
ENDBRANCH  17  20
ENDBRANCH  13  14
ENDBRANCH  10  13
ENDBRANCH   5   9
BRANCH   8  26
HETATM   26  O   UNL     1     -10.381   4.486  70.220  1.00  0.00    -0.160 OA 
HETATM   27  C   UNL     1      -9.032   4.102  70.434  1.00  0.00    -0.092 C  
ENDBRANCH   8  26
BRANCH   7  28
HETATM   28  O   UNL     1     -11.813   5.540  72.511  1.00  0.00    -0.252 OA 
HETATM   29  C   UNL     1     -10.874   5.305  73.550  1.00  0.00    -0.304 C  
ENDBRANCH   7  28
ENDBRANCH   2   3
TORSDOF 10
ENDMDL
MODEL       41
REMARK 921   NORMALIZED FREE ENERGY PREDICTED BY IDOCK:   -5.43 KCAL/MOL
REMARK 922        TOTAL FREE ENERGY PREDICTED BY IDOCK:   -9.47 KCAL/MOL
REMARK 923 INTER-LIGAND FREE ENERGY PREDICTED BY IDOCK:   -8.26 KCAL/MOL
REMARK 924 INTRA-LIGAND FREE ENERGY PREDICTED BY IDOCK:   -1.21 KCAL/MOL
REMARK 927      BINDING AFFINITY PREDICTED BY RF-SCORE:    0.00 PKD
ROOT
HETATM    1  C   UNL     1     -10.355  17.037  68.950  1.00  0.00    -0.337 C  
HETATM    2  O   UNL     1     -11.511  16.536  68.281  1.00  0.00    -0.283 OA 
ENDROOT
BRANCH   2   3
HETATM    3  C   UNL     1     -11.658  15.170  68.274  1.00  0.00    -0.339 A  
HETATM    4  C   UNL     1     -11.860  14.457  69.464  1.00  0.00    -0.376 A  
HETATM    5  C   UNL     1     -12.107  13.084  69.444  1.00  0.00    -0.267 A  
HETATM    6  C   UNL     1     -12.118  12.411  68.228  1.00  0.00    -0.105 A  
HETATM    7  C   UNL     1     -11.620  14.486  67.036  1.00  0.00    -0.386 A  
HETATM    8  C   UNL     1     -11.872  13.094  67.023  1.00  0.00    -0.379 A  
BRANCH   5   9
HETATM    9  C   UNL     1     -12.439  12.421  70.735  1.00  0.00    -0.267 C  
HETATM   10  N   UNL     1     -12.536  11.051  70.727  1.00  0.00    -0.366 N  
HETATM   11  O   UNL     1     -12.594  13.101  71.745  1.00  0.00    -0.203 OA 
HETATM   12  H   UNL     1     -12.406  10.535  69.857  1.00  0.00     0.000 HD 
BRANCH  10  13
HETATM   13  C   UNL     1     -12.824  10.343  71.954  1.00  0.00    -0.415 C  
BRANCH  13  14
HETATM   14  C   UNL     1     -12.189   8.982  71.948  1.00  0.00    -0.451 A  
HETATM   15  C   UNL     1     -10.804   8.875  72.060  1.00  0.00    -0.404 A  
HETATM   16  C   UNL     1     -10.183   7.633  71.999  1.00  0.00    -0.242 A  
HETATM   17  C   UNL     1     -10.928   6.461  71.815  1.00  0.00    -0.255 A  
HETATM   18  C   UNL     1     -12.316   6.558  71.718  1.00  0.00    -0.340 A  
HETATM   19  C   UNL     1     -12.947   7.809  71.779  1.00  0.00    -0.351 A  
BRANCH  17  20
HETATM   20  O   UNL     1     -10.385   5.198  71.708  1.00  0.00    -0.202 OA 
BRANCH  20  21
HETATM   21  C   UNL     1      -9.248   5.143  70.840  1.00  0.00    -0.146 C  
BRANCH  21  22
HETATM   22  C   UNL     1      -9.588   4.763  69.393  1.00  0.00    -0.179 C  
BRANCH  22  23
HETATM   23  N   UNL     1      -9.361   5.896  68.465  1.00  0.00    -0.120 NA 
HETATM   24  C   UNL     1     -10.582   6.662  68.202  1.00  0.00    -0.241 C  
HETATM   25  C   UNL     1      -8.322   6.787  68.979  1.00  0.00    -0.124 C  
ENDBRANCH  22  23
ENDBRANCH  21  22
ENDBRANCH  20  21
ENDBRANCH  17  20
ENDBRANCH  13  14
ENDBRANCH  10  13
ENDBRANCH   5   9
BRANCH   8  26
HETATM   26  O   UNL     1     -11.935  12.245  65.946  1.00  0.00    -0.555 OA 
HETATM   27  C   UNL     1     -10.756  11.601  65.489  1.00  0.00    -0.281 C  
ENDBRANCH   8  26
BRANCH   7  28
HETATM   28  O   UNL     1     -11.447  15.100  65.820  1.00  0.00    -0.292 OA 
HETATM   29  C   UNL     1     -10.127  15.343  65.355  1.00  0.00    -0.359 C  
ENDBRANCH   7  28
ENDBRANCH   2   3
TORSDOF 10
ENDMDL
MODEL       42
REMARK 921   NORMALIZED FREE ENERGY PREDICTED BY IDOCK:   -5.43 KCAL/MOL
REMARK 922        TOTAL FREE ENERGY PREDICTED BY IDOCK:   -9.47 KCAL/MOL
REMARK 923 INTER-LIGAND FREE ENERGY PREDICTED BY IDOCK:   -8.70 KCAL/MOL
REMARK 924 INTRA-LIGAND FREE ENERGY PREDICTED BY IDOCK:   -0.76 KCAL/MOL
REMARK 927      BINDING AFFINITY PREDICTED BY RF-SCORE:    0.00 PKD
ROOT
HETATM    1  C   UNL     1     -10.544  19.828  65.769  1.00  0.00    -0.419 C  
HETATM    2  O   UNL     1      -9.736  18.654  65.712  1.00  0.00    -0.457 OA 
ENDROOT
BRANCH   2   3
HETATM    3  C   UNL     1     -10.216  17.559  66.389  1.00  0.00    -0.354 A  
HETATM    4  C   UNL     1     -10.779  16.473  65.703  1.00  0.00    -0.257 A  
HETATM    5  C   UNL     1     -11.175  15.322  66.384  1.00  0.00    -0.224 A  
HETATM    6  C   UNL     1     -11.042  15.268  67.767  1.00  0.00    -0.318 A  
HETATM    7  C   UNL     1     -10.121  17.532  67.800  1.00  0.00    -0.330 A  
HETATM    8  C   UNL     1     -10.524  16.362  68.484  1.00  0.00    -0.291 A  
BRANCH   5   9
HETATM    9  C   UNL     1     -11.643  14.163  65.575  1.00  0.00    -0.337 C  
HETATM   10  N   UNL     1     -10.968  13.904  64.407  1.00  0.00    -0.570 N  
HETATM   11  O   UNL     1     -12.582  13.482  65.975  1.00  0.00    -0.420 OA 
HETATM   12  H   UNL     1     -10.198  14.507  64.117  1.00  0.00     0.000 HD 
BRANCH  10  13
HETATM   13  C   UNL     1     -11.350  12.774  63.591  1.00  0.00    -0.453 C  
BRANCH  13  14
HETATM   14  C   UNL     1     -10.433  11.608  63.828  1.00  0.00    -0.454 A  
HETATM   15  C   UNL     1      -9.530  11.239  62.832  1.00  0.00    -0.385 A  
HETATM   16  C   UNL     1      -8.709  10.129  62.999  1.00  0.00    -0.211 A  
HETATM   17  C   UNL     1      -8.773   9.351  64.162  1.00  0.00    -0.198 A  
HETATM   18  C   UNL     1      -9.662   9.725  65.170  1.00  0.00    -0.338 A  
HETATM   19  C   UNL     1     -10.493  10.843  65.006  1.00  0.00    -0.331 A  
BRANCH  17  20
HETATM   20  O   UNL     1      -8.020   8.218  64.388  1.00  0.00    -0.132 OA 
BRANCH  20  21
HETATM   21  C   UNL     1      -8.346   7.559  65.617  1.00  0.00    -0.140 C  
BRANCH  21  22
HETATM   22  C   UNL     1      -8.631   6.060  65.460  1.00  0.00    -0.143 C  
BRANCH  22  23
HETATM   23  N   UNL     1      -9.542   5.566  66.520  1.00  0.00    -0.149 NA 
HETATM   24  C   UNL     1     -10.586   6.536  66.863  1.00  0.00    -0.305 C  
HETATM   25  C   UNL     1     -10.157   4.300  66.127  1.00  0.00    -0.187 C  
ENDBRANCH  22  23
ENDBRANCH  21  22
ENDBRANCH  20  21
ENDBRANCH  17  20
ENDBRANCH  13  14
ENDBRANCH  10  13
ENDBRANCH   5   9
BRANCH   8  26
HETATM   26  O   UNL     1     -10.473  16.096  69.831  1.00  0.00    -0.289 OA 
HETATM   27  C   UNL     1     -11.641  15.656  70.504  1.00  0.00    -0.360 C  
ENDBRANCH   8  26
BRANCH   7  28
HETATM   28  O   UNL     1      -9.569  18.538  68.555  1.00  0.00    -0.327 OA 
HETATM   29  C   UNL     1      -8.156  18.610  68.676  1.00  0.00    -0.322 C  
ENDBRANCH   7  28
ENDBRANCH   2   3
TORSDOF 10
ENDMDL
MODEL       43
REMARK 921   NORMALIZED FREE ENERGY PREDICTED BY IDOCK:   -5.43 KCAL/MOL
REMARK 922        TOTAL FREE ENERGY PREDICTED BY IDOCK:   -9.46 KCAL/MOL
REMARK 923 INTER-LIGAND FREE ENERGY PREDICTED BY IDOCK:   -8.65 KCAL/MOL
REMARK 924 INTRA-LIGAND FREE ENERGY PREDICTED BY IDOCK:   -0.81 KCAL/MOL
REMARK 927      BINDING AFFINITY PREDICTED BY RF-SCORE:    0.00 PKD
ROOT
HETATM    1  C   UNL     1     -10.065  20.044  69.452  1.00  0.00    -0.043 C  
HETATM    2  O   UNL     1     -10.043  20.094  68.027  1.00  0.00    -0.409 OA 
ENDROOT
BRANCH   2   3
HETATM    3  C   UNL     1      -9.433  19.036  67.397  1.00  0.00    -0.301 A  
HETATM    4  C   UNL     1     -10.123  17.839  67.160  1.00  0.00    -0.338 A  
HETATM    5  C   UNL     1      -9.535  16.803  66.433  1.00  0.00    -0.307 A  
HETATM    6  C   UNL     1      -8.232  16.951  65.971  1.00  0.00    -0.178 A  
HETATM    7  C   UNL     1      -8.091  19.175  66.972  1.00  0.00    -0.262 A  
HETATM    8  C   UNL     1      -7.500  18.123  66.236  1.00  0.00    -0.266 A  
BRANCH   5   9
HETATM    9  C   UNL     1     -10.375  15.618  66.112  1.00  0.00    -0.316 C  
HETATM   10  N   UNL     1     -10.741  14.809  67.159  1.00  0.00    -0.293 N  
HETATM   11  O   UNL     1     -10.720  15.415  64.952  1.00  0.00    -0.420 OA 
HETATM   12  H   UNL     1     -10.420  15.019  68.104  1.00  0.00     0.000 HD 
BRANCH  10  13
HETATM   13  C   UNL     1     -11.584  13.659  66.920  1.00  0.00    -0.367 C  
BRANCH  13  14
HETATM   14  C   UNL     1     -11.781  12.868  68.182  1.00  0.00    -0.395 A  
HETATM   15  C   UNL     1     -11.693  11.478  68.136  1.00  0.00    -0.357 A  
HETATM   16  C   UNL     1     -11.928  10.716  69.275  1.00  0.00    -0.269 A  
HETATM   17  C   UNL     1     -12.266  11.321  70.492  1.00  0.00    -0.383 A  
HETATM   18  C   UNL     1     -12.339  12.714  70.550  1.00  0.00    -0.350 A  
HETATM   19  C   UNL     1     -12.104  13.486  69.403  1.00  0.00    -0.340 A  
BRANCH  17  20
HETATM   20  O   UNL     1     -12.548  10.636  71.655  1.00  0.00    -0.395 OA 
BRANCH  20  21
HETATM   21  C   UNL     1     -12.899   9.266  71.432  1.00  0.00    -0.328 C  
BRANCH  21  22
HETATM   22  C   UNL     1     -11.871   8.265  71.976  1.00  0.00    -0.347 C  
BRANCH  22  23
HETATM   23  N   UNL     1     -12.140   6.891  71.491  1.00  0.00    -0.339 NA 
HETATM   24  C   UNL     1     -11.586   6.647  70.156  1.00  0.00    -0.386 C  
HETATM   25  C   UNL     1     -11.619   5.898  72.428  1.00  0.00    -0.288 C  
ENDBRANCH  22  23
ENDBRANCH  21  22
ENDBRANCH  20  21
ENDBRANCH  17  20
ENDBRANCH  13  14
ENDBRANCH  10  13
ENDBRANCH   5   9
BRANCH   8  26
HETATM   26  O   UNL     1      -6.244  18.062  65.685  1.00  0.00    -0.235 OA 
HETATM   27  C   UNL     1      -5.199  17.411  66.391  1.00  0.00    -0.180 C  
ENDBRANCH   8  26
BRANCH   7  28
HETATM   28  O   UNL     1      -7.342  20.314  67.143  1.00  0.00    -0.258 OA 
HETATM   29  C   UNL     1      -6.506  20.421  68.286  1.00  0.00    -0.309 C  
ENDBRANCH   7  28
ENDBRANCH   2   3
TORSDOF 10
ENDMDL
MODEL       44
REMARK 921   NORMALIZED FREE ENERGY PREDICTED BY IDOCK:   -5.41 KCAL/MOL
REMARK 922        TOTAL FREE ENERGY PREDICTED BY IDOCK:   -9.44 KCAL/MOL
REMARK 923 INTER-LIGAND FREE ENERGY PREDICTED BY IDOCK:   -8.49 KCAL/MOL
REMARK 924 INTRA-LIGAND FREE ENERGY PREDICTED BY IDOCK:   -0.95 KCAL/MOL
REMARK 927      BINDING AFFINITY PREDICTED BY RF-SCORE:    0.00 PKD
ROOT
HETATM    1  C   UNL     1     -10.279  20.211  65.961  1.00  0.00    -0.385 C  
HETATM    2  O   UNL     1      -9.715  20.186  67.271  1.00  0.00    -0.382 OA 
ENDROOT
BRANCH   2   3
HETATM    3  C   UNL     1      -9.466  18.941  67.795  1.00  0.00    -0.302 A  
HETATM    4  C   UNL     1     -10.448  17.941  67.785  1.00  0.00    -0.409 A  
HETATM    5  C   UNL     1     -10.161  16.648  68.227  1.00  0.00    -0.268 A  
HETATM    6  C   UNL     1      -8.892  16.362  68.718  1.00  0.00    -0.246 A  
HETATM    7  C   UNL     1      -8.187  18.672  68.338  1.00  0.00    -0.334 A  
HETATM    8  C   UNL     1      -7.902  17.361  68.784  1.00  0.00    -0.250 A  
BRANCH   5   9
HETATM    9  C   UNL     1     -11.214  15.610  68.064  1.00  0.00    -0.339 C  
HETATM   10  N   UNL     1     -11.289  14.981  66.845  1.00  0.00    -0.331 N  
HETATM   11  O   UNL     1     -11.954  15.342  69.006  1.00  0.00    -0.323 OA 
HETATM   12  H   UNL     1     -10.653  15.248  66.093  1.00  0.00     0.000 HD 
BRANCH  10  13
HETATM   13  C   UNL     1     -12.268  13.939  66.631  1.00  0.00    -0.424 C  
BRANCH  13  14
HETATM   14  C   UNL     1     -11.699  12.592  66.972  1.00  0.00    -0.437 A  
HETATM   15  C   UNL     1     -11.014  11.874  65.992  1.00  0.00    -0.355 A  
HETATM   16  C   UNL     1     -10.526  10.600  66.260  1.00  0.00    -0.268 A  
HETATM   17  C   UNL     1     -10.716  10.002  67.512  1.00  0.00    -0.281 A  
HETATM   18  C   UNL     1     -11.386  10.721  68.503  1.00  0.00    -0.360 A  
HETATM   19  C   UNL     1     -11.880  12.006  68.237  1.00  0.00    -0.351 A  
BRANCH  17  20
HETATM   20  O   UNL     1     -10.295   8.732  67.844  1.00  0.00    -0.208 OA 
BRANCH  20  21
HETATM   21  C   UNL     1      -9.952   8.594  69.228  1.00  0.00    -0.195 C  
BRANCH  21  22
HETATM   22  C   UNL     1     -10.522   7.330  69.885  1.00  0.00    -0.225 C  
BRANCH  22  23
HETATM   23  N   UNL     1     -11.028   7.609  71.251  1.00  0.00    -0.236 NA 
HETATM   24  C   UNL     1     -10.678   8.953  71.717  1.00  0.00    -0.362 C  
HETATM   25  C   UNL     1     -12.478   7.429  71.313  1.00  0.00    -0.346 C  
ENDBRANCH  22  23
ENDBRANCH  21  22
ENDBRANCH  20  21
ENDBRANCH  17  20
ENDBRANCH  13  14
ENDBRANCH  10  13
ENDBRANCH   5   9
BRANCH   8  26
HETATM   26  O   UNL     1      -6.727  16.864  69.292  1.00  0.00    -0.225 OA 
HETATM   27  C   UNL     1      -6.596  15.471  69.526  1.00  0.00    -0.172 C  
ENDBRANCH   8  26
BRANCH   7  28
HETATM   28  O   UNL     1      -7.158  19.581  68.375  1.00  0.00    -0.289 OA 
HETATM   29  C   UNL     1      -6.237  19.620  67.295  1.00  0.00    -0.185 C  
ENDBRANCH   7  28
ENDBRANCH   2   3
TORSDOF 10
ENDMDL
MODEL       45
REMARK 921   NORMALIZED FREE ENERGY PREDICTED BY IDOCK:   -5.37 KCAL/MOL
REMARK 922        TOTAL FREE ENERGY PREDICTED BY IDOCK:   -9.38 KCAL/MOL
REMARK 923 INTER-LIGAND FREE ENERGY PREDICTED BY IDOCK:   -8.61 KCAL/MOL
REMARK 924 INTRA-LIGAND FREE ENERGY PREDICTED BY IDOCK:   -0.77 KCAL/MOL
REMARK 927      BINDING AFFINITY PREDICTED BY RF-SCORE:    0.00 PKD
ROOT
HETATM    1  C   UNL     1      -9.867   4.967  69.642  1.00  0.00    -0.220 C  
HETATM    2  O   UNL     1     -10.918   5.725  70.240  1.00  0.00    -0.309 OA 
ENDROOT
BRANCH   2   3
HETATM    3  C   UNL     1     -10.920   7.071  69.966  1.00  0.00    -0.270 A  
HETATM    4  C   UNL     1     -10.558   7.553  68.701  1.00  0.00    -0.171 A  
HETATM    5  C   UNL     1     -10.655   8.911  68.395  1.00  0.00    -0.190 A  
HETATM    6  C   UNL     1     -11.084   9.801  69.374  1.00  0.00    -0.205 A  
HETATM    7  C   UNL     1     -11.311   7.974  70.982  1.00  0.00    -0.273 A  
HETATM    8  C   UNL     1     -11.409   9.349  70.667  1.00  0.00    -0.292 A  
BRANCH   5   9
HETATM    9  C   UNL     1     -10.377   9.329  66.994  1.00  0.00    -0.255 C  
HETATM   10  N   UNL     1     -10.670  10.628  66.659  1.00  0.00    -0.217 N  
HETATM   11  O   UNL     1      -9.890   8.524  66.206  1.00  0.00    -0.254 OA 
HETATM   12  H   UNL     1     -11.082  11.254  67.352  1.00  0.00     0.000 HD 
BRANCH  10  13
HETATM   13  C   UNL     1     -10.394  11.107  65.323  1.00  0.00    -0.277 C  
BRANCH  13  14
HETATM   14  C   UNL     1     -10.551  12.599  65.247  1.00  0.00    -0.317 A  
HETATM   15  C   UNL     1      -9.749  13.410  66.047  1.00  0.00    -0.228 A  
HETATM   16  C   UNL     1      -9.911  14.792  66.041  1.00  0.00    -0.336 A  
HETATM   17  C   UNL     1     -10.886  15.401  65.241  1.00  0.00    -0.409 A  
HETATM   18  C   UNL     1     -11.682  14.596  64.424  1.00  0.00    -0.358 A  
HETATM   19  C   UNL     1     -11.522  13.203  64.428  1.00  0.00    -0.407 A  
BRANCH  17  20
HETATM   20  O   UNL     1     -11.133  16.757  65.205  1.00  0.00    -0.369 OA 
BRANCH  20  21
HETATM   21  C   UNL     1     -10.316  17.504  66.112  1.00  0.00    -0.329 C  
BRANCH  21  22
HETATM   22  C   UNL     1     -10.501  19.024  66.007  1.00  0.00    -0.458 C  
BRANCH  22  23
HETATM   23  N   UNL     1     -10.177  19.701  67.285  1.00  0.00    -0.402 NA 
HETATM   24  C   UNL     1     -10.249  18.796  68.435  1.00  0.00    -0.361 C  
HETATM   25  C   UNL     1      -8.852  20.316  67.225  1.00  0.00    -0.355 C  
ENDBRANCH  22  23
ENDBRANCH  21  22
ENDBRANCH  20  21
ENDBRANCH  17  20
ENDBRANCH  13  14
ENDBRANCH  10  13
ENDBRANCH   5   9
BRANCH   8  26
HETATM   26  O   UNL     1     -11.813  10.386  71.470  1.00  0.00    -0.301 OA 
HETATM   27  C   UNL     1     -12.645  11.404  70.938  1.00  0.00    -0.356 C  
ENDBRANCH   8  26
BRANCH   7  28
HETATM   28  O   UNL     1     -11.700   7.594  72.244  1.00  0.00    -0.300 OA 
HETATM   29  C   UNL     1     -10.709   7.433  73.248  1.00  0.00    -0.391 C  
ENDBRANCH   7  28
ENDBRANCH   2   3
TORSDOF 10
ENDMDL
MODEL       46
REMARK 921   NORMALIZED FREE ENERGY PREDICTED BY IDOCK:   -5.37 KCAL/MOL
REMARK 922        TOTAL FREE ENERGY PREDICTED BY IDOCK:   -9.37 KCAL/MOL
REMARK 923 INTER-LIGAND FREE ENERGY PREDICTED BY IDOCK:   -8.36 KCAL/MOL
REMARK 924 INTRA-LIGAND FREE ENERGY PREDICTED BY IDOCK:   -1.02 KCAL/MOL
REMARK 927      BINDING AFFINITY PREDICTED BY RF-SCORE:    0.00 PKD
ROOT
HETATM    1  C   UNL     1     -11.994  15.702  72.098  1.00  0.00    -0.460 C  
HETATM    2  O   UNL     1     -11.629  16.251  70.833  1.00  0.00    -0.401 OA 
ENDROOT
BRANCH   2   3
HETATM    3  C   UNL     1     -11.561  15.362  69.788  1.00  0.00    -0.323 A  
HETATM    4  C   UNL     1     -11.764  13.990  69.990  1.00  0.00    -0.349 A  
HETATM    5  C   UNL     1     -11.792  13.102  68.914  1.00  0.00    -0.361 A  
HETATM    6  C   UNL     1     -11.581  13.585  67.627  1.00  0.00    -0.374 A  
HETATM    7  C   UNL     1     -11.298  15.854  68.488  1.00  0.00    -0.374 A  
HETATM    8  C   UNL     1     -11.329  14.950  67.401  1.00  0.00    -0.347 A  
BRANCH   5   9
HETATM    9  C   UNL     1     -12.141  11.683  69.195  1.00  0.00    -0.251 C  
HETATM   10  N   UNL     1     -12.374  11.344  70.505  1.00  0.00    -0.353 N  
HETATM   11  O   UNL     1     -12.225  10.883  68.268  1.00  0.00    -0.526 OA 
HETATM   12  H   UNL     1     -12.283  12.048  71.239  1.00  0.00     0.000 HD 
BRANCH  10  13
HETATM   13  C   UNL     1     -12.749   9.990  70.843  1.00  0.00    -0.325 C  
BRANCH  13  14
HETATM   14  C   UNL     1     -11.608   9.267  71.500  1.00  0.00    -0.452 A  
HETATM   15  C   UNL     1     -11.878   8.322  72.488  1.00  0.00    -0.439 A  
HETATM   16  C   UNL     1     -10.841   7.678  73.155  1.00  0.00    -0.440 A  
HETATM   17  C   UNL     1      -9.503   7.967  72.858  1.00  0.00    -0.277 A  
HETATM   18  C   UNL     1      -9.224   8.900  71.858  1.00  0.00    -0.240 A  
HETATM   19  C   UNL     1     -10.267   9.551  71.184  1.00  0.00    -0.300 A  
BRANCH  17  20
HETATM   20  O   UNL     1      -8.421   7.400  73.497  1.00  0.00    -0.129 OA 
BRANCH  20  21
HETATM   21  C   UNL     1      -7.706   6.467  72.679  1.00  0.00    -0.102 C  
BRANCH  21  22
HETATM   22  C   UNL     1      -6.188   6.688  72.666  1.00  0.00    -0.054 C  
BRANCH  22  23
HETATM   23  N   UNL     1      -5.707   7.084  71.321  1.00  0.00    -0.035 NA 
HETATM   24  C   UNL     1      -6.590   6.616  70.248  1.00  0.00    -0.045 C  
HETATM   25  C   UNL     1      -5.551   8.535  71.232  1.00  0.00    -0.035 C  
ENDBRANCH  22  23
ENDBRANCH  21  22
ENDBRANCH  20  21
ENDBRANCH  17  20
ENDBRANCH  13  14
ENDBRANCH  10  13
ENDBRANCH   5   9
BRANCH   8  26
HETATM   26  O   UNL     1     -11.156  15.211  66.064  1.00  0.00    -0.338 OA 
HETATM   27  C   UNL     1     -11.882  14.461  65.103  1.00  0.00    -0.386 C  
ENDBRANCH   8  26
BRANCH   7  28
HETATM   28  O   UNL     1     -11.106  17.182  68.190  1.00  0.00    -0.315 OA 
HETATM   29  C   UNL     1      -9.790  17.714  68.243  1.00  0.00    -0.324 C  
ENDBRANCH   7  28
ENDBRANCH   2   3
TORSDOF 10
ENDMDL
MODEL       47
REMARK 921   NORMALIZED FREE ENERGY PREDICTED BY IDOCK:   -5.37 KCAL/MOL
REMARK 922        TOTAL FREE ENERGY PREDICTED BY IDOCK:   -9.37 KCAL/MOL
REMARK 923 INTER-LIGAND FREE ENERGY PREDICTED BY IDOCK:   -8.16 KCAL/MOL
REMARK 924 INTRA-LIGAND FREE ENERGY PREDICTED BY IDOCK:   -1.21 KCAL/MOL
REMARK 927      BINDING AFFINITY PREDICTED BY RF-SCORE:    0.00 PKD
ROOT
HETATM    1  C   UNL     1      -7.794  16.953  66.230  1.00  0.00    -0.311 C  
HETATM    2  O   UNL     1      -9.158  16.955  65.813  1.00  0.00    -0.523 OA 
ENDROOT
BRANCH   2   3
HETATM    3  C   UNL     1      -9.968  16.012  66.397  1.00  0.00    -0.295 A  
HETATM    4  C   UNL     1      -9.986  14.688  65.937  1.00  0.00    -0.352 A  
HETATM    5  C   UNL     1     -10.734  13.710  66.594  1.00  0.00    -0.280 A  
HETATM    6  C   UNL     1     -11.499  14.065  67.699  1.00  0.00    -0.362 A  
HETATM    7  C   UNL     1     -10.781  16.392  67.491  1.00  0.00    -0.298 A  
HETATM    8  C   UNL     1     -11.536  15.397  68.152  1.00  0.00    -0.343 A  
BRANCH   5   9
HETATM    9  C   UNL     1     -10.600  12.304  66.125  1.00  0.00    -0.249 C  
HETATM   10  N   UNL     1      -9.374  11.706  66.282  1.00  0.00    -0.212 N  
HETATM   11  O   UNL     1     -11.571  11.730  65.641  1.00  0.00    -0.274 OA 
HETATM   12  H   UNL     1      -8.597  12.232  66.684  1.00  0.00     0.000 HD 
BRANCH  10  13
HETATM   13  C   UNL     1      -9.186  10.331  65.878  1.00  0.00    -0.167 C  
BRANCH  13  14
HETATM   14  C   UNL     1      -9.421   9.397  67.031  1.00  0.00    -0.200 A  
HETATM   15  C   UNL     1     -10.377   8.390  66.908  1.00  0.00    -0.378 A  
HETATM   16  C   UNL     1     -10.658   7.547  67.978  1.00  0.00    -0.217 A  
HETATM   17  C   UNL     1      -9.998   7.692  69.204  1.00  0.00    -0.181 A  
HETATM   18  C   UNL     1      -9.027   8.687  69.330  1.00  0.00    -0.145 A  
HETATM   19  C   UNL     1      -8.741   9.540  68.253  1.00  0.00    -0.120 A  
BRANCH  17  20
HETATM   20  O   UNL     1     -10.244   6.922  70.321  1.00  0.00    -0.189 OA 
BRANCH  20  21
HETATM   21  C   UNL     1     -11.547   7.133  70.877  1.00  0.00    -0.311 C  
BRANCH  21  22
HETATM   22  C   UNL     1     -11.533   7.836  72.240  1.00  0.00    -0.332 C  
BRANCH  22  23
HETATM   23  N   UNL     1     -12.409   9.032  72.244  1.00  0.00    -0.356 NA 
HETATM   24  C   UNL     1     -12.018  10.018  71.233  1.00  0.00    -0.394 C  
HETATM   25  C   UNL     1     -13.806   8.653  72.047  1.00  0.00    -0.440 C  
ENDBRANCH  22  23
ENDBRANCH  21  22
ENDBRANCH  20  21
ENDBRANCH  17  20
ENDBRANCH  13  14
ENDBRANCH  10  13
ENDBRANCH   5   9
BRANCH   8  26
HETATM   26  O   UNL     1     -12.345  15.525  69.255  1.00  0.00    -0.243 OA 
HETATM   27  C   UNL     1     -12.433  14.461  70.189  1.00  0.00    -0.339 C  
ENDBRANCH   8  26
BRANCH   7  28
HETATM   28  O   UNL     1     -10.816  17.658  68.022  1.00  0.00    -0.369 OA 
HETATM   29  C   UNL     1      -9.919  17.987  69.073  1.00  0.00    -0.284 C  
ENDBRANCH   7  28
ENDBRANCH   2   3
TORSDOF 10
ENDMDL
MODEL       48
REMARK 921   NORMALIZED FREE ENERGY PREDICTED BY IDOCK:   -5.36 KCAL/MOL
REMARK 922        TOTAL FREE ENERGY PREDICTED BY IDOCK:   -9.36 KCAL/MOL
REMARK 923 INTER-LIGAND FREE ENERGY PREDICTED BY IDOCK:   -8.05 KCAL/MOL
REMARK 924 INTRA-LIGAND FREE ENERGY PREDICTED BY IDOCK:   -1.31 KCAL/MOL
REMARK 927      BINDING AFFINITY PREDICTED BY RF-SCORE:    0.00 PKD
ROOT
HETATM    1  C   UNL     1     -11.831  16.119  71.719  1.00  0.00    -0.506 C  
HETATM    2  O   UNL     1     -12.563  15.773  70.544  1.00  0.00    -0.421 OA 
ENDROOT
BRANCH   2   3
HETATM    3  C   UNL     1     -12.374  14.498  70.070  1.00  0.00    -0.323 A  
HETATM    4  C   UNL     1     -12.633  13.380  70.875  1.00  0.00    -0.406 A  
HETATM    5  C   UNL     1     -12.535  12.087  70.360  1.00  0.00    -0.235 A  
HETATM    6  C   UNL     1     -12.138  11.907  69.040  1.00  0.00    -0.245 A  
HETATM    7  C   UNL     1     -11.923  14.323  68.740  1.00  0.00    -0.311 A  
HETATM    8  C   UNL     1     -11.826  13.011  68.225  1.00  0.00    -0.343 A  
BRANCH   5   9
HETATM    9  C   UNL     1     -12.951  10.958  71.237  1.00  0.00    -0.392 C  
HETATM   10  N   UNL     1     -13.052   9.718  70.655  1.00  0.00    -0.586 N  
HETATM   11  O   UNL     1     -13.169  11.162  72.427  1.00  0.00    -0.249 OA 
HETATM   12  H   UNL     1     -12.867   9.606  69.657  1.00  0.00     0.000 HD 
BRANCH  10  13
HETATM   13  C   UNL     1     -13.420   8.574  71.457  1.00  0.00    -0.294 C  
BRANCH  13  14
HETATM   14  C   UNL     1     -12.242   7.664  71.662  1.00  0.00    -0.346 A  
HETATM   15  C   UNL     1     -11.488   7.778  72.829  1.00  0.00    -0.415 A  
HETATM   16  C   UNL     1     -10.359   6.989  73.021  1.00  0.00    -0.291 A  
HETATM   17  C   UNL     1      -9.946   6.070  72.049  1.00  0.00    -0.170 A  
HETATM   18  C   UNL     1     -10.705   5.938  70.886  1.00  0.00    -0.338 A  
HETATM   19  C   UNL     1     -11.845   6.731  70.688  1.00  0.00    -0.442 A  
BRANCH  17  20
HETATM   20  O   UNL     1      -8.821   5.279  72.148  1.00  0.00    -0.129 OA 
BRANCH  20  21
HETATM   21  C   UNL     1      -7.606   6.032  72.234  1.00  0.00    -0.100 C  
BRANCH  21  22
HETATM   22  C   UNL     1      -7.258   6.798  70.951  1.00  0.00    -0.073 C  
BRANCH  22  23
HETATM   23  N   UNL     1      -7.149   8.255  71.199  1.00  0.00    -0.054 NA 
HETATM   24  C   UNL     1      -8.313   8.998  70.707  1.00  0.00    -0.192 C  
HETATM   25  C   UNL     1      -6.959   8.526  72.623  1.00  0.00    -0.033 C  
ENDBRANCH  22  23
ENDBRANCH  21  22
ENDBRANCH  20  21
ENDBRANCH  17  20
ENDBRANCH  13  14
ENDBRANCH  10  13
ENDBRANCH   5   9
BRANCH   8  26
HETATM   26  O   UNL     1     -11.465  12.610  66.961  1.00  0.00    -0.306 OA 
HETATM   27  C   UNL     1     -10.546  11.542  66.799  1.00  0.00    -0.250 C  
ENDBRANCH   8  26
BRANCH   7  28
HETATM   28  O   UNL     1     -11.661  15.356  67.873  1.00  0.00    -0.319 OA 
HETATM   29  C   UNL     1     -10.333  15.847  67.772  1.00  0.00    -0.278 C  
ENDBRANCH   7  28
ENDBRANCH   2   3
TORSDOF 10
ENDMDL
MODEL       49
REMARK 921   NORMALIZED FREE ENERGY PREDICTED BY IDOCK:   -5.35 KCAL/MOL
REMARK 922        TOTAL FREE ENERGY PREDICTED BY IDOCK:   -9.34 KCAL/MOL
REMARK 923 INTER-LIGAND FREE ENERGY PREDICTED BY IDOCK:   -8.56 KCAL/MOL
REMARK 924 INTRA-LIGAND FREE ENERGY PREDICTED BY IDOCK:   -0.78 KCAL/MOL
REMARK 927      BINDING AFFINITY PREDICTED BY RF-SCORE:    0.00 PKD
ROOT
HETATM    1  C   UNL     1      -8.817   3.836  71.216  1.00  0.00    -0.096 C  
HETATM    2  O   UNL     1      -9.968   3.990  70.388  1.00  0.00    -0.182 OA 
ENDROOT
BRANCH   2   3
HETATM    3  C   UNL     1     -10.266   5.275  70.004  1.00  0.00    -0.288 A  
HETATM    4  C   UNL     1     -10.994   6.131  70.842  1.00  0.00    -0.359 A  
HETATM    5  C   UNL     1     -11.210   7.465  70.493  1.00  0.00    -0.296 A  
HETATM    6  C   UNL     1     -10.726   7.938  69.278  1.00  0.00    -0.145 A  
HETATM    7  C   UNL     1      -9.812   5.735  68.746  1.00  0.00    -0.139 A  
HETATM    8  C   UNL     1     -10.033   7.087  68.397  1.00  0.00    -0.154 A  
BRANCH   5   9
HETATM    9  C   UNL     1     -11.878   8.344  71.491  1.00  0.00    -0.297 C  
HETATM   10  N   UNL     1     -12.578   9.421  71.006  1.00  0.00    -0.464 N  
HETATM   11  O   UNL     1     -11.800   8.074  72.686  1.00  0.00    -0.377 OA 
HETATM   12  H   UNL     1     -12.604   9.604  70.003  1.00  0.00     0.000 HD 
BRANCH  10  13
HETATM   13  C   UNL     1     -13.277  10.296  71.921  1.00  0.00    -0.445 C  
BRANCH  13  14
HETATM   14  C   UNL     1     -13.052  11.736  71.561  1.00  0.00    -0.389 A  
HETATM   15  C   UNL     1     -13.711  12.730  72.282  1.00  0.00    -0.495 A  
HETATM   16  C   UNL     1     -13.568  14.069  71.935  1.00  0.00    -0.520 A  
HETATM   17  C   UNL     1     -12.767  14.453  70.852  1.00  0.00    -0.355 A  
HETATM   18  C   UNL     1     -12.090  13.465  70.136  1.00  0.00    -0.415 A  
HETATM   19  C   UNL     1     -12.233  12.114  70.482  1.00  0.00    -0.392 A  
BRANCH  17  20
HETATM   20  O   UNL     1     -12.602  15.753  70.423  1.00  0.00    -0.402 OA 
BRANCH  20  21
HETATM   21  C   UNL     1     -11.242  16.079  70.119  1.00  0.00    -0.373 C  
BRANCH  21  22
HETATM   22  C   UNL     1     -11.014  16.492  68.659  1.00  0.00    -0.344 C  
BRANCH  22  23
HETATM   23  N   UNL     1     -10.237  17.751  68.564  1.00  0.00    -0.369 NA 
HETATM   24  C   UNL     1      -8.813  17.515  68.309  1.00  0.00    -0.274 C  
HETATM   25  C   UNL     1     -10.784  18.622  67.525  1.00  0.00    -0.394 C  
ENDBRANCH  22  23
ENDBRANCH  21  22
ENDBRANCH  20  21
ENDBRANCH  17  20
ENDBRANCH  13  14
ENDBRANCH  10  13
ENDBRANCH   5   9
BRANCH   8  26
HETATM   26  O   UNL     1      -9.640   7.756  67.265  1.00  0.00    -0.146 OA 
HETATM   27  C   UNL     1      -8.442   8.517  67.278  1.00  0.00    -0.123 C  
ENDBRANCH   8  26
BRANCH   7  28
HETATM   28  O   UNL     1      -9.078   4.976  67.867  1.00  0.00    -0.110 OA 
HETATM   29  C   UNL     1      -9.751   4.295  66.819  1.00  0.00    -0.219 C  
ENDBRANCH   7  28
ENDBRANCH   2   3
TORSDOF 10
ENDMDL
MODEL       50
REMARK 921   NORMALIZED FREE ENERGY PREDICTED BY IDOCK:   -5.34 KCAL/MOL
REMARK 922        TOTAL FREE ENERGY PREDICTED BY IDOCK:   -9.32 KCAL/MOL
REMARK 923 INTER-LIGAND FREE ENERGY PREDICTED BY IDOCK:   -8.26 KCAL/MOL
REMARK 924 INTRA-LIGAND FREE ENERGY PREDICTED BY IDOCK:   -1.07 KCAL/MOL
REMARK 927      BINDING AFFINITY PREDICTED BY RF-SCORE:    0.00 PKD
ROOT
HETATM    1  C   UNL     1     -10.059  16.677  68.219  1.00  0.00    -0.268 C  
HETATM    2  O   UNL     1     -11.237  16.126  67.632  1.00  0.00    -0.266 OA 
ENDROOT
BRANCH   2   3
HETATM    3  C   UNL     1     -11.314  14.755  67.611  1.00  0.00    -0.339 A  
HETATM    4  C   UNL     1     -11.591  14.028  68.777  1.00  0.00    -0.366 A  
HETATM    5  C   UNL     1     -11.767  12.644  68.736  1.00  0.00    -0.364 A  
HETATM    6  C   UNL     1     -11.629  11.976  67.524  1.00  0.00    -0.401 A  
HETATM    7  C   UNL     1     -11.125  14.078  66.384  1.00  0.00    -0.316 A  
HETATM    8  C   UNL     1     -11.305  12.676  66.347  1.00  0.00    -0.331 A  
BRANCH   5   9
HETATM    9  C   UNL     1     -12.185  11.960  69.990  1.00  0.00    -0.217 C  
HETATM   10  N   UNL     1     -12.413  10.607  69.918  1.00  0.00    -0.500 N  
HETATM   11  O   UNL     1     -12.293  12.606  71.027  1.00  0.00    -0.351 OA 
HETATM   12  H   UNL     1     -12.316  10.119  69.027  1.00  0.00     0.000 HD 
BRANCH  10  13
HETATM   13  C   UNL     1     -12.790   9.877  71.106  1.00  0.00    -0.368 C  
BRANCH  13  14
HETATM   14  C   UNL     1     -11.625   9.101  71.650  1.00  0.00    -0.449 A  
HETATM   15  C   UNL     1     -11.857   8.069  72.557  1.00  0.00    -0.419 A  
HETATM   16  C   UNL     1     -10.795   7.370  73.122  1.00  0.00    -0.435 A  
HETATM   17  C   UNL     1      -9.470   7.690  72.802  1.00  0.00    -0.188 A  
HETATM   18  C   UNL     1      -9.229   8.711  71.882  1.00  0.00    -0.345 A  
HETATM   19  C   UNL     1     -10.297   9.418  71.311  1.00  0.00    -0.363 A  
BRANCH  17  20
HETATM   20  O   UNL     1      -8.363   7.071  73.345  1.00  0.00    -0.116 OA 
BRANCH  20  21
HETATM   21  C   UNL     1      -7.588   6.352  72.379  1.00  0.00    -0.097 C  
BRANCH  21  22
HETATM   22  C   UNL     1      -7.683   4.827  72.518  1.00  0.00    -0.092 C  
BRANCH  22  23
HETATM   23  N   UNL     1      -8.533   4.236  71.458  1.00  0.00    -0.094 NA 
HETATM   24  C   UNL     1      -9.882   3.914  71.933  1.00  0.00    -0.178 C  
HETATM   25  C   UNL     1      -8.620   5.129  70.304  1.00  0.00    -0.112 C  
ENDBRANCH  22  23
ENDBRANCH  21  22
ENDBRANCH  20  21
ENDBRANCH  17  20
ENDBRANCH  13  14
ENDBRANCH  10  13
ENDBRANCH   5   9
BRANCH   8  26
HETATM   26  O   UNL     1     -11.225  11.829  65.269  1.00  0.00    -0.307 OA 
HETATM   27  C   UNL     1      -9.989  11.207  64.956  1.00  0.00    -0.273 C  
ENDBRANCH   8  26
BRANCH   7  28
HETATM   28  O   UNL     1     -10.870  14.706  65.189  1.00  0.00    -0.349 OA 
HETATM   29  C   UNL     1     -11.961  15.054  64.348  1.00  0.00    -0.353 C  
ENDBRANCH   7  28
ENDBRANCH   2   3
TORSDOF 10
ENDMDL
MODEL       51
REMARK 921   NORMALIZED FREE ENERGY PREDICTED BY IDOCK:   -5.34 KCAL/MOL
REMARK 922        TOTAL FREE ENERGY PREDICTED BY IDOCK:   -9.32 KCAL/MOL
REMARK 923 INTER-LIGAND FREE ENERGY PREDICTED BY IDOCK:   -8.42 KCAL/MOL
REMARK 924 INTRA-LIGAND FREE ENERGY PREDICTED BY IDOCK:   -0.90 KCAL/MOL
REMARK 927      BINDING AFFINITY PREDICTED BY RF-SCORE:    0.00 PKD
ROOT
HETATM    1  C   UNL     1      -6.145  15.824  69.391  1.00  0.00    -0.138 C  
HETATM    2  O   UNL     1      -6.796  17.065  69.662  1.00  0.00    -0.184 OA 
ENDROOT
BRANCH   2   3
HETATM    3  C   UNL     1      -7.905  17.341  68.901  1.00  0.00    -0.206 A  
HETATM    4  C   UNL     1      -8.927  16.394  68.740  1.00  0.00    -0.245 A  
HETATM    5  C   UNL     1     -10.097  16.712  68.049  1.00  0.00    -0.262 A  
HETATM    6  C   UNL     1     -10.233  17.974  67.482  1.00  0.00    -0.376 A  
HETATM    7  C   UNL     1      -8.014  18.610  68.286  1.00  0.00    -0.312 A  
HETATM    8  C   UNL     1      -9.202  18.926  67.588  1.00  0.00    -0.286 A  
BRANCH   5   9
HETATM    9  C   UNL     1     -11.189  15.700  68.033  1.00  0.00    -0.339 C  
HETATM   10  N   UNL     1     -11.179  14.787  67.007  1.00  0.00    -0.338 N  
HETATM   11  O   UNL     1     -12.032  15.701  68.925  1.00  0.00    -0.367 OA 
HETATM   12  H   UNL     1     -10.459  14.836  66.286  1.00  0.00     0.000 HD 
BRANCH  10  13
HETATM   13  C   UNL     1     -12.192  13.757  66.950  1.00  0.00    -0.366 C  
BRANCH  13  14
HETATM   14  C   UNL     1     -11.686  12.476  67.549  1.00  0.00    -0.439 A  
HETATM   15  C   UNL     1     -11.019  11.561  66.737  1.00  0.00    -0.347 A  
HETATM   16  C   UNL     1     -10.590  10.341  67.250  1.00  0.00    -0.324 A  
HETATM   17  C   UNL     1     -10.823   9.998  68.587  1.00  0.00    -0.229 A  
HETATM   18  C   UNL     1     -11.476  10.916  69.411  1.00  0.00    -0.373 A  
HETATM   19  C   UNL     1     -11.911  12.146  68.898  1.00  0.00    -0.358 A  
BRANCH  17  20
HETATM   20  O   UNL     1     -10.463   8.797  69.161  1.00  0.00    -0.222 OA 
BRANCH  20  21
HETATM   21  C   UNL     1     -11.080   8.570  70.432  1.00  0.00    -0.231 C  
BRANCH  21  22
HETATM   22  C   UNL     1     -11.198   7.088  70.810  1.00  0.00    -0.285 C  
BRANCH  22  23
HETATM   23  N   UNL     1     -11.497   6.915  72.251  1.00  0.00    -0.270 NA 
HETATM   24  C   UNL     1     -11.393   5.519  72.684  1.00  0.00    -0.291 C  
HETATM   25  C   UNL     1     -10.617   7.750  73.067  1.00  0.00    -0.379 C  
ENDBRANCH  22  23
ENDBRANCH  21  22
ENDBRANCH  20  21
ENDBRANCH  17  20
ENDBRANCH  13  14
ENDBRANCH  10  13
ENDBRANCH   5   9
BRANCH   8  26
HETATM   26  O   UNL     1      -9.544  20.101  66.965  1.00  0.00    -0.371 OA 
HETATM   27  C   UNL     1     -10.440  20.078  65.865  1.00  0.00    -0.406 C  
ENDBRANCH   8  26
BRANCH   7  28
HETATM   28  O   UNL     1      -7.075  19.606  68.402  1.00  0.00    -0.287 OA 
HETATM   29  C   UNL     1      -6.039  19.689  67.433  1.00  0.00    -0.189 C  
ENDBRANCH   7  28
ENDBRANCH   2   3
TORSDOF 10
ENDMDL
MODEL       52
REMARK 921   NORMALIZED FREE ENERGY PREDICTED BY IDOCK:   -5.33 KCAL/MOL
REMARK 922        TOTAL FREE ENERGY PREDICTED BY IDOCK:   -9.31 KCAL/MOL
REMARK 923 INTER-LIGAND FREE ENERGY PREDICTED BY IDOCK:   -8.49 KCAL/MOL
REMARK 924 INTRA-LIGAND FREE ENERGY PREDICTED BY IDOCK:   -0.82 KCAL/MOL
REMARK 927      BINDING AFFINITY PREDICTED BY RF-SCORE:    0.00 PKD
ROOT
HETATM    1  C   UNL     1     -11.184  15.642  70.344  1.00  0.00    -0.357 C  
HETATM    2  O   UNL     1     -11.655  16.415  69.242  1.00  0.00    -0.237 OA 
ENDROOT
BRANCH   2   3
HETATM    3  C   UNL     1     -10.967  16.262  68.062  1.00  0.00    -0.328 A  
HETATM    4  C   UNL     1     -11.207  15.167  67.221  1.00  0.00    -0.324 A  
HETATM    5  C   UNL     1     -10.580  15.065  65.978  1.00  0.00    -0.329 A  
HETATM    6  C   UNL     1      -9.678  16.048  65.588  1.00  0.00    -0.273 A  
HETATM    7  C   UNL     1     -10.015  17.241  67.694  1.00  0.00    -0.297 A  
HETATM    8  C   UNL     1      -9.383  17.133  66.434  1.00  0.00    -0.262 A  
BRANCH   5   9
HETATM    9  C   UNL     1     -10.983  13.942  65.088  1.00  0.00    -0.350 C  
HETATM   10  N   UNL     1      -9.976  13.211  64.509  1.00  0.00    -0.622 N  
HETATM   11  O   UNL     1     -12.174  13.700  64.918  1.00  0.00    -0.380 OA 
HETATM   12  H   UNL     1      -9.001  13.460  64.678  1.00  0.00     0.000 HD 
BRANCH  10  13
HETATM   13  C   UNL     1     -10.299  12.086  63.660  1.00  0.00    -0.450 C  
BRANCH  13  14
HETATM   14  C   UNL     1      -9.858  10.796  64.290  1.00  0.00    -0.384 A  
HETATM   15  C   UNL     1     -10.359  10.443  65.541  1.00  0.00    -0.265 A  
HETATM   16  C   UNL     1      -9.926   9.284  66.176  1.00  0.00    -0.348 A  
HETATM   17  C   UNL     1      -8.972   8.448  65.581  1.00  0.00    -0.134 A  
HETATM   18  C   UNL     1      -8.478   8.786  64.320  1.00  0.00    -0.130 A  
HETATM   19  C   UNL     1      -8.912   9.955  63.677  1.00  0.00    -0.278 A  
BRANCH  17  20
HETATM   20  O   UNL     1      -8.466   7.303  66.158  1.00  0.00    -0.128 OA 
BRANCH  20  21
HETATM   21  C   UNL     1      -9.333   6.739  67.149  1.00  0.00    -0.136 C  
BRANCH  21  22
HETATM   22  C   UNL     1      -8.754   6.769  68.570  1.00  0.00    -0.124 C  
BRANCH  22  23
HETATM   23  N   UNL     1      -9.812   6.991  69.584  1.00  0.00    -0.164 NA 
HETATM   24  C   UNL     1     -10.325   8.364  69.570  1.00  0.00    -0.219 C  
HETATM   25  C   UNL     1     -10.917   6.052  69.395  1.00  0.00    -0.385 C  
ENDBRANCH  22  23
ENDBRANCH  21  22
ENDBRANCH  20  21
ENDBRANCH  17  20
ENDBRANCH  13  14
ENDBRANCH  10  13
ENDBRANCH   5   9
BRANCH   8  26
HETATM   26  O   UNL     1      -8.475  17.985  65.854  1.00  0.00    -0.509 OA 
HETATM   27  C   UNL     1      -7.095  17.849  66.153  1.00  0.00    -0.306 C  
ENDBRANCH   8  26
BRANCH   7  28
HETATM   28  O   UNL     1      -9.726  18.356  68.444  1.00  0.00    -0.319 OA 
HETATM   29  C   UNL     1     -10.285  19.604  68.060  1.00  0.00    -0.457 C  
ENDBRANCH   7  28
ENDBRANCH   2   3
TORSDOF 10
ENDMDL
MODEL       53
REMARK 921   NORMALIZED FREE ENERGY PREDICTED BY IDOCK:   -5.33 KCAL/MOL
REMARK 922        TOTAL FREE ENERGY PREDICTED BY IDOCK:   -9.31 KCAL/MOL
REMARK 923 INTER-LIGAND FREE ENERGY PREDICTED BY IDOCK:   -8.37 KCAL/MOL
REMARK 924 INTRA-LIGAND FREE ENERGY PREDICTED BY IDOCK:   -0.94 KCAL/MOL
REMARK 927      BINDING AFFINITY PREDICTED BY RF-SCORE:    0.00 PKD
ROOT
HETATM    1  C   UNL     1     -10.647  19.808  65.772  1.00  0.00    -0.419 C  
HETATM    2  O   UNL     1     -10.245  19.212  67.004  1.00  0.00    -0.342 OA 
ENDROOT
BRANCH   2   3
HETATM    3  C   UNL     1      -9.523  18.047  66.902  1.00  0.00    -0.288 A  
HETATM    4  C   UNL     1     -10.142  16.842  66.542  1.00  0.00    -0.320 A  
HETATM    5  C   UNL     1      -9.392  15.682  66.342  1.00  0.00    -0.332 A  
HETATM    6  C   UNL     1      -8.016  15.718  66.539  1.00  0.00    -0.172 A  
HETATM    7  C   UNL     1      -8.131  18.082  67.151  1.00  0.00    -0.213 A  
HETATM    8  C   UNL     1      -7.377  16.904  66.946  1.00  0.00    -0.216 A  
BRANCH   5   9
HETATM    9  C   UNL     1     -10.102  14.476  65.836  1.00  0.00    -0.326 C  
HETATM   10  N   UNL     1      -9.431  13.279  65.909  1.00  0.00    -0.489 N  
HETATM   11  O   UNL     1     -11.243  14.582  65.397  1.00  0.00    -0.318 OA 
HETATM   12  H   UNL     1      -8.479  13.248  66.276  1.00  0.00     0.000 HD 
BRANCH  10  13
HETATM   13  C   UNL     1     -10.076  12.064  65.465  1.00  0.00    -0.252 C  
BRANCH  13  14
HETATM   14  C   UNL     1     -10.368  11.158  66.627  1.00  0.00    -0.286 A  
HETATM   15  C   UNL     1     -10.705  11.717  67.858  1.00  0.00    -0.241 A  
HETATM   16  C   UNL     1     -10.924  10.906  68.967  1.00  0.00    -0.285 A  
HETATM   17  C   UNL     1     -10.804   9.514  68.878  1.00  0.00    -0.150 A  
HETATM   18  C   UNL     1     -10.484   8.946  67.644  1.00  0.00    -0.320 A  
HETATM   19  C   UNL     1     -10.261   9.760  66.524  1.00  0.00    -0.289 A  
BRANCH  17  20
HETATM   20  O   UNL     1     -10.969   8.645  69.936  1.00  0.00    -0.234 OA 
BRANCH  20  21
HETATM   21  C   UNL     1     -10.879   9.286  71.213  1.00  0.00    -0.347 C  
BRANCH  21  22
HETATM   22  C   UNL     1     -11.699   8.599  72.313  1.00  0.00    -0.358 C  
BRANCH  22  23
HETATM   23  N   UNL     1     -13.065   9.167  72.407  1.00  0.00    -0.429 NA 
HETATM   24  C   UNL     1     -13.135  10.549  71.924  1.00  0.00    -0.462 C  
HETATM   25  C   UNL     1     -14.022   8.341  71.672  1.00  0.00    -0.396 C  
ENDBRANCH  22  23
ENDBRANCH  21  22
ENDBRANCH  20  21
ENDBRANCH  17  20
ENDBRANCH  13  14
ENDBRANCH  10  13
ENDBRANCH   5   9
BRANCH   8  26
HETATM   26  O   UNL     1      -6.022  16.720  67.075  1.00  0.00    -0.159 OA 
HETATM   27  C   UNL     1      -5.530  15.635  67.845  1.00  0.00    -0.132 C  
ENDBRANCH   8  26
BRANCH   7  28
HETATM   28  O   UNL     1      -7.436  19.217  67.490  1.00  0.00    -0.232 OA 
HETATM   29  C   UNL     1      -7.321  19.568  68.861  1.00  0.00    -0.363 C  
ENDBRANCH   7  28
ENDBRANCH   2   3
TORSDOF 10
ENDMDL
MODEL       54
REMARK 921   NORMALIZED FREE ENERGY PREDICTED BY IDOCK:   -5.32 KCAL/MOL
REMARK 922        TOTAL FREE ENERGY PREDICTED BY IDOCK:   -9.30 KCAL/MOL
REMARK 923 INTER-LIGAND FREE ENERGY PREDICTED BY IDOCK:   -8.58 KCAL/MOL
REMARK 924 INTRA-LIGAND FREE ENERGY PREDICTED BY IDOCK:   -0.72 KCAL/MOL
REMARK 927      BINDING AFFINITY PREDICTED BY RF-SCORE:    0.00 PKD
ROOT
HETATM    1  C   UNL     1     -12.081  15.511  70.365  1.00  0.00    -0.392 C  
HETATM    2  O   UNL     1     -11.317  16.647  69.963  1.00  0.00    -0.165 OA 
ENDROOT
BRANCH   2   3
HETATM    3  C   UNL     1     -10.914  16.666  68.649  1.00  0.00    -0.328 A  
HETATM    4  C   UNL     1     -11.034  15.530  67.838  1.00  0.00    -0.316 A  
HETATM    5  C   UNL     1     -10.716  15.580  66.480  1.00  0.00    -0.304 A  
HETATM    6  C   UNL     1     -10.240  16.768  65.936  1.00  0.00    -0.345 A  
HETATM    7  C   UNL     1     -10.385  17.865  68.115  1.00  0.00    -0.389 A  
HETATM    8  C   UNL     1     -10.066  17.910  66.738  1.00  0.00    -0.349 A  
BRANCH   5   9
HETATM    9  C   UNL     1     -10.992  14.371  65.658  1.00  0.00    -0.314 C  
HETATM   10  N   UNL     1     -10.015  13.407  65.617  1.00  0.00    -0.417 N  
HETATM   11  O   UNL     1     -12.065  14.266  65.072  1.00  0.00    -0.389 OA 
HETATM   12  H   UNL     1      -9.137  13.547  66.117  1.00  0.00     0.000 HD 
BRANCH  10  13
HETATM   13  C   UNL     1     -10.233  12.192  64.863  1.00  0.00    -0.280 C  
BRANCH  13  14
HETATM   14  C   UNL     1     -10.258  10.996  65.771  1.00  0.00    -0.316 A  
HETATM   15  C   UNL     1      -9.638   9.817  65.362  1.00  0.00    -0.359 A  
HETATM   16  C   UNL     1      -9.694   8.676  66.155  1.00  0.00    -0.292 A  
HETATM   17  C   UNL     1     -10.378   8.679  67.377  1.00  0.00    -0.284 A  
HETATM   18  C   UNL     1     -10.988   9.861  67.802  1.00  0.00    -0.278 A  
HETATM   19  C   UNL     1     -10.934  11.013  67.004  1.00  0.00    -0.333 A  
BRANCH  17  20
HETATM   20  O   UNL     1     -10.510   7.582  68.202  1.00  0.00    -0.197 OA 
BRANCH  20  21
HETATM   21  C   UNL     1     -10.725   7.930  69.575  1.00  0.00    -0.192 C  
BRANCH  21  22
HETATM   22  C   UNL     1     -11.441   6.843  70.386  1.00  0.00    -0.338 C  
BRANCH  22  23
HETATM   23  N   UNL     1     -11.120   6.941  71.830  1.00  0.00    -0.239 NA 
HETATM   24  C   UNL     1     -11.445   8.256  72.390  1.00  0.00    -0.394 C  
HETATM   25  C   UNL     1     -11.810   5.899  72.588  1.00  0.00    -0.141 C  
ENDBRANCH  22  23
ENDBRANCH  21  22
ENDBRANCH  20  21
ENDBRANCH  17  20
ENDBRANCH  13  14
ENDBRANCH  10  13
ENDBRANCH   5   9
BRANCH   8  26
HETATM   26  O   UNL     1      -9.594  18.969  66.002  1.00  0.00    -0.453 OA 
HETATM   27  C   UNL     1     -10.477  20.016  65.631  1.00  0.00    -0.299 C  
ENDBRANCH   8  26
BRANCH   7  28
HETATM   28  O   UNL     1     -10.247  19.032  68.826  1.00  0.00    -0.384 OA 
HETATM   29  C   UNL     1      -8.943  19.480  69.164  1.00  0.00    -0.092 C  
ENDBRANCH   7  28
ENDBRANCH   2   3
TORSDOF 10
ENDMDL
MODEL       55
REMARK 921   NORMALIZED FREE ENERGY PREDICTED BY IDOCK:   -5.31 KCAL/MOL
REMARK 922        TOTAL FREE ENERGY PREDICTED BY IDOCK:   -9.28 KCAL/MOL
REMARK 923 INTER-LIGAND FREE ENERGY PREDICTED BY IDOCK:   -8.32 KCAL/MOL
REMARK 924 INTRA-LIGAND FREE ENERGY PREDICTED BY IDOCK:   -0.96 KCAL/MOL
REMARK 927      BINDING AFFINITY PREDICTED BY RF-SCORE:    0.00 PKD
ROOT
HETATM    1  C   UNL     1      -8.532   9.458  68.480  1.00  0.00    -0.119 C  
HETATM    2  O   UNL     1      -9.889   9.061  68.290  1.00  0.00    -0.156 OA 
ENDROOT
BRANCH   2   3
HETATM    3  C   UNL     1     -10.745   9.326  69.331  1.00  0.00    -0.208 A  
HETATM    4  C   UNL     1     -11.083  10.642  69.674  1.00  0.00    -0.342 A  
HETATM    5  C   UNL     1     -12.028  10.906  70.667  1.00  0.00    -0.467 A  
HETATM    6  C   UNL     1     -12.614   9.845  71.348  1.00  0.00    -0.497 A  
HETATM    7  C   UNL     1     -11.300   8.242  70.052  1.00  0.00     0.000 A  
HETATM    8  C   UNL     1     -12.257   8.515  71.056  1.00  0.00    -0.168 A  
BRANCH   5   9
HETATM    9  C   UNL     1     -12.428  12.323  70.884  1.00  0.00    -0.276 C  
HETATM   10  N   UNL     1     -11.786  13.276  70.133  1.00  0.00    -0.485 N  
HETATM   11  O   UNL     1     -13.311  12.587  71.695  1.00  0.00    -0.358 OA 
HETATM   12  H   UNL     1     -11.053  13.002  69.478  1.00  0.00     0.000 HD 
BRANCH  10  13
HETATM   13  C   UNL     1     -12.151  14.668  70.271  1.00  0.00    -0.319 C  
BRANCH  13  14
HETATM   14  C   UNL     1     -11.480  15.504  69.219  1.00  0.00    -0.349 A  
HETATM   15  C   UNL     1     -11.426  15.034  67.908  1.00  0.00    -0.354 A  
HETATM   16  C   UNL     1     -10.762  15.758  66.924  1.00  0.00    -0.299 A  
HETATM   17  C   UNL     1     -10.124  16.969  67.224  1.00  0.00    -0.295 A  
HETATM   18  C   UNL     1     -10.188  17.454  68.531  1.00  0.00    -0.369 A  
HETATM   19  C   UNL     1     -10.856  16.726  69.527  1.00  0.00    -0.225 A  
BRANCH  17  20
HETATM   20  O   UNL     1      -9.416  17.726  66.316  1.00  0.00    -0.374 OA 
BRANCH  20  21
HETATM   21  C   UNL     1      -7.997  17.563  66.428  1.00  0.00    -0.285 C  
BRANCH  21  22
HETATM   22  C   UNL     1      -7.208  18.869  66.268  1.00  0.00    -0.249 C  
BRANCH  22  23
HETATM   23  N   UNL     1      -7.471  19.804  67.388  1.00  0.00    -0.254 NA 
HETATM   24  C   UNL     1      -7.123  19.232  68.692  1.00  0.00    -0.322 C  
HETATM   25  C   UNL     1      -6.750  21.061  67.194  1.00  0.00    -0.357 C  
ENDBRANCH  22  23
ENDBRANCH  21  22
ENDBRANCH  20  21
ENDBRANCH  17  20
ENDBRANCH  13  14
ENDBRANCH  10  13
ENDBRANCH   5   9
BRANCH   8  26
HETATM   26  O   UNL     1     -12.957   7.629  71.838  1.00  0.00    -0.312 OA 
HETATM   27  C   UNL     1     -14.319   7.359  71.546  1.00  0.00    -0.440 C  
ENDBRANCH   8  26
BRANCH   7  28
HETATM   28  O   UNL     1     -11.044   6.921  69.777  1.00  0.00    -0.263 OA 
HETATM   29  C   UNL     1      -9.963   6.279  70.439  1.00  0.00    -0.178 C  
ENDBRANCH   7  28
ENDBRANCH   2   3
TORSDOF 10
ENDMDL
MODEL       56
REMARK 921   NORMALIZED FREE ENERGY PREDICTED BY IDOCK:   -5.31 KCAL/MOL
REMARK 922        TOTAL FREE ENERGY PREDICTED BY IDOCK:   -9.28 KCAL/MOL
REMARK 923 INTER-LIGAND FREE ENERGY PREDICTED BY IDOCK:   -8.29 KCAL/MOL
REMARK 924 INTRA-LIGAND FREE ENERGY PREDICTED BY IDOCK:   -0.98 KCAL/MOL
REMARK 927      BINDING AFFINITY PREDICTED BY RF-SCORE:    0.00 PKD
ROOT
HETATM    1  C   UNL     1     -10.172  17.048  67.842  1.00  0.00    -0.317 C  
HETATM    2  O   UNL     1     -11.386  16.565  68.416  1.00  0.00    -0.348 OA 
ENDROOT
BRANCH   2   3
HETATM    3  C   UNL     1     -11.623  15.219  68.277  1.00  0.00    -0.341 A  
HETATM    4  C   UNL     1     -11.771  14.636  67.011  1.00  0.00    -0.379 A  
HETATM    5  C   UNL     1     -11.913  13.255  66.868  1.00  0.00    -0.430 A  
HETATM    6  C   UNL     1     -11.943  12.453  68.003  1.00  0.00    -0.264 A  
HETATM    7  C   UNL     1     -11.701  14.416  69.439  1.00  0.00    -0.317 A  
HETATM    8  C   UNL     1     -11.845  13.017  69.288  1.00  0.00    -0.316 A  
BRANCH   5   9
HETATM    9  C   UNL     1     -11.934  12.699  65.488  1.00  0.00    -0.456 C  
HETATM   10  N   UNL     1     -10.720  12.472  64.887  1.00  0.00    -0.284 N  
HETATM   11  O   UNL     1     -13.008  12.450  64.950  1.00  0.00    -0.762 OA 
HETATM   12  H   UNL     1      -9.856  12.705  65.376  1.00  0.00     0.000 HD 
BRANCH  10  13
HETATM   13  C   UNL     1     -10.669  11.903  63.559  1.00  0.00    -0.442 C  
BRANCH  13  14
HETATM   14  C   UNL     1      -9.794  10.683  63.533  1.00  0.00    -0.384 A  
HETATM   15  C   UNL     1      -9.436  10.076  64.735  1.00  0.00    -0.366 A  
HETATM   16  C   UNL     1      -8.580   8.980  64.748  1.00  0.00    -0.201 A  
HETATM   17  C   UNL     1      -8.050   8.465  63.558  1.00  0.00    -0.143 A  
HETATM   18  C   UNL     1      -8.416   9.057  62.349  1.00  0.00    -0.213 A  
HETATM   19  C   UNL     1      -9.279  10.162  62.332  1.00  0.00    -0.320 A  
BRANCH  17  20
HETATM   20  O   UNL     1      -7.169   7.406  63.489  1.00  0.00    -0.066 OA 
BRANCH  20  21
HETATM   21  C   UNL     1      -7.769   6.202  62.999  1.00  0.00    -0.092 C  
BRANCH  21  22
HETATM   22  C   UNL     1      -7.813   5.067  64.029  1.00  0.00    -0.095 C  
BRANCH  22  23
HETATM   23  N   UNL     1      -9.166   4.917  64.616  1.00  0.00    -0.084 NA 
HETATM   24  C   UNL     1      -9.661   3.539  64.548  1.00  0.00    -0.167 C  
HETATM   25  C   UNL     1      -9.183   5.377  66.004  1.00  0.00    -0.158 C  
ENDBRANCH  22  23
ENDBRANCH  21  22
ENDBRANCH  20  21
ENDBRANCH  17  20
ENDBRANCH  13  14
ENDBRANCH  10  13
ENDBRANCH   5   9
BRANCH   8  26
HETATM   26  O   UNL     1     -11.891  12.050  70.262  1.00  0.00    -0.333 OA 
HETATM   27  C   UNL     1     -12.033  10.688  69.892  1.00  0.00    -0.310 C  
ENDBRANCH   8  26
BRANCH   7  28
HETATM   28  O   UNL     1     -11.551  14.893  70.718  1.00  0.00    -0.281 OA 
HETATM   29  C   UNL     1     -12.685  15.416  71.394  1.00  0.00    -0.420 C  
ENDBRANCH   7  28
ENDBRANCH   2   3
TORSDOF 10
ENDMDL
MODEL       57
REMARK 921   NORMALIZED FREE ENERGY PREDICTED BY IDOCK:   -5.28 KCAL/MOL
REMARK 922        TOTAL FREE ENERGY PREDICTED BY IDOCK:   -9.23 KCAL/MOL
REMARK 923 INTER-LIGAND FREE ENERGY PREDICTED BY IDOCK:   -8.20 KCAL/MOL
REMARK 924 INTRA-LIGAND FREE ENERGY PREDICTED BY IDOCK:   -1.04 KCAL/MOL
REMARK 927      BINDING AFFINITY PREDICTED BY RF-SCORE:    0.00 PKD
ROOT
HETATM    1  C   UNL     1     -14.394   8.685  72.045  1.00  0.00    -0.422 C  
HETATM    2  O   UNL     1     -13.222   9.345  72.519  1.00  0.00    -0.426 OA 
ENDROOT
BRANCH   2   3
HETATM    3  C   UNL     1     -12.257   9.607  71.577  1.00  0.00    -0.399 A  
HETATM    4  C   UNL     1     -12.521  10.443  70.483  1.00  0.00    -0.403 A  
HETATM    5  C   UNL     1     -11.512  10.787  69.582  1.00  0.00    -0.376 A  
HETATM    6  C   UNL     1     -10.236  10.262  69.756  1.00  0.00    -0.262 A  
HETATM    7  C   UNL     1     -10.974   9.031  71.733  1.00  0.00    -0.372 A  
HETATM    8  C   UNL     1      -9.956   9.383  70.818  1.00  0.00    -0.289 A  
BRANCH   5   9
HETATM    9  C   UNL     1     -11.837  11.780  68.523  1.00  0.00    -0.303 C  
HETATM   10  N   UNL     1     -11.968  13.090  68.913  1.00  0.00    -0.296 N  
HETATM   11  O   UNL     1     -11.956  11.410  67.359  1.00  0.00    -0.606 OA 
HETATM   12  H   UNL     1     -11.866  13.343  69.897  1.00  0.00     0.000 HD 
BRANCH  10  13
HETATM   13  C   UNL     1     -12.251  14.110  67.929  1.00  0.00    -0.155 C  
BRANCH  13  14
HETATM   14  C   UNL     1     -10.993  14.821  67.518  1.00  0.00    -0.304 A  
HETATM   15  C   UNL     1     -10.885  15.320  66.222  1.00  0.00    -0.312 A  
HETATM   16  C   UNL     1      -9.711  15.932  65.794  1.00  0.00    -0.360 A  
HETATM   17  C   UNL     1      -8.609  16.054  66.649  1.00  0.00    -0.281 A  
HETATM   18  C   UNL     1      -8.715  15.572  67.954  1.00  0.00    -0.163 A  
HETATM   19  C   UNL     1      -9.897  14.954  68.388  1.00  0.00    -0.216 A  
BRANCH  17  20
HETATM   20  O   UNL     1      -7.400  16.614  66.291  1.00  0.00    -0.239 OA 
BRANCH  20  21
HETATM   21  C   UNL     1      -7.401  18.045  66.347  1.00  0.00    -0.257 C  
BRANCH  21  22
HETATM   22  C   UNL     1      -6.246  18.634  67.166  1.00  0.00    -0.181 C  
BRANCH  22  23
HETATM   23  N   UNL     1      -6.296  18.185  68.578  1.00  0.00    -0.200 NA 
HETATM   24  C   UNL     1      -5.242  17.218  68.898  1.00  0.00    -0.147 C  
HETATM   25  C   UNL     1      -6.209  19.326  69.489  1.00  0.00    -0.289 C  
ENDBRANCH  22  23
ENDBRANCH  21  22
ENDBRANCH  20  21
ENDBRANCH  17  20
ENDBRANCH  13  14
ENDBRANCH  10  13
ENDBRANCH   5   9
BRANCH   8  26
HETATM   26  O   UNL     1      -8.640   8.990  70.807  1.00  0.00    -0.180 OA 
HETATM   27  C   UNL     1      -7.668   9.812  70.181  1.00  0.00    -0.177 C  
ENDBRANCH   8  26
BRANCH   7  28
HETATM   28  O   UNL     1     -10.618   8.216  72.781  1.00  0.00    -0.332 OA 
HETATM   29  C   UNL     1     -10.822   6.816  72.662  1.00  0.00    -0.250 C  
ENDBRANCH   7  28
ENDBRANCH   2   3
TORSDOF 10
ENDMDL
MODEL       58
REMARK 921   NORMALIZED FREE ENERGY PREDICTED BY IDOCK:   -5.28 KCAL/MOL
REMARK 922        TOTAL FREE ENERGY PREDICTED BY IDOCK:   -9.23 KCAL/MOL
REMARK 923 INTER-LIGAND FREE ENERGY PREDICTED BY IDOCK:   -8.59 KCAL/MOL
REMARK 924 INTRA-LIGAND FREE ENERGY PREDICTED BY IDOCK:   -0.65 KCAL/MOL
REMARK 927      BINDING AFFINITY PREDICTED BY RF-SCORE:    0.00 PKD
ROOT
HETATM    1  C   UNL     1     -10.624  15.365  70.379  1.00  0.00    -0.248 C  
HETATM    2  O   UNL     1     -11.585  16.001  69.538  1.00  0.00    -0.330 OA 
ENDROOT
BRANCH   2   3
HETATM    3  C   UNL     1     -11.261  16.079  68.205  1.00  0.00    -0.350 A  
HETATM    4  C   UNL     1     -11.549  15.024  67.327  1.00  0.00    -0.285 A  
HETATM    5  C   UNL     1     -11.309  15.144  65.958  1.00  0.00    -0.221 A  
HETATM    6  C   UNL     1     -10.742  16.315  65.465  1.00  0.00    -0.326 A  
HETATM    7  C   UNL     1     -10.640  17.253  67.720  1.00  0.00    -0.367 A  
HETATM    8  C   UNL     1     -10.400  17.369  66.331  1.00  0.00    -0.317 A  
BRANCH   5   9
HETATM    9  C   UNL     1     -11.761  14.034  65.075  1.00  0.00    -0.364 C  
HETATM   10  N   UNL     1     -10.826  13.488  64.230  1.00  0.00    -0.535 N  
HETATM   11  O   UNL     1     -12.920  13.639  65.141  1.00  0.00    -0.734 OA 
HETATM   12  H   UNL     1      -9.876  13.860  64.209  1.00  0.00     0.000 HD 
BRANCH  10  13
HETATM   13  C   UNL     1     -11.190  12.385  63.369  1.00  0.00    -0.422 C  
BRANCH  13  14
HETATM   14  C   UNL     1     -10.352  11.175  63.667  1.00  0.00    -0.449 A  
HETATM   15  C   UNL     1     -10.324  10.668  64.964  1.00  0.00    -0.341 A  
HETATM   16  C   UNL     1      -9.512   9.584  65.284  1.00  0.00    -0.326 A  
HETATM   17  C   UNL     1      -8.699   8.982  64.316  1.00  0.00    -0.108 A  
HETATM   18  C   UNL     1      -8.734   9.473  63.010  1.00  0.00    -0.233 A  
HETATM   19  C   UNL     1      -9.551  10.566  62.684  1.00  0.00    -0.285 A  
BRANCH  17  20
HETATM   20  O   UNL     1      -7.842   7.930  64.559  1.00  0.00    -0.121 OA 
BRANCH  20  21
HETATM   21  C   UNL     1      -8.349   6.998  65.521  1.00  0.00    -0.133 C  
BRANCH  21  22
HETATM   22  C   UNL     1      -8.283   5.535  65.063  1.00  0.00    -0.139 C  
BRANCH  22  23
HETATM   23  N   UNL     1      -9.484   4.778  65.487  1.00  0.00    -0.162 NA 
HETATM   24  C   UNL     1      -9.973   3.869  64.446  1.00  0.00    -0.196 C  
HETATM   25  C   UNL     1      -9.218   4.025  66.712  1.00  0.00    -0.165 C  
ENDBRANCH  22  23
ENDBRANCH  21  22
ENDBRANCH  20  21
ENDBRANCH  17  20
ENDBRANCH  13  14
ENDBRANCH  10  13
ENDBRANCH   5   9
BRANCH   8  26
HETATM   26  O   UNL     1      -9.863  18.427  65.639  1.00  0.00    -0.440 OA 
HETATM   27  C   UNL     1     -10.565  19.658  65.582  1.00  0.00    -0.364 C  
ENDBRANCH   8  26
BRANCH   7  28
HETATM   28  O   UNL     1     -10.337  18.344  68.499  1.00  0.00    -0.365 OA 
HETATM   29  C   UNL     1      -8.975  18.621  68.792  1.00  0.00    -0.259 C  
ENDBRANCH   7  28
ENDBRANCH   2   3
TORSDOF 10
ENDMDL
MODEL       59
REMARK 921   NORMALIZED FREE ENERGY PREDICTED BY IDOCK:   -5.28 KCAL/MOL
REMARK 922        TOTAL FREE ENERGY PREDICTED BY IDOCK:   -9.23 KCAL/MOL
REMARK 923 INTER-LIGAND FREE ENERGY PREDICTED BY IDOCK:   -8.50 KCAL/MOL
REMARK 924 INTRA-LIGAND FREE ENERGY PREDICTED BY IDOCK:   -0.73 KCAL/MOL
REMARK 927      BINDING AFFINITY PREDICTED BY RF-SCORE:    0.00 PKD
ROOT
HETATM    1  C   UNL     1     -10.680  19.708  65.512  1.00  0.00    -0.225 C  
HETATM    2  O   UNL     1      -9.737  18.686  65.834  1.00  0.00    -0.498 OA 
ENDROOT
BRANCH   2   3
HETATM    3  C   UNL     1     -10.226  17.622  66.552  1.00  0.00    -0.355 A  
HETATM    4  C   UNL     1     -10.595  16.428  65.917  1.00  0.00    -0.294 A  
HETATM    5  C   UNL     1     -10.997  15.315  66.657  1.00  0.00    -0.297 A  
HETATM    6  C   UNL     1     -11.066  15.408  68.043  1.00  0.00    -0.312 A  
HETATM    7  C   UNL     1     -10.340  17.740  67.957  1.00  0.00    -0.393 A  
HETATM    8  C   UNL     1     -10.747  16.609  68.702  1.00  0.00    -0.349 A  
BRANCH   5   9
HETATM    9  C   UNL     1     -11.247  14.046  65.921  1.00  0.00    -0.308 C  
HETATM   10  N   UNL     1     -10.173  13.213  65.728  1.00  0.00    -0.286 N  
HETATM   11  O   UNL     1     -12.382  13.781  65.535  1.00  0.00    -0.415 OA 
HETATM   12  H   UNL     1      -9.248  13.485  66.063  1.00  0.00     0.000 HD 
BRANCH  10  13
HETATM   13  C   UNL     1     -10.354  11.950  65.049  1.00  0.00    -0.289 C  
BRANCH  13  14
HETATM   14  C   UNL     1     -10.333  10.809  66.027  1.00  0.00    -0.300 A  
HETATM   15  C   UNL     1      -9.782   9.590  65.638  1.00  0.00    -0.361 A  
HETATM   16  C   UNL     1      -9.800   8.499  66.501  1.00  0.00    -0.342 A  
HETATM   17  C   UNL     1     -10.377   8.593  67.773  1.00  0.00    -0.242 A  
HETATM   18  C   UNL     1     -10.916   9.816  68.175  1.00  0.00    -0.228 A  
HETATM   19  C   UNL     1     -10.900  10.919  67.308  1.00  0.00    -0.342 A  
BRANCH  17  20
HETATM   20  O   UNL     1     -10.467   7.551  68.671  1.00  0.00    -0.199 OA 
BRANCH  20  21
HETATM   21  C   UNL     1     -10.958   6.340  68.084  1.00  0.00    -0.323 C  
BRANCH  21  22
HETATM   22  C   UNL     1     -10.081   5.113  68.367  1.00  0.00    -0.138 C  
BRANCH  22  23
HETATM   23  N   UNL     1      -9.515   4.550  67.119  1.00  0.00    -0.150 NA 
HETATM   24  C   UNL     1      -9.166   3.133  67.248  1.00  0.00    -0.189 C  
HETATM   25  C   UNL     1     -10.441   4.728  66.002  1.00  0.00    -0.292 C  
ENDBRANCH  22  23
ENDBRANCH  21  22
ENDBRANCH  20  21
ENDBRANCH  17  20
ENDBRANCH  13  14
ENDBRANCH  10  13
ENDBRANCH   5   9
BRANCH   8  26
HETATM   26  O   UNL     1     -10.876  16.480  70.063  1.00  0.00    -0.344 OA 
HETATM   27  C   UNL     1     -11.323  15.250  70.612  1.00  0.00    -0.313 C  
ENDBRANCH   8  26
BRANCH   7  28
HETATM   28  O   UNL     1      -9.986  18.861  68.668  1.00  0.00    -0.381 OA 
HETATM   29  C   UNL     1      -8.610  19.189  68.793  1.00  0.00    -0.335 C  
ENDBRANCH   7  28
ENDBRANCH   2   3
TORSDOF 10
ENDMDL
MODEL       60
REMARK 921   NORMALIZED FREE ENERGY PREDICTED BY IDOCK:   -5.27 KCAL/MOL
REMARK 922        TOTAL FREE ENERGY PREDICTED BY IDOCK:   -9.22 KCAL/MOL
REMARK 923 INTER-LIGAND FREE ENERGY PREDICTED BY IDOCK:   -8.29 KCAL/MOL
REMARK 924 INTRA-LIGAND FREE ENERGY PREDICTED BY IDOCK:   -0.92 KCAL/MOL
REMARK 927      BINDING AFFINITY PREDICTED BY RF-SCORE:    0.00 PKD
ROOT
HETATM    1  C   UNL     1     -13.561   9.698  71.946  1.00  0.00    -0.364 C  
HETATM    2  O   UNL     1     -12.268  10.294  71.863  1.00  0.00    -0.290 OA 
ENDROOT
BRANCH   2   3
HETATM    3  C   UNL     1     -11.445   9.809  70.876  1.00  0.00    -0.369 A  
HETATM    4  C   UNL     1     -11.584  10.229  69.546  1.00  0.00    -0.234 A  
HETATM    5  C   UNL     1     -10.685   9.812  68.563  1.00  0.00    -0.252 A  
HETATM    6  C   UNL     1      -9.659   8.939  68.906  1.00  0.00    -0.160 A  
HETATM    7  C   UNL     1     -10.433   8.884  71.223  1.00  0.00    -0.287 A  
HETATM    8  C   UNL     1      -9.525   8.465  70.224  1.00  0.00    -0.164 A  
BRANCH   5   9
HETATM    9  C   UNL     1     -10.821  10.402  67.203  1.00  0.00    -0.238 C  
HETATM   10  N   UNL     1     -11.465  11.611  67.108  1.00  0.00    -0.299 N  
HETATM   11  O   UNL     1     -10.348   9.813  66.236  1.00  0.00    -0.235 OA 
HETATM   12  H   UNL     1     -11.846  12.054  67.944  1.00  0.00     0.000 HD 
BRANCH  10  13
HETATM   13  C   UNL     1     -11.602  12.254  65.821  1.00  0.00    -0.388 C  
BRANCH  13  14
HETATM   14  C   UNL     1     -10.986  13.624  65.839  1.00  0.00    -0.284 A  
HETATM   15  C   UNL     1     -11.516  14.620  65.022  1.00  0.00    -0.386 A  
HETATM   16  C   UNL     1     -10.932  15.882  64.974  1.00  0.00    -0.426 A  
HETATM   17  C   UNL     1      -9.796  16.181  65.735  1.00  0.00    -0.320 A  
HETATM   18  C   UNL     1      -9.269  15.193  66.569  1.00  0.00    -0.318 A  
HETATM   19  C   UNL     1      -9.854  13.920  66.620  1.00  0.00    -0.288 A  
BRANCH  17  20
HETATM   20  O   UNL     1      -9.138  17.392  65.717  1.00  0.00    -0.517 OA 
BRANCH  20  21
HETATM   21  C   UNL     1      -8.111  17.493  66.709  1.00  0.00    -0.244 C  
BRANCH  21  22
HETATM   22  C   UNL     1      -6.721  17.801  66.136  1.00  0.00    -0.288 C  
BRANCH  22  23
HETATM   23  N   UNL     1      -6.769  18.922  65.167  1.00  0.00    -0.511 NA 
HETATM   24  C   UNL     1      -7.016  20.214  65.814  1.00  0.00    -0.288 C  
HETATM   25  C   UNL     1      -5.532  18.989  64.390  1.00  0.00    -0.257 C  
ENDBRANCH  22  23
ENDBRANCH  21  22
ENDBRANCH  20  21
ENDBRANCH  17  20
ENDBRANCH  13  14
ENDBRANCH  10  13
ENDBRANCH   5   9
BRANCH   8  26
HETATM   26  O   UNL     1      -8.447   7.623  70.343  1.00  0.00    -0.132 OA 
HETATM   27  C   UNL     1      -7.621   7.375  69.217  1.00  0.00    -0.101 C  
ENDBRANCH   8  26
BRANCH   7  28
HETATM   28  O   UNL     1     -10.209   8.430  72.500  1.00  0.00    -0.306 OA 
HETATM   29  C   UNL     1     -10.932   7.298  72.963  1.00  0.00    -0.344 C  
ENDBRANCH   7  28
ENDBRANCH   2   3
TORSDOF 10
ENDMDL
MODEL       61
REMARK 921   NORMALIZED FREE ENERGY PREDICTED BY IDOCK:   -5.22 KCAL/MOL
REMARK 922        TOTAL FREE ENERGY PREDICTED BY IDOCK:   -9.13 KCAL/MOL
REMARK 923 INTER-LIGAND FREE ENERGY PREDICTED BY IDOCK:   -8.18 KCAL/MOL
REMARK 924 INTRA-LIGAND FREE ENERGY PREDICTED BY IDOCK:   -0.95 KCAL/MOL
REMARK 927      BINDING AFFINITY PREDICTED BY RF-SCORE:    0.00 PKD
ROOT
HETATM    1  C   UNL     1      -9.987   5.492  66.267  1.00  0.00    -0.140 C  
HETATM    2  O   UNL     1     -10.824   5.754  67.392  1.00  0.00    -0.268 OA 
ENDROOT
BRANCH   2   3
HETATM    3  C   UNL     1     -10.708   7.004  67.951  1.00  0.00    -0.210 A  
HETATM    4  C   UNL     1     -10.424   8.127  67.161  1.00  0.00    -0.396 A  
HETATM    5  C   UNL     1     -10.405   9.408  67.714  1.00  0.00    -0.291 A  
HETATM    6  C   UNL     1     -10.635   9.565  69.076  1.00  0.00    -0.238 A  
HETATM    7  C   UNL     1     -10.895   7.150  69.345  1.00  0.00    -0.206 A  
HETATM    8  C   UNL     1     -10.875   8.450  69.900  1.00  0.00    -0.207 A  
BRANCH   5   9
HETATM    9  C   UNL     1     -10.225  10.560  66.789  1.00  0.00    -0.234 C  
HETATM   10  N   UNL     1     -11.333  11.326  66.523  1.00  0.00    -0.156 N  
HETATM   11  O   UNL     1      -9.116  10.794  66.320  1.00  0.00    -0.165 OA 
HETATM   12  H   UNL     1     -12.234  11.082  66.935  1.00  0.00     0.000 HD 
BRANCH  10  13
HETATM   13  C   UNL     1     -11.220  12.480  65.659  1.00  0.00    -0.317 C  
BRANCH  13  14
HETATM   14  C   UNL     1     -11.087  13.741  66.464  1.00  0.00    -0.309 A  
HETATM   15  C   UNL     1     -11.740  13.836  67.692  1.00  0.00    -0.402 A  
HETATM   16  C   UNL     1     -11.684  15.011  68.434  1.00  0.00    -0.341 A  
HETATM   17  C   UNL     1     -10.981  16.128  67.965  1.00  0.00    -0.338 A  
HETATM   18  C   UNL     1     -10.311  16.035  66.745  1.00  0.00    -0.300 A  
HETATM   19  C   UNL     1     -10.366  14.852  65.993  1.00  0.00    -0.313 A  
BRANCH  17  20
HETATM   20  O   UNL     1     -10.908  17.338  68.622  1.00  0.00    -0.307 OA 
BRANCH  20  21
HETATM   21  C   UNL     1     -10.588  18.433  67.756  1.00  0.00    -0.391 C  
BRANCH  21  22
HETATM   22  C   UNL     1      -9.834  19.574  68.450  1.00  0.00    -0.428 C  
BRANCH  22  23
HETATM   23  N   UNL     1      -8.612  19.953  67.702  1.00  0.00    -0.324 NA 
HETATM   24  C   UNL     1      -7.382  19.607  68.421  1.00  0.00    -0.319 C  
HETATM   25  C   UNL     1      -8.599  19.330  66.379  1.00  0.00    -0.343 C  
ENDBRANCH  22  23
ENDBRANCH  21  22
ENDBRANCH  20  21
ENDBRANCH  17  20
ENDBRANCH  13  14
ENDBRANCH  10  13
ENDBRANCH   5   9
BRANCH   8  26
HETATM   26  O   UNL     1     -11.082   8.829  71.204  1.00  0.00    -0.245 OA 
HETATM   27  C   UNL     1     -12.199   9.640  71.530  1.00  0.00    -0.399 C  
ENDBRANCH   8  26
BRANCH   7  28
HETATM   28  O   UNL     1     -11.195   6.113  70.195  1.00  0.00    -0.351 OA 
HETATM   29  C   UNL     1     -10.140   5.293  70.677  1.00  0.00    -0.239 C  
ENDBRANCH   7  28
ENDBRANCH   2   3
TORSDOF 10
ENDMDL
MODEL       62
REMARK 921   NORMALIZED FREE ENERGY PREDICTED BY IDOCK:   -5.21 KCAL/MOL
REMARK 922        TOTAL FREE ENERGY PREDICTED BY IDOCK:   -9.12 KCAL/MOL
REMARK 923 INTER-LIGAND FREE ENERGY PREDICTED BY IDOCK:   -7.87 KCAL/MOL
REMARK 924 INTRA-LIGAND FREE ENERGY PREDICTED BY IDOCK:   -1.25 KCAL/MOL
REMARK 927      BINDING AFFINITY PREDICTED BY RF-SCORE:    0.00 PKD
ROOT
HETATM    1  C   UNL     1     -12.029  12.650  63.488  1.00  0.00    -0.548 C  
HETATM    2  O   UNL     1     -10.968  12.799  64.431  1.00  0.00    -0.319 OA 
ENDROOT
BRANCH   2   3
HETATM    3  C   UNL     1     -11.116  12.119  65.615  1.00  0.00    -0.316 A  
HETATM    4  C   UNL     1     -10.726  10.777  65.734  1.00  0.00    -0.141 A  
HETATM    5  C   UNL     1     -10.786  10.118  66.962  1.00  0.00    -0.264 A  
HETATM    6  C   UNL     1     -11.273  10.795  68.075  1.00  0.00    -0.372 A  
HETATM    7  C   UNL     1     -11.658  12.799  66.731  1.00  0.00    -0.370 A  
HETATM    8  C   UNL     1     -11.715  12.127  67.973  1.00  0.00    -0.344 A  
BRANCH   5   9
HETATM    9  C   UNL     1     -10.234   8.738  67.036  1.00  0.00    -0.281 C  
HETATM   10  N   UNL     1     -11.113   7.729  67.347  1.00  0.00    -0.481 N  
HETATM   11  O   UNL     1      -9.044   8.546  66.805  1.00  0.00    -0.138 OA 
HETATM   12  H   UNL     1     -12.092   7.945  67.538  1.00  0.00     0.000 HD 
BRANCH  10  13
HETATM   13  C   UNL     1     -10.649   6.361  67.402  1.00  0.00    -0.295 C  
BRANCH  13  14
HETATM   14  C   UNL     1     -10.514   5.900  68.825  1.00  0.00    -0.314 A  
HETATM   15  C   UNL     1      -9.677   4.824  69.116  1.00  0.00    -0.258 A  
HETATM   16  C   UNL     1      -9.577   4.337  70.415  1.00  0.00    -0.265 A  
HETATM   17  C   UNL     1     -10.317   4.905  71.459  1.00  0.00    -0.158 A  
HETATM   18  C   UNL     1     -11.145   5.993  71.179  1.00  0.00    -0.336 A  
HETATM   19  C   UNL     1     -11.249   6.487  69.870  1.00  0.00    -0.456 A  
BRANCH  17  20
HETATM   20  O   UNL     1     -10.301   4.459  72.763  1.00  0.00    -0.173 OA 
BRANCH  20  21
HETATM   21  C   UNL     1      -9.736   5.405  73.678  1.00  0.00    -0.146 C  
BRANCH  21  22
HETATM   22  C   UNL     1      -8.214   5.554  73.555  1.00  0.00    -0.113 C  
BRANCH  22  23
HETATM   23  N   UNL     1      -7.831   6.938  73.187  1.00  0.00    -0.095 NA 
HETATM   24  C   UNL     1      -7.388   7.048  71.794  1.00  0.00    -0.086 C  
HETATM   25  C   UNL     1      -8.938   7.863  73.425  1.00  0.00    -0.277 C  
ENDBRANCH  22  23
ENDBRANCH  21  22
ENDBRANCH  20  21
ENDBRANCH  17  20
ENDBRANCH  13  14
ENDBRANCH  10  13
ENDBRANCH   5   9
BRANCH   8  26
HETATM   26  O   UNL     1     -12.148  12.602  69.187  1.00  0.00    -0.249 OA 
HETATM   27  C   UNL     1     -12.253  11.717  70.291  1.00  0.00    -0.318 C  
ENDBRANCH   8  26
BRANCH   7  28
HETATM   28  O   UNL     1     -12.049  14.116  66.716  1.00  0.00    -0.429 OA 
HETATM   29  C   UNL     1     -11.084  15.122  66.985  1.00  0.00    -0.328 C  
ENDBRANCH   7  28
ENDBRANCH   2   3
TORSDOF 10
ENDMDL
MODEL       63
REMARK 921   NORMALIZED FREE ENERGY PREDICTED BY IDOCK:   -5.17 KCAL/MOL
REMARK 922        TOTAL FREE ENERGY PREDICTED BY IDOCK:   -9.06 KCAL/MOL
REMARK 923 INTER-LIGAND FREE ENERGY PREDICTED BY IDOCK:   -8.04 KCAL/MOL
REMARK 924 INTRA-LIGAND FREE ENERGY PREDICTED BY IDOCK:   -1.03 KCAL/MOL
REMARK 927      BINDING AFFINITY PREDICTED BY RF-SCORE:    0.00 PKD
ROOT
HETATM    1  C   UNL     1     -14.259   7.617  71.649  1.00  0.00    -0.454 C  
HETATM    2  O   UNL     1     -13.288   6.613  71.939  1.00  0.00    -0.231 OA 
ENDROOT
BRANCH   2   3
HETATM    3  C   UNL     1     -12.011   6.866  71.499  1.00  0.00    -0.344 A  
HETATM    4  C   UNL     1     -11.781   7.581  70.316  1.00  0.00    -0.047 A  
HETATM    5  C   UNL     1     -10.486   7.922  69.923  1.00  0.00    -0.229 A  
HETATM    6  C   UNL     1      -9.409   7.513  70.700  1.00  0.00    -0.163 A  
HETATM    7  C   UNL     1     -10.918   6.405  72.270  1.00  0.00    -0.254 A  
HETATM    8  C   UNL     1      -9.609   6.753  71.867  1.00  0.00    -0.148 A  
BRANCH   5   9
HETATM    9  C   UNL     1     -10.332   8.792  68.725  1.00  0.00    -0.213 C  
HETATM   10  N   UNL     1     -11.341   9.688  68.469  1.00  0.00    -0.491 N  
HETATM   11  O   UNL     1      -9.324   8.698  68.031  1.00  0.00    -0.136 OA 
HETATM   12  H   UNL     1     -12.161   9.720  69.074  1.00  0.00     0.000 HD 
BRANCH  10  13
HETATM   13  C   UNL     1     -11.237  10.586  67.340  1.00  0.00    -0.173 C  
BRANCH  13  14
HETATM   14  C   UNL     1     -11.445  12.010  67.769  1.00  0.00    -0.394 A  
HETATM   15  C   UNL     1     -11.695  12.983  66.803  1.00  0.00    -0.440 A  
HETATM   16  C   UNL     1     -11.834  14.319  67.163  1.00  0.00    -0.454 A  
HETATM   17  C   UNL     1     -11.719  14.722  68.499  1.00  0.00    -0.317 A  
HETATM   18  C   UNL     1     -11.485  13.752  69.474  1.00  0.00    -0.327 A  
HETATM   19  C   UNL     1     -11.344  12.404  69.115  1.00  0.00    -0.327 A  
BRANCH  17  20
HETATM   20  O   UNL     1     -11.808  16.028  68.932  1.00  0.00    -0.379 OA 
BRANCH  20  21
HETATM   21  C   UNL     1     -10.533  16.625  69.194  1.00  0.00    -0.333 C  
BRANCH  21  22
HETATM   22  C   UNL     1     -10.260  17.892  68.372  1.00  0.00    -0.394 C  
BRANCH  22  23
HETATM   23  N   UNL     1     -10.385  17.634  66.918  1.00  0.00    -0.335 NA 
HETATM   24  C   UNL     1     -10.562  18.865  66.141  1.00  0.00    -0.407 C  
HETATM   25  C   UNL     1      -9.223  16.901  66.419  1.00  0.00    -0.279 C  
ENDBRANCH  22  23
ENDBRANCH  21  22
ENDBRANCH  20  21
ENDBRANCH  17  20
ENDBRANCH  13  14
ENDBRANCH  10  13
ENDBRANCH   5   9
BRANCH   8  26
HETATM   26  O   UNL     1      -8.416   6.463  72.483  1.00  0.00    -0.123 OA 
HETATM   27  C   UNL     1      -7.561   5.477  71.928  1.00  0.00    -0.099 C  
ENDBRANCH   8  26
BRANCH   7  28
HETATM   28  O   UNL     1     -11.045   5.713  73.451  1.00  0.00    -0.269 OA 
HETATM   29  C   UNL     1     -11.021   4.294  73.421  1.00  0.00    -0.278 C  
ENDBRANCH   7  28
ENDBRANCH   2   3
TORSDOF 10
ENDMDL
MODEL       64
REMARK 921   NORMALIZED FREE ENERGY PREDICTED BY IDOCK:   -5.17 KCAL/MOL
REMARK 922        TOTAL FREE ENERGY PREDICTED BY IDOCK:   -9.06 KCAL/MOL
REMARK 923 INTER-LIGAND FREE ENERGY PREDICTED BY IDOCK:   -8.12 KCAL/MOL
REMARK 924 INTRA-LIGAND FREE ENERGY PREDICTED BY IDOCK:   -0.94 KCAL/MOL
REMARK 927      BINDING AFFINITY PREDICTED BY RF-SCORE:    0.00 PKD
ROOT
HETATM    1  C   UNL     1     -10.464  17.098  68.042  1.00  0.00    -0.369 C  
HETATM    2  O   UNL     1     -10.819  16.687  69.361  1.00  0.00    -0.318 OA 
ENDROOT
BRANCH   2   3
HETATM    3  C   UNL     1     -11.200  15.375  69.501  1.00  0.00    -0.285 A  
HETATM    4  C   UNL     1     -10.667  14.374  68.676  1.00  0.00    -0.258 A  
HETATM    5  C   UNL     1     -10.981  13.030  68.884  1.00  0.00    -0.271 A  
HETATM    6  C   UNL     1     -11.864  12.686  69.902  1.00  0.00    -0.364 A  
HETATM    7  C   UNL     1     -12.136  15.038  70.507  1.00  0.00    -0.326 A  
HETATM    8  C   UNL     1     -12.450  13.675  70.713  1.00  0.00    -0.359 A  
BRANCH   5   9
HETATM    9  C   UNL     1     -10.276  12.017  68.053  1.00  0.00    -0.198 C  
HETATM   10  N   UNL     1     -10.975  10.882  67.724  1.00  0.00    -0.261 N  
HETATM   11  O   UNL     1      -9.126  12.231  67.680  1.00  0.00    -0.170 OA 
HETATM   12  H   UNL     1     -11.927  10.751  68.067  1.00  0.00     0.000 HD 
BRANCH  10  13
HETATM   13  C   UNL     1     -10.360   9.873  66.891  1.00  0.00    -0.235 C  
BRANCH  13  14
HETATM   14  C   UNL     1     -10.202   8.582  67.643  1.00  0.00    -0.297 A  
HETATM   15  C   UNL     1     -10.933   7.466  67.241  1.00  0.00    -0.234 A  
HETATM   16  C   UNL     1     -10.852   6.273  67.952  1.00  0.00    -0.417 A  
HETATM   17  C   UNL     1     -10.044   6.165  69.091  1.00  0.00    -0.170 A  
HETATM   18  C   UNL     1      -9.296   7.274  69.490  1.00  0.00    -0.152 A  
HETATM   19  C   UNL     1      -9.375   8.478  68.776  1.00  0.00    -0.143 A  
BRANCH  17  20
HETATM   20  O   UNL     1      -9.937   5.032  69.870  1.00  0.00    -0.209 OA 
BRANCH  20  21
HETATM   21  C   UNL     1     -10.134   5.285  71.265  1.00  0.00    -0.213 C  
BRANCH  21  22
HETATM   22  C   UNL     1     -11.426   6.049  71.582  1.00  0.00    -0.230 C  
BRANCH  22  23
HETATM   23  N   UNL     1     -11.268   6.914  72.775  1.00  0.00    -0.260 NA 
HETATM   24  C   UNL     1      -9.925   6.832  73.356  1.00  0.00    -0.222 C  
HETATM   25  C   UNL     1     -11.579   8.306  72.451  1.00  0.00    -0.396 C  
ENDBRANCH  22  23
ENDBRANCH  21  22
ENDBRANCH  20  21
ENDBRANCH  17  20
ENDBRANCH  13  14
ENDBRANCH  10  13
ENDBRANCH   5   9
BRANCH   8  26
HETATM   26  O   UNL     1     -13.281  13.120  71.654  1.00  0.00    -0.384 OA 
HETATM   27  C   UNL     1     -13.219  11.725  71.910  1.00  0.00    -0.362 C  
ENDBRANCH   8  26
BRANCH   7  28
HETATM   28  O   UNL     1     -12.697  15.946  71.372  1.00  0.00    -0.464 OA 
HETATM   29  C   UNL     1     -12.091  16.150  72.640  1.00  0.00    -0.554 C  
ENDBRANCH   7  28
ENDBRANCH   2   3
TORSDOF 10
ENDMDL
MODEL       65
REMARK 921   NORMALIZED FREE ENERGY PREDICTED BY IDOCK:   -5.16 KCAL/MOL
REMARK 922        TOTAL FREE ENERGY PREDICTED BY IDOCK:   -9.05 KCAL/MOL
REMARK 923 INTER-LIGAND FREE ENERGY PREDICTED BY IDOCK:   -8.48 KCAL/MOL
REMARK 924 INTRA-LIGAND FREE ENERGY PREDICTED BY IDOCK:   -0.56 KCAL/MOL
REMARK 927      BINDING AFFINITY PREDICTED BY RF-SCORE:    0.00 PKD
ROOT
HETATM    1  C   UNL     1      -8.862   7.681  69.010  1.00  0.00    -0.135 C  
HETATM    2  O   UNL     1      -9.093   8.523  70.137  1.00  0.00    -0.146 OA 
ENDROOT
BRANCH   2   3
HETATM    3  C   UNL     1     -10.049   9.496  69.975  1.00  0.00    -0.242 A  
HETATM    4  C   UNL     1     -10.116  10.258  68.801  1.00  0.00    -0.198 A  
HETATM    5  C   UNL     1     -11.147  11.177  68.598  1.00  0.00    -0.293 A  
HETATM    6  C   UNL     1     -12.100  11.362  69.593  1.00  0.00    -0.373 A  
HETATM    7  C   UNL     1     -10.986   9.713  71.013  1.00  0.00    -0.361 A  
HETATM    8  C   UNL     1     -12.029  10.644  70.802  1.00  0.00    -0.374 A  
BRANCH   5   9
HETATM    9  C   UNL     1     -11.223  11.852  67.274  1.00  0.00    -0.317 C  
HETATM   10  N   UNL     1     -10.037  12.087  66.623  1.00  0.00    -0.196 N  
HETATM   11  O   UNL     1     -12.317  12.154  66.808  1.00  0.00    -0.429 OA 
HETATM   12  H   UNL     1      -9.153  11.823  67.059  1.00  0.00     0.000 HD 
BRANCH  10  13
HETATM   13  C   UNL     1     -10.043  12.710  65.318  1.00  0.00    -0.253 C  
BRANCH  13  14
HETATM   14  C   UNL     1     -10.163  14.202  65.439  1.00  0.00    -0.380 A  
HETATM   15  C   UNL     1      -9.298  14.889  66.289  1.00  0.00    -0.329 A  
HETATM   16  C   UNL     1      -9.423  16.263  66.466  1.00  0.00    -0.289 A  
HETATM   17  C   UNL     1     -10.422  16.989  65.804  1.00  0.00    -0.251 A  
HETATM   18  C   UNL     1     -11.281  16.311  64.938  1.00  0.00    -0.243 A  
HETATM   19  C   UNL     1     -11.159  14.925  64.758  1.00  0.00    -0.395 A  
BRANCH  17  20
HETATM   20  O   UNL     1     -10.634  18.343  65.953  1.00  0.00    -0.494 OA 
BRANCH  20  21
HETATM   21  C   UNL     1      -9.424  19.089  66.127  1.00  0.00    -0.234 C  
BRANCH  21  22
HETATM   22  C   UNL     1      -9.065  19.358  67.594  1.00  0.00    -0.303 C  
BRANCH  22  23
HETATM   23  N   UNL     1      -7.597  19.398  67.797  1.00  0.00    -0.261 NA 
HETATM   24  C   UNL     1      -6.925  20.311  66.868  1.00  0.00    -0.252 C  
HETATM   25  C   UNL     1      -7.274  19.771  69.173  1.00  0.00    -0.284 C  
ENDBRANCH  22  23
ENDBRANCH  21  22
ENDBRANCH  20  21
ENDBRANCH  17  20
ENDBRANCH  13  14
ENDBRANCH  10  13
ENDBRANCH   5   9
BRANCH   8  26
HETATM   26  O   UNL     1     -13.067  10.974  71.638  1.00  0.00    -0.446 OA 
HETATM   27  C   UNL     1     -13.189  12.305  72.115  1.00  0.00    -0.361 C  
ENDBRANCH   8  26
BRANCH   7  28
HETATM   28  O   UNL     1     -11.012   9.004  72.189  1.00  0.00    -0.348 OA 
HETATM   29  C   UNL     1     -11.440   7.650  72.167  1.00  0.00    -0.298 C  
ENDBRANCH   7  28
ENDBRANCH   2   3
TORSDOF 10
ENDMDL
MODEL       66
REMARK 921   NORMALIZED FREE ENERGY PREDICTED BY IDOCK:   -5.15 KCAL/MOL
REMARK 922        TOTAL FREE ENERGY PREDICTED BY IDOCK:   -9.03 KCAL/MOL
REMARK 923 INTER-LIGAND FREE ENERGY PREDICTED BY IDOCK:   -8.17 KCAL/MOL
REMARK 924 INTRA-LIGAND FREE ENERGY PREDICTED BY IDOCK:   -0.86 KCAL/MOL
REMARK 927      BINDING AFFINITY PREDICTED BY RF-SCORE:    0.00 PKD
ROOT
HETATM    1  C   UNL     1     -12.396   9.495  71.856  1.00  0.00    -0.373 C  
HETATM    2  O   UNL     1     -12.253   8.172  72.371  1.00  0.00    -0.344 OA 
ENDROOT
BRANCH   2   3
HETATM    3  C   UNL     1     -11.676   7.256  71.524  1.00  0.00    -0.289 A  
HETATM    4  C   UNL     1     -11.536   7.524  70.155  1.00  0.00    -0.116 A  
HETATM    5  C   UNL     1     -10.861   6.636  69.316  1.00  0.00    -0.335 A  
HETATM    6  C   UNL     1     -10.353   5.453  69.842  1.00  0.00    -0.377 A  
HETATM    7  C   UNL     1     -11.205   6.034  72.058  1.00  0.00    -0.288 A  
HETATM    8  C   UNL     1     -10.522   5.139  71.203  1.00  0.00    -0.170 A  
BRANCH   5   9
HETATM    9  C   UNL     1     -10.641   7.049  67.903  1.00  0.00    -0.218 C  
HETATM   10  N   UNL     1     -10.114   8.300  67.693  1.00  0.00    -0.193 N  
HETATM   11  O   UNL     1     -10.912   6.272  66.993  1.00  0.00    -0.355 OA 
HETATM   12  H   UNL     1      -9.914   8.910  68.486  1.00  0.00     0.000 HD 
BRANCH  10  13
HETATM   13  C   UNL     1      -9.845   8.751  66.346  1.00  0.00    -0.282 C  
BRANCH  13  14
HETATM   14  C   UNL     1     -10.354  10.148  66.138  1.00  0.00    -0.237 A  
HETATM   15  C   UNL     1     -10.899  10.842  67.217  1.00  0.00    -0.342 A  
HETATM   16  C   UNL     1     -11.432  12.115  67.043  1.00  0.00    -0.415 A  
HETATM   17  C   UNL     1     -11.442  12.728  65.783  1.00  0.00    -0.348 A  
HETATM   18  C   UNL     1     -10.882  12.046  64.702  1.00  0.00    -0.357 A  
HETATM   19  C   UNL     1     -10.345  10.762  64.873  1.00  0.00    -0.369 A  
BRANCH  17  20
HETATM   20  O   UNL     1     -11.981  13.970  65.522  1.00  0.00    -0.351 OA 
BRANCH  20  21
HETATM   21  C   UNL     1     -11.393  15.017  66.300  1.00  0.00    -0.273 C  
BRANCH  21  22
HETATM   22  C   UNL     1     -10.219  15.721  65.607  1.00  0.00    -0.380 C  
BRANCH  22  23
HETATM   23  N   UNL     1      -9.547  16.681  66.516  1.00  0.00    -0.258 NA 
HETATM   24  C   UNL     1      -8.138  16.889  66.171  1.00  0.00    -0.260 C  
HETATM   25  C   UNL     1     -10.246  17.965  66.524  1.00  0.00    -0.379 C  
ENDBRANCH  22  23
ENDBRANCH  21  22
ENDBRANCH  20  21
ENDBRANCH  17  20
ENDBRANCH  13  14
ENDBRANCH  10  13
ENDBRANCH   5   9
BRANCH   8  26
HETATM   26  O   UNL     1      -9.941   3.933  71.511  1.00  0.00    -0.183 OA 
HETATM   27  C   UNL     1      -9.635   3.016  70.474  1.00  0.00    -0.117 C  
ENDBRANCH   8  26
BRANCH   7  28
HETATM   28  O   UNL     1     -11.281   5.693  73.387  1.00  0.00    -0.247 OA 
HETATM   29  C   UNL     1     -10.270   6.152  74.273  1.00  0.00    -0.312 C  
ENDBRANCH   7  28
ENDBRANCH   2   3
TORSDOF 10
ENDMDL
MODEL       67
REMARK 921   NORMALIZED FREE ENERGY PREDICTED BY IDOCK:   -5.12 KCAL/MOL
REMARK 922        TOTAL FREE ENERGY PREDICTED BY IDOCK:   -8.98 KCAL/MOL
REMARK 923 INTER-LIGAND FREE ENERGY PREDICTED BY IDOCK:   -8.25 KCAL/MOL
REMARK 924 INTRA-LIGAND FREE ENERGY PREDICTED BY IDOCK:   -0.73 KCAL/MOL
REMARK 927      BINDING AFFINITY PREDICTED BY RF-SCORE:    0.00 PKD
ROOT
HETATM    1  C   UNL     1     -11.750  12.640  67.098  1.00  0.00    -0.371 C  
HETATM    2  O   UNL     1     -11.094  12.981  68.318  1.00  0.00    -0.238 OA 
ENDROOT
BRANCH   2   3
HETATM    3  C   UNL     1     -11.830  12.808  69.465  1.00  0.00    -0.316 A  
HETATM    4  C   UNL     1     -12.033  11.533  70.010  1.00  0.00    -0.435 A  
HETATM    5  C   UNL     1     -12.696  11.370  71.227  1.00  0.00    -0.498 A  
HETATM    6  C   UNL     1     -13.192  12.488  71.888  1.00  0.00    -0.495 A  
HETATM    7  C   UNL     1     -12.373  13.946  70.106  1.00  0.00    -0.334 A  
HETATM    8  C   UNL     1     -13.044  13.775  71.339  1.00  0.00    -0.337 A  
BRANCH   5   9
HETATM    9  C   UNL     1     -12.759   9.999  71.804  1.00  0.00    -0.428 C  
HETATM   10  N   UNL     1     -11.574   9.313  71.914  1.00  0.00    -0.373 N  
HETATM   11  O   UNL     1     -13.837   9.543  72.171  1.00  0.00    -0.390 OA 
HETATM   12  H   UNL     1     -10.706   9.736  71.586  1.00  0.00     0.000 HD 
BRANCH  10  13
HETATM   13  C   UNL     1     -11.561   7.989  72.496  1.00  0.00    -0.403 C  
BRANCH  13  14
HETATM   14  C   UNL     1     -11.048   6.977  71.512  1.00  0.00    -0.271 A  
HETATM   15  C   UNL     1     -11.575   6.955  70.222  1.00  0.00    -0.362 A  
HETATM   16  C   UNL     1     -11.162   5.993  69.305  1.00  0.00    -0.367 A  
HETATM   17  C   UNL     1     -10.217   5.021  69.656  1.00  0.00    -0.236 A  
HETATM   18  C   UNL     1      -9.673   5.047  70.940  1.00  0.00    -0.256 A  
HETATM   19  C   UNL     1     -10.087   6.015  71.867  1.00  0.00    -0.223 A  
BRANCH  17  20
HETATM   20  O   UNL     1      -9.784   4.014  68.819  1.00  0.00    -0.153 OA 
BRANCH  20  21
HETATM   21  C   UNL     1      -8.913   3.079  69.464  1.00  0.00    -0.111 C  
BRANCH  21  22
HETATM   22  C   UNL     1      -7.461   3.140  68.972  1.00  0.00    -0.048 C  
BRANCH  22  23
HETATM   23  N   UNL     1      -6.743   4.306  69.540  1.00  0.00    -0.043 NA 
HETATM   24  C   UNL     1      -5.621   3.912  70.397  1.00  0.00    -0.013 C  
HETATM   25  C   UNL     1      -6.264   5.188  68.478  1.00  0.00    -0.031 C  
ENDBRANCH  22  23
ENDBRANCH  21  22
ENDBRANCH  20  21
ENDBRANCH  17  20
ENDBRANCH  13  14
ENDBRANCH  10  13
ENDBRANCH   5   9
BRANCH   8  26
HETATM   26  O   UNL     1     -13.599  14.731  72.154  1.00  0.00    -0.348 OA 
HETATM   27  C   UNL     1     -12.880  15.191  73.287  1.00  0.00    -0.523 C  
ENDBRANCH   8  26
BRANCH   7  28
HETATM   28  O   UNL     1     -12.211  15.235  69.658  1.00  0.00    -0.316 OA 
HETATM   29  C   UNL     1     -10.941  15.855  69.794  1.00  0.00    -0.328 C  
ENDBRANCH   7  28
ENDBRANCH   2   3
TORSDOF 10
ENDMDL
MODEL       68
REMARK 921   NORMALIZED FREE ENERGY PREDICTED BY IDOCK:   -5.09 KCAL/MOL
REMARK 922        TOTAL FREE ENERGY PREDICTED BY IDOCK:   -8.93 KCAL/MOL
REMARK 923 INTER-LIGAND FREE ENERGY PREDICTED BY IDOCK:   -8.05 KCAL/MOL
REMARK 924 INTRA-LIGAND FREE ENERGY PREDICTED BY IDOCK:   -0.89 KCAL/MOL
REMARK 927      BINDING AFFINITY PREDICTED BY RF-SCORE:    0.00 PKD
ROOT
HETATM    1  C   UNL     1     -10.767  16.436  69.499  1.00  0.00    -0.325 C  
HETATM    2  O   UNL     1     -11.911  15.755  68.985  1.00  0.00    -0.385 OA 
ENDROOT
BRANCH   2   3
HETATM    3  C   UNL     1     -11.707  14.460  68.576  1.00  0.00    -0.335 A  
HETATM    4  C   UNL     1     -11.762  13.396  69.487  1.00  0.00    -0.385 A  
HETATM    5  C   UNL     1     -11.652  12.073  69.054  1.00  0.00    -0.370 A  
HETATM    6  C   UNL     1     -11.449  11.814  67.703  1.00  0.00    -0.370 A  
HETATM    7  C   UNL     1     -11.452  14.207  67.208  1.00  0.00    -0.350 A  
HETATM    8  C   UNL     1     -11.342  12.866  66.775  1.00  0.00    -0.322 A  
BRANCH   5   9
HETATM    9  C   UNL     1     -11.851  10.995  70.061  1.00  0.00    -0.355 C  
HETATM   10  N   UNL     1     -10.732  10.317  70.478  1.00  0.00    -0.421 N  
HETATM   11  O   UNL     1     -12.977  10.764  70.489  1.00  0.00    -0.299 OA 
HETATM   12  H   UNL     1      -9.819  10.544  70.083  1.00  0.00     0.000 HD 
BRANCH  10  13
HETATM   13  C   UNL     1     -10.851   9.280  71.479  1.00  0.00    -0.372 C  
BRANCH  13  14
HETATM   14  C   UNL     1     -10.506   7.937  70.901  1.00  0.00    -0.217 A  
HETATM   15  C   UNL     1      -9.168   7.555  70.816  1.00  0.00    -0.158 A  
HETATM   16  C   UNL     1      -8.814   6.343  70.233  1.00  0.00    -0.151 A  
HETATM   17  C   UNL     1      -9.786   5.482  69.710  1.00  0.00    -0.194 A  
HETATM   18  C   UNL     1     -11.129   5.850  69.806  1.00  0.00    -0.422 A  
HETATM   19  C   UNL     1     -11.491   7.071  70.393  1.00  0.00    -0.355 A  
BRANCH  17  20
HETATM   20  O   UNL     1      -9.515   4.283  69.086  1.00  0.00    -0.148 OA 
BRANCH  20  21
HETATM   21  C   UNL     1      -8.959   4.440  67.776  1.00  0.00    -0.118 C  
BRANCH  21  22
HETATM   22  C   UNL     1      -9.969   4.222  66.642  1.00  0.00    -0.177 C  
BRANCH  22  23
HETATM   23  N   UNL     1      -9.511   4.847  65.379  1.00  0.00    -0.151 NA 
HETATM   24  C   UNL     1      -8.056   5.015  65.329  1.00  0.00    -0.117 C  
HETATM   25  C   UNL     1      -9.956   4.069  64.224  1.00  0.00    -0.173 C  
ENDBRANCH  22  23
ENDBRANCH  21  22
ENDBRANCH  20  21
ENDBRANCH  17  20
ENDBRANCH  13  14
ENDBRANCH  10  13
ENDBRANCH   5   9
BRANCH   8  26
HETATM   26  O   UNL     1     -11.150  12.389  65.502  1.00  0.00    -0.282 OA 
HETATM   27  C   UNL     1     -12.233  12.381  64.584  1.00  0.00    -0.425 C  
ENDBRANCH   8  26
BRANCH   7  28
HETATM   28  O   UNL     1     -11.398  15.182  66.241  1.00  0.00    -0.317 OA 
HETATM   29  C   UNL     1     -10.136  15.726  65.885  1.00  0.00    -0.356 C  
ENDBRANCH   7  28
ENDBRANCH   2   3
TORSDOF 10
ENDMDL
MODEL       69
REMARK 921   NORMALIZED FREE ENERGY PREDICTED BY IDOCK:   -5.09 KCAL/MOL
REMARK 922        TOTAL FREE ENERGY PREDICTED BY IDOCK:   -8.93 KCAL/MOL
REMARK 923 INTER-LIGAND FREE ENERGY PREDICTED BY IDOCK:   -8.01 KCAL/MOL
REMARK 924 INTRA-LIGAND FREE ENERGY PREDICTED BY IDOCK:   -0.92 KCAL/MOL
REMARK 927      BINDING AFFINITY PREDICTED BY RF-SCORE:    0.00 PKD
ROOT
HETATM    1  C   UNL     1      -5.726  15.681  68.439  1.00  0.00    -0.108 C  
HETATM    2  O   UNL     1      -6.084  15.871  67.071  1.00  0.00    -0.328 OA 
ENDROOT
BRANCH   2   3
HETATM    3  C   UNL     1      -7.346  16.361  66.842  1.00  0.00    -0.234 A  
HETATM    4  C   UNL     1      -8.480  15.560  67.034  1.00  0.00    -0.266 A  
HETATM    5  C   UNL     1      -9.764  16.089  66.896  1.00  0.00    -0.244 A  
HETATM    6  C   UNL     1      -9.916  17.421  66.527  1.00  0.00    -0.314 A  
HETATM    7  C   UNL     1      -7.491  17.704  66.420  1.00  0.00    -0.288 A  
HETATM    8  C   UNL     1      -8.794  18.234  66.282  1.00  0.00    -0.178 A  
BRANCH   5   9
HETATM    9  C   UNL     1     -10.916  15.213  67.242  1.00  0.00    -0.327 C  
HETATM   10  N   UNL     1     -11.008  14.011  66.582  1.00  0.00    -0.297 N  
HETATM   11  O   UNL     1     -11.718  15.573  68.098  1.00  0.00    -0.342 OA 
HETATM   12  H   UNL     1     -10.318  13.764  65.873  1.00  0.00     0.000 HD 
BRANCH  10  13
HETATM   13  C   UNL     1     -12.084  13.099  66.895  1.00  0.00    -0.316 C  
BRANCH  13  14
HETATM   14  C   UNL     1     -11.683  12.153  67.991  1.00  0.00    -0.409 A  
HETATM   15  C   UNL     1     -10.882  11.055  67.683  1.00  0.00    -0.306 A  
HETATM   16  C   UNL     1     -10.541  10.130  68.665  1.00  0.00    -0.236 A  
HETATM   17  C   UNL     1     -10.998  10.274  69.981  1.00  0.00    -0.311 A  
HETATM   18  C   UNL     1     -11.786  11.380  70.301  1.00  0.00    -0.397 A  
HETATM   19  C   UNL     1     -12.132  12.314  69.314  1.00  0.00    -0.219 A  
BRANCH  17  20
HETATM   20  O   UNL     1     -10.735   9.384  71.002  1.00  0.00    -0.284 OA 
BRANCH  20  21
HETATM   21  C   UNL     1     -11.303   8.088  70.782  1.00  0.00    -0.272 C  
BRANCH  21  22
HETATM   22  C   UNL     1     -10.266   7.001  70.469  1.00  0.00    -0.196 C  
BRANCH  22  23
HETATM   23  N   UNL     1     -10.852   5.910  69.654  1.00  0.00    -0.348 NA 
HETATM   24  C   UNL     1     -11.038   6.293  68.251  1.00  0.00    -0.269 C  
HETATM   25  C   UNL     1     -10.026   4.706  69.729  1.00  0.00    -0.225 C  
ENDBRANCH  22  23
ENDBRANCH  21  22
ENDBRANCH  20  21
ENDBRANCH  17  20
ENDBRANCH  13  14
ENDBRANCH  10  13
ENDBRANCH   5   9
BRANCH   8  26
HETATM   26  O   UNL     1      -9.169  19.510  65.939  1.00  0.00    -0.409 OA 
HETATM   27  C   UNL     1      -9.983  20.265  66.823  1.00  0.00    -0.450 C  
ENDBRANCH   8  26
BRANCH   7  28
HETATM   28  O   UNL     1      -6.442  18.568  66.224  1.00  0.00    -0.179 OA 
HETATM   29  C   UNL     1      -5.968  18.784  64.902  1.00  0.00    -0.262 C  
ENDBRANCH   7  28
ENDBRANCH   2   3
TORSDOF 10
ENDMDL
MODEL       70
REMARK 921   NORMALIZED FREE ENERGY PREDICTED BY IDOCK:   -5.08 KCAL/MOL
REMARK 922        TOTAL FREE ENERGY PREDICTED BY IDOCK:   -8.92 KCAL/MOL
REMARK 923 INTER-LIGAND FREE ENERGY PREDICTED BY IDOCK:   -7.96 KCAL/MOL
REMARK 924 INTRA-LIGAND FREE ENERGY PREDICTED BY IDOCK:   -0.96 KCAL/MOL
REMARK 927      BINDING AFFINITY PREDICTED BY RF-SCORE:    0.00 PKD
ROOT
HETATM    1  C   UNL     1     -12.902  15.137  73.376  1.00  0.00    -0.537 C  
HETATM    2  O   UNL     1     -13.585  14.751  72.184  1.00  0.00    -0.348 OA 
ENDROOT
BRANCH   2   3
HETATM    3  C   UNL     1     -13.029  13.709  71.483  1.00  0.00    -0.360 A  
HETATM    4  C   UNL     1     -13.175  12.384  71.917  1.00  0.00    -0.486 A  
HETATM    5  C   UNL     1     -12.694  11.321  71.151  1.00  0.00    -0.492 A  
HETATM    6  C   UNL     1     -12.031  11.586  69.958  1.00  0.00    -0.435 A  
HETATM    7  C   UNL     1     -12.313  13.990  70.295  1.00  0.00    -0.358 A  
HETATM    8  C   UNL     1     -11.829  12.909  69.524  1.00  0.00    -0.320 A  
BRANCH   5   9
HETATM    9  C   UNL     1     -13.001   9.940  71.613  1.00  0.00    -0.434 C  
HETATM   10  N   UNL     1     -12.318   8.913  71.008  1.00  0.00    -0.454 N  
HETATM   11  O   UNL     1     -13.820   9.767  72.510  1.00  0.00    -0.298 OA 
HETATM   12  H   UNL     1     -11.653   9.112  70.260  1.00  0.00     0.000 HD 
BRANCH  10  13
HETATM   13  C   UNL     1     -12.545   7.550  71.432  1.00  0.00    -0.351 C  
BRANCH  13  14
HETATM   14  C   UNL     1     -11.348   7.011  72.162  1.00  0.00    -0.302 A  
HETATM   15  C   UNL     1     -10.466   7.900  72.773  1.00  0.00    -0.412 A  
HETATM   16  C   UNL     1      -9.318   7.436  73.407  1.00  0.00    -0.260 A  
HETATM   17  C   UNL     1      -9.015   6.069  73.441  1.00  0.00    -0.129 A  
HETATM   18  C   UNL     1      -9.902   5.170  72.846  1.00  0.00    -0.181 A  
HETATM   19  C   UNL     1     -11.060   5.635  72.205  1.00  0.00    -0.318 A  
BRANCH  17  20
HETATM   20  O   UNL     1      -7.883   5.533  74.016  1.00  0.00    -0.100 OA 
BRANCH  20  21
HETATM   21  C   UNL     1      -8.068   4.193  74.487  1.00  0.00    -0.087 C  
BRANCH  21  22
HETATM   22  C   UNL     1      -6.787   3.348  74.476  1.00  0.00    -0.045 C  
BRANCH  22  23
HETATM   23  N   UNL     1      -6.762   2.412  73.327  1.00  0.00    -0.021 NA 
HETATM   24  C   UNL     1      -8.094   1.901  72.989  1.00  0.00    -0.053 C  
HETATM   25  C   UNL     1      -6.167   3.047  72.153  1.00  0.00    -0.014 C  
ENDBRANCH  22  23
ENDBRANCH  21  22
ENDBRANCH  20  21
ENDBRANCH  17  20
ENDBRANCH  13  14
ENDBRANCH  10  13
ENDBRANCH   5   9
BRANCH   8  26
HETATM   26  O   UNL     1     -11.161  12.943  68.324  1.00  0.00    -0.237 OA 
HETATM   27  C   UNL     1     -10.983  11.745  67.585  1.00  0.00    -0.233 C  
ENDBRANCH   8  26
BRANCH   7  28
HETATM   28  O   UNL     1     -12.135  15.252  69.783  1.00  0.00    -0.320 OA 
HETATM   29  C   UNL     1     -11.054  16.040  70.260  1.00  0.00    -0.374 C  
ENDBRANCH   7  28
ENDBRANCH   2   3
TORSDOF 10
ENDMDL
MODEL       71
REMARK 921   NORMALIZED FREE ENERGY PREDICTED BY IDOCK:   -5.08 KCAL/MOL
REMARK 922        TOTAL FREE ENERGY PREDICTED BY IDOCK:   -8.92 KCAL/MOL
REMARK 923 INTER-LIGAND FREE ENERGY PREDICTED BY IDOCK:   -7.99 KCAL/MOL
REMARK 924 INTRA-LIGAND FREE ENERGY PREDICTED BY IDOCK:   -0.92 KCAL/MOL
REMARK 927      BINDING AFFINITY PREDICTED BY RF-SCORE:    0.00 PKD
ROOT
HETATM    1  C   UNL     1     -12.349   6.516  71.821  1.00  0.00    -0.287 C  
HETATM    2  O   UNL     1     -11.728   7.675  72.375  1.00  0.00    -0.311 OA 
ENDROOT
BRANCH   2   3
HETATM    3  C   UNL     1     -11.030   8.463  71.492  1.00  0.00    -0.262 A  
HETATM    4  C   UNL     1     -11.675   9.456  70.741  1.00  0.00    -0.349 A  
HETATM    5  C   UNL     1     -10.950  10.319  69.919  1.00  0.00    -0.358 A  
HETATM    6  C   UNL     1      -9.571  10.166  69.819  1.00  0.00    -0.213 A  
HETATM    7  C   UNL     1      -9.635   8.269  71.358  1.00  0.00    -0.177 A  
HETATM    8  C   UNL     1      -8.906   9.147  70.525  1.00  0.00    -0.224 A  
BRANCH   5   9
HETATM    9  C   UNL     1     -11.688  11.429  69.256  1.00  0.00    -0.337 C  
HETATM   10  N   UNL     1     -11.690  12.646  69.892  1.00  0.00    -0.480 N  
HETATM   11  O   UNL     1     -12.242  11.231  68.179  1.00  0.00    -0.622 OA 
HETATM   12  H   UNL     1     -11.220  12.754  70.791  1.00  0.00     0.000 HD 
BRANCH  10  13
HETATM   13  C   UNL     1     -12.361  13.774  69.285  1.00  0.00    -0.143 C  
BRANCH  13  14
HETATM   14  C   UNL     1     -11.419  14.547  68.407  1.00  0.00    -0.328 A  
HETATM   15  C   UNL     1     -11.606  14.530  67.026  1.00  0.00    -0.402 A  
HETATM   16  C   UNL     1     -10.717  15.189  66.184  1.00  0.00    -0.327 A  
HETATM   17  C   UNL     1      -9.610  15.876  66.697  1.00  0.00    -0.246 A  
HETATM   18  C   UNL     1      -9.425  15.912  68.080  1.00  0.00    -0.203 A  
HETATM   19  C   UNL     1     -10.319  15.248  68.933  1.00  0.00    -0.243 A  
BRANCH  17  20
HETATM   20  O   UNL     1      -8.665  16.523  65.929  1.00  0.00    -0.456 OA 
BRANCH  20  21
HETATM   21  C   UNL     1      -7.629  17.136  66.704  1.00  0.00    -0.264 C  
BRANCH  21  22
HETATM   22  C   UNL     1      -6.631  17.952  65.872  1.00  0.00    -0.269 C  
BRANCH  22  23
HETATM   23  N   UNL     1      -7.244  19.200  65.358  1.00  0.00    -0.459 NA 
HETATM   24  C   UNL     1      -8.088  19.865  66.355  1.00  0.00    -0.331 C  
HETATM   25  C   UNL     1      -6.217  20.127  64.886  1.00  0.00    -0.276 C  
ENDBRANCH  22  23
ENDBRANCH  21  22
ENDBRANCH  20  21
ENDBRANCH  17  20
ENDBRANCH  13  14
ENDBRANCH  10  13
ENDBRANCH   5   9
BRANCH   8  26
HETATM   26  O   UNL     1      -7.553   9.179  70.288  1.00  0.00    -0.079 OA 
HETATM   27  C   UNL     1      -7.051   8.766  69.028  1.00  0.00    -0.065 C  
ENDBRANCH   8  26
BRANCH   7  28
HETATM   28  O   UNL     1      -8.915   7.336  72.064  1.00  0.00    -0.129 OA 
HETATM   29  C   UNL     1      -8.388   7.693  73.334  1.00  0.00    -0.158 C  
ENDBRANCH   7  28
ENDBRANCH   2   3
TORSDOF 10
ENDMDL
MODEL       72
REMARK 921   NORMALIZED FREE ENERGY PREDICTED BY IDOCK:   -5.08 KCAL/MOL
REMARK 922        TOTAL FREE ENERGY PREDICTED BY IDOCK:   -8.91 KCAL/MOL
REMARK 923 INTER-LIGAND FREE ENERGY PREDICTED BY IDOCK:   -7.91 KCAL/MOL
REMARK 924 INTRA-LIGAND FREE ENERGY PREDICTED BY IDOCK:   -1.00 KCAL/MOL
REMARK 927      BINDING AFFINITY PREDICTED BY RF-SCORE:    0.00 PKD
ROOT
HETATM    1  C   UNL     1     -12.501  15.598  71.483  1.00  0.00    -0.437 C  
HETATM    2  O   UNL     1     -12.313  15.351  70.090  1.00  0.00    -0.356 OA 
ENDROOT
BRANCH   2   3
HETATM    3  C   UNL     1     -12.173  14.034  69.726  1.00  0.00    -0.341 A  
HETATM    4  C   UNL     1     -12.222  13.009  70.681  1.00  0.00    -0.390 A  
HETATM    5  C   UNL     1     -12.178  11.668  70.297  1.00  0.00    -0.401 A  
HETATM    6  C   UNL     1     -12.048  11.349  68.950  1.00  0.00    -0.285 A  
HETATM    7  C   UNL     1     -11.992  13.719  68.358  1.00  0.00    -0.360 A  
HETATM    8  C   UNL     1     -11.949  12.359  67.976  1.00  0.00    -0.203 A  
BRANCH   5   9
HETATM    9  C   UNL     1     -12.366  10.638  71.355  1.00  0.00    -0.350 C  
HETATM   10  N   UNL     1     -11.511   9.563  71.339  1.00  0.00    -0.370 N  
HETATM   11  O   UNL     1     -13.245  10.787  72.198  1.00  0.00    -0.473 OA 
HETATM   12  H   UNL     1     -10.802   9.485  70.610  1.00  0.00     0.000 HD 
BRANCH  10  13
HETATM   13  C   UNL     1     -11.618   8.543  72.358  1.00  0.00    -0.354 C  
BRANCH  13  14
HETATM   14  C   UNL     1     -11.091   7.229  71.857  1.00  0.00    -0.270 A  
HETATM   15  C   UNL     1     -10.945   7.033  70.485  1.00  0.00    -0.297 A  
HETATM   16  C   UNL     1     -10.515   5.807  69.987  1.00  0.00    -0.353 A  
HETATM   17  C   UNL     1     -10.227   4.740  70.846  1.00  0.00    -0.177 A  
HETATM   18  C   UNL     1     -10.355   4.934  72.222  1.00  0.00    -0.267 A  
HETATM   19  C   UNL     1     -10.789   6.168  72.728  1.00  0.00    -0.282 A  
BRANCH  17  20
HETATM   20  O   UNL     1      -9.831   3.486  70.431  1.00  0.00    -0.156 OA 
BRANCH  20  21
HETATM   21  C   UNL     1      -9.289   2.686  71.487  1.00  0.00    -0.129 C  
BRANCH  21  22
HETATM   22  C   UNL     1      -7.910   2.093  71.172  1.00  0.00    -0.043 C  
BRANCH  22  23
HETATM   23  N   UNL     1      -6.920   3.152  70.863  1.00  0.00    -0.033 NA 
HETATM   24  C   UNL     1      -6.670   4.038  72.003  1.00  0.00    -0.026 C  
HETATM   25  C   UNL     1      -5.660   2.567  70.408  1.00  0.00    -0.016 C  
ENDBRANCH  22  23
ENDBRANCH  21  22
ENDBRANCH  20  21
ENDBRANCH  17  20
ENDBRANCH  13  14
ENDBRANCH  10  13
ENDBRANCH   5   9
BRANCH   8  26
HETATM   26  O   UNL     1     -11.834  11.826  66.715  1.00  0.00    -0.586 OA 
HETATM   27  C   UNL     1     -10.575  11.352  66.266  1.00  0.00    -0.263 C  
ENDBRANCH   8  26
BRANCH   7  28
HETATM   28  O   UNL     1     -11.950  14.653  67.351  1.00  0.00    -0.384 OA 
HETATM   29  C   UNL     1     -10.691  15.168  66.944  1.00  0.00    -0.308 C  
ENDBRANCH   7  28
ENDBRANCH   2   3
TORSDOF 10
ENDMDL
MODEL       73
REMARK 921   NORMALIZED FREE ENERGY PREDICTED BY IDOCK:   -5.06 KCAL/MOL
REMARK 922        TOTAL FREE ENERGY PREDICTED BY IDOCK:   -8.89 KCAL/MOL
REMARK 923 INTER-LIGAND FREE ENERGY PREDICTED BY IDOCK:   -7.84 KCAL/MOL
REMARK 924 INTRA-LIGAND FREE ENERGY PREDICTED BY IDOCK:   -1.05 KCAL/MOL
REMARK 927      BINDING AFFINITY PREDICTED BY RF-SCORE:    0.00 PKD
ROOT
HETATM    1  C   UNL     1      -9.822  10.832  62.891  1.00  0.00    -0.256 C  
HETATM    2  O   UNL     1     -10.862  11.654  63.421  1.00  0.00    -0.391 OA 
ENDROOT
BRANCH   2   3
HETATM    3  C   UNL     1     -10.894  11.776  64.789  1.00  0.00    -0.302 A  
HETATM    4  C   UNL     1     -10.047  11.014  65.604  1.00  0.00    -0.310 A  
HETATM    5  C   UNL     1     -10.011  11.211  66.986  1.00  0.00    -0.223 A  
HETATM    6  C   UNL     1     -10.856  12.153  67.561  1.00  0.00    -0.283 A  
HETATM    7  C   UNL     1     -11.791  12.703  65.371  1.00  0.00    -0.427 A  
HETATM    8  C   UNL     1     -11.750  12.898  66.770  1.00  0.00    -0.383 A  
BRANCH   5   9
HETATM    9  C   UNL     1      -8.995  10.455  67.768  1.00  0.00    -0.131 C  
HETATM   10  N   UNL     1      -8.984  10.647  69.128  1.00  0.00    -0.288 N  
HETATM   11  O   UNL     1      -8.229   9.690  67.190  1.00  0.00    -0.119 OA 
HETATM   12  H   UNL     1      -9.639  11.301  69.557  1.00  0.00     0.000 HD 
BRANCH  10  13
HETATM   13  C   UNL     1      -8.044   9.919  69.950  1.00  0.00    -0.188 C  
BRANCH  13  14
HETATM   14  C   UNL     1      -8.757   9.146  71.022  1.00  0.00    -0.251 A  
HETATM   15  C   UNL     1     -10.145   9.034  70.971  1.00  0.00    -0.352 A  
HETATM   16  C   UNL     1     -10.839   8.374  71.980  1.00  0.00    -0.390 A  
HETATM   17  C   UNL     1     -10.165   7.814  73.073  1.00  0.00    -0.330 A  
HETATM   18  C   UNL     1      -8.774   7.908  73.122  1.00  0.00    -0.278 A  
HETATM   19  C   UNL     1      -8.071   8.573  72.107  1.00  0.00    -0.162 A  
BRANCH  17  20
HETATM   20  O   UNL     1     -10.782   7.177  74.129  1.00  0.00    -0.231 OA 
BRANCH  20  21
HETATM   21  C   UNL     1     -10.408   5.800  74.254  1.00  0.00    -0.270 C  
BRANCH  21  22
HETATM   22  C   UNL     1     -11.244   4.848  73.389  1.00  0.00    -0.338 C  
BRANCH  22  23
HETATM   23  N   UNL     1     -10.389   4.042  72.486  1.00  0.00    -0.171 NA 
HETATM   24  C   UNL     1     -10.063   4.746  71.242  1.00  0.00    -0.188 C  
HETATM   25  C   UNL     1      -9.156   3.640  73.160  1.00  0.00    -0.098 C  
ENDBRANCH  22  23
ENDBRANCH  21  22
ENDBRANCH  20  21
ENDBRANCH  17  20
ENDBRANCH  13  14
ENDBRANCH  10  13
ENDBRANCH   5   9
BRANCH   8  26
HETATM   26  O   UNL     1     -12.483  13.772  67.536  1.00  0.00    -0.178 OA 
HETATM   27  C   UNL     1     -11.992  14.177  68.804  1.00  0.00    -0.332 C  
ENDBRANCH   8  26
BRANCH   7  28
HETATM   28  O   UNL     1     -12.644  13.505  64.653  1.00  0.00    -0.593 OA 
HETATM   29  C   UNL     1     -12.231  14.823  64.322  1.00  0.00    -0.379 C  
ENDBRANCH   7  28
ENDBRANCH   2   3
TORSDOF 10
ENDMDL
MODEL       74
REMARK 921   NORMALIZED FREE ENERGY PREDICTED BY IDOCK:   -5.06 KCAL/MOL
REMARK 922        TOTAL FREE ENERGY PREDICTED BY IDOCK:   -8.89 KCAL/MOL
REMARK 923 INTER-LIGAND FREE ENERGY PREDICTED BY IDOCK:   -7.95 KCAL/MOL
REMARK 924 INTRA-LIGAND FREE ENERGY PREDICTED BY IDOCK:   -0.94 KCAL/MOL
REMARK 927      BINDING AFFINITY PREDICTED BY RF-SCORE:    0.00 PKD
ROOT
HETATM    1  C   UNL     1     -10.774  16.654  68.956  1.00  0.00    -0.343 C  
HETATM    2  O   UNL     1     -11.567  16.093  70.001  1.00  0.00    -0.319 OA 
ENDROOT
BRANCH   2   3
HETATM    3  C   UNL     1     -11.851  14.754  69.888  1.00  0.00    -0.316 A  
HETATM    4  C   UNL     1     -11.554  14.047  68.714  1.00  0.00    -0.366 A  
HETATM    5  C   UNL     1     -11.752  12.668  68.637  1.00  0.00    -0.364 A  
HETATM    6  C   UNL     1     -12.286  11.994  69.730  1.00  0.00    -0.226 A  
HETATM    7  C   UNL     1     -12.439  14.085  70.987  1.00  0.00    -0.371 A  
HETATM    8  C   UNL     1     -12.637  12.688  70.903  1.00  0.00    -0.249 A  
BRANCH   5   9
HETATM    9  C   UNL     1     -11.292  11.969  67.406  1.00  0.00    -0.327 C  
HETATM   10  N   UNL     1     -10.052  11.381  67.447  1.00  0.00    -0.182 N  
HETATM   11  O   UNL     1     -12.025  11.925  66.423  1.00  0.00    -0.572 OA 
HETATM   12  H   UNL     1      -9.479  11.454  68.289  1.00  0.00     0.000 HD 
BRANCH  10  13
HETATM   13  C   UNL     1      -9.559  10.658  66.296  1.00  0.00    -0.185 C  
BRANCH  13  14
HETATM   14  C   UNL     1      -9.424   9.194  66.602  1.00  0.00    -0.242 A  
HETATM   15  C   UNL     1      -8.173   8.588  66.492  1.00  0.00    -0.108 A  
HETATM   16  C   UNL     1      -8.027   7.222  66.712  1.00  0.00    -0.118 A  
HETATM   17  C   UNL     1      -9.128   6.422  67.041  1.00  0.00    -0.127 A  
HETATM   18  C   UNL     1     -10.380   7.024  67.170  1.00  0.00    -0.351 A  
HETATM   19  C   UNL     1     -10.532   8.401  66.948  1.00  0.00    -0.359 A  
BRANCH  17  20
HETATM   20  O   UNL     1      -9.073   5.059  67.239  1.00  0.00    -0.113 OA 
BRANCH  20  21
HETATM   21  C   UNL     1      -9.905   4.322  66.337  1.00  0.00    -0.220 C  
BRANCH  21  22
HETATM   22  C   UNL     1      -9.154   3.253  65.532  1.00  0.00    -0.150 C  
BRANCH  22  23
HETATM   23  N   UNL     1      -9.297   3.471  64.073  1.00  0.00    -0.125 NA 
HETATM   24  C   UNL     1     -10.697   3.477  63.639  1.00  0.00    -0.260 C  
HETATM   25  C   UNL     1      -8.652   4.719  63.669  1.00  0.00    -0.136 C  
ENDBRANCH  22  23
ENDBRANCH  21  22
ENDBRANCH  20  21
ENDBRANCH  17  20
ENDBRANCH  13  14
ENDBRANCH  10  13
ENDBRANCH   5   9
BRANCH   8  26
HETATM   26  O   UNL     1     -13.137  11.834  71.855  1.00  0.00    -0.468 OA 
HETATM   27  C   UNL     1     -13.013  10.432  71.676  1.00  0.00    -0.475 C  
ENDBRANCH   8  26
BRANCH   7  28
HETATM   28  O   UNL     1     -12.748  14.688  72.181  1.00  0.00    -0.314 OA 
HETATM   29  C   UNL     1     -13.993  15.359  72.310  1.00  0.00    -0.562 C  
ENDBRANCH   7  28
ENDBRANCH   2   3
TORSDOF 10
ENDMDL
MODEL       75
REMARK 921   NORMALIZED FREE ENERGY PREDICTED BY IDOCK:   -5.05 KCAL/MOL
REMARK 922        TOTAL FREE ENERGY PREDICTED BY IDOCK:   -8.87 KCAL/MOL
REMARK 923 INTER-LIGAND FREE ENERGY PREDICTED BY IDOCK:   -7.72 KCAL/MOL
REMARK 924 INTRA-LIGAND FREE ENERGY PREDICTED BY IDOCK:   -1.15 KCAL/MOL
REMARK 927      BINDING AFFINITY PREDICTED BY RF-SCORE:    0.00 PKD
ROOT
HETATM    1  C   UNL     1     -11.929  12.752  66.168  1.00  0.00    -0.414 C  
HETATM    2  O   UNL     1     -11.133  13.211  67.258  1.00  0.00    -0.265 OA 
ENDROOT
BRANCH   2   3
HETATM    3  C   UNL     1     -11.652  13.002  68.513  1.00  0.00    -0.328 A  
HETATM    4  C   UNL     1     -11.758  11.710  69.046  1.00  0.00    -0.388 A  
HETATM    5  C   UNL     1     -12.192  11.507  70.357  1.00  0.00    -0.442 A  
HETATM    6  C   UNL     1     -12.559  12.603  71.130  1.00  0.00    -0.354 A  
HETATM    7  C   UNL     1     -12.068  14.118  69.275  1.00  0.00    -0.324 A  
HETATM    8  C   UNL     1     -12.507  13.907  70.603  1.00  0.00    -0.366 A  
BRANCH   5   9
HETATM    9  C   UNL     1     -12.155  10.119  70.893  1.00  0.00    -0.356 C  
HETATM   10  N   UNL     1     -11.440   9.192  70.176  1.00  0.00    -0.439 N  
HETATM   11  O   UNL     1     -12.734   9.858  71.943  1.00  0.00    -0.394 OA 
HETATM   12  H   UNL     1     -10.983   9.461  69.305  1.00  0.00     0.000 HD 
BRANCH  10  13
HETATM   13  C   UNL     1     -11.336   7.833  70.660  1.00  0.00    -0.264 C  
BRANCH  13  14
HETATM   14  C   UNL     1     -10.645   6.959  69.653  1.00  0.00    -0.258 A  
HETATM   15  C   UNL     1      -9.318   6.589  69.868  1.00  0.00    -0.155 A  
HETATM   16  C   UNL     1      -8.634   5.828  68.926  1.00  0.00    -0.106 A  
HETATM   17  C   UNL     1      -9.253   5.423  67.737  1.00  0.00    -0.109 A  
HETATM   18  C   UNL     1     -10.586   5.775  67.522  1.00  0.00    -0.327 A  
HETATM   19  C   UNL     1     -11.280   6.542  68.469  1.00  0.00    -0.287 A  
BRANCH  17  20
HETATM   20  O   UNL     1      -8.634   4.700  66.740  1.00  0.00    -0.109 OA 
BRANCH  20  21
HETATM   21  C   UNL     1      -7.545   5.399  66.127  1.00  0.00    -0.087 C  
BRANCH  21  22
HETATM   22  C   UNL     1      -7.972   6.340  64.993  1.00  0.00    -0.120 C  
BRANCH  22  23
HETATM   23  N   UNL     1      -7.682   7.756  65.322  1.00  0.00    -0.095 NA 
HETATM   24  C   UNL     1      -8.895   8.526  65.608  1.00  0.00    -0.173 C  
HETATM   25  C   UNL     1      -6.763   7.847  66.455  1.00  0.00    -0.058 C  
ENDBRANCH  22  23
ENDBRANCH  21  22
ENDBRANCH  20  21
ENDBRANCH  17  20
ENDBRANCH  13  14
ENDBRANCH  10  13
ENDBRANCH   5   9
BRANCH   8  26
HETATM   26  O   UNL     1     -12.904  14.836  71.532  1.00  0.00    -0.298 OA 
HETATM   27  C   UNL     1     -14.279  15.168  71.651  1.00  0.00    -0.567 C  
ENDBRANCH   8  26
BRANCH   7  28
HETATM   28  O   UNL     1     -11.985  15.420  68.845  1.00  0.00    -0.336 OA 
HETATM   29  C   UNL     1     -10.817  16.170  69.146  1.00  0.00    -0.298 C  
ENDBRANCH   7  28
ENDBRANCH   2   3
TORSDOF 10
ENDMDL
MODEL       76
REMARK 921   NORMALIZED FREE ENERGY PREDICTED BY IDOCK:   -5.05 KCAL/MOL
REMARK 922        TOTAL FREE ENERGY PREDICTED BY IDOCK:   -8.86 KCAL/MOL
REMARK 923 INTER-LIGAND FREE ENERGY PREDICTED BY IDOCK:   -8.19 KCAL/MOL
REMARK 924 INTRA-LIGAND FREE ENERGY PREDICTED BY IDOCK:   -0.68 KCAL/MOL
REMARK 927      BINDING AFFINITY PREDICTED BY RF-SCORE:    0.00 PKD
ROOT
HETATM    1  C   UNL     1      -8.365   3.107  72.581  1.00  0.00    -0.076 C  
HETATM    2  O   UNL     1      -9.514   2.903  71.761  1.00  0.00    -0.112 OA 
ENDROOT
BRANCH   2   3
HETATM    3  C   UNL     1      -9.948   3.996  71.050  1.00  0.00    -0.106 A  
HETATM    4  C   UNL     1     -10.659   5.030  71.675  1.00  0.00    -0.187 A  
HETATM    5  C   UNL     1     -11.012   6.184  70.974  1.00  0.00    -0.354 A  
HETATM    6  C   UNL     1     -10.684   6.290  69.627  1.00  0.00    -0.367 A  
HETATM    7  C   UNL     1      -9.652   4.075  69.669  1.00  0.00    -0.200 A  
HETATM    8  C   UNL     1     -10.012   5.246  68.964  1.00  0.00    -0.189 A  
BRANCH   5   9
HETATM    9  C   UNL     1     -11.650   7.291  71.737  1.00  0.00    -0.275 C  
HETATM   10  N   UNL     1     -12.731   7.909  71.156  1.00  0.00    -0.501 N  
HETATM   11  O   UNL     1     -11.213   7.598  72.842  1.00  0.00    -0.363 OA 
HETATM   12  H   UNL     1     -13.049   7.619  70.231  1.00  0.00     0.000 HD 
BRANCH  10  13
HETATM   13  C   UNL     1     -13.417   8.969  71.859  1.00  0.00    -0.425 C  
BRANCH  13  14
HETATM   14  C   UNL     1     -12.999  10.314  71.337  1.00  0.00    -0.540 A  
HETATM   15  C   UNL     1     -12.124  10.383  70.255  1.00  0.00    -0.370 A  
HETATM   16  C   UNL     1     -11.673  11.612  69.786  1.00  0.00    -0.425 A  
HETATM   17  C   UNL     1     -12.078  12.808  70.391  1.00  0.00    -0.302 A  
HETATM   18  C   UNL     1     -12.968  12.749  71.464  1.00  0.00    -0.388 A  
HETATM   19  C   UNL     1     -13.424  11.511  71.940  1.00  0.00    -0.275 A  
BRANCH  17  20
HETATM   20  O   UNL     1     -11.650  14.062  70.009  1.00  0.00    -0.268 OA 
BRANCH  20  21
HETATM   21  C   UNL     1     -12.494  15.117  70.483  1.00  0.00    -0.379 C  
BRANCH  21  22
HETATM   22  C   UNL     1     -11.842  16.001  71.554  1.00  0.00    -0.486 C  
BRANCH  22  23
HETATM   23  N   UNL     1     -12.470  15.801  72.882  1.00  0.00    -0.413 NA 
HETATM   24  C   UNL     1     -12.050  16.808  73.860  1.00  0.00    -0.184 C  
HETATM   25  C   UNL     1     -13.927  15.801  72.771  1.00  0.00    -0.466 C  
ENDBRANCH  22  23
ENDBRANCH  21  22
ENDBRANCH  20  21
ENDBRANCH  17  20
ENDBRANCH  13  14
ENDBRANCH  10  13
ENDBRANCH   5   9
BRANCH   8  26
HETATM   26  O   UNL     1      -9.782   5.559  67.647  1.00  0.00    -0.118 OA 
HETATM   27  C   UNL     1     -10.876   5.859  66.795  1.00  0.00    -0.270 C  
ENDBRANCH   8  26
BRANCH   7  28
HETATM   28  O   UNL     1      -8.947   3.121  68.976  1.00  0.00    -0.097 OA 
HETATM   29  C   UNL     1      -7.534   3.242  68.888  1.00  0.00    -0.049 C  
ENDBRANCH   7  28
ENDBRANCH   2   3
TORSDOF 10
ENDMDL
MODEL       77
REMARK 921   NORMALIZED FREE ENERGY PREDICTED BY IDOCK:   -5.05 KCAL/MOL
REMARK 922        TOTAL FREE ENERGY PREDICTED BY IDOCK:   -8.86 KCAL/MOL
REMARK 923 INTER-LIGAND FREE ENERGY PREDICTED BY IDOCK:   -7.83 KCAL/MOL
REMARK 924 INTRA-LIGAND FREE ENERGY PREDICTED BY IDOCK:   -1.03 KCAL/MOL
REMARK 927      BINDING AFFINITY PREDICTED BY RF-SCORE:    0.00 PKD
ROOT
HETATM    1  C   UNL     1     -10.426  16.460  68.422  1.00  0.00    -0.298 C  
HETATM    2  O   UNL     1     -11.708  15.850  68.290  1.00  0.00    -0.327 OA 
ENDROOT
BRANCH   2   3
HETATM    3  C   UNL     1     -11.710  14.492  68.085  1.00  0.00    -0.337 A  
HETATM    4  C   UNL     1     -11.652  13.597  69.162  1.00  0.00    -0.356 A  
HETATM    5  C   UNL     1     -11.754  12.220  68.957  1.00  0.00    -0.376 A  
HETATM    6  C   UNL     1     -11.879  11.731  67.661  1.00  0.00    -0.241 A  
HETATM    7  C   UNL     1     -11.789  14.001  66.760  1.00  0.00    -0.424 A  
HETATM    8  C   UNL     1     -11.892  12.605  66.559  1.00  0.00    -0.396 A  
BRANCH   5   9
HETATM    9  C   UNL     1     -11.814  11.343  70.158  1.00  0.00    -0.355 C  
HETATM   10  N   UNL     1     -10.832  10.392  70.288  1.00  0.00    -0.411 N  
HETATM   11  O   UNL     1     -12.707  11.505  70.985  1.00  0.00    -0.371 OA 
HETATM   12  H   UNL     1     -10.116  10.295  69.567  1.00  0.00     0.000 HD 
BRANCH  10  13
HETATM   13  C   UNL     1     -10.813   9.530  71.448  1.00  0.00    -0.312 C  
BRANCH  13  14
HETATM   14  C   UNL     1     -10.502   8.113  71.056  1.00  0.00    -0.233 A  
HETATM   15  C   UNL     1     -11.416   7.406  70.277  1.00  0.00    -0.206 A  
HETATM   16  C   UNL     1     -11.183   6.075  69.947  1.00  0.00    -0.438 A  
HETATM   17  C   UNL     1     -10.034   5.411  70.394  1.00  0.00    -0.223 A  
HETATM   18  C   UNL     1      -9.107   6.117  71.160  1.00  0.00    -0.151 A  
HETATM   19  C   UNL     1      -9.338   7.459  71.496  1.00  0.00    -0.154 A  
BRANCH  17  20
HETATM   20  O   UNL     1      -9.749   4.086  70.140  1.00  0.00    -0.196 OA 
BRANCH  20  21
HETATM   21  C   UNL     1      -9.177   3.406  71.263  1.00  0.00    -0.120 C  
BRANCH  21  22
HETATM   22  C   UNL     1     -10.142   2.439  71.961  1.00  0.00    -0.134 C  
BRANCH  22  23
HETATM   23  N   UNL     1     -10.320   2.786  73.391  1.00  0.00    -0.123 NA 
HETATM   24  C   UNL     1      -9.076   3.238  74.020  1.00  0.00    -0.089 C  
HETATM   25  C   UNL     1     -11.351   3.810  73.552  1.00  0.00    -0.148 C  
ENDBRANCH  22  23
ENDBRANCH  21  22
ENDBRANCH  20  21
ENDBRANCH  17  20
ENDBRANCH  13  14
ENDBRANCH  10  13
ENDBRANCH   5   9
BRANCH   8  26
HETATM   26  O   UNL     1     -12.029  11.917  65.379  1.00  0.00    -0.362 OA 
HETATM   27  C   UNL     1     -10.873  11.512  64.664  1.00  0.00    -0.310 C  
ENDBRANCH   8  26
BRANCH   7  28
HETATM   28  O   UNL     1     -11.868  14.800  65.645  1.00  0.00    -0.314 OA 
HETATM   29  C   UNL     1     -10.672  15.155  64.969  1.00  0.00    -0.430 C  
ENDBRANCH   7  28
ENDBRANCH   2   3
TORSDOF 10
ENDMDL
MODEL       78
REMARK 921   NORMALIZED FREE ENERGY PREDICTED BY IDOCK:   -5.05 KCAL/MOL
REMARK 922        TOTAL FREE ENERGY PREDICTED BY IDOCK:   -8.86 KCAL/MOL
REMARK 923 INTER-LIGAND FREE ENERGY PREDICTED BY IDOCK:   -7.90 KCAL/MOL
REMARK 924 INTRA-LIGAND FREE ENERGY PREDICTED BY IDOCK:   -0.96 KCAL/MOL
REMARK 927      BINDING AFFINITY PREDICTED BY RF-SCORE:    0.00 PKD
ROOT
HETATM    1  C   UNL     1      -7.264  15.127  69.604  1.00  0.00    -0.194 C  
HETATM    2  O   UNL     1      -8.389  15.946  69.289  1.00  0.00    -0.237 OA 
ENDROOT
BRANCH   2   3
HETATM    3  C   UNL     1      -9.230  15.464  68.315  1.00  0.00    -0.188 A  
HETATM    4  C   UNL     1      -9.926  14.260  68.490  1.00  0.00    -0.235 A  
HETATM    5  C   UNL     1     -10.854  13.824  67.543  1.00  0.00    -0.274 A  
HETATM    6  C   UNL     1     -11.061  14.579  66.394  1.00  0.00    -0.331 A  
HETATM    7  C   UNL     1      -9.399  16.214  67.128  1.00  0.00    -0.215 A  
HETATM    8  C   UNL     1     -10.340  15.767  66.172  1.00  0.00    -0.320 A  
BRANCH   5   9
HETATM    9  C   UNL     1     -11.646  12.604  67.859  1.00  0.00    -0.349 C  
HETATM   10  N   UNL     1     -11.800  12.286  69.186  1.00  0.00    -0.310 N  
HETATM   11  O   UNL     1     -12.141  11.948  66.948  1.00  0.00    -0.599 OA 
HETATM   12  H   UNL     1     -11.360  12.862  69.904  1.00  0.00     0.000 HD 
BRANCH  10  13
HETATM   13  C   UNL     1     -12.585  11.133  69.564  1.00  0.00     0.068 C  
BRANCH  13  14
HETATM   14  C   UNL     1     -11.805  10.228  70.474  1.00  0.00    -0.419 A  
HETATM   15  C   UNL     1     -10.454  10.004  70.216  1.00  0.00    -0.331 A  
HETATM   16  C   UNL     1      -9.718   9.127  71.007  1.00  0.00    -0.359 A  
HETATM   17  C   UNL     1     -10.315   8.442  72.072  1.00  0.00    -0.304 A  
HETATM   18  C   UNL     1     -11.664   8.674  72.347  1.00  0.00    -0.393 A  
HETATM   19  C   UNL     1     -12.409   9.557  71.552  1.00  0.00    -0.465 A  
BRANCH  17  20
HETATM   20  O   UNL     1      -9.666   7.531  72.878  1.00  0.00    -0.170 OA 
BRANCH  20  21
HETATM   21  C   UNL     1     -10.551   6.589  73.493  1.00  0.00    -0.290 C  
BRANCH  21  22
HETATM   22  C   UNL     1     -10.681   5.267  72.726  1.00  0.00    -0.243 C  
BRANCH  22  23
HETATM   23  N   UNL     1      -9.484   5.002  71.893  1.00  0.00    -0.145 NA 
HETATM   24  C   UNL     1      -8.636   3.942  72.447  1.00  0.00    -0.101 C  
HETATM   25  C   UNL     1      -9.870   4.657  70.526  1.00  0.00    -0.231 C  
ENDBRANCH  22  23
ENDBRANCH  21  22
ENDBRANCH  20  21
ENDBRANCH  17  20
ENDBRANCH  13  14
ENDBRANCH  10  13
ENDBRANCH   5   9
BRANCH   8  26
HETATM   26  O   UNL     1     -10.703  16.355  64.985  1.00  0.00    -0.638 OA 
HETATM   27  C   UNL     1     -11.598  15.683  64.113  1.00  0.00    -0.076 C  
ENDBRANCH   8  26
BRANCH   7  28
HETATM   28  O   UNL     1      -8.775  17.412  66.876  1.00  0.00    -0.228 OA 
HETATM   29  C   UNL     1      -7.496  17.403  66.260  1.00  0.00    -0.319 C  
ENDBRANCH   7  28
ENDBRANCH   2   3
TORSDOF 10
ENDMDL
MODEL       79
REMARK 921   NORMALIZED FREE ENERGY PREDICTED BY IDOCK:   -5.04 KCAL/MOL
REMARK 922        TOTAL FREE ENERGY PREDICTED BY IDOCK:   -8.86 KCAL/MOL
REMARK 923 INTER-LIGAND FREE ENERGY PREDICTED BY IDOCK:   -7.81 KCAL/MOL
REMARK 924 INTRA-LIGAND FREE ENERGY PREDICTED BY IDOCK:   -1.05 KCAL/MOL
REMARK 927      BINDING AFFINITY PREDICTED BY RF-SCORE:    0.00 PKD
ROOT
HETATM    1  C   UNL     1     -10.757  15.121  65.138  1.00  0.00    -0.422 C  
HETATM    2  O   UNL     1     -11.261  15.336  66.455  1.00  0.00    -0.316 OA 
ENDROOT
BRANCH   2   3
HETATM    3  C   UNL     1     -11.411  14.213  67.233  1.00  0.00    -0.332 A  
HETATM    4  C   UNL     1     -11.139  12.937  66.721  1.00  0.00    -0.315 A  
HETATM    5  C   UNL     1     -11.196  11.808  67.541  1.00  0.00    -0.354 A  
HETATM    6  C   UNL     1     -11.563  11.952  68.874  1.00  0.00    -0.370 A  
HETATM    7  C   UNL     1     -11.832  14.363  68.575  1.00  0.00    -0.334 A  
HETATM    8  C   UNL     1     -11.887  13.216  69.400  1.00  0.00    -0.326 A  
BRANCH   5   9
HETATM    9  C   UNL     1     -10.769  10.506  66.958  1.00  0.00    -0.250 C  
HETATM   10  N   UNL     1     -10.986   9.382  67.716  1.00  0.00    -0.499 N  
HETATM   11  O   UNL     1     -10.266  10.477  65.840  1.00  0.00    -0.253 OA 
HETATM   12  H   UNL     1     -11.402   9.463  68.644  1.00  0.00     0.000 HD 
BRANCH  10  13
HETATM   13  C   UNL     1     -10.624   8.082  67.196  1.00  0.00    -0.297 C  
BRANCH  13  14
HETATM   14  C   UNL     1     -10.084   7.201  68.286  1.00  0.00    -0.187 A  
HETATM   15  C   UNL     1      -9.078   7.687  69.119  1.00  0.00    -0.141 A  
HETATM   16  C   UNL     1      -8.518   6.875  70.100  1.00  0.00    -0.140 A  
HETATM   17  C   UNL     1      -8.942   5.552  70.270  1.00  0.00    -0.137 A  
HETATM   18  C   UNL     1      -9.961   5.063  69.451  1.00  0.00    -0.290 A  
HETATM   19  C   UNL     1     -10.528   5.878  68.460  1.00  0.00    -0.297 A  
BRANCH  17  20
HETATM   20  O   UNL     1      -8.414   4.674  71.193  1.00  0.00    -0.103 OA 
BRANCH  20  21
HETATM   21  C   UNL     1      -9.360   4.260  72.185  1.00  0.00    -0.127 C  
BRANCH  21  22
HETATM   22  C   UNL     1      -9.310   5.089  73.474  1.00  0.00    -0.132 C  
BRANCH  22  23
HETATM   23  N   UNL     1     -10.588   5.801  73.713  1.00  0.00    -0.267 NA 
HETATM   24  C   UNL     1     -10.468   7.250  73.531  1.00  0.00    -0.374 C  
HETATM   25  C   UNL     1     -11.641   5.282  72.842  1.00  0.00    -0.219 C  
ENDBRANCH  22  23
ENDBRANCH  21  22
ENDBRANCH  20  21
ENDBRANCH  17  20
ENDBRANCH  13  14
ENDBRANCH  10  13
ENDBRANCH   5   9
BRANCH   8  26
HETATM   26  O   UNL     1     -12.214  13.132  70.731  1.00  0.00    -0.361 OA 
HETATM   27  C   UNL     1     -12.615  11.886  71.279  1.00  0.00    -0.277 C  
ENDBRANCH   8  26
BRANCH   7  28
HETATM   28  O   UNL     1     -12.103  15.572  69.168  1.00  0.00    -0.326 OA 
HETATM   29  C   UNL     1     -11.108  16.175  69.983  1.00  0.00    -0.363 C  
ENDBRANCH   7  28
ENDBRANCH   2   3
TORSDOF 10
ENDMDL
MODEL       80
REMARK 921   NORMALIZED FREE ENERGY PREDICTED BY IDOCK:   -5.04 KCAL/MOL
REMARK 922        TOTAL FREE ENERGY PREDICTED BY IDOCK:   -8.85 KCAL/MOL
REMARK 923 INTER-LIGAND FREE ENERGY PREDICTED BY IDOCK:   -7.90 KCAL/MOL
REMARK 924 INTRA-LIGAND FREE ENERGY PREDICTED BY IDOCK:   -0.95 KCAL/MOL
REMARK 927      BINDING AFFINITY PREDICTED BY RF-SCORE:    0.00 PKD
ROOT
HETATM    1  C   UNL     1     -12.145  12.254  64.371  1.00  0.00    -0.399 C  
HETATM    2  O   UNL     1     -11.064  12.748  65.160  1.00  0.00    -0.282 OA 
ENDROOT
BRANCH   2   3
HETATM    3  C   UNL     1     -11.358  13.032  66.472  1.00  0.00    -0.320 A  
HETATM    4  C   UNL     1     -11.501  12.010  67.420  1.00  0.00    -0.406 A  
HETATM    5  C   UNL     1     -11.701  12.306  68.769  1.00  0.00    -0.390 A  
HETATM    6  C   UNL     1     -11.795  13.634  69.169  1.00  0.00    -0.394 A  
HETATM    7  C   UNL     1     -11.500  14.385  66.862  1.00  0.00    -0.366 A  
HETATM    8  C   UNL     1     -11.702  14.678  68.230  1.00  0.00    -0.328 A  
BRANCH   5   9
HETATM    9  C   UNL     1     -11.713  11.171  69.733  1.00  0.00    -0.345 C  
HETATM   10  N   UNL     1     -10.496  10.663  70.116  1.00  0.00    -0.435 N  
HETATM   11  O   UNL     1     -12.784  10.748  70.159  1.00  0.00    -0.301 OA 
HETATM   12  H   UNL     1      -9.636  11.048  69.725  1.00  0.00     0.000 HD 
BRANCH  10  13
HETATM   13  C   UNL     1     -10.437   9.583  71.074  1.00  0.00    -0.306 C  
BRANCH  13  14
HETATM   14  C   UNL     1     -10.303   8.258  70.379  1.00  0.00    -0.214 A  
HETATM   15  C   UNL     1      -9.150   7.987  69.646  1.00  0.00    -0.152 A  
HETATM   16  C   UNL     1      -9.022   6.793  68.943  1.00  0.00    -0.131 A  
HETATM   17  C   UNL     1     -10.047   5.839  68.948  1.00  0.00    -0.186 A  
HETATM   18  C   UNL     1     -11.198   6.096  69.694  1.00  0.00    -0.488 A  
HETATM   19  C   UNL     1     -11.332   7.299  70.403  1.00  0.00    -0.299 A  
BRANCH  17  20
HETATM   20  O   UNL     1     -10.013   4.650  68.251  1.00  0.00    -0.136 OA 
BRANCH  20  21
HETATM   21  C   UNL     1     -10.513   4.764  66.914  1.00  0.00    -0.080 C  
BRANCH  21  22
HETATM   22  C   UNL     1      -9.416   4.883  65.848  1.00  0.00    -0.164 C  
BRANCH  22  23
HETATM   23  N   UNL     1      -9.461   3.752  64.892  1.00  0.00    -0.157 NA 
HETATM   24  C   UNL     1     -10.738   3.669  64.178  1.00  0.00    -0.210 C  
HETATM   25  C   UNL     1      -8.364   3.842  63.930  1.00  0.00    -0.091 C  
ENDBRANCH  22  23
ENDBRANCH  21  22
ENDBRANCH  20  21
ENDBRANCH  17  20
ENDBRANCH  13  14
ENDBRANCH  10  13
ENDBRANCH   5   9
BRANCH   8  26
HETATM   26  O   UNL     1     -11.815  15.905  68.837  1.00  0.00    -0.397 OA 
HETATM   27  C   UNL     1     -10.717  16.431  69.565  1.00  0.00    -0.325 C  
ENDBRANCH   8  26
BRANCH   7  28
HETATM   28  O   UNL     1     -11.360  15.452  66.009  1.00  0.00    -0.238 OA 
HETATM   29  C   UNL     1     -10.071  16.019  65.826  1.00  0.00    -0.366 C  
ENDBRANCH   7  28
ENDBRANCH   2   3
TORSDOF 10
ENDMDL
MODEL       81
REMARK 921   NORMALIZED FREE ENERGY PREDICTED BY IDOCK:   -5.04 KCAL/MOL
REMARK 922        TOTAL FREE ENERGY PREDICTED BY IDOCK:   -8.85 KCAL/MOL
REMARK 923 INTER-LIGAND FREE ENERGY PREDICTED BY IDOCK:   -7.86 KCAL/MOL
REMARK 924 INTRA-LIGAND FREE ENERGY PREDICTED BY IDOCK:   -0.98 KCAL/MOL
REMARK 927      BINDING AFFINITY PREDICTED BY RF-SCORE:    0.00 PKD
ROOT
HETATM    1  C   UNL     1     -10.702  20.181  65.461  1.00  0.00    -0.085 C  
HETATM    2  O   UNL     1     -10.505  19.470  66.682  1.00  0.00    -0.421 OA 
ENDROOT
BRANCH   2   3
HETATM    3  C   UNL     1      -9.837  18.273  66.581  1.00  0.00    -0.352 A  
HETATM    4  C   UNL     1     -10.468  17.133  66.065  1.00  0.00    -0.271 A  
HETATM    5  C   UNL     1      -9.760  15.946  65.871  1.00  0.00    -0.386 A  
HETATM    6  C   UNL     1      -8.418  15.888  66.230  1.00  0.00    -0.302 A  
HETATM    7  C   UNL     1      -8.486  18.208  66.994  1.00  0.00    -0.245 A  
HETATM    8  C   UNL     1      -7.773  17.004  66.795  1.00  0.00    -0.239 A  
BRANCH   5   9
HETATM    9  C   UNL     1     -10.464  14.820  65.199  1.00  0.00    -0.418 C  
HETATM   10  N   UNL     1      -9.743  13.671  64.985  1.00  0.00    -0.576 N  
HETATM   11  O   UNL     1     -11.643  14.944  64.882  1.00  0.00    -0.382 OA 
HETATM   12  H   UNL     1      -8.762  13.625  65.261  1.00  0.00     0.000 HD 
BRANCH  10  13
HETATM   13  C   UNL     1     -10.376  12.529  64.366  1.00  0.00    -0.352 C  
BRANCH  13  14
HETATM   14  C   UNL     1     -10.393  11.354  65.303  1.00  0.00    -0.336 A  
HETATM   15  C   UNL     1     -11.020  11.480  66.541  1.00  0.00    -0.346 A  
HETATM   16  C   UNL     1     -11.002  10.430  67.453  1.00  0.00    -0.335 A  
HETATM   17  C   UNL     1     -10.349   9.227  67.156  1.00  0.00    -0.260 A  
HETATM   18  C   UNL     1      -9.733   9.088  65.911  1.00  0.00    -0.306 A  
HETATM   19  C   UNL     1      -9.749  10.144  64.989  1.00  0.00    -0.384 A  
BRANCH  17  20
HETATM   20  O   UNL     1     -10.255   8.154  68.017  1.00  0.00    -0.196 OA 
BRANCH  20  21
HETATM   21  C   UNL     1     -10.810   6.948  67.481  1.00  0.00    -0.292 C  
BRANCH  21  22
HETATM   22  C   UNL     1     -10.126   5.671  67.987  1.00  0.00    -0.171 C  
BRANCH  22  23
HETATM   23  N   UNL     1      -8.656   5.734  67.807  1.00  0.00    -0.103 NA 
HETATM   24  C   UNL     1      -7.944   4.774  68.656  1.00  0.00    -0.080 C  
HETATM   25  C   UNL     1      -8.294   5.516  66.408  1.00  0.00    -0.111 C  
ENDBRANCH  22  23
ENDBRANCH  21  22
ENDBRANCH  20  21
ENDBRANCH  17  20
ENDBRANCH  13  14
ENDBRANCH  10  13
ENDBRANCH   5   9
BRANCH   8  26
HETATM   26  O   UNL     1      -6.455  16.732  67.068  1.00  0.00    -0.160 OA 
HETATM   27  C   UNL     1      -6.119  15.594  67.846  1.00  0.00    -0.147 C  
ENDBRANCH   8  26
BRANCH   7  28
HETATM   28  O   UNL     1      -7.780  19.276  67.494  1.00  0.00    -0.244 OA 
HETATM   29  C   UNL     1      -7.594  19.379  68.898  1.00  0.00    -0.363 C  
ENDBRANCH   7  28
ENDBRANCH   2   3
TORSDOF 10
ENDMDL
MODEL       82
REMARK 921   NORMALIZED FREE ENERGY PREDICTED BY IDOCK:   -5.04 KCAL/MOL
REMARK 922        TOTAL FREE ENERGY PREDICTED BY IDOCK:   -8.84 KCAL/MOL
REMARK 923 INTER-LIGAND FREE ENERGY PREDICTED BY IDOCK:   -8.30 KCAL/MOL
REMARK 924 INTRA-LIGAND FREE ENERGY PREDICTED BY IDOCK:   -0.55 KCAL/MOL
REMARK 927      BINDING AFFINITY PREDICTED BY RF-SCORE:    0.00 PKD
ROOT
HETATM    1  C   UNL     1     -14.367  13.753  72.183  1.00  0.00    -0.373 C  
HETATM    2  O   UNL     1     -12.988  13.442  71.988  1.00  0.00    -0.339 OA 
ENDROOT
BRANCH   2   3
HETATM    3  C   UNL     1     -12.466  13.768  70.760  1.00  0.00    -0.370 A  
HETATM    4  C   UNL     1     -12.153  12.777  69.820  1.00  0.00    -0.305 A  
HETATM    5  C   UNL     1     -11.716  13.115  68.538  1.00  0.00    -0.387 A  
HETATM    6  C   UNL     1     -11.556  14.455  68.204  1.00  0.00    -0.360 A  
HETATM    7  C   UNL     1     -12.260  15.132  70.445  1.00  0.00    -0.344 A  
HETATM    8  C   UNL     1     -11.818  15.469  69.145  1.00  0.00    -0.354 A  
BRANCH   5   9
HETATM    9  C   UNL     1     -11.528  12.012  67.556  1.00  0.00    -0.333 C  
HETATM   10  N   UNL     1     -10.629  11.028  67.886  1.00  0.00    -0.193 N  
HETATM   11  O   UNL     1     -12.180  12.007  66.516  1.00  0.00    -0.548 OA 
HETATM   12  H   UNL     1     -10.107  11.085  68.761  1.00  0.00     0.000 HD 
BRANCH  10  13
HETATM   13  C   UNL     1     -10.423   9.912  66.991  1.00  0.00    -0.230 C  
BRANCH  13  14
HETATM   14  C   UNL     1     -10.386   8.617  67.752  1.00  0.00    -0.303 A  
HETATM   15  C   UNL     1     -10.435   7.414  67.050  1.00  0.00    -0.404 A  
HETATM   16  C   UNL     1     -10.460   6.200  67.728  1.00  0.00    -0.290 A  
HETATM   17  C   UNL     1     -10.446   6.154  69.128  1.00  0.00    -0.251 A  
HETATM   18  C   UNL     1     -10.380   7.354  69.837  1.00  0.00    -0.222 A  
HETATM   19  C   UNL     1     -10.355   8.581  69.157  1.00  0.00    -0.227 A  
BRANCH  17  20
HETATM   20  O   UNL     1     -10.505   4.996  69.874  1.00  0.00    -0.280 OA 
BRANCH  20  21
HETATM   21  C   UNL     1     -10.669   5.234  71.276  1.00  0.00    -0.128 C  
BRANCH  21  22
HETATM   22  C   UNL     1      -9.943   4.219  72.168  1.00  0.00    -0.179 C  
BRANCH  22  23
HETATM   23  N   UNL     1      -9.191   4.889  73.255  1.00  0.00    -0.118 NA 
HETATM   24  C   UNL     1      -8.428   6.047  72.781  1.00  0.00    -0.121 C  
HETATM   25  C   UNL     1     -10.091   5.301  74.331  1.00  0.00    -0.251 C  
ENDBRANCH  22  23
ENDBRANCH  21  22
ENDBRANCH  20  21
ENDBRANCH  17  20
ENDBRANCH  13  14
ENDBRANCH  10  13
ENDBRANCH   5   9
BRANCH   8  26
HETATM   26  O   UNL     1     -11.602  16.714  68.608  1.00  0.00    -0.190 OA 
HETATM   27  C   UNL     1     -10.307  17.290  68.668  1.00  0.00    -0.357 C  
ENDBRANCH   8  26
BRANCH   7  28
HETATM   28  O   UNL     1     -12.554  16.172  71.293  1.00  0.00    -0.328 OA 
HETATM   29  C   UNL     1     -11.834  16.290  72.511  1.00  0.00    -0.510 C  
ENDBRANCH   7  28
ENDBRANCH   2   3
TORSDOF 10
ENDMDL
MODEL       83
REMARK 921   NORMALIZED FREE ENERGY PREDICTED BY IDOCK:   -5.03 KCAL/MOL
REMARK 922        TOTAL FREE ENERGY PREDICTED BY IDOCK:   -8.83 KCAL/MOL
REMARK 923 INTER-LIGAND FREE ENERGY PREDICTED BY IDOCK:   -7.59 KCAL/MOL
REMARK 924 INTRA-LIGAND FREE ENERGY PREDICTED BY IDOCK:   -1.24 KCAL/MOL
REMARK 927      BINDING AFFINITY PREDICTED BY RF-SCORE:    0.00 PKD
ROOT
HETATM    1  C   UNL     1     -12.703  11.850  63.415  1.00  0.00    -0.366 C  
HETATM    2  O   UNL     1     -11.284  11.982  63.353  1.00  0.00    -0.413 OA 
ENDROOT
BRANCH   2   3
HETATM    3  C   UNL     1     -10.612  11.813  64.540  1.00  0.00    -0.313 A  
HETATM    4  C   UNL     1     -10.193  10.544  64.960  1.00  0.00    -0.365 A  
HETATM    5  C   UNL     1      -9.425  10.387  66.115  1.00  0.00    -0.227 A  
HETATM    6  C   UNL     1      -9.104  11.505  66.877  1.00  0.00    -0.181 A  
HETATM    7  C   UNL     1     -10.331  12.950  65.334  1.00  0.00    -0.296 A  
HETATM    8  C   UNL     1      -9.553  12.785  66.503  1.00  0.00    -0.257 A  
BRANCH   5   9
HETATM    9  C   UNL     1      -8.909   9.025  66.425  1.00  0.00    -0.146 C  
HETATM   10  N   UNL     1      -9.747   7.967  66.171  1.00  0.00    -0.444 N  
HETATM   11  O   UNL     1      -7.773   8.893  66.869  1.00  0.00    -0.096 OA 
HETATM   12  H   UNL     1     -10.685   8.134  65.808  1.00  0.00     0.000 HD 
BRANCH  10  13
HETATM   13  C   UNL     1      -9.295   6.616  66.419  1.00  0.00    -0.139 C  
BRANCH  13  14
HETATM   14  C   UNL     1      -9.559   6.217  67.842  1.00  0.00    -0.118 A  
HETATM   15  C   UNL     1     -10.873   6.184  68.308  1.00  0.00    -0.387 A  
HETATM   16  C   UNL     1     -11.146   5.874  69.636  1.00  0.00    -0.414 A  
HETATM   17  C   UNL     1     -10.112   5.596  70.539  1.00  0.00    -0.217 A  
HETATM   18  C   UNL     1      -8.796   5.610  70.077  1.00  0.00    -0.136 A  
HETATM   19  C   UNL     1      -8.516   5.922  68.738  1.00  0.00    -0.111 A  
BRANCH  17  20
HETATM   20  O   UNL     1     -10.297   5.316  71.876  1.00  0.00    -0.203 OA 
BRANCH  20  21
HETATM   21  C   UNL     1     -11.346   6.085  72.476  1.00  0.00    -0.300 C  
BRANCH  21  22
HETATM   22  C   UNL     1     -10.883   7.437  73.033  1.00  0.00    -0.375 C  
BRANCH  22  23
HETATM   23  N   UNL     1     -11.603   8.564  72.392  1.00  0.00    -0.373 NA 
HETATM   24  C   UNL     1     -10.797   9.237  71.369  1.00  0.00    -0.364 C  
HETATM   25  C   UNL     1     -12.862   8.110  71.806  1.00  0.00    -0.333 C  
ENDBRANCH  22  23
ENDBRANCH  21  22
ENDBRANCH  20  21
ENDBRANCH  17  20
ENDBRANCH  13  14
ENDBRANCH  10  13
ENDBRANCH   5   9
BRANCH   8  26
HETATM   26  O   UNL     1      -9.120  13.742  67.386  1.00  0.00    -0.201 OA 
HETATM   27  C   UNL     1      -9.932  14.094  68.495  1.00  0.00    -0.235 C  
ENDBRANCH   8  26
BRANCH   7  28
HETATM   28  O   UNL     1     -10.685  14.233  64.996  1.00  0.00    -0.369 OA 
HETATM   29  C   UNL     1     -11.955  14.725  65.400  1.00  0.00    -0.209 C  
ENDBRANCH   7  28
ENDBRANCH   2   3
TORSDOF 10
ENDMDL
MODEL       84
REMARK 921   NORMALIZED FREE ENERGY PREDICTED BY IDOCK:   -5.02 KCAL/MOL
REMARK 922        TOTAL FREE ENERGY PREDICTED BY IDOCK:   -8.83 KCAL/MOL
REMARK 923 INTER-LIGAND FREE ENERGY PREDICTED BY IDOCK:   -7.63 KCAL/MOL
REMARK 924 INTRA-LIGAND FREE ENERGY PREDICTED BY IDOCK:   -1.20 KCAL/MOL
REMARK 927      BINDING AFFINITY PREDICTED BY RF-SCORE:    0.00 PKD
ROOT
HETATM    1  C   UNL     1     -11.659  14.606  68.585  1.00  0.00    -0.314 C  
HETATM    2  O   UNL     1     -12.345  13.679  67.746  1.00  0.00    -0.246 OA 
ENDROOT
BRANCH   2   3
HETATM    3  C   UNL     1     -11.553  12.812  67.032  1.00  0.00    -0.360 A  
HETATM    4  C   UNL     1     -10.548  12.065  67.662  1.00  0.00    -0.239 A  
HETATM    5  C   UNL     1      -9.811  11.113  66.954  1.00  0.00    -0.223 A  
HETATM    6  C   UNL     1     -10.056  10.933  65.598  1.00  0.00    -0.318 A  
HETATM    7  C   UNL     1     -11.775  12.670  65.643  1.00  0.00    -0.412 A  
HETATM    8  C   UNL     1     -11.026  11.704  64.931  1.00  0.00    -0.284 A  
BRANCH   5   9
HETATM    9  C   UNL     1      -8.853  10.270  67.719  1.00  0.00    -0.125 C  
HETATM   10  N   UNL     1      -8.635  10.605  69.033  1.00  0.00    -0.183 N  
HETATM   11  O   UNL     1      -8.314   9.313  67.171  1.00  0.00    -0.122 OA 
HETATM   12  H   UNL     1      -9.104  11.416  69.438  1.00  0.00     0.000 HD 
BRANCH  10  13
HETATM   13  C   UNL     1      -7.742   9.807  69.842  1.00  0.00    -0.157 C  
BRANCH  13  14
HETATM   14  C   UNL     1      -8.484   9.152  70.971  1.00  0.00    -0.221 A  
HETATM   15  C   UNL     1      -7.766   8.478  71.958  1.00  0.00    -0.141 A  
HETATM   16  C   UNL     1      -8.427   7.813  72.985  1.00  0.00    -0.207 A  
HETATM   17  C   UNL     1      -9.826   7.794  73.050  1.00  0.00    -0.282 A  
HETATM   18  C   UNL     1     -10.552   8.480  72.075  1.00  0.00    -0.408 A  
HETATM   19  C   UNL     1      -9.888   9.152  71.037  1.00  0.00    -0.366 A  
BRANCH  17  20
HETATM   20  O   UNL     1     -10.555   7.129  74.012  1.00  0.00    -0.317 OA 
BRANCH  20  21
HETATM   21  C   UNL     1     -10.354   5.711  73.995  1.00  0.00    -0.279 C  
BRANCH  21  22
HETATM   22  C   UNL     1     -11.197   4.977  72.945  1.00  0.00    -0.271 C  
BRANCH  22  23
HETATM   23  N   UNL     1     -10.346   4.342  71.911  1.00  0.00    -0.144 NA 
HETATM   24  C   UNL     1     -10.263   5.139  70.683  1.00  0.00    -0.256 C  
HETATM   25  C   UNL     1      -9.001   4.094  72.426  1.00  0.00    -0.111 C  
ENDBRANCH  22  23
ENDBRANCH  21  22
ENDBRANCH  20  21
ENDBRANCH  17  20
ENDBRANCH  13  14
ENDBRANCH  10  13
ENDBRANCH   5   9
BRANCH   8  26
HETATM   26  O   UNL     1     -11.109  11.362  63.604  1.00  0.00    -0.399 OA 
HETATM   27  C   UNL     1      -9.922  11.115  62.867  1.00  0.00    -0.245 C  
ENDBRANCH   8  26
BRANCH   7  28
HETATM   28  O   UNL     1     -12.747  13.344  64.944  1.00  0.00    -0.633 OA 
HETATM   29  C   UNL     1     -12.397  14.540  64.262  1.00  0.00    -0.369 C  
ENDBRANCH   7  28
ENDBRANCH   2   3
TORSDOF 10
ENDMDL
MODEL       85
REMARK 921   NORMALIZED FREE ENERGY PREDICTED BY IDOCK:   -5.02 KCAL/MOL
REMARK 922        TOTAL FREE ENERGY PREDICTED BY IDOCK:   -8.82 KCAL/MOL
REMARK 923 INTER-LIGAND FREE ENERGY PREDICTED BY IDOCK:   -7.94 KCAL/MOL
REMARK 924 INTRA-LIGAND FREE ENERGY PREDICTED BY IDOCK:   -0.88 KCAL/MOL
REMARK 927      BINDING AFFINITY PREDICTED BY RF-SCORE:    0.00 PKD
ROOT
HETATM    1  C   UNL     1     -12.156  14.052  64.081  1.00  0.00    -0.422 C  
HETATM    2  O   UNL     1     -11.553  15.106  64.832  1.00  0.00    -0.376 OA 
ENDROOT
BRANCH   2   3
HETATM    3  C   UNL     1     -11.254  14.816  66.141  1.00  0.00    -0.337 A  
HETATM    4  C   UNL     1     -11.724  13.644  66.749  1.00  0.00    -0.426 A  
HETATM    5  C   UNL     1     -11.338  13.304  68.047  1.00  0.00    -0.325 A  
HETATM    6  C   UNL     1     -10.504  14.161  68.756  1.00  0.00    -0.249 A  
HETATM    7  C   UNL     1     -10.445  15.717  66.872  1.00  0.00    -0.315 A  
HETATM    8  C   UNL     1     -10.057  15.367  68.186  1.00  0.00    -0.222 A  
BRANCH   5   9
HETATM    9  C   UNL     1     -11.773  11.983  68.576  1.00  0.00    -0.332 C  
HETATM   10  N   UNL     1     -11.828  11.844  69.941  1.00  0.00    -0.351 N  
HETATM   11  O   UNL     1     -12.079  11.087  67.795  1.00  0.00    -0.534 OA 
HETATM   12  H   UNL     1     -11.555  12.619  70.545  1.00  0.00     0.000 HD 
BRANCH  10  13
HETATM   13  C   UNL     1     -12.274  10.596  70.520  1.00  0.00    -0.358 C  
BRANCH  13  14
HETATM   14  C   UNL     1     -11.106   9.770  70.974  1.00  0.00    -0.431 A  
HETATM   15  C   UNL     1      -9.914   9.821  70.253  1.00  0.00    -0.309 A  
HETATM   16  C   UNL     1      -8.833   9.023  70.615  1.00  0.00    -0.259 A  
HETATM   17  C   UNL     1      -8.916   8.146  71.703  1.00  0.00    -0.163 A  
HETATM   18  C   UNL     1     -10.100   8.101  72.441  1.00  0.00    -0.355 A  
HETATM   19  C   UNL     1     -11.192   8.903  72.079  1.00  0.00    -0.422 A  
BRANCH  17  20
HETATM   20  O   UNL     1      -7.904   7.298  72.103  1.00  0.00    -0.088 OA 
BRANCH  20  21
HETATM   21  C   UNL     1      -8.329   5.938  72.245  1.00  0.00    -0.118 C  
BRANCH  21  22
HETATM   22  C   UNL     1      -8.381   5.163  70.922  1.00  0.00    -0.114 C  
BRANCH  22  23
HETATM   23  N   UNL     1      -9.633   4.379  70.800  1.00  0.00    -0.173 NA 
HETATM   24  C   UNL     1      -9.396   3.007  70.343  1.00  0.00    -0.156 C  
HETATM   25  C   UNL     1     -10.357   4.355  72.070  1.00  0.00    -0.119 C  
ENDBRANCH  22  23
ENDBRANCH  21  22
ENDBRANCH  20  21
ENDBRANCH  17  20
ENDBRANCH  13  14
ENDBRANCH  10  13
ENDBRANCH   5   9
BRANCH   8  26
HETATM   26  O   UNL     1      -9.242  16.055  69.051  1.00  0.00    -0.218 OA 
HETATM   27  C   UNL     1      -7.852  15.775  69.080  1.00  0.00    -0.206 C  
ENDBRANCH   8  26
BRANCH   7  28
HETATM   28  O   UNL     1      -9.923  16.879  66.356  1.00  0.00    -0.281 OA 
HETATM   29  C   UNL     1     -10.611  18.100  66.583  1.00  0.00    -0.278 C  
ENDBRANCH   7  28
ENDBRANCH   2   3
TORSDOF 10
ENDMDL
MODEL       86
REMARK 921   NORMALIZED FREE ENERGY PREDICTED BY IDOCK:   -5.02 KCAL/MOL
REMARK 922        TOTAL FREE ENERGY PREDICTED BY IDOCK:   -8.81 KCAL/MOL
REMARK 923 INTER-LIGAND FREE ENERGY PREDICTED BY IDOCK:   -7.97 KCAL/MOL
REMARK 924 INTRA-LIGAND FREE ENERGY PREDICTED BY IDOCK:   -0.84 KCAL/MOL
REMARK 927      BINDING AFFINITY PREDICTED BY RF-SCORE:    0.00 PKD
ROOT
HETATM    1  C   UNL     1     -12.160  15.469  70.565  1.00  0.00    -0.386 C  
HETATM    2  O   UNL     1     -12.071  16.130  69.304  1.00  0.00    -0.225 OA 
ENDROOT
BRANCH   2   3
HETATM    3  C   UNL     1     -11.016  15.761  68.505  1.00  0.00    -0.312 A  
HETATM    4  C   UNL     1     -10.576  14.432  68.454  1.00  0.00    -0.248 A  
HETATM    5  C   UNL     1      -9.569  14.042  67.569  1.00  0.00    -0.228 A  
HETATM    6  C   UNL     1      -8.973  14.996  66.753  1.00  0.00    -0.293 A  
HETATM    7  C   UNL     1     -10.382  16.747  67.713  1.00  0.00    -0.318 A  
HETATM    8  C   UNL     1      -9.364  16.346  66.818  1.00  0.00    -0.245 A  
BRANCH   5   9
HETATM    9  C   UNL     1      -9.247  12.591  67.482  1.00  0.00    -0.188 C  
HETATM   10  N   UNL     1      -9.382  11.851  68.630  1.00  0.00    -0.369 N  
HETATM   11  O   UNL     1      -8.896  12.111  66.408  1.00  0.00    -0.184 OA 
HETATM   12  H   UNL     1      -9.669  12.302  69.499  1.00  0.00     0.000 HD 
BRANCH  10  13
HETATM   13  C   UNL     1      -9.116  10.430  68.606  1.00  0.00    -0.157 C  
BRANCH  13  14
HETATM   14  C   UNL     1      -9.592   9.775  69.871  1.00  0.00    -0.269 A  
HETATM   15  C   UNL     1      -8.686   9.058  70.650  1.00  0.00    -0.251 A  
HETATM   16  C   UNL     1      -9.109   8.392  71.795  1.00  0.00    -0.283 A  
HETATM   17  C   UNL     1     -10.451   8.418  72.191  1.00  0.00    -0.326 A  
HETATM   18  C   UNL     1     -11.362   9.148  71.426  1.00  0.00    -0.414 A  
HETATM   19  C   UNL     1     -10.940   9.820  70.270  1.00  0.00    -0.352 A  
BRANCH  17  20
HETATM   20  O   UNL     1     -10.956   7.756  73.291  1.00  0.00    -0.382 OA 
BRANCH  20  21
HETATM   21  C   UNL     1     -10.968   6.333  73.138  1.00  0.00    -0.223 C  
BRANCH  21  22
HETATM   22  C   UNL     1     -10.084   5.592  74.149  1.00  0.00    -0.242 C  
BRANCH  22  23
HETATM   23  N   UNL     1      -9.622   4.288  73.616  1.00  0.00    -0.111 NA 
HETATM   24  C   UNL     1     -10.724   3.344  73.406  1.00  0.00    -0.207 C  
HETATM   25  C   UNL     1      -8.886   4.470  72.367  1.00  0.00    -0.117 C  
ENDBRANCH  22  23
ENDBRANCH  21  22
ENDBRANCH  20  21
ENDBRANCH  17  20
ENDBRANCH  13  14
ENDBRANCH  10  13
ENDBRANCH   5   9
BRANCH   8  26
HETATM   26  O   UNL     1      -8.655  17.113  65.926  1.00  0.00    -0.522 OA 
HETATM   27  C   UNL     1      -7.282  17.379  66.165  1.00  0.00    -0.292 C  
ENDBRANCH   8  26
BRANCH   7  28
HETATM   28  O   UNL     1     -10.755  18.069  67.682  1.00  0.00    -0.415 OA 
HETATM   29  C   UNL     1      -9.991  19.016  68.414  1.00  0.00    -0.408 C  
ENDBRANCH   7  28
ENDBRANCH   2   3
TORSDOF 10
ENDMDL
MODEL       87
REMARK 921   NORMALIZED FREE ENERGY PREDICTED BY IDOCK:   -5.01 KCAL/MOL
REMARK 922        TOTAL FREE ENERGY PREDICTED BY IDOCK:   -8.80 KCAL/MOL
REMARK 923 INTER-LIGAND FREE ENERGY PREDICTED BY IDOCK:   -7.95 KCAL/MOL
REMARK 924 INTRA-LIGAND FREE ENERGY PREDICTED BY IDOCK:   -0.85 KCAL/MOL
REMARK 927      BINDING AFFINITY PREDICTED BY RF-SCORE:    0.00 PKD
ROOT
HETATM    1  C   UNL     1     -10.565   7.391  73.329  1.00  0.00    -0.392 C  
HETATM    2  O   UNL     1     -11.260   6.250  72.829  1.00  0.00    -0.257 OA 
ENDROOT
BRANCH   2   3
HETATM    3  C   UNL     1     -10.847   5.782  71.605  1.00  0.00    -0.255 A  
HETATM    4  C   UNL     1     -11.114   6.497  70.429  1.00  0.00    -0.389 A  
HETATM    5  C   UNL     1     -10.609   6.071  69.200  1.00  0.00    -0.362 A  
HETATM    6  C   UNL     1      -9.860   4.901  69.140  1.00  0.00    -0.263 A  
HETATM    7  C   UNL     1     -10.127   4.566  71.546  1.00  0.00    -0.169 A  
HETATM    8  C   UNL     1      -9.618   4.140  70.298  1.00  0.00    -0.199 A  
BRANCH   5   9
HETATM    9  C   UNL     1     -10.826   6.950  68.019  1.00  0.00    -0.200 C  
HETATM   10  N   UNL     1     -10.713   8.305  68.219  1.00  0.00    -0.428 N  
HETATM   11  O   UNL     1     -11.074   6.450  66.927  1.00  0.00    -0.384 OA 
HETATM   12  H   UNL     1     -10.512   8.668  69.151  1.00  0.00     0.000 HD 
BRANCH  10  13
HETATM   13  C   UNL     1     -10.879   9.213  67.107  1.00  0.00    -0.024 C  
BRANCH  13  14
HETATM   14  C   UNL     1     -11.236  10.590  67.590  1.00  0.00    -0.338 A  
HETATM   15  C   UNL     1     -11.277  11.642  66.677  1.00  0.00    -0.362 A  
HETATM   16  C   UNL     1     -11.547  12.938  67.103  1.00  0.00    -0.421 A  
HETATM   17  C   UNL     1     -11.775  13.221  68.455  1.00  0.00    -0.354 A  
HETATM   18  C   UNL     1     -11.752  12.170  69.373  1.00  0.00    -0.391 A  
HETATM   19  C   UNL     1     -11.479  10.862  68.948  1.00  0.00    -0.369 A  
BRANCH  17  20
HETATM   20  O   UNL     1     -12.013  14.481  68.961  1.00  0.00    -0.315 OA 
BRANCH  20  21
HETATM   21  C   UNL     1     -11.388  15.523  68.203  1.00  0.00    -0.345 C  
BRANCH  21  22
HETATM   22  C   UNL     1     -10.817  16.659  69.061  1.00  0.00    -0.314 C  
BRANCH  22  23
HETATM   23  N   UNL     1      -9.893  17.517  68.282  1.00  0.00    -0.301 NA 
HETATM   24  C   UNL     1     -10.171  17.483  66.843  1.00  0.00    -0.329 C  
HETATM   25  C   UNL     1      -9.942  18.898  68.759  1.00  0.00    -0.408 C  
ENDBRANCH  22  23
ENDBRANCH  21  22
ENDBRANCH  20  21
ENDBRANCH  17  20
ENDBRANCH  13  14
ENDBRANCH  10  13
ENDBRANCH   5   9
BRANCH   8  26
HETATM   26  O   UNL     1      -8.856   3.032  70.016  1.00  0.00    -0.072 OA 
HETATM   27  C   UNL     1      -9.491   1.820  69.643  1.00  0.00    -0.046 C  
ENDBRANCH   8  26
BRANCH   7  28
HETATM   28  O   UNL     1      -9.803   3.808  72.645  1.00  0.00    -0.137 OA 
HETATM   29  C   UNL     1     -10.704   2.797  73.072  1.00  0.00    -0.131 C  
ENDBRANCH   7  28
ENDBRANCH   2   3
TORSDOF 10
ENDMDL
MODEL       88
REMARK 921   NORMALIZED FREE ENERGY PREDICTED BY IDOCK:   -5.01 KCAL/MOL
REMARK 922        TOTAL FREE ENERGY PREDICTED BY IDOCK:   -8.80 KCAL/MOL
REMARK 923 INTER-LIGAND FREE ENERGY PREDICTED BY IDOCK:   -7.80 KCAL/MOL
REMARK 924 INTRA-LIGAND FREE ENERGY PREDICTED BY IDOCK:   -1.00 KCAL/MOL
REMARK 927      BINDING AFFINITY PREDICTED BY RF-SCORE:    0.00 PKD
ROOT
HETATM    1  C   UNL     1     -10.190  10.734  66.027  1.00  0.00    -0.251 C  
HETATM    2  O   UNL     1     -11.059  11.858  65.890  1.00  0.00    -0.302 OA 
ENDROOT
BRANCH   2   3
HETATM    3  C   UNL     1     -11.431  12.477  67.059  1.00  0.00    -0.356 A  
HETATM    4  C   UNL     1     -11.864  11.734  68.166  1.00  0.00    -0.324 A  
HETATM    5  C   UNL     1     -12.147  12.357  69.382  1.00  0.00    -0.237 A  
HETATM    6  C   UNL     1     -12.030  13.739  69.483  1.00  0.00    -0.399 A  
HETATM    7  C   UNL     1     -11.356  13.887  67.138  1.00  0.00    -0.327 A  
HETATM    8  C   UNL     1     -11.643  14.513  68.373  1.00  0.00    -0.326 A  
BRANCH   5   9
HETATM    9  C   UNL     1     -12.476  11.489  70.546  1.00  0.00    -0.280 C  
HETATM   10  N   UNL     1     -12.348  10.133  70.370  1.00  0.00    -0.456 N  
HETATM   11  O   UNL     1     -12.824  12.000  71.605  1.00  0.00    -0.363 OA 
HETATM   12  H   UNL     1     -12.062   9.760  69.464  1.00  0.00     0.000 HD 
BRANCH  10  13
HETATM   13  C   UNL     1     -12.620   9.236  71.470  1.00  0.00    -0.352 C  
BRANCH  13  14
HETATM   14  C   UNL     1     -11.351   8.610  71.976  1.00  0.00    -0.432 A  
HETATM   15  C   UNL     1     -10.128   9.048  71.471  1.00  0.00    -0.409 A  
HETATM   16  C   UNL     1      -8.940   8.449  71.878  1.00  0.00    -0.280 A  
HETATM   17  C   UNL     1      -8.942   7.390  72.793  1.00  0.00    -0.140 A  
HETATM   18  C   UNL     1     -10.162   6.957  73.316  1.00  0.00    -0.286 A  
HETATM   19  C   UNL     1     -11.362   7.558  72.908  1.00  0.00    -0.355 A  
BRANCH  17  20
HETATM   20  O   UNL     1      -7.814   6.721  73.218  1.00  0.00    -0.096 OA 
BRANCH  20  21
HETATM   21  C   UNL     1      -7.780   5.350  72.806  1.00  0.00    -0.098 C  
BRANCH  21  22
HETATM   22  C   UNL     1      -7.311   5.147  71.360  1.00  0.00    -0.085 C  
BRANCH  22  23
HETATM   23  N   UNL     1      -7.925   3.942  70.753  1.00  0.00    -0.054 NA 
HETATM   24  C   UNL     1      -9.380   3.905  70.924  1.00  0.00    -0.152 C  
HETATM   25  C   UNL     1      -7.595   3.852  69.332  1.00  0.00    -0.053 C  
ENDBRANCH  22  23
ENDBRANCH  21  22
ENDBRANCH  20  21
ENDBRANCH  17  20
ENDBRANCH  13  14
ENDBRANCH  10  13
ENDBRANCH   5   9
BRANCH   8  26
HETATM   26  O   UNL     1     -11.586  15.847  68.692  1.00  0.00    -0.382 OA 
HETATM   27  C   UNL     1     -11.036  16.249  69.937  1.00  0.00    -0.365 C  
ENDBRANCH   8  26
BRANCH   7  28
HETATM   28  O   UNL     1     -10.927  14.696  66.114  1.00  0.00    -0.317 OA 
HETATM   29  C   UNL     1      -9.538  14.968  65.990  1.00  0.00    -0.325 C  
ENDBRANCH   7  28
ENDBRANCH   2   3
TORSDOF 10
ENDMDL
MODEL       89
REMARK 921   NORMALIZED FREE ENERGY PREDICTED BY IDOCK:   -5.00 KCAL/MOL
REMARK 922        TOTAL FREE ENERGY PREDICTED BY IDOCK:   -8.80 KCAL/MOL
REMARK 923 INTER-LIGAND FREE ENERGY PREDICTED BY IDOCK:   -7.92 KCAL/MOL
REMARK 924 INTRA-LIGAND FREE ENERGY PREDICTED BY IDOCK:   -0.88 KCAL/MOL
REMARK 927      BINDING AFFINITY PREDICTED BY RF-SCORE:    0.00 PKD
ROOT
HETATM    1  C   UNL     1     -13.816   7.661  71.527  1.00  0.00    -0.375 C  
HETATM    2  O   UNL     1     -12.953   6.667  72.078  1.00  0.00    -0.267 OA 
ENDROOT
BRANCH   2   3
HETATM    3  C   UNL     1     -11.826   6.378  71.348  1.00  0.00    -0.281 A  
HETATM    4  C   UNL     1     -11.740   6.707  69.988  1.00  0.00    -0.378 A  
HETATM    5  C   UNL     1     -10.558   6.502  69.273  1.00  0.00    -0.292 A  
HETATM    6  C   UNL     1      -9.465   5.930  69.914  1.00  0.00    -0.180 A  
HETATM    7  C   UNL     1     -10.735   5.752  71.995  1.00  0.00    -0.233 A  
HETATM    8  C   UNL     1      -9.541   5.547  71.266  1.00  0.00    -0.155 A  
BRANCH   5   9
HETATM    9  C   UNL     1     -10.503   6.995  67.870  1.00  0.00    -0.214 C  
HETATM   10  N   UNL     1      -9.668   8.055  67.613  1.00  0.00    -0.151 N  
HETATM   11  O   UNL     1     -11.173   6.441  67.004  1.00  0.00    -0.373 OA 
HETATM   12  H   UNL     1      -9.138   8.484  68.372  1.00  0.00     0.000 HD 
BRANCH  10  13
HETATM   13  C   UNL     1      -9.542   8.562  66.265  1.00  0.00    -0.236 C  
BRANCH  13  14
HETATM   14  C   UNL     1     -10.159   9.926  66.146  1.00  0.00    -0.315 A  
HETATM   15  C   UNL     1     -10.730  10.516  67.273  1.00  0.00    -0.333 A  
HETATM   16  C   UNL     1     -11.359  11.753  67.183  1.00  0.00    -0.387 A  
HETATM   17  C   UNL     1     -11.444  12.432  65.961  1.00  0.00    -0.382 A  
HETATM   18  C   UNL     1     -10.861  11.856  64.832  1.00  0.00    -0.356 A  
HETATM   19  C   UNL     1     -10.225  10.609  64.919  1.00  0.00    -0.395 A  
BRANCH  17  20
HETATM   20  O   UNL     1     -12.081  13.642  65.781  1.00  0.00    -0.377 OA 
BRANCH  20  21
HETATM   21  C   UNL     1     -12.152  14.426  66.977  1.00  0.00    -0.342 C  
BRANCH  21  22
HETATM   22  C   UNL     1     -11.001  15.428  67.131  1.00  0.00    -0.317 C  
BRANCH  22  23
HETATM   23  N   UNL     1     -11.071  16.141  68.429  1.00  0.00    -0.346 NA 
HETATM   24  C   UNL     1     -11.120  15.226  69.572  1.00  0.00    -0.281 C  
HETATM   25  C   UNL     1      -9.940  17.056  68.580  1.00  0.00    -0.294 C  
ENDBRANCH  22  23
ENDBRANCH  21  22
ENDBRANCH  20  21
ENDBRANCH  17  20
ENDBRANCH  13  14
ENDBRANCH  10  13
ENDBRANCH   5   9
BRANCH   8  26
HETATM   26  O   UNL     1      -8.353   5.012  71.699  1.00  0.00    -0.112 OA 
HETATM   27  C   UNL     1      -7.130   5.484  71.156  1.00  0.00    -0.067 C  
ENDBRANCH   8  26
BRANCH   7  28
HETATM   28  O   UNL     1     -10.720   5.410  73.325  1.00  0.00    -0.231 OA 
HETATM   29  C   UNL     1     -11.135   4.106  73.704  1.00  0.00    -0.251 C  
ENDBRANCH   7  28
ENDBRANCH   2   3
TORSDOF 10
ENDMDL
MODEL       90
REMARK 921   NORMALIZED FREE ENERGY PREDICTED BY IDOCK:   -5.00 KCAL/MOL
REMARK 922        TOTAL FREE ENERGY PREDICTED BY IDOCK:   -8.79 KCAL/MOL
REMARK 923 INTER-LIGAND FREE ENERGY PREDICTED BY IDOCK:   -7.65 KCAL/MOL
REMARK 924 INTRA-LIGAND FREE ENERGY PREDICTED BY IDOCK:   -1.14 KCAL/MOL
REMARK 927      BINDING AFFINITY PREDICTED BY RF-SCORE:    0.00 PKD
ROOT
HETATM    1  C   UNL     1     -10.169  16.913  69.043  1.00  0.00    -0.308 C  
HETATM    2  O   UNL     1     -11.495  16.414  68.878  1.00  0.00    -0.311 OA 
ENDROOT
BRANCH   2   3
HETATM    3  C   UNL     1     -11.690  15.097  69.217  1.00  0.00    -0.329 A  
HETATM    4  C   UNL     1     -11.203  14.061  68.408  1.00  0.00    -0.292 A  
HETATM    5  C   UNL     1     -11.315  12.727  68.805  1.00  0.00    -0.332 A  
HETATM    6  C   UNL     1     -11.951  12.424  70.004  1.00  0.00    -0.372 A  
HETATM    7  C   UNL     1     -12.380  14.795  70.415  1.00  0.00    -0.344 A  
HETATM    8  C   UNL     1     -12.490  13.442  70.812  1.00  0.00    -0.341 A  
BRANCH   5   9
HETATM    9  C   UNL     1     -10.661  11.694  67.956  1.00  0.00    -0.202 C  
HETATM   10  N   UNL     1     -11.295  10.481  67.848  1.00  0.00    -0.416 N  
HETATM   11  O   UNL     1      -9.611  11.958  67.379  1.00  0.00    -0.172 OA 
HETATM   12  H   UNL     1     -12.164  10.311  68.356  1.00  0.00     0.000 HD 
BRANCH  10  13
HETATM   13  C   UNL     1     -10.730   9.445  67.013  1.00  0.00    -0.137 C  
BRANCH  13  14
HETATM   14  C   UNL     1     -10.640   8.145  67.761  1.00  0.00    -0.233 A  
HETATM   15  C   UNL     1     -10.534   8.165  69.150  1.00  0.00    -0.217 A  
HETATM   16  C   UNL     1     -10.391   6.981  69.866  1.00  0.00    -0.225 A  
HETATM   17  C   UNL     1     -10.340   5.744  69.212  1.00  0.00    -0.257 A  
HETATM   18  C   UNL     1     -10.462   5.714  67.822  1.00  0.00    -0.275 A  
HETATM   19  C   UNL     1     -10.606   6.906  67.097  1.00  0.00    -0.408 A  
BRANCH  17  20
HETATM   20  O   UNL     1     -10.165   4.531  69.844  1.00  0.00    -0.208 OA 
BRANCH  20  21
HETATM   21  C   UNL     1      -9.766   4.660  71.213  1.00  0.00    -0.182 C  
BRANCH  21  22
HETATM   22  C   UNL     1      -8.357   4.125  71.503  1.00  0.00    -0.090 C  
BRANCH  22  23
HETATM   23  N   UNL     1      -7.409   5.225  71.801  1.00  0.00    -0.086 NA 
HETATM   24  C   UNL     1      -6.891   5.865  70.588  1.00  0.00    -0.054 C  
HETATM   25  C   UNL     1      -8.033   6.230  72.660  1.00  0.00    -0.106 C  
ENDBRANCH  22  23
ENDBRANCH  21  22
ENDBRANCH  20  21
ENDBRANCH  17  20
ENDBRANCH  13  14
ENDBRANCH  10  13
ENDBRANCH   5   9
BRANCH   8  26
HETATM   26  O   UNL     1     -13.064  12.926  71.947  1.00  0.00    -0.399 OA 
HETATM   27  C   UNL     1     -13.255  11.525  72.062  1.00  0.00    -0.337 C  
ENDBRANCH   8  26
BRANCH   7  28
HETATM   28  O   UNL     1     -12.875  15.741  71.279  1.00  0.00    -0.475 OA 
HETATM   29  C   UNL     1     -12.054  16.193  72.346  1.00  0.00    -0.540 C  
ENDBRANCH   7  28
ENDBRANCH   2   3
TORSDOF 10
ENDMDL
MODEL       91
REMARK 921   NORMALIZED FREE ENERGY PREDICTED BY IDOCK:   -4.93 KCAL/MOL
REMARK 922        TOTAL FREE ENERGY PREDICTED BY IDOCK:   -8.68 KCAL/MOL
REMARK 923 INTER-LIGAND FREE ENERGY PREDICTED BY IDOCK:   -7.99 KCAL/MOL
REMARK 924 INTRA-LIGAND FREE ENERGY PREDICTED BY IDOCK:   -0.69 KCAL/MOL
REMARK 927      BINDING AFFINITY PREDICTED BY RF-SCORE:    0.00 PKD
ROOT
HETATM    1  C   UNL     1      -6.272  14.839  69.866  1.00  0.00    -0.150 C  
HETATM    2  O   UNL     1      -6.153  16.253  69.724  1.00  0.00    -0.185 OA 
ENDROOT
BRANCH   2   3
HETATM    3  C   UNL     1      -7.210  16.888  69.118  1.00  0.00    -0.209 A  
HETATM    4  C   UNL     1      -8.411  16.212  68.862  1.00  0.00    -0.233 A  
HETATM    5  C   UNL     1      -9.515  16.884  68.337  1.00  0.00    -0.258 A  
HETATM    6  C   UNL     1      -9.408  18.236  68.031  1.00  0.00    -0.293 A  
HETATM    7  C   UNL     1      -7.077  18.252  68.765  1.00  0.00    -0.280 A  
HETATM    8  C   UNL     1      -8.199  18.928  68.234  1.00  0.00    -0.329 A  
BRANCH   5   9
HETATM    9  C   UNL     1     -10.793  16.130  68.215  1.00  0.00    -0.326 C  
HETATM   10  N   UNL     1     -10.765  14.968  67.483  1.00  0.00    -0.278 N  
HETATM   11  O   UNL     1     -11.802  16.549  68.774  1.00  0.00    -0.104 OA 
HETATM   12  H   UNL     1      -9.900  14.669  67.032  1.00  0.00     0.000 HD 
BRANCH  10  13
HETATM   13  C   UNL     1     -11.963  14.170  67.353  1.00  0.00    -0.404 C  
BRANCH  13  14
HETATM   14  C   UNL     1     -12.009  13.098  68.403  1.00  0.00    -0.324 A  
HETATM   15  C   UNL     1     -12.262  13.452  69.727  1.00  0.00    -0.307 A  
HETATM   16  C   UNL     1     -12.253  12.490  70.731  1.00  0.00    -0.332 A  
HETATM   17  C   UNL     1     -11.983  11.147  70.442  1.00  0.00    -0.378 A  
HETATM   18  C   UNL     1     -11.746  10.781  69.116  1.00  0.00    -0.368 A  
HETATM   19  C   UNL     1     -11.753  11.749  68.101  1.00  0.00    -0.377 A  
BRANCH  17  20
HETATM   20  O   UNL     1     -11.921  10.141  71.383  1.00  0.00    -0.369 OA 
BRANCH  20  21
HETATM   21  C   UNL     1     -11.006   9.095  71.033  1.00  0.00    -0.305 C  
BRANCH  21  22
HETATM   22  C   UNL     1     -11.569   7.683  71.239  1.00  0.00    -0.278 C  
BRANCH  22  23
HETATM   23  N   UNL     1     -11.131   6.761  70.165  1.00  0.00    -0.292 NA 
HETATM   24  C   UNL     1     -10.095   7.345  69.310  1.00  0.00    -0.186 C  
HETATM   25  C   UNL     1     -10.651   5.500  70.728  1.00  0.00    -0.249 C  
ENDBRANCH  22  23
ENDBRANCH  21  22
ENDBRANCH  20  21
ENDBRANCH  17  20
ENDBRANCH  13  14
ENDBRANCH  10  13
ENDBRANCH   5   9
BRANCH   8  26
HETATM   26  O   UNL     1      -8.314  20.248  67.873  1.00  0.00    -0.260 OA 
HETATM   27  C   UNL     1      -9.498  20.701  67.237  1.00  0.00    -0.379 C  
ENDBRANCH   8  26
BRANCH   7  28
HETATM   28  O   UNL     1      -5.948  19.000  68.993  1.00  0.00    -0.211 OA 
HETATM   29  C   UNL     1      -5.921  19.882  70.106  1.00  0.00    -0.328 C  
ENDBRANCH   7  28
ENDBRANCH   2   3
TORSDOF 10
ENDMDL
MODEL       92
REMARK 921   NORMALIZED FREE ENERGY PREDICTED BY IDOCK:   -4.89 KCAL/MOL
REMARK 922        TOTAL FREE ENERGY PREDICTED BY IDOCK:   -8.61 KCAL/MOL
REMARK 923 INTER-LIGAND FREE ENERGY PREDICTED BY IDOCK:   -8.11 KCAL/MOL
REMARK 924 INTRA-LIGAND FREE ENERGY PREDICTED BY IDOCK:   -0.50 KCAL/MOL
REMARK 927      BINDING AFFINITY PREDICTED BY RF-SCORE:    0.00 PKD
ROOT
HETATM    1  C   UNL     1     -10.429  19.803  65.607  1.00  0.00    -0.361 C  
HETATM    2  O   UNL     1      -9.595  18.667  65.831  1.00  0.00    -0.479 OA 
ENDROOT
BRANCH   2   3
HETATM    3  C   UNL     1     -10.237  17.519  66.229  1.00  0.00    -0.355 A  
HETATM    4  C   UNL     1     -10.562  16.515  65.307  1.00  0.00    -0.273 A  
HETATM    5  C   UNL     1     -11.124  15.309  65.728  1.00  0.00    -0.301 A  
HETATM    6  C   UNL     1     -11.396  15.118  67.078  1.00  0.00    -0.277 A  
HETATM    7  C   UNL     1     -10.554  17.353  67.598  1.00  0.00    -0.350 A  
HETATM    8  C   UNL     1     -11.123  16.129  68.018  1.00  0.00    -0.317 A  
BRANCH   5   9
HETATM    9  C   UNL     1     -11.322  14.243  64.708  1.00  0.00    -0.382 C  
HETATM   10  N   UNL     1     -10.278  13.374  64.502  1.00  0.00    -0.600 N  
HETATM   11  O   UNL     1     -12.391  14.163  64.112  1.00  0.00    -0.628 OA 
HETATM   12  H   UNL     1      -9.406  13.490  65.020  1.00  0.00     0.000 HD 
BRANCH  10  13
HETATM   13  C   UNL     1     -10.416  12.296  63.549  1.00  0.00    -0.424 C  
BRANCH  13  14
HETATM   14  C   UNL     1      -9.856  11.017  64.103  1.00  0.00    -0.360 A  
HETATM   15  C   UNL     1     -10.228  10.610  65.383  1.00  0.00    -0.341 A  
HETATM   16  C   UNL     1      -9.682   9.461  65.946  1.00  0.00    -0.355 A  
HETATM   17  C   UNL     1      -8.742   8.692  65.249  1.00  0.00    -0.165 A  
HETATM   18  C   UNL     1      -8.378   9.084  63.960  1.00  0.00    -0.180 A  
HETATM   19  C   UNL     1      -8.926  10.242  63.389  1.00  0.00    -0.254 A  
BRANCH  17  20
HETATM   20  O   UNL     1      -8.129   7.562  65.749  1.00  0.00    -0.112 OA 
BRANCH  20  21
HETATM   21  C   UNL     1      -8.235   7.446  67.173  1.00  0.00    -0.118 C  
BRANCH  21  22
HETATM   22  C   UNL     1      -6.979   6.877  67.844  1.00  0.00    -0.083 C  
BRANCH  22  23
HETATM   23  N   UNL     1      -7.179   6.689  69.301  1.00  0.00    -0.087 NA 
HETATM   24  C   UNL     1      -8.275   5.764  69.603  1.00  0.00    -0.108 C  
HETATM   25  C   UNL     1      -5.950   6.218  69.937  1.00  0.00    -0.018 C  
ENDBRANCH  22  23
ENDBRANCH  21  22
ENDBRANCH  20  21
ENDBRANCH  17  20
ENDBRANCH  13  14
ENDBRANCH  10  13
ENDBRANCH   5   9
BRANCH   8  26
HETATM   26  O   UNL     1     -11.460  15.732  69.289  1.00  0.00    -0.316 OA 
HETATM   27  C   UNL     1     -10.445  15.311  70.186  1.00  0.00    -0.230 C  
ENDBRANCH   8  26
BRANCH   7  28
HETATM   28  O   UNL     1     -10.258  18.272  68.575  1.00  0.00    -0.381 OA 
HETATM   29  C   UNL     1      -8.898  18.593  68.826  1.00  0.00    -0.255 C  
ENDBRANCH   7  28
ENDBRANCH   2   3
TORSDOF 10
ENDMDL
MODEL       93
REMARK 921   NORMALIZED FREE ENERGY PREDICTED BY IDOCK:   -4.89 KCAL/MOL
REMARK 922        TOTAL FREE ENERGY PREDICTED BY IDOCK:   -8.61 KCAL/MOL
REMARK 923 INTER-LIGAND FREE ENERGY PREDICTED BY IDOCK:   -7.77 KCAL/MOL
REMARK 924 INTRA-LIGAND FREE ENERGY PREDICTED BY IDOCK:   -0.84 KCAL/MOL
REMARK 927      BINDING AFFINITY PREDICTED BY RF-SCORE:    0.00 PKD
ROOT
HETATM    1  C   UNL     1     -11.112  16.454  68.694  1.00  0.00    -0.352 C  
HETATM    2  O   UNL     1     -11.795  15.803  69.764  1.00  0.00    -0.343 OA 
ENDROOT
BRANCH   2   3
HETATM    3  C   UNL     1     -11.979  14.449  69.625  1.00  0.00    -0.336 A  
HETATM    4  C   UNL     1     -11.749  13.809  68.399  1.00  0.00    -0.393 A  
HETATM    5  C   UNL     1     -11.840  12.421  68.286  1.00  0.00    -0.364 A  
HETATM    6  C   UNL     1     -12.199  11.669  69.400  1.00  0.00    -0.246 A  
HETATM    7  C   UNL     1     -12.391  13.697  70.750  1.00  0.00    -0.371 A  
HETATM    8  C   UNL     1     -12.481  12.291  70.630  1.00  0.00    -0.236 A  
BRANCH   5   9
HETATM    9  C   UNL     1     -11.456  11.804  66.987  1.00  0.00    -0.298 C  
HETATM   10  N   UNL     1     -10.330  11.019  66.977  1.00  0.00    -0.218 N  
HETATM   11  O   UNL     1     -12.151  11.997  65.994  1.00  0.00    -0.561 OA 
HETATM   12  H   UNL     1      -9.784  10.897  67.830  1.00  0.00     0.000 HD 
BRANCH  10  13
HETATM   13  C   UNL     1      -9.920  10.364  65.755  1.00  0.00    -0.270 C  
BRANCH  13  14
HETATM   14  C   UNL     1      -9.631   8.910  65.998  1.00  0.00    -0.320 A  
HETATM   15  C   UNL     1     -10.455   8.186  66.858  1.00  0.00    -0.379 A  
HETATM   16  C   UNL     1     -10.180   6.854  67.148  1.00  0.00    -0.308 A  
HETATM   17  C   UNL     1      -9.067   6.210  66.594  1.00  0.00    -0.139 A  
HETATM   18  C   UNL     1      -8.246   6.923  65.719  1.00  0.00    -0.132 A  
HETATM   19  C   UNL     1      -8.520   8.267  65.424  1.00  0.00    -0.189 A  
BRANCH  17  20
HETATM   20  O   UNL     1      -8.705   4.906  66.859  1.00  0.00    -0.109 OA 
BRANCH  20  21
HETATM   21  C   UNL     1      -9.548   4.271  67.826  1.00  0.00    -0.158 C  
BRANCH  21  22
HETATM   22  C   UNL     1      -8.791   3.388  68.826  1.00  0.00    -0.113 C  
BRANCH  22  23
HETATM   23  N   UNL     1      -8.920   3.900  70.211  1.00  0.00    -0.088 NA 
HETATM   24  C   UNL     1      -9.616   2.961  71.096  1.00  0.00    -0.156 C  
HETATM   25  C   UNL     1      -7.609   4.222  70.770  1.00  0.00    -0.052 C  
ENDBRANCH  22  23
ENDBRANCH  21  22
ENDBRANCH  20  21
ENDBRANCH  17  20
ENDBRANCH  13  14
ENDBRANCH  10  13
ENDBRANCH   5   9
BRANCH   8  26
HETATM   26  O   UNL     1     -12.807  11.367  71.592  1.00  0.00    -0.420 OA 
HETATM   27  C   UNL     1     -12.237  10.068  71.540  1.00  0.00    -0.405 C  
ENDBRANCH   8  26
BRANCH   7  28
HETATM   28  O   UNL     1     -12.621  14.232  71.994  1.00  0.00    -0.334 OA 
HETATM   29  C   UNL     1     -13.879  14.837  72.259  1.00  0.00    -0.485 C  
ENDBRANCH   7  28
ENDBRANCH   2   3
TORSDOF 10
ENDMDL
MODEL       94
REMARK 921   NORMALIZED FREE ENERGY PREDICTED BY IDOCK:   -4.89 KCAL/MOL
REMARK 922        TOTAL FREE ENERGY PREDICTED BY IDOCK:   -8.61 KCAL/MOL
REMARK 923 INTER-LIGAND FREE ENERGY PREDICTED BY IDOCK:   -7.40 KCAL/MOL
REMARK 924 INTRA-LIGAND FREE ENERGY PREDICTED BY IDOCK:   -1.21 KCAL/MOL
REMARK 927      BINDING AFFINITY PREDICTED BY RF-SCORE:    0.00 PKD
ROOT
HETATM    1  C   UNL     1     -12.762  13.390  65.149  1.00  0.00    -0.399 C  
HETATM    2  O   UNL     1     -12.227  14.267  66.139  1.00  0.00    -0.431 OA 
ENDROOT
BRANCH   2   3
HETATM    3  C   UNL     1     -10.943  14.002  66.548  1.00  0.00    -0.306 A  
HETATM    4  C   UNL     1     -10.426  12.699  66.511  1.00  0.00    -0.264 A  
HETATM    5  C   UNL     1      -9.092  12.447  66.833  1.00  0.00    -0.211 A  
HETATM    6  C   UNL     1      -8.276  13.501  67.230  1.00  0.00    -0.164 A  
HETATM    7  C   UNL     1     -10.134  15.071  66.997  1.00  0.00    -0.244 A  
HETATM    8  C   UNL     1      -8.783  14.810  67.321  1.00  0.00    -0.210 A  
BRANCH   5   9
HETATM    9  C   UNL     1      -8.583  11.061  66.645  1.00  0.00    -0.157 C  
HETATM   10  N   UNL     1      -9.492  10.110  66.251  1.00  0.00    -0.172 N  
HETATM   11  O   UNL     1      -7.393  10.821  66.826  1.00  0.00    -0.114 OA 
HETATM   12  H   UNL     1     -10.472  10.362  66.122  1.00  0.00     0.000 HD 
BRANCH  10  13
HETATM   13  C   UNL     1      -9.057   8.751  66.019  1.00  0.00    -0.213 C  
BRANCH  13  14
HETATM   14  C   UNL     1      -9.500   7.850  67.136  1.00  0.00    -0.203 A  
HETATM   15  C   UNL     1     -10.654   7.084  66.976  1.00  0.00    -0.412 A  
HETATM   16  C   UNL     1     -11.122   6.284  68.014  1.00  0.00    -0.365 A  
HETATM   17  C   UNL     1     -10.454   6.233  69.243  1.00  0.00    -0.244 A  
HETATM   18  C   UNL     1      -9.288   6.984  69.405  1.00  0.00    -0.146 A  
HETATM   19  C   UNL     1      -8.814   7.792  68.362  1.00  0.00    -0.130 A  
BRANCH  17  20
HETATM   20  O   UNL     1     -10.872   5.495  70.330  1.00  0.00    -0.277 OA 
BRANCH  20  21
HETATM   21  C   UNL     1     -11.187   6.299  71.472  1.00  0.00    -0.290 C  
BRANCH  21  22
HETATM   22  C   UNL     1     -12.603   6.890  71.444  1.00  0.00    -0.353 C  
BRANCH  22  23
HETATM   23  N   UNL     1     -12.573   8.371  71.387  1.00  0.00    -0.300 NA 
HETATM   24  C   UNL     1     -13.688   8.985  72.115  1.00  0.00    -0.480 C  
HETATM   25  C   UNL     1     -11.306   8.885  71.905  1.00  0.00    -0.376 C  
ENDBRANCH  22  23
ENDBRANCH  21  22
ENDBRANCH  20  21
ENDBRANCH  17  20
ENDBRANCH  13  14
ENDBRANCH  10  13
ENDBRANCH   5   9
BRANCH   8  26
HETATM   26  O   UNL     1      -7.812  15.694  67.724  1.00  0.00    -0.130 OA 
HETATM   27  C   UNL     1      -7.515  15.829  69.105  1.00  0.00    -0.207 C  
ENDBRANCH   8  26
BRANCH   7  28
HETATM   28  O   UNL     1     -10.547  16.381  67.050  1.00  0.00    -0.305 OA 
HETATM   29  C   UNL     1     -10.999  16.908  68.289  1.00  0.00    -0.298 C  
ENDBRANCH   7  28
ENDBRANCH   2   3
TORSDOF 10
ENDMDL
MODEL       95
REMARK 921   NORMALIZED FREE ENERGY PREDICTED BY IDOCK:   -4.87 KCAL/MOL
REMARK 922        TOTAL FREE ENERGY PREDICTED BY IDOCK:   -8.59 KCAL/MOL
REMARK 923 INTER-LIGAND FREE ENERGY PREDICTED BY IDOCK:   -7.51 KCAL/MOL
REMARK 924 INTRA-LIGAND FREE ENERGY PREDICTED BY IDOCK:   -1.07 KCAL/MOL
REMARK 927      BINDING AFFINITY PREDICTED BY RF-SCORE:    0.00 PKD
ROOT
HETATM    1  C   UNL     1     -13.317  11.938  72.042  1.00  0.00    -0.320 C  
HETATM    2  O   UNL     1     -13.017  10.557  71.850  1.00  0.00    -0.450 OA 
ENDROOT
BRANCH   2   3
HETATM    3  C   UNL     1     -12.268  10.253  70.738  1.00  0.00    -0.350 A  
HETATM    4  C   UNL     1     -12.172  11.148  69.663  1.00  0.00    -0.360 A  
HETATM    5  C   UNL     1     -11.333  10.881  68.580  1.00  0.00    -0.360 A  
HETATM    6  C   UNL     1     -10.611   9.693  68.554  1.00  0.00    -0.253 A  
HETATM    7  C   UNL     1     -11.575   9.021  70.698  1.00  0.00    -0.224 A  
HETATM    8  C   UNL     1     -10.726   8.756  69.598  1.00  0.00    -0.208 A  
BRANCH   5   9
HETATM    9  C   UNL     1     -11.186  11.936  67.541  1.00  0.00    -0.296 C  
HETATM   10  N   UNL     1     -11.619  13.198  67.866  1.00  0.00    -0.314 N  
HETATM   11  O   UNL     1     -10.678  11.657  66.459  1.00  0.00    -0.249 OA 
HETATM   12  H   UNL     1     -12.041  13.374  68.778  1.00  0.00     0.000 HD 
BRANCH  10  13
HETATM   13  C   UNL     1     -11.475  14.276  66.914  1.00  0.00    -0.363 C  
BRANCH  13  14
HETATM   14  C   UNL     1     -10.570  15.348  67.452  1.00  0.00    -0.289 A  
HETATM   15  C   UNL     1     -10.563  16.602  66.844  1.00  0.00    -0.229 A  
HETATM   16  C   UNL     1      -9.695  17.596  67.283  1.00  0.00    -0.284 A  
HETATM   17  C   UNL     1      -8.803  17.362  68.336  1.00  0.00    -0.271 A  
HETATM   18  C   UNL     1      -8.815  16.114  68.961  1.00  0.00    -0.251 A  
HETATM   19  C   UNL     1      -9.689  15.109  68.521  1.00  0.00    -0.214 A  
BRANCH  17  20
HETATM   20  O   UNL     1      -7.888  18.281  68.806  1.00  0.00    -0.304 OA 
BRANCH  20  21
HETATM   21  C   UNL     1      -7.371  19.138  67.781  1.00  0.00    -0.249 C  
BRANCH  21  22
HETATM   22  C   UNL     1      -5.842  19.119  67.669  1.00  0.00    -0.192 C  
BRANCH  22  23
HETATM   23  N   UNL     1      -5.391  18.307  66.514  1.00  0.00    -0.138 NA 
HETATM   24  C   UNL     1      -5.261  16.884  66.843  1.00  0.00    -0.127 C  
HETATM   25  C   UNL     1      -6.299  18.468  65.380  1.00  0.00    -0.271 C  
ENDBRANCH  22  23
ENDBRANCH  21  22
ENDBRANCH  20  21
ENDBRANCH  17  20
ENDBRANCH  13  14
ENDBRANCH  10  13
ENDBRANCH   5   9
BRANCH   8  26
HETATM   26  O   UNL     1      -9.926   7.662  69.376  1.00  0.00    -0.173 OA 
HETATM   27  C   UNL     1      -8.560   7.848  69.041  1.00  0.00    -0.135 C  
ENDBRANCH   8  26
BRANCH   7  28
HETATM   28  O   UNL     1     -11.593   8.092  71.709  1.00  0.00    -0.262 OA 
HETATM   29  C   UNL     1     -12.543   7.037  71.655  1.00  0.00    -0.380 C  
ENDBRANCH   7  28
ENDBRANCH   2   3
TORSDOF 10
ENDMDL
MODEL       96
REMARK 921   NORMALIZED FREE ENERGY PREDICTED BY IDOCK:   -4.87 KCAL/MOL
REMARK 922        TOTAL FREE ENERGY PREDICTED BY IDOCK:   -8.58 KCAL/MOL
REMARK 923 INTER-LIGAND FREE ENERGY PREDICTED BY IDOCK:   -7.46 KCAL/MOL
REMARK 924 INTRA-LIGAND FREE ENERGY PREDICTED BY IDOCK:   -1.12 KCAL/MOL
REMARK 927      BINDING AFFINITY PREDICTED BY RF-SCORE:    0.00 PKD
ROOT
HETATM    1  C   UNL     1     -11.658   6.537  70.830  1.00  0.00    -0.359 C  
HETATM    2  O   UNL     1     -10.520   7.394  70.898  1.00  0.00    -0.215 OA 
ENDROOT
BRANCH   2   3
HETATM    3  C   UNL     1     -10.279   8.165  69.787  1.00  0.00    -0.203 A  
HETATM    4  C   UNL     1     -10.954   9.377  69.586  1.00  0.00    -0.216 A  
HETATM    5  C   UNL     1     -10.638  10.205  68.509  1.00  0.00    -0.245 A  
HETATM    6  C   UNL     1      -9.663   9.802  67.603  1.00  0.00    -0.186 A  
HETATM    7  C   UNL     1      -9.321   7.724  68.844  1.00  0.00    -0.146 A  
HETATM    8  C   UNL     1      -9.005   8.568  67.754  1.00  0.00    -0.136 A  
BRANCH   5   9
HETATM    9  C   UNL     1     -11.305  11.534  68.436  1.00  0.00    -0.279 C  
HETATM   10  N   UNL     1     -10.864  12.503  69.303  1.00  0.00    -0.439 N  
HETATM   11  O   UNL     1     -12.194  11.722  67.611  1.00  0.00    -0.534 OA 
HETATM   12  H   UNL     1     -10.126  12.290  69.974  1.00  0.00     0.000 HD 
BRANCH  10  13
HETATM   13  C   UNL     1     -11.447  13.825  69.262  1.00  0.00    -0.293 C  
BRANCH  13  14
HETATM   14  C   UNL     1     -10.664  14.727  68.350  1.00  0.00    -0.243 A  
HETATM   15  C   UNL     1     -11.194  15.063  67.106  1.00  0.00    -0.336 A  
HETATM   16  C   UNL     1     -10.468  15.849  66.217  1.00  0.00    -0.324 A  
HETATM   17  C   UNL     1      -9.188  16.314  66.543  1.00  0.00    -0.269 A  
HETATM   18  C   UNL     1      -8.658  15.995  67.795  1.00  0.00    -0.168 A  
HETATM   19  C   UNL     1      -9.387  15.203  68.694  1.00  0.00    -0.199 A  
BRANCH  17  20
HETATM   20  O   UNL     1      -8.392  17.065  65.706  1.00  0.00    -0.500 OA 
BRANCH  20  21
HETATM   21  C   UNL     1      -7.703  18.124  66.380  1.00  0.00    -0.261 C  
BRANCH  21  22
HETATM   22  C   UNL     1      -8.487  19.442  66.431  1.00  0.00    -0.346 C  
BRANCH  22  23
HETATM   23  N   UNL     1      -8.640  19.930  67.823  1.00  0.00    -0.319 NA 
HETATM   24  C   UNL     1      -9.947  19.595  68.395  1.00  0.00    -0.439 C  
HETATM   25  C   UNL     1      -7.579  19.402  68.678  1.00  0.00    -0.363 C  
ENDBRANCH  22  23
ENDBRANCH  21  22
ENDBRANCH  20  21
ENDBRANCH  17  20
ENDBRANCH  13  14
ENDBRANCH  10  13
ENDBRANCH   5   9
BRANCH   8  26
HETATM   26  O   UNL     1      -8.080   8.371  66.758  1.00  0.00    -0.097 OA 
HETATM   27  C   UNL     1      -8.499   7.858  65.503  1.00  0.00    -0.139 C  
ENDBRANCH   8  26
BRANCH   7  28
HETATM   28  O   UNL     1      -8.598   6.562  68.964  1.00  0.00    -0.124 OA 
HETATM   29  C   UNL     1      -7.364   6.592  69.666  1.00  0.00    -0.084 C  
ENDBRANCH   7  28
ENDBRANCH   2   3
TORSDOF 10
ENDMDL
MODEL       97
REMARK 921   NORMALIZED FREE ENERGY PREDICTED BY IDOCK:   -4.87 KCAL/MOL
REMARK 922        TOTAL FREE ENERGY PREDICTED BY IDOCK:   -8.58 KCAL/MOL
REMARK 923 INTER-LIGAND FREE ENERGY PREDICTED BY IDOCK:   -7.92 KCAL/MOL
REMARK 924 INTRA-LIGAND FREE ENERGY PREDICTED BY IDOCK:   -0.66 KCAL/MOL
REMARK 927      BINDING AFFINITY PREDICTED BY RF-SCORE:    0.00 PKD
ROOT
HETATM    1  C   UNL     1      -6.303  15.626  69.304  1.00  0.00    -0.136 C  
HETATM    2  O   UNL     1      -6.679  17.002  69.271  1.00  0.00    -0.228 OA 
ENDROOT
BRANCH   2   3
HETATM    3  C   UNL     1      -7.893  17.281  68.692  1.00  0.00    -0.272 A  
HETATM    4  C   UNL     1      -8.862  16.282  68.525  1.00  0.00    -0.219 A  
HETATM    5  C   UNL     1     -10.130  16.587  68.028  1.00  0.00    -0.255 A  
HETATM    6  C   UNL     1     -10.420  17.897  67.660  1.00  0.00    -0.406 A  
HETATM    7  C   UNL     1      -8.163  18.605  68.276  1.00  0.00    -0.323 A  
HETATM    8  C   UNL     1      -9.449  18.909  67.773  1.00  0.00    -0.302 A  
BRANCH   5   9
HETATM    9  C   UNL     1     -11.145  15.499  68.001  1.00  0.00    -0.322 C  
HETATM   10  N   UNL     1     -11.333  14.850  66.806  1.00  0.00    -0.345 N  
HETATM   11  O   UNL     1     -11.753  15.211  69.027  1.00  0.00    -0.308 OA 
HETATM   12  H   UNL     1     -10.806  15.135  65.980  1.00  0.00     0.000 HD 
BRANCH  10  13
HETATM   13  C   UNL     1     -12.281  13.761  66.720  1.00  0.00    -0.397 C  
BRANCH  13  14
HETATM   14  C   UNL     1     -11.580  12.464  66.435  1.00  0.00    -0.442 A  
HETATM   15  C   UNL     1     -11.354  11.568  67.479  1.00  0.00    -0.366 A  
HETATM   16  C   UNL     1     -10.657  10.385  67.257  1.00  0.00    -0.322 A  
HETATM   17  C   UNL     1     -10.159  10.067  65.988  1.00  0.00    -0.248 A  
HETATM   18  C   UNL     1     -10.397  10.950  64.934  1.00  0.00    -0.371 A  
HETATM   19  C   UNL     1     -11.098  12.145  65.153  1.00  0.00    -0.369 A  
BRANCH  17  20
HETATM   20  O   UNL     1      -9.429   8.934  65.695  1.00  0.00    -0.229 OA 
BRANCH  20  21
HETATM   21  C   UNL     1      -9.094   8.163  66.853  1.00  0.00    -0.154 C  
BRANCH  21  22
HETATM   22  C   UNL     1      -8.966   6.658  66.582  1.00  0.00    -0.142 C  
BRANCH  22  23
HETATM   23  N   UNL     1     -10.290   5.991  66.584  1.00  0.00    -0.211 NA 
HETATM   24  C   UNL     1     -10.183   4.529  66.556  1.00  0.00    -0.191 C  
HETATM   25  C   UNL     1     -11.078   6.405  67.743  1.00  0.00    -0.276 C  
ENDBRANCH  22  23
ENDBRANCH  21  22
ENDBRANCH  20  21
ENDBRANCH  17  20
ENDBRANCH  13  14
ENDBRANCH  10  13
ENDBRANCH   5   9
BRANCH   8  26
HETATM   26  O   UNL     1      -9.945  20.122  67.363  1.00  0.00    -0.390 OA 
HETATM   27  C   UNL     1     -10.417  20.275  66.034  1.00  0.00    -0.215 C  
ENDBRANCH   8  26
BRANCH   7  28
HETATM   28  O   UNL     1      -7.285  19.652  68.415  1.00  0.00    -0.298 OA 
HETATM   29  C   UNL     1      -6.858  20.021  69.719  1.00  0.00    -0.183 C  
ENDBRANCH   7  28
ENDBRANCH   2   3
TORSDOF 10
ENDMDL
MODEL       98
REMARK 921   NORMALIZED FREE ENERGY PREDICTED BY IDOCK:   -4.85 KCAL/MOL
REMARK 922        TOTAL FREE ENERGY PREDICTED BY IDOCK:   -8.54 KCAL/MOL
REMARK 923 INTER-LIGAND FREE ENERGY PREDICTED BY IDOCK:   -7.52 KCAL/MOL
REMARK 924 INTRA-LIGAND FREE ENERGY PREDICTED BY IDOCK:   -1.02 KCAL/MOL
REMARK 927      BINDING AFFINITY PREDICTED BY RF-SCORE:    0.00 PKD
ROOT
HETATM    1  C   UNL     1      -9.766  10.429  65.763  1.00  0.00    -0.228 C  
HETATM    2  O   UNL     1     -10.879  11.308  65.609  1.00  0.00    -0.250 OA 
ENDROOT
BRANCH   2   3
HETATM    3  C   UNL     1     -11.303  11.946  66.749  1.00  0.00    -0.330 A  
HETATM    4  C   UNL     1     -11.660  11.222  67.894  1.00  0.00    -0.330 A  
HETATM    5  C   UNL     1     -11.996  11.876  69.081  1.00  0.00    -0.336 A  
HETATM    6  C   UNL     1     -12.010  13.266  69.113  1.00  0.00    -0.343 A  
HETATM    7  C   UNL     1     -11.362  13.360  66.758  1.00  0.00    -0.325 A  
HETATM    8  C   UNL     1     -11.702  14.016  67.963  1.00  0.00    -0.359 A  
BRANCH   5   9
HETATM    9  C   UNL     1     -12.237  11.040  70.289  1.00  0.00    -0.363 C  
HETATM   10  N   UNL     1     -11.969   9.697  70.183  1.00  0.00    -0.464 N  
HETATM   11  O   UNL     1     -12.640  11.566  71.321  1.00  0.00    -0.383 OA 
HETATM   12  H   UNL     1     -11.643   9.309  69.297  1.00  0.00     0.000 HD 
BRANCH  10  13
HETATM   13  C   UNL     1     -12.150   8.834  71.328  1.00  0.00    -0.296 C  
BRANCH  13  14
HETATM   14  C   UNL     1     -11.319   7.590  71.198  1.00  0.00    -0.288 A  
HETATM   15  C   UNL     1     -10.256   7.386  72.077  1.00  0.00    -0.221 A  
HETATM   16  C   UNL     1      -9.433   6.273  71.945  1.00  0.00    -0.160 A  
HETATM   17  C   UNL     1      -9.643   5.336  70.925  1.00  0.00    -0.175 A  
HETATM   18  C   UNL     1     -10.715   5.525  70.052  1.00  0.00    -0.356 A  
HETATM   19  C   UNL     1     -11.547   6.646  70.181  1.00  0.00    -0.446 A  
BRANCH  17  20
HETATM   20  O   UNL     1      -8.852   4.228  70.706  1.00  0.00    -0.088 OA 
BRANCH  20  21
HETATM   21  C   UNL     1      -8.237   4.220  69.412  1.00  0.00    -0.062 C  
BRANCH  21  22
HETATM   22  C   UNL     1      -6.987   5.103  69.314  1.00  0.00    -0.055 C  
BRANCH  22  23
HETATM   23  N   UNL     1      -6.853   5.708  67.967  1.00  0.00    -0.062 NA 
HETATM   24  C   UNL     1      -6.077   4.869  67.048  1.00  0.00    -0.031 C  
HETATM   25  C   UNL     1      -8.167   5.984  67.389  1.00  0.00    -0.106 C  
ENDBRANCH  22  23
ENDBRANCH  21  22
ENDBRANCH  20  21
ENDBRANCH  17  20
ENDBRANCH  13  14
ENDBRANCH  10  13
ENDBRANCH   5   9
BRANCH   8  26
HETATM   26  O   UNL     1     -11.769  15.364  68.216  1.00  0.00    -0.360 OA 
HETATM   27  C   UNL     1     -11.604  15.839  69.543  1.00  0.00    -0.363 C  
ENDBRANCH   8  26
BRANCH   7  28
HETATM   28  O   UNL     1     -11.014  14.153  65.692  1.00  0.00    -0.296 OA 
HETATM   29  C   UNL     1     -11.998  14.461  64.716  1.00  0.00    -0.447 C  
ENDBRANCH   7  28
ENDBRANCH   2   3
TORSDOF 10
ENDMDL
MODEL       99
REMARK 921   NORMALIZED FREE ENERGY PREDICTED BY IDOCK:   -4.83 KCAL/MOL
REMARK 922        TOTAL FREE ENERGY PREDICTED BY IDOCK:   -8.52 KCAL/MOL
REMARK 923 INTER-LIGAND FREE ENERGY PREDICTED BY IDOCK:   -7.76 KCAL/MOL
REMARK 924 INTRA-LIGAND FREE ENERGY PREDICTED BY IDOCK:   -0.76 KCAL/MOL
REMARK 927      BINDING AFFINITY PREDICTED BY RF-SCORE:    0.00 PKD
ROOT
HETATM    1  C   UNL     1      -7.210  17.983  66.113  1.00  0.00    -0.290 C  
HETATM    2  O   UNL     1      -8.600  17.793  65.855  1.00  0.00    -0.516 OA 
ENDROOT
BRANCH   2   3
HETATM    3  C   UNL     1      -9.189  16.727  66.491  1.00  0.00    -0.268 A  
HETATM    4  C   UNL     1      -8.766  15.413  66.244  1.00  0.00    -0.240 A  
HETATM    5  C   UNL     1      -9.298  14.341  66.963  1.00  0.00    -0.249 A  
HETATM    6  C   UNL     1     -10.286  14.580  67.911  1.00  0.00    -0.231 A  
HETATM    7  C   UNL     1     -10.228  16.973  67.418  1.00  0.00    -0.314 A  
HETATM    8  C   UNL     1     -10.762  15.884  68.143  1.00  0.00    -0.302 A  
BRANCH   5   9
HETATM    9  C   UNL     1      -8.707  12.994  66.736  1.00  0.00    -0.096 C  
HETATM   10  N   UNL     1      -9.393  12.142  65.907  1.00  0.00    -0.390 N  
HETATM   11  O   UNL     1      -7.641  12.701  67.270  1.00  0.00    -0.153 OA 
HETATM   12  H   UNL     1     -10.280  12.434  65.495  1.00  0.00     0.000 HD 
BRANCH  10  13
HETATM   13  C   UNL     1      -8.857  10.830  65.619  1.00  0.00    -0.190 C  
BRANCH  13  14
HETATM   14  C   UNL     1      -9.509   9.786  66.480  1.00  0.00    -0.228 A  
HETATM   15  C   UNL     1     -10.038  10.154  67.716  1.00  0.00    -0.216 A  
HETATM   16  C   UNL     1     -10.595   9.200  68.560  1.00  0.00    -0.209 A  
HETATM   17  C   UNL     1     -10.633   7.848  68.196  1.00  0.00    -0.120 A  
HETATM   18  C   UNL     1     -10.121   7.474  66.952  1.00  0.00    -0.336 A  
HETATM   19  C   UNL     1      -9.557   8.433  66.099  1.00  0.00    -0.246 A  
BRANCH  17  20
HETATM   20  O   UNL     1     -11.135   6.838  68.989  1.00  0.00    -0.240 OA 
BRANCH  20  21
HETATM   21  C   UNL     1     -11.107   7.150  70.386  1.00  0.00    -0.280 C  
BRANCH  21  22
HETATM   22  C   UNL     1      -9.963   6.471  71.151  1.00  0.00    -0.182 C  
BRANCH  22  23
HETATM   23  N   UNL     1     -10.235   6.425  72.607  1.00  0.00    -0.179 NA 
HETATM   24  C   UNL     1     -10.862   7.654  73.102  1.00  0.00    -0.382 C  
HETATM   25  C   UNL     1     -11.073   5.275  72.943  1.00  0.00    -0.305 C  
ENDBRANCH  22  23
ENDBRANCH  21  22
ENDBRANCH  20  21
ENDBRANCH  17  20
ENDBRANCH  13  14
ENDBRANCH  10  13
ENDBRANCH   5   9
BRANCH   8  26
HETATM   26  O   UNL     1     -11.728  15.894  69.119  1.00  0.00    -0.376 OA 
HETATM   27  C   UNL     1     -11.346  15.937  70.485  1.00  0.00    -0.390 C  
ENDBRANCH   8  26
BRANCH   7  28
HETATM   28  O   UNL     1     -10.696  18.225  67.738  1.00  0.00    -0.411 OA 
HETATM   29  C   UNL     1      -9.994  18.994  68.703  1.00  0.00    -0.418 C  
ENDBRANCH   7  28
ENDBRANCH   2   3
TORSDOF 10
ENDMDL
MODEL      100
REMARK 921   NORMALIZED FREE ENERGY PREDICTED BY IDOCK:   -4.81 KCAL/MOL
REMARK 922        TOTAL FREE ENERGY PREDICTED BY IDOCK:   -8.49 KCAL/MOL
REMARK 923 INTER-LIGAND FREE ENERGY PREDICTED BY IDOCK:   -7.53 KCAL/MOL
REMARK 924 INTRA-LIGAND FREE ENERGY PREDICTED BY IDOCK:   -0.96 KCAL/MOL
REMARK 927      BINDING AFFINITY PREDICTED BY RF-SCORE:    0.00 PKD
ROOT
HETATM    1  C   UNL     1     -10.689   6.354  67.157  1.00  0.00    -0.361 C  
HETATM    2  O   UNL     1      -9.732   7.339  67.544  1.00  0.00    -0.136 OA 
ENDROOT
BRANCH   2   3
HETATM    3  C   UNL     1      -9.339   8.214  66.561  1.00  0.00    -0.206 A  
HETATM    4  C   UNL     1     -10.207   9.209  66.087  1.00  0.00    -0.189 A  
HETATM    5  C   UNL     1      -9.773  10.158  65.161  1.00  0.00    -0.370 A  
HETATM    6  C   UNL     1      -8.472  10.091  64.676  1.00  0.00    -0.182 A  
HETATM    7  C   UNL     1      -8.030   8.110  66.037  1.00  0.00    -0.100 A  
HETATM    8  C   UNL     1      -7.596   9.075  65.099  1.00  0.00    -0.098 A  
BRANCH   5   9
HETATM    9  C   UNL     1     -10.710  11.258  64.804  1.00  0.00    -0.285 C  
HETATM   10  N   UNL     1     -11.409  11.841  65.833  1.00  0.00    -0.304 N  
HETATM   11  O   UNL     1     -10.813  11.613  63.634  1.00  0.00    -0.372 OA 
HETATM   12  H   UNL     1     -11.292  11.501  66.788  1.00  0.00     0.000 HD 
BRANCH  10  13
HETATM   13  C   UNL     1     -12.312  12.936  65.560  1.00  0.00    -0.461 C  
BRANCH  13  14
HETATM   14  C   UNL     1     -11.684  14.251  65.927  1.00  0.00    -0.375 A  
HETATM   15  C   UNL     1     -11.296  15.126  64.915  1.00  0.00    -0.402 A  
HETATM   16  C   UNL     1     -10.660  16.325  65.221  1.00  0.00    -0.357 A  
HETATM   17  C   UNL     1     -10.386  16.678  66.548  1.00  0.00    -0.299 A  
HETATM   18  C   UNL     1     -10.787  15.814  67.568  1.00  0.00    -0.315 A  
HETATM   19  C   UNL     1     -11.428  14.605  67.263  1.00  0.00    -0.386 A  
BRANCH  17  20
HETATM   20  O   UNL     1      -9.729  17.828  66.932  1.00  0.00    -0.277 OA 
BRANCH  20  21
HETATM   21  C   UNL     1     -10.020  18.223  68.277  1.00  0.00    -0.364 C  
BRANCH  21  22
HETATM   22  C   UNL     1      -9.239  19.458  68.744  1.00  0.00    -0.369 C  
BRANCH  22  23
HETATM   23  N   UNL     1      -7.850  19.452  68.226  1.00  0.00    -0.316 NA 
HETATM   24  C   UNL     1      -7.586  20.567  67.312  1.00  0.00    -0.342 C  
HETATM   25  C   UNL     1      -6.886  19.477  69.324  1.00  0.00    -0.346 C  
ENDBRANCH  22  23
ENDBRANCH  21  22
ENDBRANCH  20  21
ENDBRANCH  17  20
ENDBRANCH  13  14
ENDBRANCH  10  13
ENDBRANCH   5   9
BRANCH   8  26
HETATM   26  O   UNL     1      -6.364   9.199  64.503  1.00  0.00    -0.073 OA 
HETATM   27  C   UNL     1      -5.541  10.310  64.818  1.00  0.00    -0.129 C  
ENDBRANCH   8  26
BRANCH   7  28
HETATM   28  O   UNL     1      -7.105   7.182  66.451  1.00  0.00    -0.073 OA 
HETATM   29  C   UNL     1      -6.235   7.511  67.524  1.00  0.00    -0.049 C  
ENDBRANCH   7  28
ENDBRANCH   2   3
TORSDOF 10
ENDMDL
MODEL      101
REMARK 921   NORMALIZED FREE ENERGY PREDICTED BY IDOCK:   -4.81 KCAL/MOL
REMARK 922        TOTAL FREE ENERGY PREDICTED BY IDOCK:   -8.48 KCAL/MOL
REMARK 923 INTER-LIGAND FREE ENERGY PREDICTED BY IDOCK:   -7.57 KCAL/MOL
REMARK 924 INTRA-LIGAND FREE ENERGY PREDICTED BY IDOCK:   -0.92 KCAL/MOL
REMARK 927      BINDING AFFINITY PREDICTED BY RF-SCORE:    0.00 PKD
ROOT
HETATM    1  C   UNL     1      -6.988   8.823  70.795  1.00  0.00    -0.066 C  
HETATM    2  O   UNL     1      -8.059   8.313  70.001  1.00  0.00    -0.111 OA 
ENDROOT
BRANCH   2   3
HETATM    3  C   UNL     1      -9.272   8.193  70.633  1.00  0.00    -0.154 A  
HETATM    4  C   UNL     1     -10.098   9.308  70.835  1.00  0.00    -0.373 A  
HETATM    5  C   UNL     1     -11.371   9.168  71.388  1.00  0.00    -0.414 A  
HETATM    6  C   UNL     1     -11.810   7.907  71.776  1.00  0.00    -0.333 A  
HETATM    7  C   UNL     1      -9.692   6.915  71.070  1.00  0.00    -0.174 A  
HETATM    8  C   UNL     1     -10.983   6.779  71.629  1.00  0.00    -0.235 A  
BRANCH   5   9
HETATM    9  C   UNL     1     -12.237  10.377  71.450  1.00  0.00    -0.362 C  
HETATM   10  N   UNL     1     -11.832  11.474  70.729  1.00  0.00    -0.416 N  
HETATM   11  O   UNL     1     -13.270  10.351  72.113  1.00  0.00    -0.452 OA 
HETATM   12  H   UNL     1     -10.960  11.444  70.201  1.00  0.00     0.000 HD 
BRANCH  10  13
HETATM   13  C   UNL     1     -12.644  12.670  70.721  1.00  0.00    -0.217 C  
BRANCH  13  14
HETATM   14  C   UNL     1     -12.122  13.663  69.722  1.00  0.00    -0.396 A  
HETATM   15  C   UNL     1     -11.956  14.992  70.107  1.00  0.00    -0.366 A  
HETATM   16  C   UNL     1     -11.530  15.946  69.190  1.00  0.00    -0.377 A  
HETATM   17  C   UNL     1     -11.267  15.601  67.858  1.00  0.00    -0.328 A  
HETATM   18  C   UNL     1     -11.415  14.269  67.469  1.00  0.00    -0.368 A  
HETATM   19  C   UNL     1     -11.845  13.304  68.391  1.00  0.00    -0.395 A  
BRANCH  17  20
HETATM   20  O   UNL     1     -10.876  16.492  66.881  1.00  0.00    -0.225 OA 
BRANCH  20  21
HETATM   21  C   UNL     1      -9.532  16.286  66.432  1.00  0.00    -0.294 C  
BRANCH  21  22
HETATM   22  C   UNL     1      -8.472  16.942  67.325  1.00  0.00    -0.196 C  
BRANCH  22  23
HETATM   23  N   UNL     1      -7.618  15.929  67.990  1.00  0.00    -0.126 NA 
HETATM   24  C   UNL     1      -7.816  15.892  69.442  1.00  0.00    -0.191 C  
HETATM   25  C   UNL     1      -7.855  14.601  67.428  1.00  0.00    -0.202 C  
ENDBRANCH  22  23
ENDBRANCH  21  22
ENDBRANCH  20  21
ENDBRANCH  17  20
ENDBRANCH  13  14
ENDBRANCH  10  13
ENDBRANCH   5   9
BRANCH   8  26
HETATM   26  O   UNL     1     -11.612   5.639  72.068  1.00  0.00    -0.207 OA 
HETATM   27  C   UNL     1     -11.151   4.992  73.243  1.00  0.00    -0.337 C  
ENDBRANCH   8  26
BRANCH   7  28
HETATM   28  O   UNL     1      -8.961   5.764  70.900  1.00  0.00    -0.142 OA 
HETATM   29  C   UNL     1      -7.999   5.410  71.883  1.00  0.00    -0.113 C  
ENDBRANCH   7  28
ENDBRANCH   2   3
TORSDOF 10
ENDMDL
MODEL      102
REMARK 921   NORMALIZED FREE ENERGY PREDICTED BY IDOCK:   -4.79 KCAL/MOL
REMARK 922        TOTAL FREE ENERGY PREDICTED BY IDOCK:   -8.45 KCAL/MOL
REMARK 923 INTER-LIGAND FREE ENERGY PREDICTED BY IDOCK:   -7.54 KCAL/MOL
REMARK 924 INTRA-LIGAND FREE ENERGY PREDICTED BY IDOCK:   -0.92 KCAL/MOL
REMARK 927      BINDING AFFINITY PREDICTED BY RF-SCORE:    0.00 PKD
ROOT
HETATM    1  C   UNL     1      -8.484  11.603  67.098  1.00  0.00    -0.162 C  
HETATM    2  O   UNL     1      -8.349  13.017  66.965  1.00  0.00    -0.170 OA 
ENDROOT
BRANCH   2   3
HETATM    3  C   UNL     1      -9.395  13.769  67.442  1.00  0.00    -0.226 A  
HETATM    4  C   UNL     1     -10.283  13.253  68.396  1.00  0.00    -0.249 A  
HETATM    5  C   UNL     1     -11.284  14.051  68.950  1.00  0.00    -0.303 A  
HETATM    6  C   UNL     1     -11.423  15.366  68.522  1.00  0.00    -0.360 A  
HETATM    7  C   UNL     1      -9.559  15.091  66.965  1.00  0.00    -0.225 A  
HETATM    8  C   UNL     1     -10.575  15.895  67.531  1.00  0.00    -0.315 A  
BRANCH   5   9
HETATM    9  C   UNL     1     -12.103  13.471  70.050  1.00  0.00    -0.341 C  
HETATM   10  N   UNL     1     -12.095  12.104  70.181  1.00  0.00    -0.319 N  
HETATM   11  O   UNL     1     -12.730  14.216  70.797  1.00  0.00    -0.329 OA 
HETATM   12  H   UNL     1     -11.562  11.531  69.527  1.00  0.00     0.000 HD 
BRANCH  10  13
HETATM   13  C   UNL     1     -12.843  11.479  71.249  1.00  0.00    -0.360 C  
BRANCH  13  14
HETATM   14  C   UNL     1     -12.325  10.097  71.527  1.00  0.00    -0.505 A  
HETATM   15  C   UNL     1     -11.023   9.770  71.152  1.00  0.00    -0.386 A  
HETATM   16  C   UNL     1     -10.535   8.481  71.343  1.00  0.00    -0.305 A  
HETATM   17  C   UNL     1     -11.337   7.482  71.908  1.00  0.00    -0.260 A  
HETATM   18  C   UNL     1     -12.636   7.806  72.301  1.00  0.00    -0.186 A  
HETATM   19  C   UNL     1     -13.132   9.104  72.109  1.00  0.00    -0.516 A  
BRANCH  17  20
HETATM   20  O   UNL     1     -10.940   6.175  72.097  1.00  0.00    -0.237 OA 
BRANCH  20  21
HETATM   21  C   UNL     1     -10.145   5.663  71.021  1.00  0.00    -0.207 C  
BRANCH  21  22
HETATM   22  C   UNL     1      -8.713   5.293  71.429  1.00  0.00    -0.130 C  
BRANCH  22  23
HETATM   23  N   UNL     1      -8.573   3.835  71.657  1.00  0.00    -0.088 NA 
HETATM   24  C   UNL     1      -8.597   3.483  73.080  1.00  0.00    -0.086 C  
HETATM   25  C   UNL     1      -9.618   3.096  70.951  1.00  0.00    -0.155 C  
ENDBRANCH  22  23
ENDBRANCH  21  22
ENDBRANCH  20  21
ENDBRANCH  17  20
ENDBRANCH  13  14
ENDBRANCH  10  13
ENDBRANCH   5   9
BRANCH   8  26
HETATM   26  O   UNL     1     -10.880  17.206  67.262  1.00  0.00    -0.251 OA 
HETATM   27  C   UNL     1     -10.325  18.235  68.066  1.00  0.00    -0.391 C  
ENDBRANCH   8  26
BRANCH   7  28
HETATM   28  O   UNL     1      -8.730  15.688  66.046  1.00  0.00    -0.292 OA 
HETATM   29  C   UNL     1      -7.539  16.314  66.501  1.00  0.00    -0.183 C  
ENDBRANCH   7  28
ENDBRANCH   2   3
TORSDOF 10
ENDMDL
MODEL      103
REMARK 921   NORMALIZED FREE ENERGY PREDICTED BY IDOCK:   -4.78 KCAL/MOL
REMARK 922        TOTAL FREE ENERGY PREDICTED BY IDOCK:   -8.44 KCAL/MOL
REMARK 923 INTER-LIGAND FREE ENERGY PREDICTED BY IDOCK:   -7.61 KCAL/MOL
REMARK 924 INTRA-LIGAND FREE ENERGY PREDICTED BY IDOCK:   -0.83 KCAL/MOL
REMARK 927      BINDING AFFINITY PREDICTED BY RF-SCORE:    0.00 PKD
ROOT
HETATM    1  C   UNL     1      -8.940   3.766  70.855  1.00  0.00    -0.092 C  
HETATM    2  O   UNL     1     -10.230   4.305  70.571  1.00  0.00    -0.135 OA 
ENDROOT
BRANCH   2   3
HETATM    3  C   UNL     1     -10.291   5.669  70.417  1.00  0.00    -0.260 A  
HETATM    4  C   UNL     1      -9.729   6.297  69.297  1.00  0.00    -0.157 A  
HETATM    5  C   UNL     1      -9.878   7.670  69.094  1.00  0.00    -0.171 A  
HETATM    6  C   UNL     1     -10.564   8.428  70.036  1.00  0.00    -0.235 A  
HETATM    7  C   UNL     1     -10.948   6.440  71.405  1.00  0.00    -0.267 A  
HETATM    8  C   UNL     1     -11.096   7.830  71.193  1.00  0.00    -0.248 A  
BRANCH   5   9
HETATM    9  C   UNL     1      -9.366   8.241  67.818  1.00  0.00    -0.138 C  
HETATM   10  N   UNL     1     -10.299   8.711  66.926  1.00  0.00    -0.293 N  
HETATM   11  O   UNL     1      -8.157   8.290  67.616  1.00  0.00    -0.122 OA 
HETATM   12  H   UNL     1     -11.293   8.639  67.140  1.00  0.00     0.000 HD 
BRANCH  10  13
HETATM   13  C   UNL     1      -9.867   9.309  65.682  1.00  0.00    -0.167 C  
BRANCH  13  14
HETATM   14  C   UNL     1     -10.350  10.727  65.574  1.00  0.00    -0.308 A  
HETATM   15  C   UNL     1     -10.282  11.377  64.343  1.00  0.00    -0.361 A  
HETATM   16  C   UNL     1     -10.667  12.708  64.224  1.00  0.00    -0.409 A  
HETATM   17  C   UNL     1     -11.125  13.430  65.334  1.00  0.00    -0.287 A  
HETATM   18  C   UNL     1     -11.212  12.780  66.566  1.00  0.00    -0.349 A  
HETATM   19  C   UNL     1     -10.824  11.438  66.690  1.00  0.00    -0.339 A  
BRANCH  17  20
HETATM   20  O   UNL     1     -11.491  14.759  65.306  1.00  0.00    -0.342 OA 
BRANCH  20  21
HETATM   21  C   UNL     1     -10.373  15.653  65.303  1.00  0.00    -0.375 C  
BRANCH  21  22
HETATM   22  C   UNL     1     -10.764  17.135  65.236  1.00  0.00    -0.056 C  
BRANCH  22  23
HETATM   23  N   UNL     1      -9.866  17.973  66.067  1.00  0.00    -0.545 NA 
HETATM   24  C   UNL     1     -10.526  18.476  67.275  1.00  0.00    -0.419 C  
HETATM   25  C   UNL     1      -8.661  17.233  66.437  1.00  0.00    -0.250 C  
ENDBRANCH  22  23
ENDBRANCH  21  22
ENDBRANCH  20  21
ENDBRANCH  17  20
ENDBRANCH  13  14
ENDBRANCH  10  13
ENDBRANCH   5   9
BRANCH   8  26
HETATM   26  O   UNL     1     -11.735   8.754  71.983  1.00  0.00    -0.336 OA 
HETATM   27  C   UNL     1     -12.920   9.378  71.514  1.00  0.00    -0.371 C  
ENDBRANCH   8  26
BRANCH   7  28
HETATM   28  O   UNL     1     -11.543   5.912  72.525  1.00  0.00    -0.302 OA 
HETATM   29  C   UNL     1     -10.729   5.557  73.633  1.00  0.00    -0.282 C  
ENDBRANCH   7  28
ENDBRANCH   2   3
TORSDOF 10
ENDMDL
MODEL      104
REMARK 921   NORMALIZED FREE ENERGY PREDICTED BY IDOCK:   -4.78 KCAL/MOL
REMARK 922        TOTAL FREE ENERGY PREDICTED BY IDOCK:   -8.44 KCAL/MOL
REMARK 923 INTER-LIGAND FREE ENERGY PREDICTED BY IDOCK:   -7.72 KCAL/MOL
REMARK 924 INTRA-LIGAND FREE ENERGY PREDICTED BY IDOCK:   -0.72 KCAL/MOL
REMARK 927      BINDING AFFINITY PREDICTED BY RF-SCORE:    0.00 PKD
ROOT
HETATM    1  C   UNL     1     -10.318  20.219  69.615  1.00  0.00     0.327 C  
HETATM    2  O   UNL     1      -9.971  20.366  68.239  1.00  0.00    -0.306 OA 
ENDROOT
BRANCH   2   3
HETATM    3  C   UNL     1      -9.380  19.277  67.648  1.00  0.00    -0.307 A  
HETATM    4  C   UNL     1     -10.151  18.270  67.050  1.00  0.00    -0.370 A  
HETATM    5  C   UNL     1      -9.547  17.215  66.364  1.00  0.00    -0.296 A  
HETATM    6  C   UNL     1      -8.160  17.146  66.306  1.00  0.00    -0.325 A  
HETATM    7  C   UNL     1      -7.968  19.188  67.634  1.00  0.00    -0.260 A  
HETATM    8  C   UNL     1      -7.362  18.118  66.937  1.00  0.00    -0.204 A  
BRANCH   5   9
HETATM    9  C   UNL     1     -10.433  16.257  65.647  1.00  0.00    -0.368 C  
HETATM   10  N   UNL     1     -10.796  15.117  66.321  1.00  0.00    -0.330 N  
HETATM   11  O   UNL     1     -10.816  16.519  64.511  1.00  0.00    -0.802 OA 
HETATM   12  H   UNL     1     -10.443  14.946  67.262  1.00  0.00     0.000 HD 
BRANCH  10  13
HETATM   13  C   UNL     1     -11.681  14.161  65.694  1.00  0.00    -0.357 C  
BRANCH  13  14
HETATM   14  C   UNL     1     -11.443  12.779  66.232  1.00  0.00    -0.405 A  
HETATM   15  C   UNL     1     -12.030  12.409  67.441  1.00  0.00    -0.246 A  
HETATM   16  C   UNL     1     -11.782  11.157  67.994  1.00  0.00    -0.288 A  
HETATM   17  C   UNL     1     -10.934  10.243  67.358  1.00  0.00    -0.252 A  
HETATM   18  C   UNL     1     -10.356  10.599  66.139  1.00  0.00    -0.291 A  
HETATM   19  C   UNL     1     -10.603  11.861  65.578  1.00  0.00    -0.313 A  
BRANCH  17  20
HETATM   20  O   UNL     1     -10.610   8.999  67.857  1.00  0.00    -0.234 OA 
BRANCH  20  21
HETATM   21  C   UNL     1     -10.195   8.074  66.845  1.00  0.00    -0.315 C  
BRANCH  21  22
HETATM   22  C   UNL     1     -10.939   6.733  66.887  1.00  0.00    -0.300 C  
BRANCH  22  23
HETATM   23  N   UNL     1     -10.293   5.781  67.822  1.00  0.00    -0.193 NA 
HETATM   24  C   UNL     1      -8.833   5.910  67.836  1.00  0.00    -0.105 C  
HETATM   25  C   UNL     1     -10.815   5.950  69.177  1.00  0.00    -0.336 C  
ENDBRANCH  22  23
ENDBRANCH  21  22
ENDBRANCH  20  21
ENDBRANCH  17  20
ENDBRANCH  13  14
ENDBRANCH  10  13
ENDBRANCH   5   9
BRANCH   8  26
HETATM   26  O   UNL     1      -6.026  17.864  66.751  1.00  0.00    -0.135 OA 
HETATM   27  C   UNL     1      -5.348  16.983  67.633  1.00  0.00    -0.124 C  
ENDBRANCH   8  26
BRANCH   7  28
HETATM   28  O   UNL     1      -7.132  20.133  68.177  1.00  0.00    -0.283 OA 
HETATM   29  C   UNL     1      -6.723  21.231  67.373  1.00  0.00    -0.304 C  
ENDBRANCH   7  28
ENDBRANCH   2   3
TORSDOF 10
ENDMDL
MODEL      105
REMARK 921   NORMALIZED FREE ENERGY PREDICTED BY IDOCK:   -4.76 KCAL/MOL
REMARK 922        TOTAL FREE ENERGY PREDICTED BY IDOCK:   -8.40 KCAL/MOL
REMARK 923 INTER-LIGAND FREE ENERGY PREDICTED BY IDOCK:   -7.48 KCAL/MOL
REMARK 924 INTRA-LIGAND FREE ENERGY PREDICTED BY IDOCK:   -0.92 KCAL/MOL
REMARK 927      BINDING AFFINITY PREDICTED BY RF-SCORE:    0.00 PKD
ROOT
HETATM    1  C   UNL     1     -13.503  12.874  71.463  1.00  0.00    -0.053 C  
HETATM    2  O   UNL     1     -12.152  12.817  71.009  1.00  0.00    -0.221 OA 
ENDROOT
BRANCH   2   3
HETATM    3  C   UNL     1     -11.815  13.698  70.010  1.00  0.00    -0.308 A  
HETATM    4  C   UNL     1     -11.908  13.332  68.660  1.00  0.00    -0.380 A  
HETATM    5  C   UNL     1     -11.660  14.259  67.647  1.00  0.00    -0.396 A  
HETATM    6  C   UNL     1     -11.281  15.554  67.985  1.00  0.00    -0.332 A  
HETATM    7  C   UNL     1     -11.383  14.998  70.363  1.00  0.00    -0.270 A  
HETATM    8  C   UNL     1     -11.134  15.933  69.332  1.00  0.00    -0.322 A  
BRANCH   5   9
HETATM    9  C   UNL     1     -11.905  13.833  66.242  1.00  0.00    -0.398 C  
HETATM   10  N   UNL     1     -10.845  13.287  65.561  1.00  0.00    -0.281 N  
HETATM   11  O   UNL     1     -13.024  13.962  65.754  1.00  0.00    -0.506 OA 
HETATM   12  H   UNL     1      -9.933  13.210  66.012  1.00  0.00     0.000 HD 
BRANCH  10  13
HETATM   13  C   UNL     1     -11.024  12.822  64.204  1.00  0.00    -0.398 C  
BRANCH  13  14
HETATM   14  C   UNL     1     -10.221  11.578  63.954  1.00  0.00    -0.411 A  
HETATM   15  C   UNL     1     -10.153  10.601  64.946  1.00  0.00    -0.402 A  
HETATM   16  C   UNL     1      -9.370   9.465  64.768  1.00  0.00    -0.161 A  
HETATM   17  C   UNL     1      -8.627   9.276  63.596  1.00  0.00    -0.196 A  
HETATM   18  C   UNL     1      -8.703  10.242  62.591  1.00  0.00    -0.224 A  
HETATM   19  C   UNL     1      -9.490  11.389  62.768  1.00  0.00    -0.314 A  
BRANCH  17  20
HETATM   20  O   UNL     1      -7.802   8.198  63.358  1.00  0.00    -0.136 OA 
BRANCH  20  21
HETATM   21  C   UNL     1      -7.255   7.630  64.554  1.00  0.00    -0.076 C  
BRANCH  21  22
HETATM   22  C   UNL     1      -5.888   8.206  64.946  1.00  0.00    -0.045 C  
BRANCH  22  23
HETATM   23  N   UNL     1      -5.922   8.812  66.298  1.00  0.00    -0.051 NA 
HETATM   24  C   UNL     1      -6.199  10.251  66.262  1.00  0.00    -0.084 C  
HETATM   25  C   UNL     1      -6.909   8.143  67.143  1.00  0.00    -0.070 C  
ENDBRANCH  22  23
ENDBRANCH  21  22
ENDBRANCH  20  21
ENDBRANCH  17  20
ENDBRANCH  13  14
ENDBRANCH  10  13
ENDBRANCH   5   9
BRANCH   8  26
HETATM   26  O   UNL     1     -10.761  17.250  69.441  1.00  0.00    -0.242 OA 
HETATM   27  C   UNL     1      -9.825  17.793  68.523  1.00  0.00    -0.355 C  
ENDBRANCH   8  26
BRANCH   7  28
HETATM   28  O   UNL     1     -11.279  15.452  71.656  1.00  0.00    -0.388 OA 
HETATM   29  C   UNL     1     -12.417  16.037  72.272  1.00  0.00    -0.462 C  
ENDBRANCH   7  28
ENDBRANCH   2   3
TORSDOF 10
ENDMDL
MODEL      106
REMARK 921   NORMALIZED FREE ENERGY PREDICTED BY IDOCK:   -4.75 KCAL/MOL
REMARK 922        TOTAL FREE ENERGY PREDICTED BY IDOCK:   -8.40 KCAL/MOL
REMARK 923 INTER-LIGAND FREE ENERGY PREDICTED BY IDOCK:   -7.58 KCAL/MOL
REMARK 924 INTRA-LIGAND FREE ENERGY PREDICTED BY IDOCK:   -0.81 KCAL/MOL
REMARK 927      BINDING AFFINITY PREDICTED BY RF-SCORE:    0.00 PKD
ROOT
HETATM    1  C   UNL     1     -10.534  19.761  65.586  1.00  0.00    -0.361 C  
HETATM    2  O   UNL     1      -9.512  18.796  65.833  1.00  0.00    -0.470 OA 
ENDROOT
BRANCH   2   3
HETATM    3  C   UNL     1      -9.916  17.636  66.448  1.00  0.00    -0.334 A  
HETATM    4  C   UNL     1     -10.488  16.588  65.712  1.00  0.00    -0.343 A  
HETATM    5  C   UNL     1     -10.807  15.374  66.322  1.00  0.00    -0.301 A  
HETATM    6  C   UNL     1     -10.585  15.217  67.685  1.00  0.00    -0.263 A  
HETATM    7  C   UNL     1      -9.732  17.502  67.844  1.00  0.00    -0.278 A  
HETATM    8  C   UNL     1     -10.056  16.269  68.455  1.00  0.00    -0.239 A  
BRANCH   5   9
HETATM    9  C   UNL     1     -11.289  14.267  65.451  1.00  0.00    -0.329 C  
HETATM   10  N   UNL     1     -10.394  13.746  64.549  1.00  0.00    -0.640 N  
HETATM   11  O   UNL     1     -12.437  13.852  65.576  1.00  0.00    -0.452 OA 
HETATM   12  H   UNL     1      -9.453  14.133  64.481  1.00  0.00     0.000 HD 
BRANCH  10  13
HETATM   13  C   UNL     1     -10.789  12.647  63.697  1.00  0.00    -0.395 C  
BRANCH  13  14
HETATM   14  C   UNL     1      -9.884  11.465  63.895  1.00  0.00    -0.335 A  
HETATM   15  C   UNL     1      -9.366  11.208  65.163  1.00  0.00    -0.237 A  
HETATM   16  C   UNL     1      -8.480  10.156  65.366  1.00  0.00    -0.162 A  
HETATM   17  C   UNL     1      -8.080   9.334  64.305  1.00  0.00    -0.144 A  
HETATM   18  C   UNL     1      -8.607   9.574  63.036  1.00  0.00    -0.217 A  
HETATM   19  C   UNL     1      -9.500  10.635  62.827  1.00  0.00    -0.355 A  
BRANCH  17  20
HETATM   20  O   UNL     1      -7.180   8.295  64.417  1.00  0.00    -0.082 OA 
BRANCH  20  21
HETATM   21  C   UNL     1      -7.246   7.371  63.325  1.00  0.00    -0.079 C  
BRANCH  21  22
HETATM   22  C   UNL     1      -7.406   5.908  63.760  1.00  0.00    -0.064 C  
BRANCH  22  23
HETATM   23  N   UNL     1      -7.687   5.025  62.603  1.00  0.00    -0.061 NA 
HETATM   24  C   UNL     1      -6.706   3.944  62.468  1.00  0.00    -0.030 C  
HETATM   25  C   UNL     1      -9.032   4.459  62.697  1.00  0.00    -0.122 C  
ENDBRANCH  22  23
ENDBRANCH  21  22
ENDBRANCH  20  21
ENDBRANCH  17  20
ENDBRANCH  13  14
ENDBRANCH  10  13
ENDBRANCH   5   9
BRANCH   8  26
HETATM   26  O   UNL     1      -9.913  15.900  69.771  1.00  0.00    -0.267 OA 
HETATM   27  C   UNL     1     -11.054  15.514  70.520  1.00  0.00    -0.345 C  
ENDBRANCH   8  26
BRANCH   7  28
HETATM   28  O   UNL     1      -9.164  18.464  68.643  1.00  0.00    -0.323 OA 
HETATM   29  C   UNL     1      -9.981  19.516  69.137  1.00  0.00    -0.355 C  
ENDBRANCH   7  28
ENDBRANCH   2   3
TORSDOF 10
ENDMDL
MODEL      107
REMARK 921   NORMALIZED FREE ENERGY PREDICTED BY IDOCK:   -4.75 KCAL/MOL
REMARK 922        TOTAL FREE ENERGY PREDICTED BY IDOCK:   -8.40 KCAL/MOL
REMARK 923 INTER-LIGAND FREE ENERGY PREDICTED BY IDOCK:   -7.48 KCAL/MOL
REMARK 924 INTRA-LIGAND FREE ENERGY PREDICTED BY IDOCK:   -0.92 KCAL/MOL
REMARK 927      BINDING AFFINITY PREDICTED BY RF-SCORE:    0.00 PKD
ROOT
HETATM    1  C   UNL     1      -6.244  15.524  68.093  1.00  0.00    -0.130 C  
HETATM    2  O   UNL     1      -6.428  16.328  66.929  1.00  0.00    -0.248 OA 
ENDROOT
BRANCH   2   3
HETATM    3  C   UNL     1      -7.729  16.622  66.600  1.00  0.00    -0.281 A  
HETATM    4  C   UNL     1      -8.589  15.637  66.095  1.00  0.00    -0.151 A  
HETATM    5  C   UNL     1      -9.935  15.914  65.855  1.00  0.00    -0.377 A  
HETATM    6  C   UNL     1     -10.419  17.196  66.088  1.00  0.00    -0.277 A  
HETATM    7  C   UNL     1      -8.201  17.941  66.794  1.00  0.00    -0.250 A  
HETATM    8  C   UNL     1      -9.567  18.216  66.550  1.00  0.00    -0.317 A  
BRANCH   5   9
HETATM    9  C   UNL     1     -10.813  14.784  65.442  1.00  0.00    -0.363 C  
HETATM   10  N   UNL     1     -10.339  13.953  64.457  1.00  0.00    -0.652 N  
HETATM   11  O   UNL     1     -11.897  14.624  65.994  1.00  0.00    -0.352 OA 
HETATM   12  H   UNL     1      -9.433  14.136  64.025  1.00  0.00     0.000 HD 
BRANCH  10  13
HETATM   13  C   UNL     1     -11.127  12.818  64.033  1.00  0.00    -0.414 C  
BRANCH  13  14
HETATM   14  C   UNL     1     -10.638  11.555  64.681  1.00  0.00    -0.369 A  
HETATM   15  C   UNL     1     -10.985  11.290  66.005  1.00  0.00    -0.237 A  
HETATM   16  C   UNL     1     -10.500  10.157  66.651  1.00  0.00    -0.254 A  
HETATM   17  C   UNL     1      -9.646   9.262  65.994  1.00  0.00    -0.270 A  
HETATM   18  C   UNL     1      -9.307   9.512  64.664  1.00  0.00    -0.201 A  
HETATM   19  C   UNL     1      -9.794  10.652  64.009  1.00  0.00    -0.399 A  
BRANCH  17  20
HETATM   20  O   UNL     1      -9.095   8.139  66.574  1.00  0.00    -0.155 OA 
BRANCH  20  21
HETATM   21  C   UNL     1      -8.463   8.404  67.832  1.00  0.00    -0.131 C  
BRANCH  21  22
HETATM   22  C   UNL     1      -9.109   7.676  69.017  1.00  0.00    -0.144 C  
BRANCH  22  23
HETATM   23  N   UNL     1      -8.656   6.266  69.101  1.00  0.00    -0.120 NA 
HETATM   24  C   UNL     1      -7.976   5.969  70.365  1.00  0.00    -0.107 C  
HETATM   25  C   UNL     1      -9.780   5.349  68.920  1.00  0.00    -0.151 C  
ENDBRANCH  22  23
ENDBRANCH  21  22
ENDBRANCH  20  21
ENDBRANCH  17  20
ENDBRANCH  13  14
ENDBRANCH  10  13
ENDBRANCH   5   9
BRANCH   8  26
HETATM   26  O   UNL     1     -10.247  19.396  66.718  1.00  0.00    -0.355 OA 
HETATM   27  C   UNL     1     -10.738  20.092  65.582  1.00  0.00    -0.216 C  
ENDBRANCH   8  26
BRANCH   7  28
HETATM   28  O   UNL     1      -7.440  18.966  67.301  1.00  0.00    -0.223 OA 
HETATM   29  C   UNL     1      -7.431  19.187  68.704  1.00  0.00    -0.334 C  
ENDBRANCH   7  28
ENDBRANCH   2   3
TORSDOF 10
ENDMDL
MODEL      108
REMARK 921   NORMALIZED FREE ENERGY PREDICTED BY IDOCK:   -4.74 KCAL/MOL
REMARK 922        TOTAL FREE ENERGY PREDICTED BY IDOCK:   -8.37 KCAL/MOL
REMARK 923 INTER-LIGAND FREE ENERGY PREDICTED BY IDOCK:   -7.31 KCAL/MOL
REMARK 924 INTRA-LIGAND FREE ENERGY PREDICTED BY IDOCK:   -1.07 KCAL/MOL
REMARK 927      BINDING AFFINITY PREDICTED BY RF-SCORE:    0.00 PKD
ROOT
HETATM    1  C   UNL     1      -8.169  14.860  67.128  1.00  0.00    -0.215 C  
HETATM    2  O   UNL     1      -9.448  14.251  67.296  1.00  0.00    -0.207 OA 
ENDROOT
BRANCH   2   3
HETATM    3  C   UNL     1      -9.705  13.162  66.499  1.00  0.00    -0.268 A  
HETATM    4  C   UNL     1      -9.442  11.860  66.947  1.00  0.00    -0.205 A  
HETATM    5  C   UNL     1      -9.795  10.751  66.176  1.00  0.00    -0.269 A  
HETATM    6  C   UNL     1     -10.384  10.945  64.932  1.00  0.00    -0.371 A  
HETATM    7  C   UNL     1     -10.260  13.370  65.215  1.00  0.00    -0.298 A  
HETATM    8  C   UNL     1     -10.616  12.243  64.439  1.00  0.00    -0.327 A  
BRANCH   5   9
HETATM    9  C   UNL     1      -9.602   9.401  66.774  1.00  0.00    -0.179 C  
HETATM   10  N   UNL     1     -10.722   8.759  67.243  1.00  0.00    -0.419 N  
HETATM   11  O   UNL     1      -8.478   8.909  66.812  1.00  0.00    -0.113 OA 
HETATM   12  H   UNL     1     -11.632   9.218  67.194  1.00  0.00     0.000 HD 
BRANCH  10  13
HETATM   13  C   UNL     1     -10.608   7.433  67.806  1.00  0.00    -0.210 C  
BRANCH  13  14
HETATM   14  C   UNL     1     -10.822   7.462  69.292  1.00  0.00    -0.153 A  
HETATM   15  C   UNL     1     -10.608   8.651  69.987  1.00  0.00    -0.233 A  
HETATM   16  C   UNL     1     -10.741   8.696  71.371  1.00  0.00    -0.338 A  
HETATM   17  C   UNL     1     -11.084   7.550  72.101  1.00  0.00    -0.256 A  
HETATM   18  C   UNL     1     -11.315   6.360  71.410  1.00  0.00    -0.354 A  
HETATM   19  C   UNL     1     -11.181   6.311  70.015  1.00  0.00    -0.480 A  
BRANCH  17  20
HETATM   20  O   UNL     1     -11.200   7.503  73.474  1.00  0.00    -0.271 OA 
BRANCH  20  21
HETATM   21  C   UNL     1     -10.397   6.481  74.074  1.00  0.00    -0.340 C  
BRANCH  21  22
HETATM   22  C   UNL     1      -8.938   6.894  74.308  1.00  0.00    -0.197 C  
BRANCH  22  23
HETATM   23  N   UNL     1      -7.997   5.971  73.630  1.00  0.00    -0.103 NA 
HETATM   24  C   UNL     1      -8.578   4.645  73.397  1.00  0.00    -0.101 C  
HETATM   25  C   UNL     1      -7.538   6.536  72.362  1.00  0.00    -0.095 C  
ENDBRANCH  22  23
ENDBRANCH  21  22
ENDBRANCH  20  21
ENDBRANCH  17  20
ENDBRANCH  13  14
ENDBRANCH  10  13
ENDBRANCH   5   9
BRANCH   8  26
HETATM   26  O   UNL     1     -11.209  12.207  63.201  1.00  0.00    -0.348 OA 
HETATM   27  C   UNL     1     -12.607  11.990  63.098  1.00  0.00    -0.220 C  
ENDBRANCH   8  26
BRANCH   7  28
HETATM   28  O   UNL     1     -10.569  14.605  64.699  1.00  0.00    -0.392 OA 
HETATM   29  C   UNL     1     -11.908  15.070  64.786  1.00  0.00    -0.341 C  
ENDBRANCH   7  28
ENDBRANCH   2   3
TORSDOF 10
ENDMDL
MODEL      109
REMARK 921   NORMALIZED FREE ENERGY PREDICTED BY IDOCK:   -4.73 KCAL/MOL
REMARK 922        TOTAL FREE ENERGY PREDICTED BY IDOCK:   -8.36 KCAL/MOL
REMARK 923 INTER-LIGAND FREE ENERGY PREDICTED BY IDOCK:   -7.39 KCAL/MOL
REMARK 924 INTRA-LIGAND FREE ENERGY PREDICTED BY IDOCK:   -0.97 KCAL/MOL
REMARK 927      BINDING AFFINITY PREDICTED BY RF-SCORE:    0.00 PKD
ROOT
HETATM    1  C   UNL     1     -10.745   6.110  67.213  1.00  0.00    -0.335 C  
HETATM    2  O   UNL     1     -10.696   5.769  68.598  1.00  0.00    -0.246 OA 
ENDROOT
BRANCH   2   3
HETATM    3  C   UNL     1     -10.152   6.715  69.432  1.00  0.00    -0.173 A  
HETATM    4  C   UNL     1      -9.604   7.900  68.923  1.00  0.00    -0.155 A  
HETATM    5  C   UNL     1      -9.142   8.902  69.777  1.00  0.00    -0.151 A  
HETATM    6  C   UNL     1      -9.195   8.703  71.152  1.00  0.00    -0.269 A  
HETATM    7  C   UNL     1     -10.165   6.484  70.828  1.00  0.00    -0.187 A  
HETATM    8  C   UNL     1      -9.696   7.503  71.688  1.00  0.00    -0.161 A  
BRANCH   5   9
HETATM    9  C   UNL     1      -8.695  10.183  69.165  1.00  0.00    -0.170 C  
HETATM   10  N   UNL     1      -9.247  10.524  67.955  1.00  0.00    -0.139 N  
HETATM   11  O   UNL     1      -7.880  10.887  69.755  1.00  0.00     0.005 OA 
HETATM   12  H   UNL     1      -9.914   9.898  67.503  1.00  0.00     0.000 HD 
BRANCH  10  13
HETATM   13  C   UNL     1      -8.880  11.771  67.322  1.00  0.00    -0.167 C  
BRANCH  13  14
HETATM   14  C   UNL     1      -9.728  12.900  67.833  1.00  0.00    -0.218 A  
HETATM   15  C   UNL     1      -9.118  13.963  68.496  1.00  0.00    -0.143 A  
HETATM   16  C   UNL     1      -9.882  14.995  69.032  1.00  0.00    -0.236 A  
HETATM   17  C   UNL     1     -11.279  14.988  68.927  1.00  0.00    -0.277 A  
HETATM   18  C   UNL     1     -11.896  13.935  68.250  1.00  0.00    -0.412 A  
HETATM   19  C   UNL     1     -11.129  12.893  67.709  1.00  0.00    -0.291 A  
BRANCH  17  20
HETATM   20  O   UNL     1     -12.107  15.953  69.461  1.00  0.00    -0.329 OA 
BRANCH  20  21
HETATM   21  C   UNL     1     -12.326  15.795  70.868  1.00  0.00    -0.404 C  
BRANCH  21  22
HETATM   22  C   UNL     1     -13.777  15.461  71.237  1.00  0.00    -0.475 C  
BRANCH  22  23
HETATM   23  N   UNL     1     -13.853  14.702  72.508  1.00  0.00    -0.467 NA 
HETATM   24  C   UNL     1     -13.644  13.264  72.317  1.00  0.00    -0.605 C  
HETATM   25  C   UNL     1     -12.888  15.215  73.478  1.00  0.00    -0.526 C  
ENDBRANCH  22  23
ENDBRANCH  21  22
ENDBRANCH  20  21
ENDBRANCH  17  20
ENDBRANCH  13  14
ENDBRANCH  10  13
ENDBRANCH   5   9
BRANCH   8  26
HETATM   26  O   UNL     1      -9.663   7.518  73.061  1.00  0.00    -0.181 OA 
HETATM   27  C   UNL     1      -8.458   7.852  73.731  1.00  0.00    -0.252 C  
ENDBRANCH   8  26
BRANCH   7  28
HETATM   28  O   UNL     1     -10.696   5.363  71.419  1.00  0.00    -0.240 OA 
HETATM   29  C   UNL     1      -9.891   4.198  71.529  1.00  0.00    -0.184 C  
ENDBRANCH   7  28
ENDBRANCH   2   3
TORSDOF 10
ENDMDL
MODEL      110
REMARK 921   NORMALIZED FREE ENERGY PREDICTED BY IDOCK:   -4.73 KCAL/MOL
REMARK 922        TOTAL FREE ENERGY PREDICTED BY IDOCK:   -8.36 KCAL/MOL
REMARK 923 INTER-LIGAND FREE ENERGY PREDICTED BY IDOCK:   -7.54 KCAL/MOL
REMARK 924 INTRA-LIGAND FREE ENERGY PREDICTED BY IDOCK:   -0.82 KCAL/MOL
REMARK 927      BINDING AFFINITY PREDICTED BY RF-SCORE:    0.00 PKD
ROOT
HETATM    1  C   UNL     1     -10.470  19.225  65.956  1.00  0.00    -0.487 C  
HETATM    2  O   UNL     1      -9.377  18.309  65.931  1.00  0.00    -0.506 OA 
ENDROOT
BRANCH   2   3
HETATM    3  C   UNL     1      -9.253  17.490  67.027  1.00  0.00    -0.248 A  
HETATM    4  C   UNL     1     -10.257  16.570  67.361  1.00  0.00    -0.287 A  
HETATM    5  C   UNL     1     -10.085  15.672  68.416  1.00  0.00    -0.214 A  
HETATM    6  C   UNL     1      -8.915  15.718  69.166  1.00  0.00    -0.256 A  
HETATM    7  C   UNL     1      -8.081  17.575  67.814  1.00  0.00    -0.221 A  
HETATM    8  C   UNL     1      -7.912  16.663  68.881  1.00  0.00    -0.236 A  
BRANCH   5   9
HETATM    9  C   UNL     1     -11.138  14.642  68.627  1.00  0.00    -0.262 C  
HETATM   10  N   UNL     1     -11.246  14.108  69.888  1.00  0.00    -0.447 N  
HETATM   11  O   UNL     1     -11.871  14.323  67.697  1.00  0.00    -0.363 OA 
HETATM   12  H   UNL     1     -10.605  14.404  70.625  1.00  0.00     0.000 HD 
BRANCH  10  13
HETATM   13  C   UNL     1     -12.269  13.127  70.169  1.00  0.00    -0.290 C  
BRANCH  13  14
HETATM   14  C   UNL     1     -11.674  11.753  70.290  1.00  0.00    -0.317 A  
HETATM   15  C   UNL     1     -12.162  10.883  71.264  1.00  0.00    -0.395 A  
HETATM   16  C   UNL     1     -11.592   9.626  71.438  1.00  0.00    -0.472 A  
HETATM   17  C   UNL     1     -10.514   9.206  70.650  1.00  0.00    -0.245 A  
HETATM   18  C   UNL     1     -10.031  10.065  69.661  1.00  0.00    -0.263 A  
HETATM   19  C   UNL     1     -10.602  11.333  69.483  1.00  0.00    -0.083 A  
BRANCH  17  20
HETATM   20  O   UNL     1      -9.873   7.993  70.784  1.00  0.00    -0.182 OA 
BRANCH  20  21
HETATM   21  C   UNL     1     -10.772   6.897  70.989  1.00  0.00    -0.231 C  
BRANCH  21  22
HETATM   22  C   UNL     1     -10.537   5.715  70.041  1.00  0.00    -0.318 C  
BRANCH  22  23
HETATM   23  N   UNL     1     -10.109   4.502  70.779  1.00  0.00    -0.198 NA 
HETATM   24  C   UNL     1      -9.052   3.763  70.083  1.00  0.00    -0.125 C  
HETATM   25  C   UNL     1      -9.661   4.847  72.128  1.00  0.00    -0.163 C  
ENDBRANCH  22  23
ENDBRANCH  21  22
ENDBRANCH  20  21
ENDBRANCH  17  20
ENDBRANCH  13  14
ENDBRANCH  10  13
ENDBRANCH   5   9
BRANCH   8  26
HETATM   26  O   UNL     1      -6.845  16.529  69.735  1.00  0.00    -0.159 OA 
HETATM   27  C   UNL     1      -6.438  15.236  70.153  1.00  0.00    -0.089 C  
ENDBRANCH   8  26
BRANCH   7  28
HETATM   28  O   UNL     1      -7.037  18.430  67.554  1.00  0.00    -0.202 OA 
HETATM   29  C   UNL     1      -7.018  19.702  68.185  1.00  0.00    -0.284 C  
ENDBRANCH   7  28
ENDBRANCH   2   3
TORSDOF 10
ENDMDL
MODEL      111
REMARK 921   NORMALIZED FREE ENERGY PREDICTED BY IDOCK:   -4.73 KCAL/MOL
REMARK 922        TOTAL FREE ENERGY PREDICTED BY IDOCK:   -8.36 KCAL/MOL
REMARK 923 INTER-LIGAND FREE ENERGY PREDICTED BY IDOCK:   -7.48 KCAL/MOL
REMARK 924 INTRA-LIGAND FREE ENERGY PREDICTED BY IDOCK:   -0.88 KCAL/MOL
REMARK 927      BINDING AFFINITY PREDICTED BY RF-SCORE:    0.00 PKD
ROOT
HETATM    1  C   UNL     1     -11.813  16.012  71.964  1.00  0.00    -0.533 C  
HETATM    2  O   UNL     1     -12.396  16.026  70.662  1.00  0.00    -0.341 OA 
ENDROOT
BRANCH   2   3
HETATM    3  C   UNL     1     -11.903  15.102  69.772  1.00  0.00    -0.333 A  
HETATM    4  C   UNL     1     -12.002  13.727  70.026  1.00  0.00    -0.407 A  
HETATM    5  C   UNL     1     -11.590  12.790  69.077  1.00  0.00    -0.366 A  
HETATM    6  C   UNL     1     -11.041  13.231  67.878  1.00  0.00    -0.287 A  
HETATM    7  C   UNL     1     -11.302  15.559  68.576  1.00  0.00    -0.351 A  
HETATM    8  C   UNL     1     -10.887  14.605  67.618  1.00  0.00    -0.284 A  
BRANCH   5   9
HETATM    9  C   UNL     1     -11.847  11.353  69.366  1.00  0.00    -0.351 C  
HETATM   10  N   UNL     1     -11.737  10.948  70.674  1.00  0.00    -0.357 N  
HETATM   11  O   UNL     1     -12.159  10.596  68.451  1.00  0.00    -0.423 OA 
HETATM   12  H   UNL     1     -11.466  11.618  71.394  1.00  0.00     0.000 HD 
BRANCH  10  13
HETATM   13  C   UNL     1     -12.005   9.572  71.027  1.00  0.00    -0.328 C  
BRANCH  13  14
HETATM   14  C   UNL     1     -10.789   8.718  70.808  1.00  0.00    -0.282 A  
HETATM   15  C   UNL     1     -10.949   7.350  70.589  1.00  0.00    -0.274 A  
HETATM   16  C   UNL     1      -9.840   6.524  70.440  1.00  0.00    -0.193 A  
HETATM   17  C   UNL     1      -8.540   7.039  70.515  1.00  0.00    -0.141 A  
HETATM   18  C   UNL     1      -8.373   8.409  70.717  1.00  0.00    -0.139 A  
HETATM   19  C   UNL     1      -9.488   9.246  70.868  1.00  0.00    -0.330 A  
BRANCH  17  20
HETATM   20  O   UNL     1      -7.392   6.282  70.414  1.00  0.00    -0.083 OA 
BRANCH  20  21
HETATM   21  C   UNL     1      -7.460   5.285  69.389  1.00  0.00    -0.065 C  
BRANCH  21  22
HETATM   22  C   UNL     1      -7.255   3.853  69.900  1.00  0.00    -0.042 C  
BRANCH  22  23
HETATM   23  N   UNL     1      -8.177   2.901  69.236  1.00  0.00    -0.054 NA 
HETATM   24  C   UNL     1      -9.328   2.554  70.076  1.00  0.00    -0.116 C  
HETATM   25  C   UNL     1      -8.644   3.436  67.959  1.00  0.00    -0.095 C  
ENDBRANCH  22  23
ENDBRANCH  21  22
ENDBRANCH  20  21
ENDBRANCH  17  20
ENDBRANCH  13  14
ENDBRANCH  10  13
ENDBRANCH   5   9
BRANCH   8  26
HETATM   26  O   UNL     1     -10.333  14.818  66.380  1.00  0.00    -0.278 OA 
HETATM   27  C   UNL     1     -10.896  14.188  65.241  1.00  0.00    -0.349 C  
ENDBRANCH   8  26
BRANCH   7  28
HETATM   28  O   UNL     1     -11.177  16.883  68.233  1.00  0.00    -0.303 OA 
HETATM   29  C   UNL     1     -10.058  17.615  68.713  1.00  0.00    -0.377 C  
ENDBRANCH   7  28
ENDBRANCH   2   3
TORSDOF 10
ENDMDL
MODEL      112
REMARK 921   NORMALIZED FREE ENERGY PREDICTED BY IDOCK:   -4.72 KCAL/MOL
REMARK 922        TOTAL FREE ENERGY PREDICTED BY IDOCK:   -8.35 KCAL/MOL
REMARK 923 INTER-LIGAND FREE ENERGY PREDICTED BY IDOCK:   -7.60 KCAL/MOL
REMARK 924 INTRA-LIGAND FREE ENERGY PREDICTED BY IDOCK:   -0.74 KCAL/MOL
REMARK 927      BINDING AFFINITY PREDICTED BY RF-SCORE:    0.00 PKD
ROOT
HETATM    1  C   UNL     1      -7.050  19.474  67.480  1.00  0.00    -0.216 C  
HETATM    2  O   UNL     1      -8.197  18.808  68.006  1.00  0.00    -0.276 OA 
ENDROOT
BRANCH   2   3
HETATM    3  C   UNL     1      -8.685  17.767  67.254  1.00  0.00    -0.237 A  
HETATM    4  C   UNL     1      -8.257  16.451  67.477  1.00  0.00    -0.167 A  
HETATM    5  C   UNL     1      -8.826  15.383  66.780  1.00  0.00    -0.300 A  
HETATM    6  C   UNL     1      -9.806  15.637  65.827  1.00  0.00    -0.386 A  
HETATM    7  C   UNL     1      -9.645  18.039  66.252  1.00  0.00    -0.238 A  
HETATM    8  C   UNL     1     -10.219  16.954  65.550  1.00  0.00    -0.126 A  
BRANCH   5   9
HETATM    9  C   UNL     1      -8.413  14.006  67.164  1.00  0.00    -0.190 C  
HETATM   10  N   UNL     1      -9.161  12.967  66.664  1.00  0.00    -0.360 N  
HETATM   11  O   UNL     1      -7.431  13.844  67.881  1.00  0.00    -0.118 OA 
HETATM   12  H   UNL     1      -9.973  13.159  66.078  1.00  0.00     0.000 HD 
BRANCH  10  13
HETATM   13  C   UNL     1      -8.793  11.603  66.972  1.00  0.00    -0.177 C  
BRANCH  13  14
HETATM   14  C   UNL     1      -9.678  11.041  68.048  1.00  0.00    -0.181 A  
HETATM   15  C   UNL     1      -9.478   9.731  68.478  1.00  0.00    -0.148 A  
HETATM   16  C   UNL     1     -10.317   9.163  69.431  1.00  0.00    -0.220 A  
HETATM   17  C   UNL     1     -11.385   9.886  69.975  1.00  0.00    -0.249 A  
HETATM   18  C   UNL     1     -11.582  11.204  69.561  1.00  0.00    -0.392 A  
HETATM   19  C   UNL     1     -10.739  11.780  68.600  1.00  0.00    -0.252 A  
BRANCH  17  20
HETATM   20  O   UNL     1     -12.282   9.385  70.895  1.00  0.00    -0.286 OA 
BRANCH  20  21
HETATM   21  C   UNL     1     -11.995   8.037  71.287  1.00  0.00    -0.296 C  
BRANCH  21  22
HETATM   22  C   UNL     1     -11.538   7.899  72.745  1.00  0.00    -0.329 C  
BRANCH  22  23
HETATM   23  N   UNL     1     -10.274   7.132  72.849  1.00  0.00    -0.208 NA 
HETATM   24  C   UNL     1      -9.097   8.000  72.957  1.00  0.00    -0.265 C  
HETATM   25  C   UNL     1     -10.315   6.215  73.986  1.00  0.00    -0.300 C  
ENDBRANCH  22  23
ENDBRANCH  21  22
ENDBRANCH  20  21
ENDBRANCH  17  20
ENDBRANCH  13  14
ENDBRANCH  10  13
ENDBRANCH   5   9
BRANCH   8  26
HETATM   26  O   UNL     1     -11.195  16.977  64.584  1.00  0.00    -0.968 OA 
HETATM   27  C   UNL     1     -11.762  15.759  64.130  1.00  0.00    -0.067 C  
ENDBRANCH   8  26
BRANCH   7  28
HETATM   28  O   UNL     1     -10.137  19.291  65.975  1.00  0.00    -0.405 OA 
HETATM   29  C   UNL     1     -10.905  19.962  66.964  1.00  0.00    -0.246 C  
ENDBRANCH   7  28
ENDBRANCH   2   3
TORSDOF 10
ENDMDL
MODEL      113
REMARK 921   NORMALIZED FREE ENERGY PREDICTED BY IDOCK:   -4.70 KCAL/MOL
REMARK 922        TOTAL FREE ENERGY PREDICTED BY IDOCK:   -8.31 KCAL/MOL
REMARK 923 INTER-LIGAND FREE ENERGY PREDICTED BY IDOCK:   -7.46 KCAL/MOL
REMARK 924 INTRA-LIGAND FREE ENERGY PREDICTED BY IDOCK:   -0.85 KCAL/MOL
REMARK 927      BINDING AFFINITY PREDICTED BY RF-SCORE:    0.00 PKD
ROOT
HETATM    1  C   UNL     1     -11.849   7.181  70.751  1.00  0.00    -0.325 C  
HETATM    2  O   UNL     1     -11.615   6.231  69.713  1.00  0.00    -0.436 OA 
ENDROOT
BRANCH   2   3
HETATM    3  C   UNL     1     -10.501   6.447  68.939  1.00  0.00    -0.223 A  
HETATM    4  C   UNL     1     -10.517   7.380  67.892  1.00  0.00    -0.265 A  
HETATM    5  C   UNL     1      -9.357   7.670  67.172  1.00  0.00    -0.180 A  
HETATM    6  C   UNL     1      -8.180   6.995  67.476  1.00  0.00    -0.116 A  
HETATM    7  C   UNL     1      -9.321   5.722  69.223  1.00  0.00    -0.124 A  
HETATM    8  C   UNL     1      -8.149   6.020  68.490  1.00  0.00    -0.107 A  
BRANCH   5   9
HETATM    9  C   UNL     1      -9.421   8.763  66.164  1.00  0.00    -0.247 C  
HETATM   10  N   UNL     1     -10.320   9.775  66.397  1.00  0.00    -0.211 N  
HETATM   11  O   UNL     1      -8.675   8.737  65.190  1.00  0.00    -0.186 OA 
HETATM   12  H   UNL     1     -10.923   9.744  67.219  1.00  0.00     0.000 HD 
BRANCH  10  13
HETATM   13  C   UNL     1     -10.411  10.884  65.474  1.00  0.00    -0.252 C  
BRANCH  13  14
HETATM   14  C   UNL     1     -10.771  12.151  66.195  1.00  0.00    -0.307 A  
HETATM   15  C   UNL     1     -10.045  12.522  67.325  1.00  0.00    -0.216 A  
HETATM   16  C   UNL     1     -10.392  13.660  68.047  1.00  0.00    -0.250 A  
HETATM   17  C   UNL     1     -11.480  14.454  67.665  1.00  0.00    -0.346 A  
HETATM   18  C   UNL     1     -12.202  14.098  66.525  1.00  0.00    -0.463 A  
HETATM   19  C   UNL     1     -11.856  12.952  65.794  1.00  0.00    -0.469 A  
BRANCH  17  20
HETATM   20  O   UNL     1     -11.909  15.573  68.346  1.00  0.00    -0.351 OA 
BRANCH  20  21
HETATM   21  C   UNL     1     -10.843  16.462  68.701  1.00  0.00    -0.331 C  
BRANCH  21  22
HETATM   22  C   UNL     1     -10.343  17.327  67.537  1.00  0.00    -0.346 C  
BRANCH  22  23
HETATM   23  N   UNL     1     -10.635  18.763  67.761  1.00  0.00    -0.411 NA 
HETATM   24  C   UNL     1      -9.845  19.333  68.856  1.00  0.00    -0.446 C  
HETATM   25  C   UNL     1     -10.411  19.534  66.540  1.00  0.00    -0.493 C  
ENDBRANCH  22  23
ENDBRANCH  21  22
ENDBRANCH  20  21
ENDBRANCH  17  20
ENDBRANCH  13  14
ENDBRANCH  10  13
ENDBRANCH   5   9
BRANCH   8  26
HETATM   26  O   UNL     1      -6.892   5.485  68.628  1.00  0.00    -0.055 OA 
HETATM   27  C   UNL     1      -5.786   6.117  68.003  1.00  0.00    -0.016 C  
ENDBRANCH   8  26
BRANCH   7  28
HETATM   28  O   UNL     1      -9.205   4.803  70.238  1.00  0.00    -0.117 OA 
HETATM   29  C   UNL     1      -9.395   3.427  69.943  1.00  0.00    -0.168 C  
ENDBRANCH   7  28
ENDBRANCH   2   3
TORSDOF 10
ENDMDL
MODEL      114
REMARK 921   NORMALIZED FREE ENERGY PREDICTED BY IDOCK:   -4.70 KCAL/MOL
REMARK 922        TOTAL FREE ENERGY PREDICTED BY IDOCK:   -8.31 KCAL/MOL
REMARK 923 INTER-LIGAND FREE ENERGY PREDICTED BY IDOCK:   -7.83 KCAL/MOL
REMARK 924 INTRA-LIGAND FREE ENERGY PREDICTED BY IDOCK:   -0.48 KCAL/MOL
REMARK 927      BINDING AFFINITY PREDICTED BY RF-SCORE:    0.00 PKD
ROOT
HETATM    1  C   UNL     1     -11.988  15.779  64.111  1.00  0.00     0.020 C  
HETATM    2  O   UNL     1     -10.811  16.354  64.677  1.00  0.00    -0.717 OA 
ENDROOT
BRANCH   2   3
HETATM    3  C   UNL     1     -10.392  15.815  65.869  1.00  0.00    -0.354 A  
HETATM    4  C   UNL     1     -11.153  14.841  66.531  1.00  0.00    -0.334 A  
HETATM    5  C   UNL     1     -10.678  14.225  67.690  1.00  0.00    -0.259 A  
HETATM    6  C   UNL     1      -9.449  14.610  68.212  1.00  0.00    -0.211 A  
HETATM    7  C   UNL     1      -9.163  16.247  66.420  1.00  0.00    -0.299 A  
HETATM    8  C   UNL     1      -8.687  15.619  67.594  1.00  0.00    -0.175 A  
BRANCH   5   9
HETATM    9  C   UNL     1     -11.483  13.110  68.261  1.00  0.00    -0.314 C  
HETATM   10  N   UNL     1     -11.337  12.858  69.603  1.00  0.00    -0.474 N  
HETATM   11  O   UNL     1     -12.246  12.479  67.537  1.00  0.00    -0.418 OA 
HETATM   12  H   UNL     1     -10.681  13.409  70.158  1.00  0.00     0.000 HD 
BRANCH  10  13
HETATM   13  C   UNL     1     -12.113  11.811  70.228  1.00  0.00    -0.342 C  
BRANCH  13  14
HETATM   14  C   UNL     1     -11.335  10.528  70.281  1.00  0.00    -0.407 A  
HETATM   15  C   UNL     1     -10.460  10.218  69.241  1.00  0.00    -0.250 A  
HETATM   16  C   UNL     1      -9.770   9.011  69.233  1.00  0.00    -0.168 A  
HETATM   17  C   UNL     1      -9.940   8.075  70.261  1.00  0.00    -0.189 A  
HETATM   18  C   UNL     1     -10.802   8.384  71.314  1.00  0.00    -0.293 A  
HETATM   19  C   UNL     1     -11.501   9.600  71.325  1.00  0.00    -0.463 A  
BRANCH  17  20
HETATM   20  O   UNL     1      -9.321   6.843  70.308  1.00  0.00    -0.162 OA 
BRANCH  20  21
HETATM   21  C   UNL     1     -10.090   5.801  69.698  1.00  0.00    -0.212 C  
BRANCH  21  22
HETATM   22  C   UNL     1      -9.415   5.164  68.477  1.00  0.00    -0.133 C  
BRANCH  22  23
HETATM   23  N   UNL     1      -9.792   5.858  67.223  1.00  0.00    -0.128 NA 
HETATM   24  C   UNL     1      -8.639   6.446  66.536  1.00  0.00    -0.125 C  
HETATM   25  C   UNL     1     -10.493   4.949  66.317  1.00  0.00    -0.304 C  
ENDBRANCH  22  23
ENDBRANCH  21  22
ENDBRANCH  20  21
ENDBRANCH  17  20
ENDBRANCH  13  14
ENDBRANCH  10  13
ENDBRANCH   5   9
BRANCH   8  26
HETATM   26  O   UNL     1      -7.510  15.838  68.267  1.00  0.00    -0.113 OA 
HETATM   27  C   UNL     1      -7.280  15.188  69.507  1.00  0.00    -0.204 C  
ENDBRANCH   8  26
BRANCH   7  28
HETATM   28  O   UNL     1      -8.342  17.181  65.836  1.00  0.00    -0.527 OA 
HETATM   29  C   UNL     1      -7.997  18.347  66.569  1.00  0.00    -0.271 C  
ENDBRANCH   7  28
ENDBRANCH   2   3
TORSDOF 10
ENDMDL
MODEL      115
REMARK 921   NORMALIZED FREE ENERGY PREDICTED BY IDOCK:   -4.70 KCAL/MOL
REMARK 922        TOTAL FREE ENERGY PREDICTED BY IDOCK:   -8.31 KCAL/MOL
REMARK 923 INTER-LIGAND FREE ENERGY PREDICTED BY IDOCK:   -7.13 KCAL/MOL
REMARK 924 INTRA-LIGAND FREE ENERGY PREDICTED BY IDOCK:   -1.18 KCAL/MOL
REMARK 927      BINDING AFFINITY PREDICTED BY RF-SCORE:    0.00 PKD
ROOT
HETATM    1  C   UNL     1     -10.583  15.388  69.872  1.00  0.00    -0.303 C  
HETATM    2  O   UNL     1     -11.819  14.774  69.512  1.00  0.00    -0.293 OA 
ENDROOT
BRANCH   2   3
HETATM    3  C   UNL     1     -11.917  13.427  69.762  1.00  0.00    -0.330 A  
HETATM    4  C   UNL     1     -11.284  12.489  68.935  1.00  0.00    -0.330 A  
HETATM    5  C   UNL     1     -11.303  11.128  69.248  1.00  0.00    -0.349 A  
HETATM    6  C   UNL     1     -11.991  10.698  70.377  1.00  0.00    -0.436 A  
HETATM    7  C   UNL     1     -12.660  12.993  70.885  1.00  0.00    -0.280 A  
HETATM    8  C   UNL     1     -12.675  11.614  71.197  1.00  0.00    -0.325 A  
BRANCH   5   9
HETATM    9  C   UNL     1     -10.500  10.210  68.395  1.00  0.00    -0.208 C  
HETATM   10  N   UNL     1     -11.043   8.979  68.119  1.00  0.00    -0.470 N  
HETATM   11  O   UNL     1      -9.414  10.579  67.960  1.00  0.00    -0.145 OA 
HETATM   12  H   UNL     1     -11.948   8.720  68.512  1.00  0.00     0.000 HD 
BRANCH  10  13
HETATM   13  C   UNL     1     -10.330   8.052  67.269  1.00  0.00    -0.301 C  
BRANCH  13  14
HETATM   14  C   UNL     1     -10.042   6.771  67.999  1.00  0.00    -0.183 A  
HETATM   15  C   UNL     1      -9.240   5.807  67.391  1.00  0.00    -0.109 A  
HETATM   16  C   UNL     1      -9.002   4.587  68.017  1.00  0.00    -0.136 A  
HETATM   17  C   UNL     1      -9.567   4.294  69.264  1.00  0.00    -0.190 A  
HETATM   18  C   UNL     1     -10.357   5.261  69.887  1.00  0.00    -0.374 A  
HETATM   19  C   UNL     1     -10.599   6.492  69.259  1.00  0.00    -0.292 A  
BRANCH  17  20
HETATM   20  O   UNL     1      -9.409   3.098  69.932  1.00  0.00    -0.143 OA 
BRANCH  20  21
HETATM   21  C   UNL     1      -9.170   3.261  71.335  1.00  0.00    -0.121 C  
BRANCH  21  22
HETATM   22  C   UNL     1      -7.713   3.593  71.682  1.00  0.00    -0.060 C  
BRANCH  22  23
HETATM   23  N   UNL     1      -7.618   4.801  72.535  1.00  0.00    -0.088 NA 
HETATM   24  C   UNL     1      -7.172   5.983  71.790  1.00  0.00    -0.088 C  
HETATM   25  C   UNL     1      -8.899   5.082  73.181  1.00  0.00    -0.111 C  
ENDBRANCH  22  23
ENDBRANCH  21  22
ENDBRANCH  20  21
ENDBRANCH  17  20
ENDBRANCH  13  14
ENDBRANCH  10  13
ENDBRANCH   5   9
BRANCH   8  26
HETATM   26  O   UNL     1     -13.279  10.981  72.255  1.00  0.00    -0.405 OA 
HETATM   27  C   UNL     1     -13.385   9.566  72.259  1.00  0.00    -0.441 C  
ENDBRANCH   8  26
BRANCH   7  28
HETATM   28  O   UNL     1     -13.298  13.838  71.761  1.00  0.00    -0.346 OA 
HETATM   29  C   UNL     1     -12.568  14.369  72.857  1.00  0.00    -0.268 C  
ENDBRANCH   7  28
ENDBRANCH   2   3
TORSDOF 10
ENDMDL
MODEL      116
REMARK 921   NORMALIZED FREE ENERGY PREDICTED BY IDOCK:   -4.69 KCAL/MOL
REMARK 922        TOTAL FREE ENERGY PREDICTED BY IDOCK:   -8.30 KCAL/MOL
REMARK 923 INTER-LIGAND FREE ENERGY PREDICTED BY IDOCK:   -7.35 KCAL/MOL
REMARK 924 INTRA-LIGAND FREE ENERGY PREDICTED BY IDOCK:   -0.95 KCAL/MOL
REMARK 927      BINDING AFFINITY PREDICTED BY RF-SCORE:    0.00 PKD
ROOT
HETATM    1  C   UNL     1     -10.760   5.736  66.753  1.00  0.00    -0.297 C  
HETATM    2  O   UNL     1     -10.354   6.302  67.999  1.00  0.00    -0.151 OA 
ENDROOT
BRANCH   2   3
HETATM    3  C   UNL     1      -9.929   7.608  67.957  1.00  0.00    -0.175 A  
HETATM    4  C   UNL     1     -10.383   8.485  66.962  1.00  0.00    -0.379 A  
HETATM    5  C   UNL     1     -10.028   9.835  66.979  1.00  0.00    -0.259 A  
HETATM    6  C   UNL     1      -9.183  10.304  67.978  1.00  0.00    -0.138 A  
HETATM    7  C   UNL     1      -9.030   8.066  68.948  1.00  0.00    -0.141 A  
HETATM    8  C   UNL     1      -8.675   9.434  68.960  1.00  0.00    -0.136 A  
BRANCH   5   9
HETATM    9  C   UNL     1     -10.653  10.729  65.966  1.00  0.00    -0.156 C  
HETATM   10  N   UNL     1     -11.599  11.617  66.416  1.00  0.00    -0.181 N  
HETATM   11  O   UNL     1     -10.299  10.659  64.793  1.00  0.00    -0.335 OA 
HETATM   12  H   UNL     1     -11.862  11.628  67.401  1.00  0.00     0.000 HD 
BRANCH  10  13
HETATM   13  C   UNL     1     -12.221  12.536  65.489  1.00  0.00    -0.377 C  
BRANCH  13  14
HETATM   14  C   UNL     1     -11.621  13.908  65.612  1.00  0.00    -0.338 A  
HETATM   15  C   UNL     1     -11.810  14.829  64.584  1.00  0.00    -0.442 A  
HETATM   16  C   UNL     1     -11.219  16.086  64.642  1.00  0.00    -0.340 A  
HETATM   17  C   UNL     1     -10.414  16.456  65.727  1.00  0.00    -0.354 A  
HETATM   18  C   UNL     1     -10.233  15.545  66.769  1.00  0.00    -0.282 A  
HETATM   19  C   UNL     1     -10.828  14.276  66.713  1.00  0.00    -0.298 A  
BRANCH  17  20
HETATM   20  O   UNL     1      -9.765  17.667  65.843  1.00  0.00    -0.521 OA 
BRANCH  20  21
HETATM   21  C   UNL     1      -8.635  17.621  66.721  1.00  0.00    -0.255 C  
BRANCH  21  22
HETATM   22  C   UNL     1      -7.283  17.673  65.997  1.00  0.00    -0.281 C  
BRANCH  22  23
HETATM   23  N   UNL     1      -7.055  18.994  65.365  1.00  0.00    -0.490 NA 
HETATM   24  C   UNL     1      -7.173  20.102  66.318  1.00  0.00    -0.281 C  
HETATM   25  C   UNL     1      -5.746  19.040  64.717  1.00  0.00    -0.269 C  
ENDBRANCH  22  23
ENDBRANCH  21  22
ENDBRANCH  20  21
ENDBRANCH  17  20
ENDBRANCH  13  14
ENDBRANCH  10  13
ENDBRANCH   5   9
BRANCH   8  26
HETATM   26  O   UNL     1      -7.869  10.103  69.849  1.00  0.00    -0.167 OA 
HETATM   27  C   UNL     1      -7.146  11.246  69.419  1.00  0.00    -0.090 C  
ENDBRANCH   8  26
BRANCH   7  28
HETATM   28  O   UNL     1      -8.547   7.287  69.971  1.00  0.00    -0.138 OA 
HETATM   29  C   UNL     1      -7.395   6.489  69.740  1.00  0.00    -0.079 C  
ENDBRANCH   7  28
ENDBRANCH   2   3
TORSDOF 10
ENDMDL
MODEL      117
REMARK 921   NORMALIZED FREE ENERGY PREDICTED BY IDOCK:   -4.69 KCAL/MOL
REMARK 922        TOTAL FREE ENERGY PREDICTED BY IDOCK:   -8.30 KCAL/MOL
REMARK 923 INTER-LIGAND FREE ENERGY PREDICTED BY IDOCK:   -7.32 KCAL/MOL
REMARK 924 INTRA-LIGAND FREE ENERGY PREDICTED BY IDOCK:   -0.98 KCAL/MOL
REMARK 927      BINDING AFFINITY PREDICTED BY RF-SCORE:    0.00 PKD
ROOT
HETATM    1  C   UNL     1     -12.492  14.491  64.335  1.00  0.00    -0.309 C  
HETATM    2  O   UNL     1     -12.720  14.007  65.658  1.00  0.00    -0.526 OA 
ENDROOT
BRANCH   2   3
HETATM    3  C   UNL     1     -11.663  13.360  66.252  1.00  0.00    -0.366 A  
HETATM    4  C   UNL     1     -11.496  11.974  66.121  1.00  0.00    -0.401 A  
HETATM    5  C   UNL     1     -10.371  11.335  66.641  1.00  0.00    -0.279 A  
HETATM    6  C   UNL     1      -9.421  12.081  67.330  1.00  0.00    -0.177 A  
HETATM    7  C   UNL     1     -10.726  14.119  66.992  1.00  0.00    -0.285 A  
HETATM    8  C   UNL     1      -9.588  13.465  67.517  1.00  0.00    -0.221 A  
BRANCH   5   9
HETATM    9  C   UNL     1     -10.200   9.885  66.350  1.00  0.00    -0.222 C  
HETATM   10  N   UNL     1     -10.748   8.999  67.246  1.00  0.00    -0.378 N  
HETATM   11  O   UNL     1      -9.606   9.535  65.335  1.00  0.00    -0.276 OA 
HETATM   12  H   UNL     1     -11.226   9.344  68.079  1.00  0.00     0.000 HD 
BRANCH  10  13
HETATM   13  C   UNL     1     -10.647   7.577  67.005  1.00  0.00    -0.339 C  
BRANCH  13  14
HETATM   14  C   UNL     1     -10.217   6.854  68.249  1.00  0.00    -0.201 A  
HETATM   15  C   UNL     1      -8.858   6.762  68.547  1.00  0.00    -0.123 A  
HETATM   16  C   UNL     1      -8.425   6.049  69.660  1.00  0.00    -0.126 A  
HETATM   17  C   UNL     1      -9.337   5.401  70.502  1.00  0.00    -0.157 A  
HETATM   18  C   UNL     1     -10.700   5.502  70.219  1.00  0.00    -0.333 A  
HETATM   19  C   UNL     1     -11.141   6.219  69.098  1.00  0.00    -0.457 A  
BRANCH  17  20
HETATM   20  O   UNL     1      -8.986   4.646  71.602  1.00  0.00    -0.128 OA 
BRANCH  20  21
HETATM   21  C   UNL     1      -9.564   5.124  72.822  1.00  0.00    -0.145 C  
BRANCH  21  22
HETATM   22  C   UNL     1      -8.752   6.233  73.502  1.00  0.00    -0.124 C  
BRANCH  22  23
HETATM   23  N   UNL     1      -9.473   7.528  73.478  1.00  0.00    -0.251 NA 
HETATM   24  C   UNL     1      -8.885   8.482  72.533  1.00  0.00    -0.175 C  
HETATM   25  C   UNL     1     -10.886   7.329  73.161  1.00  0.00    -0.357 C  
ENDBRANCH  22  23
ENDBRANCH  21  22
ENDBRANCH  20  21
ENDBRANCH  17  20
ENDBRANCH  13  14
ENDBRANCH  10  13
ENDBRANCH   5   9
BRANCH   8  26
HETATM   26  O   UNL     1      -8.535  14.004  68.215  1.00  0.00    -0.158 OA 
HETATM   27  C   UNL     1      -7.475  14.632  67.512  1.00  0.00    -0.195 C  
ENDBRANCH   8  26
BRANCH   7  28
HETATM   28  O   UNL     1     -10.797  15.480  67.159  1.00  0.00    -0.316 OA 
HETATM   29  C   UNL     1     -11.447  15.998  68.311  1.00  0.00    -0.291 C  
ENDBRANCH   7  28
ENDBRANCH   2   3
TORSDOF 10
ENDMDL
MODEL      118
REMARK 921   NORMALIZED FREE ENERGY PREDICTED BY IDOCK:   -4.67 KCAL/MOL
REMARK 922        TOTAL FREE ENERGY PREDICTED BY IDOCK:   -8.26 KCAL/MOL
REMARK 923 INTER-LIGAND FREE ENERGY PREDICTED BY IDOCK:   -7.46 KCAL/MOL
REMARK 924 INTRA-LIGAND FREE ENERGY PREDICTED BY IDOCK:   -0.80 KCAL/MOL
REMARK 927      BINDING AFFINITY PREDICTED BY RF-SCORE:    0.00 PKD
ROOT
HETATM    1  C   UNL     1     -12.378  15.538  64.208  1.00  0.00     0.004 C  
HETATM    2  O   UNL     1     -11.049  16.030  64.373  1.00  0.00    -0.560 OA 
ENDROOT
BRANCH   2   3
HETATM    3  C   UNL     1     -10.321  15.466  65.393  1.00  0.00    -0.394 A  
HETATM    4  C   UNL     1     -10.387  14.090  65.655  1.00  0.00    -0.342 A  
HETATM    5  C   UNL     1      -9.573  13.504  66.626  1.00  0.00    -0.282 A  
HETATM    6  C   UNL     1      -8.712  14.306  67.367  1.00  0.00    -0.217 A  
HETATM    7  C   UNL     1      -9.484  16.295  66.176  1.00  0.00    -0.339 A  
HETATM    8  C   UNL     1      -8.662  15.696  67.158  1.00  0.00    -0.210 A  
BRANCH   5   9
HETATM    9  C   UNL     1      -9.606  12.022  66.756  1.00  0.00    -0.208 C  
HETATM   10  N   UNL     1     -10.489  11.493  67.665  1.00  0.00    -0.184 N  
HETATM   11  O   UNL     1      -8.874  11.334  66.051  1.00  0.00    -0.191 OA 
HETATM   12  H   UNL     1     -11.070  12.112  68.232  1.00  0.00     0.000 HD 
BRANCH  10  13
HETATM   13  C   UNL     1     -10.594  10.060  67.817  1.00  0.00    -0.261 C  
BRANCH  13  14
HETATM   14  C   UNL     1     -10.359   9.654  69.244  1.00  0.00    -0.223 A  
HETATM   15  C   UNL     1      -9.107   9.170  69.617  1.00  0.00    -0.163 A  
HETATM   16  C   UNL     1      -8.875   8.732  70.917  1.00  0.00    -0.243 A  
HETATM   17  C   UNL     1      -9.892   8.759  71.879  1.00  0.00    -0.324 A  
HETATM   18  C   UNL     1     -11.144   9.259  71.518  1.00  0.00    -0.443 A  
HETATM   19  C   UNL     1     -11.381   9.701  70.208  1.00  0.00    -0.311 A  
BRANCH  17  20
HETATM   20  O   UNL     1      -9.754   8.312  73.176  1.00  0.00    -0.254 OA 
BRANCH  20  21
HETATM   21  C   UNL     1     -10.659   7.253  73.508  1.00  0.00    -0.362 C  
BRANCH  21  22
HETATM   22  C   UNL     1      -9.974   5.900  73.739  1.00  0.00    -0.203 C  
BRANCH  22  23
HETATM   23  N   UNL     1     -10.600   4.828  72.930  1.00  0.00    -0.206 NA 
HETATM   24  C   UNL     1      -9.753   4.396  71.815  1.00  0.00    -0.170 C  
HETATM   25  C   UNL     1     -10.937   3.676  73.766  1.00  0.00    -0.225 C  
ENDBRANCH  22  23
ENDBRANCH  21  22
ENDBRANCH  20  21
ENDBRANCH  17  20
ENDBRANCH  13  14
ENDBRANCH  10  13
ENDBRANCH   5   9
BRANCH   8  26
HETATM   26  O   UNL     1      -7.745  16.293  67.988  1.00  0.00    -0.143 OA 
HETATM   27  C   UNL     1      -6.628  15.550  68.449  1.00  0.00    -0.117 C  
ENDBRANCH   8  26
BRANCH   7  28
HETATM   28  O   UNL     1      -9.341  17.648  65.982  1.00  0.00    -0.494 OA 
HETATM   29  C   UNL     1     -10.272  18.531  66.590  1.00  0.00    -0.399 C  
ENDBRANCH   7  28
ENDBRANCH   2   3
TORSDOF 10
ENDMDL
MODEL      119
REMARK 921   NORMALIZED FREE ENERGY PREDICTED BY IDOCK:   -4.67 KCAL/MOL
REMARK 922        TOTAL FREE ENERGY PREDICTED BY IDOCK:   -8.26 KCAL/MOL
REMARK 923 INTER-LIGAND FREE ENERGY PREDICTED BY IDOCK:   -7.40 KCAL/MOL
REMARK 924 INTRA-LIGAND FREE ENERGY PREDICTED BY IDOCK:   -0.87 KCAL/MOL
REMARK 927      BINDING AFFINITY PREDICTED BY RF-SCORE:    0.00 PKD
ROOT
HETATM    1  C   UNL     1     -11.965  15.212  70.208  1.00  0.00    -0.319 C  
HETATM    2  O   UNL     1     -12.110  15.941  68.990  1.00  0.00    -0.328 OA 
ENDROOT
BRANCH   2   3
HETATM    3  C   UNL     1     -11.208  15.641  67.998  1.00  0.00    -0.339 A  
HETATM    4  C   UNL     1     -11.078  14.334  67.509  1.00  0.00    -0.309 A  
HETATM    5  C   UNL     1     -10.233  14.050  66.435  1.00  0.00    -0.293 A  
HETATM    6  C   UNL     1      -9.484  15.075  65.868  1.00  0.00    -0.313 A  
HETATM    7  C   UNL     1     -10.414  16.680  67.459  1.00  0.00    -0.317 A  
HETATM    8  C   UNL     1      -9.561  16.387  66.371  1.00  0.00    -0.288 A  
BRANCH   5   9
HETATM    9  C   UNL     1     -10.246  12.665  65.890  1.00  0.00    -0.274 C  
HETATM   10  N   UNL     1     -10.347  11.638  66.796  1.00  0.00    -0.217 N  
HETATM   11  O   UNL     1     -10.186  12.489  64.677  1.00  0.00    -0.302 OA 
HETATM   12  H   UNL     1     -10.386  11.840  67.795  1.00  0.00     0.000 HD 
BRANCH  10  13
HETATM   13  C   UNL     1     -10.398  10.270  66.330  1.00  0.00    -0.195 C  
BRANCH  13  14
HETATM   14  C   UNL     1     -10.471   9.314  67.486  1.00  0.00    -0.338 A  
HETATM   15  C   UNL     1     -10.496   7.943  67.236  1.00  0.00    -0.390 A  
HETATM   16  C   UNL     1     -10.621   7.035  68.282  1.00  0.00    -0.238 A  
HETATM   17  C   UNL     1     -10.733   7.471  69.607  1.00  0.00    -0.230 A  
HETATM   18  C   UNL     1     -10.692   8.842  69.868  1.00  0.00    -0.228 A  
HETATM   19  C   UNL     1     -10.566   9.761  68.816  1.00  0.00    -0.244 A  
BRANCH  17  20
HETATM   20  O   UNL     1     -10.895   6.638  70.694  1.00  0.00    -0.229 OA 
BRANCH  20  21
HETATM   21  C   UNL     1     -10.532   5.280  70.425  1.00  0.00    -0.251 C  
BRANCH  21  22
HETATM   22  C   UNL     1      -9.661   4.642  71.515  1.00  0.00    -0.163 C  
BRANCH  22  23
HETATM   23  N   UNL     1      -8.870   3.506  70.984  1.00  0.00    -0.078 NA 
HETATM   24  C   UNL     1      -8.322   3.776  69.651  1.00  0.00    -0.052 C  
HETATM   25  C   UNL     1      -7.785   3.157  71.899  1.00  0.00    -0.053 C  
ENDBRANCH  22  23
ENDBRANCH  21  22
ENDBRANCH  20  21
ENDBRANCH  17  20
ENDBRANCH  13  14
ENDBRANCH  10  13
ENDBRANCH   5   9
BRANCH   8  26
HETATM   26  O   UNL     1      -8.749  17.239  65.664  1.00  0.00    -0.473 OA 
HETATM   27  C   UNL     1      -7.408  17.440  66.083  1.00  0.00    -0.296 C  
ENDBRANCH   8  26
BRANCH   7  28
HETATM   28  O   UNL     1     -10.486  17.992  67.860  1.00  0.00    -0.378 OA 
HETATM   29  C   UNL     1      -9.593  18.453  68.864  1.00  0.00    -0.259 C  
ENDBRANCH   7  28
ENDBRANCH   2   3
TORSDOF 10
ENDMDL
MODEL      120
REMARK 921   NORMALIZED FREE ENERGY PREDICTED BY IDOCK:   -4.64 KCAL/MOL
REMARK 922        TOTAL FREE ENERGY PREDICTED BY IDOCK:   -8.22 KCAL/MOL
REMARK 923 INTER-LIGAND FREE ENERGY PREDICTED BY IDOCK:   -7.41 KCAL/MOL
REMARK 924 INTRA-LIGAND FREE ENERGY PREDICTED BY IDOCK:   -0.81 KCAL/MOL
REMARK 927      BINDING AFFINITY PREDICTED BY RF-SCORE:    0.00 PKD
ROOT
HETATM    1  C   UNL     1     -10.487  13.286  65.958  1.00  0.00    -0.286 C  
HETATM    2  O   UNL     1     -11.227  14.374  66.509  1.00  0.00    -0.324 OA 
ENDROOT
BRANCH   2   3
HETATM    3  C   UNL     1     -11.624  14.231  67.816  1.00  0.00    -0.354 A  
HETATM    4  C   UNL     1     -12.036  12.988  68.316  1.00  0.00    -0.306 A  
HETATM    5  C   UNL     1     -12.344  12.823  69.667  1.00  0.00    -0.059 A  
HETATM    6  C   UNL     1     -12.274  13.919  70.520  1.00  0.00    -0.443 A  
HETATM    7  C   UNL     1     -11.597  15.361  68.667  1.00  0.00    -0.359 A  
HETATM    8  C   UNL     1     -11.909  15.188  70.035  1.00  0.00    -0.325 A  
BRANCH   5   9
HETATM    9  C   UNL     1     -12.647  11.447  70.147  1.00  0.00    -0.101 C  
HETATM   10  N   UNL     1     -12.556  11.222  71.498  1.00  0.00    -0.346 N  
HETATM   11  O   UNL     1     -12.979  10.583  69.341  1.00  0.00     0.015 OA 
HETATM   12  H   UNL     1     -12.268  11.975  72.124  1.00  0.00     0.000 HD 
BRANCH  10  13
HETATM   13  C   UNL     1     -12.870   9.916  72.033  1.00  0.00    -0.395 C  
BRANCH  13  14
HETATM   14  C   UNL     1     -11.820   8.914  71.646  1.00  0.00    -0.415 A  
HETATM   15  C   UNL     1     -12.189   7.585  71.443  1.00  0.00    -0.363 A  
HETATM   16  C   UNL     1     -11.232   6.623  71.141  1.00  0.00    -0.340 A  
HETATM   17  C   UNL     1      -9.876   6.960  71.041  1.00  0.00    -0.178 A  
HETATM   18  C   UNL     1      -9.501   8.291  71.226  1.00  0.00    -0.219 A  
HETATM   19  C   UNL     1     -10.463   9.264  71.532  1.00  0.00    -0.385 A  
BRANCH  17  20
HETATM   20  O   UNL     1      -8.864   6.061  70.781  1.00  0.00    -0.136 OA 
BRANCH  20  21
HETATM   21  C   UNL     1      -8.940   5.487  69.471  1.00  0.00    -0.113 C  
BRANCH  21  22
HETATM   22  C   UNL     1      -8.009   6.151  68.448  1.00  0.00    -0.108 C  
BRANCH  22  23
HETATM   23  N   UNL     1      -8.737   6.521  67.210  1.00  0.00    -0.110 NA 
HETATM   24  C   UNL     1      -9.907   5.672  66.971  1.00  0.00    -0.154 C  
HETATM   25  C   UNL     1      -9.147   7.924  67.249  1.00  0.00    -0.135 C  
ENDBRANCH  22  23
ENDBRANCH  21  22
ENDBRANCH  20  21
ENDBRANCH  17  20
ENDBRANCH  13  14
ENDBRANCH  10  13
ENDBRANCH   5   9
BRANCH   8  26
HETATM   26  O   UNL     1     -11.898  16.122  71.041  1.00  0.00    -0.408 OA 
HETATM   27  C   UNL     1     -12.466  15.803  72.302  1.00  0.00    -0.450 C  
ENDBRANCH   8  26
BRANCH   7  28
HETATM   28  O   UNL     1     -11.191  16.613  68.273  1.00  0.00    -0.349 OA 
HETATM   29  C   UNL     1      -9.807  16.930  68.311  1.00  0.00    -0.266 C  
ENDBRANCH   7  28
ENDBRANCH   2   3
TORSDOF 10
ENDMDL
MODEL      121
REMARK 921   NORMALIZED FREE ENERGY PREDICTED BY IDOCK:   -4.63 KCAL/MOL
REMARK 922        TOTAL FREE ENERGY PREDICTED BY IDOCK:   -8.21 KCAL/MOL
REMARK 923 INTER-LIGAND FREE ENERGY PREDICTED BY IDOCK:   -7.02 KCAL/MOL
REMARK 924 INTRA-LIGAND FREE ENERGY PREDICTED BY IDOCK:   -1.19 KCAL/MOL
REMARK 927      BINDING AFFINITY PREDICTED BY RF-SCORE:    0.00 PKD
ROOT
HETATM    1  C   UNL     1     -11.552  11.571  69.595  1.00  0.00    -0.333 C  
HETATM    2  O   UNL     1     -12.173  11.371  68.326  1.00  0.00    -0.588 OA 
ENDROOT
BRANCH   2   3
HETATM    3  C   UNL     1     -11.337  11.006  67.299  1.00  0.00    -0.188 A  
HETATM    4  C   UNL     1     -10.413   9.964  67.452  1.00  0.00    -0.325 A  
HETATM    5  C   UNL     1      -9.634   9.531  66.377  1.00  0.00    -0.273 A  
HETATM    6  C   UNL     1      -9.755  10.169  65.148  1.00  0.00    -0.370 A  
HETATM    7  C   UNL     1     -11.432  11.692  66.065  1.00  0.00    -0.125 A  
HETATM    8  C   UNL     1     -10.641  11.249  64.980  1.00  0.00    -0.289 A  
BRANCH   5   9
HETATM    9  C   UNL     1      -8.771   8.336  66.583  1.00  0.00    -0.136 C  
HETATM   10  N   UNL     1      -8.368   8.071  67.869  1.00  0.00    -0.128 N  
HETATM   11  O   UNL     1      -8.470   7.631  65.625  1.00  0.00    -0.141 OA 
HETATM   12  H   UNL     1      -8.641   8.694  68.629  1.00  0.00     0.000 HD 
BRANCH  10  13
HETATM   13  C   UNL     1      -7.555   6.907  68.143  1.00  0.00    -0.108 C  
BRANCH  13  14
HETATM   14  C   UNL     1      -8.213   6.023  69.164  1.00  0.00    -0.111 A  
HETATM   15  C   UNL     1      -9.512   5.570  68.936  1.00  0.00    -0.165 A  
HETATM   16  C   UNL     1     -10.169   4.799  69.889  1.00  0.00    -0.238 A  
HETATM   17  C   UNL     1      -9.550   4.465  71.100  1.00  0.00    -0.175 A  
HETATM   18  C   UNL     1      -8.244   4.901  71.328  1.00  0.00    -0.110 A  
HETATM   19  C   UNL     1      -7.578   5.679  70.370  1.00  0.00    -0.089 A  
BRANCH  17  20
HETATM   20  O   UNL     1     -10.145   3.736  72.107  1.00  0.00    -0.170 OA 
BRANCH  20  21
HETATM   21  C   UNL     1     -10.279   4.468  73.331  1.00  0.00    -0.169 C  
BRANCH  21  22
HETATM   22  C   UNL     1     -11.120   5.745  73.202  1.00  0.00    -0.247 C  
BRANCH  22  23
HETATM   23  N   UNL     1     -10.415   6.920  73.767  1.00  0.00    -0.369 NA 
HETATM   24  C   UNL     1      -9.189   6.551  74.480  1.00  0.00    -0.208 C  
HETATM   25  C   UNL     1     -10.101   7.890  72.719  1.00  0.00    -0.300 C  
ENDBRANCH  22  23
ENDBRANCH  21  22
ENDBRANCH  20  21
ENDBRANCH  17  20
ENDBRANCH  13  14
ENDBRANCH  10  13
ENDBRANCH   5   9
BRANCH   8  26
HETATM   26  O   UNL     1     -10.607  11.725  63.693  1.00  0.00    -0.354 OA 
HETATM   27  C   UNL     1      -9.606  11.265  62.799  1.00  0.00    -0.296 C  
ENDBRANCH   8  26
BRANCH   7  28
HETATM   28  O   UNL     1     -12.318  12.712  65.816  1.00  0.00    -0.594 OA 
HETATM   29  C   UNL     1     -11.916  14.049  66.075  1.00  0.00    -0.416 C  
ENDBRANCH   7  28
ENDBRANCH   2   3
TORSDOF 10
ENDMDL
MODEL      122
REMARK 921   NORMALIZED FREE ENERGY PREDICTED BY IDOCK:   -4.63 KCAL/MOL
REMARK 922        TOTAL FREE ENERGY PREDICTED BY IDOCK:   -8.20 KCAL/MOL
REMARK 923 INTER-LIGAND FREE ENERGY PREDICTED BY IDOCK:   -7.45 KCAL/MOL
REMARK 924 INTRA-LIGAND FREE ENERGY PREDICTED BY IDOCK:   -0.74 KCAL/MOL
REMARK 927      BINDING AFFINITY PREDICTED BY RF-SCORE:    0.00 PKD
ROOT
HETATM    1  C   UNL     1     -10.179  10.586  64.924  1.00  0.00    -0.300 C  
HETATM    2  O   UNL     1     -10.996  11.755  64.930  1.00  0.00    -0.297 OA 
ENDROOT
BRANCH   2   3
HETATM    3  C   UNL     1     -11.312  12.262  66.167  1.00  0.00    -0.353 A  
HETATM    4  C   UNL     1     -11.486  11.418  67.273  1.00  0.00    -0.301 A  
HETATM    5  C   UNL     1     -11.709  11.941  68.547  1.00  0.00    -0.388 A  
HETATM    6  C   UNL     1     -11.795  13.319  68.713  1.00  0.00    -0.371 A  
HETATM    7  C   UNL     1     -11.445  13.662  66.319  1.00  0.00    -0.333 A  
HETATM    8  C   UNL     1     -11.671  14.186  67.612  1.00  0.00    -0.387 A  
BRANCH   5   9
HETATM    9  C   UNL     1     -11.755  10.988  69.690  1.00  0.00    -0.329 C  
HETATM   10  N   UNL     1     -10.556  10.486  70.133  1.00  0.00    -0.457 N  
HETATM   11  O   UNL     1     -12.834  10.701  70.199  1.00  0.00    -0.276 OA 
HETATM   12  H   UNL     1      -9.687  10.752  69.668  1.00  0.00     0.000 HD 
BRANCH  10  13
HETATM   13  C   UNL     1     -10.527   9.581  71.260  1.00  0.00    -0.250 C  
BRANCH  13  14
HETATM   14  C   UNL     1     -10.392   8.158  70.800  1.00  0.00    -0.217 A  
HETATM   15  C   UNL     1     -11.477   7.293  70.934  1.00  0.00    -0.321 A  
HETATM   16  C   UNL     1     -11.365   5.955  70.571  1.00  0.00    -0.215 A  
HETATM   17  C   UNL     1     -10.162   5.442  70.070  1.00  0.00    -0.279 A  
HETATM   18  C   UNL     1      -9.076   6.305  69.916  1.00  0.00    -0.145 A  
HETATM   19  C   UNL     1      -9.185   7.655  70.282  1.00  0.00    -0.157 A  
BRANCH  17  20
HETATM   20  O   UNL     1      -9.959   4.123  69.721  1.00  0.00    -0.206 OA 
BRANCH  20  21
HETATM   21  C   UNL     1      -9.782   3.261  70.850  1.00  0.00    -0.117 C  
BRANCH  21  22
HETATM   22  C   UNL     1      -8.658   3.701  71.797  1.00  0.00    -0.089 C  
BRANCH  22  23
HETATM   23  N   UNL     1      -9.154   3.882  73.182  1.00  0.00    -0.106 NA 
HETATM   24  C   UNL     1     -10.592   3.627  73.303  1.00  0.00    -0.188 C  
HETATM   25  C   UNL     1      -8.422   3.024  74.112  1.00  0.00    -0.073 C  
ENDBRANCH  22  23
ENDBRANCH  21  22
ENDBRANCH  20  21
ENDBRANCH  17  20
ENDBRANCH  13  14
ENDBRANCH  10  13
ENDBRANCH   5   9
BRANCH   8  26
HETATM   26  O   UNL     1     -11.780  15.500  67.998  1.00  0.00    -0.322 OA 
HETATM   27  C   UNL     1     -10.621  16.212  68.401  1.00  0.00    -0.286 C  
ENDBRANCH   8  26
BRANCH   7  28
HETATM   28  O   UNL     1     -11.275  14.568  65.300  1.00  0.00    -0.322 OA 
HETATM   29  C   UNL     1     -12.346  14.794  64.395  1.00  0.00    -0.368 C  
ENDBRANCH   7  28
ENDBRANCH   2   3
TORSDOF 10
ENDMDL
MODEL      123
REMARK 921   NORMALIZED FREE ENERGY PREDICTED BY IDOCK:   -4.62 KCAL/MOL
REMARK 922        TOTAL FREE ENERGY PREDICTED BY IDOCK:   -8.19 KCAL/MOL
REMARK 923 INTER-LIGAND FREE ENERGY PREDICTED BY IDOCK:   -7.26 KCAL/MOL
REMARK 924 INTRA-LIGAND FREE ENERGY PREDICTED BY IDOCK:   -0.93 KCAL/MOL
REMARK 927      BINDING AFFINITY PREDICTED BY RF-SCORE:    0.00 PKD
ROOT
HETATM    1  C   UNL     1      -5.787  16.921  69.427  1.00  0.00    -0.192 C  
HETATM    2  O   UNL     1      -6.251  18.163  68.899  1.00  0.00    -0.205 OA 
ENDROOT
BRANCH   2   3
HETATM    3  C   UNL     1      -7.577  18.207  68.541  1.00  0.00    -0.289 A  
HETATM    4  C   UNL     1      -8.468  17.201  68.940  1.00  0.00    -0.187 A  
HETATM    5  C   UNL     1      -9.832  17.297  68.659  1.00  0.00    -0.313 A  
HETATM    6  C   UNL     1     -10.304  18.391  67.943  1.00  0.00    -0.425 A  
HETATM    7  C   UNL     1      -8.041  19.298  67.771  1.00  0.00    -0.286 A  
HETATM    8  C   UNL     1      -9.423  19.391  67.490  1.00  0.00    -0.312 A  
BRANCH   5   9
HETATM    9  C   UNL     1     -10.732  16.256  69.226  1.00  0.00    -0.307 C  
HETATM   10  N   UNL     1     -11.578  15.619  68.353  1.00  0.00    -0.371 N  
HETATM   11  O   UNL     1     -10.677  15.993  70.424  1.00  0.00    -0.295 OA 
HETATM   12  H   UNL     1     -11.588  15.882  67.367  1.00  0.00     0.000 HD 
BRANCH  10  13
HETATM   13  C   UNL     1     -12.455  14.575  68.833  1.00  0.00     0.102 C  
BRANCH  13  14
HETATM   14  C   UNL     1     -11.962  13.223  68.404  1.00  0.00    -0.336 A  
HETATM   15  C   UNL     1     -11.784  12.962  67.047  1.00  0.00    -0.447 A  
HETATM   16  C   UNL     1     -11.384  11.702  66.614  1.00  0.00    -0.338 A  
HETATM   17  C   UNL     1     -11.158  10.664  67.527  1.00  0.00    -0.300 A  
HETATM   18  C   UNL     1     -11.319  10.922  68.889  1.00  0.00    -0.354 A  
HETATM   19  C   UNL     1     -11.722  12.191  69.329  1.00  0.00    -0.386 A  
BRANCH  17  20
HETATM   20  O   UNL     1     -10.796   9.380  67.177  1.00  0.00    -0.219 OA 
BRANCH  20  21
HETATM   21  C   UNL     1      -9.378   9.197  67.092  1.00  0.00    -0.143 C  
BRANCH  21  22
HETATM   22  C   UNL     1      -8.923   7.754  67.346  1.00  0.00    -0.123 C  
BRANCH  22  23
HETATM   23  N   UNL     1      -9.020   7.397  68.781  1.00  0.00    -0.130 NA 
HETATM   24  C   UNL     1      -8.251   6.195  69.116  1.00  0.00    -0.113 C  
HETATM   25  C   UNL     1      -8.585   8.510  69.624  1.00  0.00    -0.131 C  
ENDBRANCH  22  23
ENDBRANCH  21  22
ENDBRANCH  20  21
ENDBRANCH  17  20
ENDBRANCH  13  14
ENDBRANCH  10  13
ENDBRANCH   5   9
BRANCH   8  26
HETATM   26  O   UNL     1     -10.096  20.378  66.813  1.00  0.00    -0.444 OA 
HETATM   27  C   UNL     1     -10.774  20.065  65.606  1.00  0.00    -0.216 C  
ENDBRANCH   8  26
BRANCH   7  28
HETATM   28  O   UNL     1      -7.248  20.339  67.351  1.00  0.00    -0.258 OA 
HETATM   29  C   UNL     1      -6.673  20.283  66.054  1.00  0.00    -0.244 C  
ENDBRANCH   7  28
ENDBRANCH   2   3
TORSDOF 10
ENDMDL
MODEL      124
REMARK 921   NORMALIZED FREE ENERGY PREDICTED BY IDOCK:   -4.62 KCAL/MOL
REMARK 922        TOTAL FREE ENERGY PREDICTED BY IDOCK:   -8.18 KCAL/MOL
REMARK 923 INTER-LIGAND FREE ENERGY PREDICTED BY IDOCK:   -7.21 KCAL/MOL
REMARK 924 INTRA-LIGAND FREE ENERGY PREDICTED BY IDOCK:   -0.97 KCAL/MOL
REMARK 927      BINDING AFFINITY PREDICTED BY RF-SCORE:    0.00 PKD
ROOT
HETATM    1  C   UNL     1     -12.213   6.531  71.926  1.00  0.00    -0.324 C  
HETATM    2  O   UNL     1     -11.091   5.720  71.582  1.00  0.00    -0.265 OA 
ENDROOT
BRANCH   2   3
HETATM    3  C   UNL     1     -10.102   6.339  70.856  1.00  0.00    -0.189 A  
HETATM    4  C   UNL     1     -10.263   6.599  69.488  1.00  0.00    -0.208 A  
HETATM    5  C   UNL     1      -9.299   7.315  68.775  1.00  0.00    -0.143 A  
HETATM    6  C   UNL     1      -8.148   7.742  69.427  1.00  0.00    -0.126 A  
HETATM    7  C   UNL     1      -8.912   6.728  71.515  1.00  0.00    -0.137 A  
HETATM    8  C   UNL     1      -7.940   7.453  70.788  1.00  0.00    -0.104 A  
BRANCH   5   9
HETATM    9  C   UNL     1      -9.601   7.663  67.360  1.00  0.00    -0.147 C  
HETATM   10  N   UNL     1      -8.950   8.751  66.832  1.00  0.00    -0.129 N  
HETATM   11  O   UNL     1     -10.388   6.974  66.719  1.00  0.00    -0.245 OA 
HETATM   12  H   UNL     1      -8.310   9.295  67.412  1.00  0.00     0.000 HD 
BRANCH  10  13
HETATM   13  C   UNL     1      -9.172   9.124  65.454  1.00  0.00    -0.202 C  
BRANCH  13  14
HETATM   14  C   UNL     1     -10.056  10.336  65.363  1.00  0.00    -0.354 A  
HETATM   15  C   UNL     1     -10.633  10.846  66.525  1.00  0.00    -0.295 A  
HETATM   16  C   UNL     1     -11.501  11.930  66.466  1.00  0.00    -0.381 A  
HETATM   17  C   UNL     1     -11.824  12.531  65.243  1.00  0.00    -0.413 A  
HETATM   18  C   UNL     1     -11.237  12.037  64.078  1.00  0.00    -0.468 A  
HETATM   19  C   UNL     1     -10.362  10.943  64.133  1.00  0.00    -0.432 A  
BRANCH  17  20
HETATM   20  O   UNL     1     -12.702  13.585  65.097  1.00  0.00    -0.611 OA 
BRANCH  20  21
HETATM   21  C   UNL     1     -12.208  14.812  65.645  1.00  0.00    -0.075 C  
BRANCH  21  22
HETATM   22  C   UNL     1     -11.495  15.706  64.622  1.00  0.00    -0.303 C  
BRANCH  22  23
HETATM   23  N   UNL     1     -10.207  16.215  65.149  1.00  0.00    -0.542 NA 
HETATM   24  C   UNL     1     -10.379  17.364  66.042  1.00  0.00    -0.304 C  
HETATM   25  C   UNL     1      -9.476  15.157  65.844  1.00  0.00    -0.299 C  
ENDBRANCH  22  23
ENDBRANCH  21  22
ENDBRANCH  20  21
ENDBRANCH  17  20
ENDBRANCH  13  14
ENDBRANCH  10  13
ENDBRANCH   5   9
BRANCH   8  26
HETATM   26  O   UNL     1      -6.748   7.971  71.232  1.00  0.00    -0.041 OA 
HETATM   27  C   UNL     1      -6.430   9.328  70.964  1.00  0.00    -0.086 C  
ENDBRANCH   8  26
BRANCH   7  28
HETATM   28  O   UNL     1      -8.673   6.532  72.854  1.00  0.00    -0.124 OA 
HETATM   29  C   UNL     1      -9.042   7.550  73.773  1.00  0.00    -0.260 C  
ENDBRANCH   7  28
ENDBRANCH   2   3
TORSDOF 10
ENDMDL
MODEL      125
REMARK 921   NORMALIZED FREE ENERGY PREDICTED BY IDOCK:   -4.60 KCAL/MOL
REMARK 922        TOTAL FREE ENERGY PREDICTED BY IDOCK:   -8.16 KCAL/MOL
REMARK 923 INTER-LIGAND FREE ENERGY PREDICTED BY IDOCK:   -7.12 KCAL/MOL
REMARK 924 INTRA-LIGAND FREE ENERGY PREDICTED BY IDOCK:   -1.04 KCAL/MOL
REMARK 927      BINDING AFFINITY PREDICTED BY RF-SCORE:    0.00 PKD
ROOT
HETATM    1  C   UNL     1     -12.999   8.178  71.746  1.00  0.00    -0.342 C  
HETATM    2  O   UNL     1     -12.309   6.929  71.780  1.00  0.00    -0.337 OA 
ENDROOT
BRANCH   2   3
HETATM    3  C   UNL     1     -11.098   6.893  71.133  1.00  0.00    -0.260 A  
HETATM    4  C   UNL     1     -10.869   7.659  69.982  1.00  0.00    -0.250 A  
HETATM    5  C   UNL     1      -9.608   7.697  69.384  1.00  0.00    -0.159 A  
HETATM    6  C   UNL     1      -8.577   6.934  69.920  1.00  0.00    -0.141 A  
HETATM    7  C   UNL     1     -10.068   6.077  71.656  1.00  0.00    -0.190 A  
HETATM    8  C   UNL     1      -8.793   6.119  71.046  1.00  0.00    -0.139 A  
BRANCH   5   9
HETATM    9  C   UNL     1      -9.409   8.633  68.243  1.00  0.00    -0.137 C  
HETATM   10  N   UNL     1     -10.537   9.167  67.670  1.00  0.00    -0.358 N  
HETATM   11  O   UNL     1      -8.272   8.905  67.873  1.00  0.00    -0.109 OA 
HETATM   12  H   UNL     1     -11.460   8.900  68.012  1.00  0.00     0.000 HD 
BRANCH  10  13
HETATM   13  C   UNL     1     -10.413  10.108  66.580  1.00  0.00    -0.166 C  
BRANCH  13  14
HETATM   14  C   UNL     1     -10.515  11.521  67.079  1.00  0.00    -0.263 A  
HETATM   15  C   UNL     1     -11.620  11.896  67.841  1.00  0.00    -0.393 A  
HETATM   16  C   UNL     1     -11.772  13.211  68.268  1.00  0.00    -0.384 A  
HETATM   17  C   UNL     1     -10.828  14.191  67.939  1.00  0.00    -0.245 A  
HETATM   18  C   UNL     1      -9.710  13.820  67.190  1.00  0.00    -0.244 A  
HETATM   19  C   UNL     1      -9.553  12.495  66.757  1.00  0.00    -0.231 A  
BRANCH  17  20
HETATM   20  O   UNL     1     -10.924  15.520  68.293  1.00  0.00    -0.278 OA 
BRANCH  20  21
HETATM   21  C   UNL     1     -11.868  15.759  69.342  1.00  0.00    -0.349 C  
BRANCH  21  22
HETATM   22  C   UNL     1     -11.227  15.954  70.722  1.00  0.00    -0.370 C  
BRANCH  22  23
HETATM   23  N   UNL     1     -12.127  15.501  71.809  1.00  0.00    -0.358 NA 
HETATM   24  C   UNL     1     -12.062  16.366  72.991  1.00  0.00    -0.482 C  
HETATM   25  C   UNL     1     -13.509  15.416  71.338  1.00  0.00    -0.522 C  
ENDBRANCH  22  23
ENDBRANCH  21  22
ENDBRANCH  20  21
ENDBRANCH  17  20
ENDBRANCH  13  14
ENDBRANCH  10  13
ENDBRANCH   5   9
BRANCH   8  26
HETATM   26  O   UNL     1      -7.646   5.459  71.411  1.00  0.00    -0.096 OA 
HETATM   27  C   UNL     1      -7.240   4.306  70.692  1.00  0.00    -0.044 C  
ENDBRANCH   8  26
BRANCH   7  28
HETATM   28  O   UNL     1     -10.194   5.307  72.787  1.00  0.00    -0.176 OA 
HETATM   29  C   UNL     1     -10.539   3.936  72.650  1.00  0.00    -0.091 C  
ENDBRANCH   7  28
ENDBRANCH   2   3
TORSDOF 10
ENDMDL
MODEL      126
REMARK 921   NORMALIZED FREE ENERGY PREDICTED BY IDOCK:   -4.60 KCAL/MOL
REMARK 922        TOTAL FREE ENERGY PREDICTED BY IDOCK:   -8.15 KCAL/MOL
REMARK 923 INTER-LIGAND FREE ENERGY PREDICTED BY IDOCK:   -8.14 KCAL/MOL
REMARK 924 INTRA-LIGAND FREE ENERGY PREDICTED BY IDOCK:   -0.02 KCAL/MOL
REMARK 927      BINDING AFFINITY PREDICTED BY RF-SCORE:    0.00 PKD
ROOT
HETATM    1  C   UNL     1     -12.026  15.695  64.093  1.00  0.00    -0.039 C  
HETATM    2  O   UNL     1     -11.318  16.872  64.479  1.00  0.00    -1.006 OA 
ENDROOT
BRANCH   2   3
HETATM    3  C   UNL     1     -10.526  16.760  65.595  1.00  0.00    -0.269 A  
HETATM    4  C   UNL     1     -10.015  15.518  65.998  1.00  0.00    -0.356 A  
HETATM    5  C   UNL     1      -9.131  15.421  67.074  1.00  0.00    -0.247 A  
HETATM    6  C   UNL     1      -8.784  16.569  67.777  1.00  0.00    -0.197 A  
HETATM    7  C   UNL     1     -10.216  17.926  66.334  1.00  0.00    -0.372 A  
HETATM    8  C   UNL     1      -9.320  17.821  67.423  1.00  0.00    -0.252 A  
BRANCH   5   9
HETATM    9  C   UNL     1      -8.531  14.089  67.360  1.00  0.00    -0.200 C  
HETATM   10  N   UNL     1      -9.383  13.094  67.770  1.00  0.00    -0.198 N  
HETATM   11  O   UNL     1      -7.325  13.921  67.206  1.00  0.00    -0.146 OA 
HETATM   12  H   UNL     1     -10.378  13.290  67.889  1.00  0.00     0.000 HD 
BRANCH  10  13
HETATM   13  C   UNL     1      -8.870  11.768  68.032  1.00  0.00    -0.164 C  
BRANCH  13  14
HETATM   14  C   UNL     1      -9.809  10.996  68.914  1.00  0.00    -0.189 A  
HETATM   15  C   UNL     1     -11.079  11.508  69.170  1.00  0.00    -0.316 A  
HETATM   16  C   UNL     1     -11.950  10.845  70.028  1.00  0.00    -0.429 A  
HETATM   17  C   UNL     1     -11.572   9.654  70.662  1.00  0.00    -0.299 A  
HETATM   18  C   UNL     1     -10.308   9.126  70.397  1.00  0.00    -0.269 A  
HETATM   19  C   UNL     1      -9.427   9.792  69.533  1.00  0.00    -0.226 A  
BRANCH  17  20
HETATM   20  O   UNL     1     -12.362   8.957  71.551  1.00  0.00    -0.298 OA 
BRANCH  20  21
HETATM   21  C   UNL     1     -11.608   8.161  72.473  1.00  0.00    -0.404 C  
BRANCH  21  22
HETATM   22  C   UNL     1     -11.788   6.650  72.280  1.00  0.00    -0.252 C  
BRANCH  22  23
HETATM   23  N   UNL     1     -11.044   5.878  73.304  1.00  0.00    -0.228 NA 
HETATM   24  C   UNL     1     -11.536   4.504  73.440  1.00  0.00    -0.230 C  
HETATM   25  C   UNL     1      -9.614   5.862  73.005  1.00  0.00    -0.154 C  
ENDBRANCH  22  23
ENDBRANCH  21  22
ENDBRANCH  20  21
ENDBRANCH  17  20
ENDBRANCH  13  14
ENDBRANCH  10  13
ENDBRANCH   5   9
BRANCH   8  26
HETATM   26  O   UNL     1      -8.843  18.817  68.239  1.00  0.00    -0.311 OA 
HETATM   27  C   UNL     1      -7.484  18.798  68.648  1.00  0.00    -0.313 C  
ENDBRANCH   8  26
BRANCH   7  28
HETATM   28  O   UNL     1     -10.655  19.185  66.006  1.00  0.00    -0.463 OA 
HETATM   29  C   UNL     1      -9.755  20.278  66.122  1.00  0.00    -0.307 C  
ENDBRANCH   7  28
ENDBRANCH   2   3
TORSDOF 10
ENDMDL
MODEL      127
REMARK 921   NORMALIZED FREE ENERGY PREDICTED BY IDOCK:   -4.60 KCAL/MOL
REMARK 922        TOTAL FREE ENERGY PREDICTED BY IDOCK:   -8.15 KCAL/MOL
REMARK 923 INTER-LIGAND FREE ENERGY PREDICTED BY IDOCK:   -7.41 KCAL/MOL
REMARK 924 INTRA-LIGAND FREE ENERGY PREDICTED BY IDOCK:   -0.74 KCAL/MOL
REMARK 927      BINDING AFFINITY PREDICTED BY RF-SCORE:    0.00 PKD
ROOT
HETATM    1  C   UNL     1     -12.002  12.526  63.364  1.00  0.00    -0.514 C  
HETATM    2  O   UNL     1     -10.925  12.693  64.285  1.00  0.00    -0.319 OA 
ENDROOT
BRANCH   2   3
HETATM    3  C   UNL     1     -11.110  12.147  65.533  1.00  0.00    -0.316 A  
HETATM    4  C   UNL     1     -10.659  10.855  65.832  1.00  0.00    -0.244 A  
HETATM    5  C   UNL     1     -10.760  10.341  67.126  1.00  0.00    -0.303 A  
HETATM    6  C   UNL     1     -11.350  11.112  68.121  1.00  0.00    -0.377 A  
HETATM    7  C   UNL     1     -11.756  12.920  66.527  1.00  0.00    -0.393 A  
HETATM    8  C   UNL     1     -11.855  12.394  67.836  1.00  0.00    -0.308 A  
BRANCH   5   9
HETATM    9  C   UNL     1     -10.142   9.014  67.395  1.00  0.00    -0.230 C  
HETATM   10  N   UNL     1     -10.988   7.989  67.741  1.00  0.00    -0.497 N  
HETATM   11  O   UNL     1      -8.928   8.875  67.284  1.00  0.00    -0.127 OA 
HETATM   12  H   UNL     1     -11.991   8.160  67.827  1.00  0.00     0.000 HD 
BRANCH  10  13
HETATM   13  C   UNL     1     -10.456   6.667  67.984  1.00  0.00    -0.216 C  
BRANCH  13  14
HETATM   14  C   UNL     1     -10.547   6.313  69.441  1.00  0.00    -0.330 A  
HETATM   15  C   UNL     1     -11.713   6.614  70.143  1.00  0.00    -0.412 A  
HETATM   16  C   UNL     1     -11.806   6.351  71.506  1.00  0.00    -0.355 A  
HETATM   17  C   UNL     1     -10.733   5.788  72.207  1.00  0.00    -0.234 A  
HETATM   18  C   UNL     1      -9.568   5.468  71.507  1.00  0.00    -0.188 A  
HETATM   19  C   UNL     1      -9.471   5.731  70.133  1.00  0.00    -0.195 A  
BRANCH  17  20
HETATM   20  O   UNL     1     -10.732   5.530  73.562  1.00  0.00    -0.248 OA 
BRANCH  20  21
HETATM   21  C   UNL     1     -11.035   4.167  73.878  1.00  0.00    -0.218 C  
BRANCH  21  22
HETATM   22  C   UNL     1      -9.877   3.412  74.545  1.00  0.00    -0.135 C  
BRANCH  22  23
HETATM   23  N   UNL     1      -9.655   2.089  73.914  1.00  0.00    -0.074 NA 
HETATM   24  C   UNL     1      -9.898   2.107  72.469  1.00  0.00    -0.127 C  
HETATM   25  C   UNL     1      -8.300   1.609  74.179  1.00  0.00    -0.053 C  
ENDBRANCH  22  23
ENDBRANCH  21  22
ENDBRANCH  20  21
ENDBRANCH  17  20
ENDBRANCH  13  14
ENDBRANCH  10  13
ENDBRANCH   5   9
BRANCH   8  26
HETATM   26  O   UNL     1     -12.387  12.981  68.957  1.00  0.00    -0.126 OA 
HETATM   27  C   UNL     1     -11.582  13.839  69.750  1.00  0.00    -0.257 C  
ENDBRANCH   8  26
BRANCH   7  28
HETATM   28  O   UNL     1     -12.214  14.200  66.332  1.00  0.00    -0.444 OA 
HETATM   29  C   UNL     1     -11.357  15.290  66.638  1.00  0.00    -0.170 C  
ENDBRANCH   7  28
ENDBRANCH   2   3
TORSDOF 10
ENDMDL
MODEL      128
REMARK 921   NORMALIZED FREE ENERGY PREDICTED BY IDOCK:   -4.58 KCAL/MOL
REMARK 922        TOTAL FREE ENERGY PREDICTED BY IDOCK:   -8.11 KCAL/MOL
REMARK 923 INTER-LIGAND FREE ENERGY PREDICTED BY IDOCK:   -7.22 KCAL/MOL
REMARK 924 INTRA-LIGAND FREE ENERGY PREDICTED BY IDOCK:   -0.90 KCAL/MOL
REMARK 927      BINDING AFFINITY PREDICTED BY RF-SCORE:    0.00 PKD
ROOT
HETATM    1  C   UNL     1      -6.203  13.950  70.361  1.00  0.00    -0.105 C  
HETATM    2  O   UNL     1      -6.139  15.259  69.797  1.00  0.00    -0.128 OA 
ENDROOT
BRANCH   2   3
HETATM    3  C   UNL     1      -7.296  15.723  69.220  1.00  0.00    -0.216 A  
HETATM    4  C   UNL     1      -8.456  14.937  69.192  1.00  0.00    -0.152 A  
HETATM    5  C   UNL     1      -9.656  15.447  68.694  1.00  0.00    -0.204 A  
HETATM    6  C   UNL     1      -9.688  16.741  68.187  1.00  0.00    -0.247 A  
HETATM    7  C   UNL     1      -7.308  17.023  68.662  1.00  0.00    -0.229 A  
HETATM    8  C   UNL     1      -8.526  17.534  68.160  1.00  0.00    -0.254 A  
BRANCH   5   9
HETATM    9  C   UNL     1     -10.874  14.599  68.816  1.00  0.00    -0.255 C  
HETATM   10  N   UNL     1     -10.749  13.274  68.478  1.00  0.00    -0.257 N  
HETATM   11  O   UNL     1     -11.920  15.094  69.223  1.00  0.00    -0.312 OA 
HETATM   12  H   UNL     1      -9.856  12.915  68.137  1.00  0.00     0.000 HD 
BRANCH  10  13
HETATM   13  C   UNL     1     -11.884  12.388  68.605  1.00  0.00    -0.302 C  
BRANCH  13  14
HETATM   14  C   UNL     1     -11.592  11.279  69.575  1.00  0.00    -0.398 A  
HETATM   15  C   UNL     1     -12.511  10.998  70.584  1.00  0.00    -0.465 A  
HETATM   16  C   UNL     1     -12.242  10.016  71.532  1.00  0.00    -0.496 A  
HETATM   17  C   UNL     1     -11.042   9.293  71.503  1.00  0.00    -0.373 A  
HETATM   18  C   UNL     1     -10.125   9.558  70.485  1.00  0.00    -0.347 A  
HETATM   19  C   UNL     1     -10.392  10.548  69.528  1.00  0.00    -0.251 A  
BRANCH  17  20
HETATM   20  O   UNL     1     -10.686   8.332  72.424  1.00  0.00    -0.296 OA 
BRANCH  20  21
HETATM   21  C   UNL     1      -9.279   8.300  72.693  1.00  0.00    -0.274 C  
BRANCH  21  22
HETATM   22  C   UNL     1      -8.913   7.588  74.002  1.00  0.00    -0.242 C  
BRANCH  22  23
HETATM   23  N   UNL     1      -8.299   6.264  73.747  1.00  0.00    -0.116 NA 
HETATM   24  C   UNL     1      -9.296   5.224  73.477  1.00  0.00    -0.133 C  
HETATM   25  C   UNL     1      -7.351   6.336  72.637  1.00  0.00    -0.085 C  
ENDBRANCH  22  23
ENDBRANCH  21  22
ENDBRANCH  20  21
ENDBRANCH  17  20
ENDBRANCH  13  14
ENDBRANCH  10  13
ENDBRANCH   5   9
BRANCH   8  26
HETATM   26  O   UNL     1      -8.781  18.773  67.627  1.00  0.00    -0.275 OA 
HETATM   27  C   UNL     1      -9.788  18.919  66.638  1.00  0.00    -0.358 C  
ENDBRANCH   8  26
BRANCH   7  28
HETATM   28  O   UNL     1      -6.227  17.871  68.660  1.00  0.00    -0.189 OA 
HETATM   29  C   UNL     1      -6.033  18.739  69.768  1.00  0.00    -0.256 C  
ENDBRANCH   7  28
ENDBRANCH   2   3
TORSDOF 10
ENDMDL
MODEL      129
REMARK 921   NORMALIZED FREE ENERGY PREDICTED BY IDOCK:   -4.57 KCAL/MOL
REMARK 922        TOTAL FREE ENERGY PREDICTED BY IDOCK:   -8.11 KCAL/MOL
REMARK 923 INTER-LIGAND FREE ENERGY PREDICTED BY IDOCK:   -6.99 KCAL/MOL
REMARK 924 INTRA-LIGAND FREE ENERGY PREDICTED BY IDOCK:   -1.12 KCAL/MOL
REMARK 927      BINDING AFFINITY PREDICTED BY RF-SCORE:    0.00 PKD
ROOT
HETATM    1  C   UNL     1      -6.912  19.063  67.117  1.00  0.00    -0.203 C  
HETATM    2  O   UNL     1      -7.423  18.701  68.398  1.00  0.00    -0.277 OA 
ENDROOT
BRANCH   2   3
HETATM    3  C   UNL     1      -8.118  17.518  68.456  1.00  0.00    -0.275 A  
HETATM    4  C   UNL     1      -7.450  16.286  68.475  1.00  0.00    -0.176 A  
HETATM    5  C   UNL     1      -8.152  15.090  68.634  1.00  0.00    -0.153 A  
HETATM    6  C   UNL     1      -9.539  15.124  68.738  1.00  0.00    -0.219 A  
HETATM    7  C   UNL     1      -9.531  17.557  68.514  1.00  0.00    -0.296 A  
HETATM    8  C   UNL     1     -10.237  16.343  68.675  1.00  0.00    -0.258 A  
BRANCH   5   9
HETATM    9  C   UNL     1      -7.364  13.836  68.774  1.00  0.00    -0.103 C  
HETATM   10  N   UNL     1      -8.045  12.651  68.638  1.00  0.00    -0.322 N  
HETATM   11  O   UNL     1      -6.156  13.898  68.983  1.00  0.00    -0.082 OA 
HETATM   12  H   UNL     1      -9.051  12.656  68.473  1.00  0.00     0.000 HD 
BRANCH  10  13
HETATM   13  C   UNL     1      -7.332  11.397  68.731  1.00  0.00    -0.114 C  
BRANCH  13  14
HETATM   14  C   UNL     1      -8.287  10.251  68.913  1.00  0.00    -0.136 A  
HETATM   15  C   UNL     1      -7.870   9.123  69.616  1.00  0.00    -0.084 A  
HETATM   16  C   UNL     1      -8.710   8.023  69.752  1.00  0.00    -0.136 A  
HETATM   17  C   UNL     1      -9.989   8.017  69.182  1.00  0.00    -0.188 A  
HETATM   18  C   UNL     1     -10.420   9.150  68.491  1.00  0.00    -0.238 A  
HETATM   19  C   UNL     1      -9.575  10.261  68.351  1.00  0.00    -0.155 A  
BRANCH  17  20
HETATM   20  O   UNL     1     -10.867   6.956  69.241  1.00  0.00    -0.233 OA 
BRANCH  20  21
HETATM   21  C   UNL     1     -11.159   6.537  70.579  1.00  0.00    -0.319 C  
BRANCH  21  22
HETATM   22  C   UNL     1     -12.431   7.164  71.163  1.00  0.00    -0.359 C  
BRANCH  22  23
HETATM   23  N   UNL     1     -12.114   8.153  72.220  1.00  0.00    -0.356 NA 
HETATM   24  C   UNL     1     -10.806   7.917  72.838  1.00  0.00    -0.386 C  
HETATM   25  C   UNL     1     -12.168   9.515  71.690  1.00  0.00    -0.398 C  
ENDBRANCH  22  23
ENDBRANCH  21  22
ENDBRANCH  20  21
ENDBRANCH  17  20
ENDBRANCH  13  14
ENDBRANCH  10  13
ENDBRANCH   5   9
BRANCH   8  26
HETATM   26  O   UNL     1     -11.591  16.149  68.804  1.00  0.00    -0.368 OA 
HETATM   27  C   UNL     1     -12.085  15.333  69.854  1.00  0.00    -0.343 C  
ENDBRANCH   8  26
BRANCH   7  28
HETATM   28  O   UNL     1     -10.271  18.715  68.520  1.00  0.00    -0.380 OA 
HETATM   29  C   UNL     1     -10.811  19.191  67.295  1.00  0.00    -0.431 C  
ENDBRANCH   7  28
ENDBRANCH   2   3
TORSDOF 10
ENDMDL
MODEL      130
REMARK 921   NORMALIZED FREE ENERGY PREDICTED BY IDOCK:   -4.56 KCAL/MOL
REMARK 922        TOTAL FREE ENERGY PREDICTED BY IDOCK:   -8.09 KCAL/MOL
REMARK 923 INTER-LIGAND FREE ENERGY PREDICTED BY IDOCK:   -7.31 KCAL/MOL
REMARK 924 INTRA-LIGAND FREE ENERGY PREDICTED BY IDOCK:   -0.78 KCAL/MOL
REMARK 927      BINDING AFFINITY PREDICTED BY RF-SCORE:    0.00 PKD
ROOT
HETATM    1  C   UNL     1     -10.809   6.960  67.262  1.00  0.00    -0.356 C  
HETATM    2  O   UNL     1      -9.765   7.681  67.914  1.00  0.00    -0.142 OA 
ENDROOT
BRANCH   2   3
HETATM    3  C   UNL     1     -10.072   8.200  69.148  1.00  0.00    -0.202 A  
HETATM    4  C   UNL     1     -10.713   9.441  69.273  1.00  0.00    -0.228 A  
HETATM    5  C   UNL     1     -11.113   9.921  70.521  1.00  0.00    -0.398 A  
HETATM    6  C   UNL     1     -10.838   9.171  71.659  1.00  0.00    -0.442 A  
HETATM    7  C   UNL     1      -9.745   7.454  70.305  1.00  0.00    -0.172 A  
HETATM    8  C   UNL     1     -10.153   7.945  71.566  1.00  0.00    -0.180 A  
BRANCH   5   9
HETATM    9  C   UNL     1     -11.902  11.182  70.558  1.00  0.00    -0.351 C  
HETATM   10  N   UNL     1     -11.649  12.107  69.575  1.00  0.00    -0.352 N  
HETATM   11  O   UNL     1     -12.746  11.345  71.434  1.00  0.00    -0.401 OA 
HETATM   12  H   UNL     1     -10.930  11.925  68.875  1.00  0.00     0.000 HD 
BRANCH  10  13
HETATM   13  C   UNL     1     -12.403  13.340  69.535  1.00  0.00    -0.068 C  
BRANCH  13  14
HETATM   14  C   UNL     1     -11.550  14.473  69.041  1.00  0.00    -0.330 A  
HETATM   15  C   UNL     1     -10.836  15.239  69.961  1.00  0.00    -0.303 A  
HETATM   16  C   UNL     1     -10.084  16.331  69.540  1.00  0.00    -0.221 A  
HETATM   17  C   UNL     1     -10.030  16.692  68.188  1.00  0.00    -0.259 A  
HETATM   18  C   UNL     1     -10.729  15.920  67.259  1.00  0.00    -0.306 A  
HETATM   19  C   UNL     1     -11.489  14.819  67.679  1.00  0.00    -0.363 A  
BRANCH  17  20
HETATM   20  O   UNL     1      -9.338  17.779  67.696  1.00  0.00    -0.247 OA 
BRANCH  20  21
HETATM   21  C   UNL     1      -8.004  17.878  68.207  1.00  0.00    -0.291 C  
BRANCH  21  22
HETATM   22  C   UNL     1      -6.926  17.961  67.119  1.00  0.00    -0.180 C  
BRANCH  22  23
HETATM   23  N   UNL     1      -6.377  19.332  67.000  1.00  0.00    -0.186 NA 
HETATM   24  C   UNL     1      -6.708  19.961  65.718  1.00  0.00    -0.260 C  
HETATM   25  C   UNL     1      -6.847  20.176  68.097  1.00  0.00    -0.291 C  
ENDBRANCH  22  23
ENDBRANCH  21  22
ENDBRANCH  20  21
ENDBRANCH  17  20
ENDBRANCH  13  14
ENDBRANCH  10  13
ENDBRANCH   5   9
BRANCH   8  26
HETATM   26  O   UNL     1      -9.992   7.370  72.803  1.00  0.00    -0.183 OA 
HETATM   27  C   UNL     1      -8.761   7.521  73.493  1.00  0.00    -0.195 C  
ENDBRANCH   8  26
BRANCH   7  28
HETATM   28  O   UNL     1      -9.135   6.224  70.282  1.00  0.00    -0.151 OA 
HETATM   29  C   UNL     1      -9.943   5.056  70.313  1.00  0.00    -0.255 C  
ENDBRANCH   7  28
ENDBRANCH   2   3
TORSDOF 10
ENDMDL
MODEL      131
REMARK 921   NORMALIZED FREE ENERGY PREDICTED BY IDOCK:   -4.56 KCAL/MOL
REMARK 922        TOTAL FREE ENERGY PREDICTED BY IDOCK:   -8.09 KCAL/MOL
REMARK 923 INTER-LIGAND FREE ENERGY PREDICTED BY IDOCK:   -7.17 KCAL/MOL
REMARK 924 INTRA-LIGAND FREE ENERGY PREDICTED BY IDOCK:   -0.92 KCAL/MOL
REMARK 927      BINDING AFFINITY PREDICTED BY RF-SCORE:    0.00 PKD
ROOT
HETATM    1  C   UNL     1      -8.323   9.431  65.070  1.00  0.00    -0.150 C  
HETATM    2  O   UNL     1      -9.532   8.735  65.365  1.00  0.00    -0.127 OA 
ENDROOT
BRANCH   2   3
HETATM    3  C   UNL     1      -9.720   8.386  66.681  1.00  0.00    -0.251 A  
HETATM    4  C   UNL     1     -10.153   9.327  67.625  1.00  0.00    -0.266 A  
HETATM    5  C   UNL     1     -10.437   8.948  68.938  1.00  0.00    -0.225 A  
HETATM    6  C   UNL     1     -10.252   7.624  69.320  1.00  0.00    -0.210 A  
HETATM    7  C   UNL     1      -9.483   7.047  67.073  1.00  0.00    -0.149 A  
HETATM    8  C   UNL     1      -9.773   6.670  68.404  1.00  0.00    -0.126 A  
BRANCH   5   9
HETATM    9  C   UNL     1     -11.015   9.976  69.846  1.00  0.00    -0.293 C  
HETATM   10  N   UNL     1     -11.550  11.097  69.261  1.00  0.00    -0.288 N  
HETATM   11  O   UNL     1     -11.012   9.786  71.059  1.00  0.00    -0.320 OA 
HETATM   12  H   UNL     1     -11.519  11.209  68.247  1.00  0.00     0.000 HD 
BRANCH  10  13
HETATM   13  C   UNL     1     -12.157  12.119  70.084  1.00  0.00    -0.290 C  
BRANCH  13  14
HETATM   14  C   UNL     1     -11.688  13.485  69.674  1.00  0.00    -0.378 A  
HETATM   15  C   UNL     1     -11.601  14.492  70.633  1.00  0.00    -0.278 A  
HETATM   16  C   UNL     1     -11.225  15.782  70.273  1.00  0.00    -0.377 A  
HETATM   17  C   UNL     1     -10.934  16.104  68.942  1.00  0.00    -0.324 A  
HETATM   18  C   UNL     1     -11.003  15.098  67.978  1.00  0.00    -0.295 A  
HETATM   19  C   UNL     1     -11.382  13.796  68.337  1.00  0.00    -0.326 A  
BRANCH  17  20
HETATM   20  O   UNL     1     -10.590  17.364  68.499  1.00  0.00    -0.364 OA 
BRANCH  20  21
HETATM   21  C   UNL     1      -9.778  17.347  67.320  1.00  0.00    -0.267 C  
BRANCH  21  22
HETATM   22  C   UNL     1      -8.376  17.934  67.523  1.00  0.00    -0.228 C  
BRANCH  22  23
HETATM   23  N   UNL     1      -8.428  19.235  68.231  1.00  0.00    -0.320 NA 
HETATM   24  C   UNL     1      -7.245  19.471  69.064  1.00  0.00    -0.362 C  
HETATM   25  C   UNL     1      -8.588  20.336  67.282  1.00  0.00    -0.347 C  
ENDBRANCH  22  23
ENDBRANCH  21  22
ENDBRANCH  20  21
ENDBRANCH  17  20
ENDBRANCH  13  14
ENDBRANCH  10  13
ENDBRANCH   5   9
BRANCH   8  26
HETATM   26  O   UNL     1      -9.671   5.429  68.985  1.00  0.00    -0.131 OA 
HETATM   27  C   UNL     1     -10.485   5.107  70.101  1.00  0.00    -0.235 C  
ENDBRANCH   8  26
BRANCH   7  28
HETATM   28  O   UNL     1      -9.076   6.053  66.217  1.00  0.00    -0.145 OA 
HETATM   29  C   UNL     1      -7.687   5.877  65.980  1.00  0.00    -0.099 C  
ENDBRANCH   7  28
ENDBRANCH   2   3
TORSDOF 10
ENDMDL
MODEL      132
REMARK 921   NORMALIZED FREE ENERGY PREDICTED BY IDOCK:   -4.51 KCAL/MOL
REMARK 922        TOTAL FREE ENERGY PREDICTED BY IDOCK:   -8.02 KCAL/MOL
REMARK 923 INTER-LIGAND FREE ENERGY PREDICTED BY IDOCK:   -7.20 KCAL/MOL
REMARK 924 INTRA-LIGAND FREE ENERGY PREDICTED BY IDOCK:   -0.82 KCAL/MOL
REMARK 927      BINDING AFFINITY PREDICTED BY RF-SCORE:    0.00 PKD
ROOT
HETATM    1  C   UNL     1      -7.990   5.166  66.280  1.00  0.00    -0.104 C  
HETATM    2  O   UNL     1      -7.316   6.352  65.864  1.00  0.00    -0.076 OA 
ENDROOT
BRANCH   2   3
HETATM    3  C   UNL     1      -8.096   7.476  65.742  1.00  0.00    -0.127 A  
HETATM    4  C   UNL     1      -8.768   8.015  66.848  1.00  0.00    -0.136 A  
HETATM    5  C   UNL     1      -9.479   9.211  66.743  1.00  0.00    -0.230 A  
HETATM    6  C   UNL     1      -9.549   9.857  65.514  1.00  0.00    -0.341 A  
HETATM    7  C   UNL     1      -8.202   8.101  64.477  1.00  0.00    -0.115 A  
HETATM    8  C   UNL     1      -8.923   9.313  64.377  1.00  0.00    -0.116 A  
BRANCH   5   9
HETATM    9  C   UNL     1     -10.056   9.786  67.989  1.00  0.00    -0.171 C  
HETATM   10  N   UNL     1     -11.365  10.198  67.939  1.00  0.00    -0.494 N  
HETATM   11  O   UNL     1      -9.367   9.855  69.002  1.00  0.00    -0.157 OA 
HETATM   12  H   UNL     1     -11.891  10.125  67.068  1.00  0.00     0.000 HD 
BRANCH  10  13
HETATM   13  C   UNL     1     -11.997  10.735  69.123  1.00  0.00    -0.230 C  
BRANCH  13  14
HETATM   14  C   UNL     1     -11.863  12.230  69.169  1.00  0.00    -0.355 A  
HETATM   15  C   UNL     1     -12.071  12.896  70.376  1.00  0.00    -0.385 A  
HETATM   16  C   UNL     1     -12.011  14.284  70.438  1.00  0.00    -0.402 A  
HETATM   17  C   UNL     1     -11.750  15.047  69.293  1.00  0.00    -0.323 A  
HETATM   18  C   UNL     1     -11.524  14.387  68.085  1.00  0.00    -0.337 A  
HETATM   19  C   UNL     1     -11.584  12.988  68.018  1.00  0.00    -0.383 A  
BRANCH  17  20
HETATM   20  O   UNL     1     -11.709  16.425  69.264  1.00  0.00    -0.195 OA 
BRANCH  20  21
HETATM   21  C   UNL     1     -10.442  16.945  68.846  1.00  0.00    -0.346 C  
BRANCH  21  22
HETATM   22  C   UNL     1     -10.509  18.373  68.291  1.00  0.00    -0.299 C  
BRANCH  22  23
HETATM   23  N   UNL     1      -9.692  18.519  67.063  1.00  0.00    -0.299 NA 
HETATM   24  C   UNL     1     -10.305  19.420  66.083  1.00  0.00    -0.504 C  
HETATM   25  C   UNL     1      -8.346  18.989  67.389  1.00  0.00    -0.276 C  
ENDBRANCH  22  23
ENDBRANCH  21  22
ENDBRANCH  20  21
ENDBRANCH  17  20
ENDBRANCH  13  14
ENDBRANCH  10  13
ENDBRANCH   5   9
BRANCH   8  26
HETATM   26  O   UNL     1      -9.111  10.110  63.275  1.00  0.00    -0.226 OA 
HETATM   27  C   UNL     1     -10.020  11.197  63.342  1.00  0.00    -0.387 C  
ENDBRANCH   8  26
BRANCH   7  28
HETATM   28  O   UNL     1      -7.566   7.658  63.343  1.00  0.00    -0.104 OA 
HETATM   29  C   UNL     1      -6.273   8.161  63.039  1.00  0.00    -0.081 C  
ENDBRANCH   7  28
ENDBRANCH   2   3
TORSDOF 10
ENDMDL
MODEL      133
REMARK 921   NORMALIZED FREE ENERGY PREDICTED BY IDOCK:   -4.50 KCAL/MOL
REMARK 922        TOTAL FREE ENERGY PREDICTED BY IDOCK:   -8.00 KCAL/MOL
REMARK 923 INTER-LIGAND FREE ENERGY PREDICTED BY IDOCK:   -6.99 KCAL/MOL
REMARK 924 INTRA-LIGAND FREE ENERGY PREDICTED BY IDOCK:   -1.01 KCAL/MOL
REMARK 927      BINDING AFFINITY PREDICTED BY RF-SCORE:    0.00 PKD
ROOT
HETATM    1  C   UNL     1     -12.553  11.976  63.291  1.00  0.00    -0.385 C  
HETATM    2  O   UNL     1     -11.128  11.989  63.348  1.00  0.00    -0.410 OA 
ENDROOT
BRANCH   2   3
HETATM    3  C   UNL     1     -10.572  11.717  64.574  1.00  0.00    -0.318 A  
HETATM    4  C   UNL     1     -10.504  10.405  65.063  1.00  0.00    -0.139 A  
HETATM    5  C   UNL     1      -9.851  10.119  66.264  1.00  0.00    -0.288 A  
HETATM    6  C   UNL     1      -9.294  11.159  67.000  1.00  0.00    -0.182 A  
HETATM    7  C   UNL     1     -10.050  12.785  65.340  1.00  0.00    -0.259 A  
HETATM    8  C   UNL     1      -9.390  12.490  66.555  1.00  0.00    -0.233 A  
BRANCH   5   9
HETATM    9  C   UNL     1      -9.708   8.690  66.652  1.00  0.00    -0.247 C  
HETATM   10  N   UNL     1     -10.856   8.015  66.988  1.00  0.00    -0.437 N  
HETATM   11  O   UNL     1      -8.598   8.166  66.641  1.00  0.00    -0.125 OA 
HETATM   12  H   UNL     1     -11.753   8.501  66.987  1.00  0.00     0.000 HD 
BRANCH  10  13
HETATM   13  C   UNL     1     -10.790   6.615  67.343  1.00  0.00    -0.363 C  
BRANCH  13  14
HETATM   14  C   UNL     1     -10.833   6.439  68.834  1.00  0.00    -0.382 A  
HETATM   15  C   UNL     1     -11.227   7.509  69.635  1.00  0.00    -0.023 A  
HETATM   16  C   UNL     1     -11.222   7.395  71.021  1.00  0.00    -0.285 A  
HETATM   17  C   UNL     1     -10.814   6.210  71.646  1.00  0.00    -0.258 A  
HETATM   18  C   UNL     1     -10.433   5.128  70.851  1.00  0.00    -0.258 A  
HETATM   19  C   UNL     1     -10.437   5.240  69.453  1.00  0.00    -0.284 A  
BRANCH  17  20
HETATM   20  O   UNL     1     -10.745   6.029  73.012  1.00  0.00    -0.226 OA 
BRANCH  20  21
HETATM   21  C   UNL     1     -10.497   7.242  73.731  1.00  0.00    -0.288 C  
BRANCH  21  22
HETATM   22  C   UNL     1      -9.074   7.350  74.294  1.00  0.00    -0.177 C  
BRANCH  22  23
HETATM   23  N   UNL     1      -8.110   6.561  73.490  1.00  0.00    -0.111 NA 
HETATM   24  C   UNL     1      -7.247   7.406  72.659  1.00  0.00    -0.072 C  
HETATM   25  C   UNL     1      -7.286   5.715  74.351  1.00  0.00    -0.085 C  
ENDBRANCH  22  23
ENDBRANCH  21  22
ENDBRANCH  20  21
ENDBRANCH  17  20
ENDBRANCH  13  14
ENDBRANCH  10  13
ENDBRANCH   5   9
BRANCH   8  26
HETATM   26  O   UNL     1      -8.769  13.352  67.425  1.00  0.00    -0.188 OA 
HETATM   27  C   UNL     1      -9.524  13.984  68.447  1.00  0.00    -0.213 C  
ENDBRANCH   8  26
BRANCH   7  28
HETATM   28  O   UNL     1     -10.055  14.098  64.936  1.00  0.00    -0.385 OA 
HETATM   29  C   UNL     1     -11.175  14.911  65.255  1.00  0.00    -0.369 C  
ENDBRANCH   7  28
ENDBRANCH   2   3
TORSDOF 10
ENDMDL
MODEL      134
REMARK 921   NORMALIZED FREE ENERGY PREDICTED BY IDOCK:   -4.49 KCAL/MOL
REMARK 922        TOTAL FREE ENERGY PREDICTED BY IDOCK:   -7.98 KCAL/MOL
REMARK 923 INTER-LIGAND FREE ENERGY PREDICTED BY IDOCK:   -6.94 KCAL/MOL
REMARK 924 INTRA-LIGAND FREE ENERGY PREDICTED BY IDOCK:   -1.04 KCAL/MOL
REMARK 927      BINDING AFFINITY PREDICTED BY RF-SCORE:    0.00 PKD
ROOT
HETATM    1  C   UNL     1      -9.828  10.121  66.829  1.00  0.00    -0.196 C  
HETATM    2  O   UNL     1     -10.856  11.107  66.755  1.00  0.00    -0.264 OA 
ENDROOT
BRANCH   2   3
HETATM    3  C   UNL     1     -11.427  11.473  67.949  1.00  0.00    -0.301 A  
HETATM    4  C   UNL     1     -11.905  10.510  68.849  1.00  0.00    -0.136 A  
HETATM    5  C   UNL     1     -12.394  10.879  70.103  1.00  0.00    -0.399 A  
HETATM    6  C   UNL     1     -12.438  12.225  70.448  1.00  0.00    -0.221 A  
HETATM    7  C   UNL     1     -11.513  12.848  68.273  1.00  0.00    -0.311 A  
HETATM    8  C   UNL     1     -12.009  13.215  69.545  1.00  0.00    -0.294 A  
BRANCH   5   9
HETATM    9  C   UNL     1     -12.762   9.792  71.050  1.00  0.00    -0.304 C  
HETATM   10  N   UNL     1     -12.409   8.512  70.701  1.00  0.00    -0.480 N  
HETATM   11  O   UNL     1     -13.340  10.068  72.097  1.00  0.00    -0.444 OA 
HETATM   12  H   UNL     1     -11.936   8.336  69.814  1.00  0.00     0.000 HD 
BRANCH  10  13
HETATM   13  C   UNL     1     -12.708   7.413  71.592  1.00  0.00    -0.365 C  
BRANCH  13  14
HETATM   14  C   UNL     1     -11.452   6.874  72.216  1.00  0.00    -0.313 A  
HETATM   15  C   UNL     1     -10.610   7.741  72.910  1.00  0.00    -0.428 A  
HETATM   16  C   UNL     1      -9.412   7.283  73.449  1.00  0.00    -0.252 A  
HETATM   17  C   UNL     1      -9.018   5.947  73.302  1.00  0.00    -0.130 A  
HETATM   18  C   UNL     1      -9.864   5.069  72.623  1.00  0.00    -0.195 A  
HETATM   19  C   UNL     1     -11.073   5.527  72.078  1.00  0.00    -0.249 A  
BRANCH  17  20
HETATM   20  O   UNL     1      -7.833   5.425  73.775  1.00  0.00    -0.101 OA 
BRANCH  20  21
HETATM   21  C   UNL     1      -6.676   6.107  73.277  1.00  0.00    -0.075 C  
BRANCH  21  22
HETATM   22  C   UNL     1      -6.125   5.524  71.970  1.00  0.00    -0.034 C  
BRANCH  22  23
HETATM   23  N   UNL     1      -6.585   6.298  70.792  1.00  0.00    -0.051 NA 
HETATM   24  C   UNL     1      -6.448   7.745  70.982  1.00  0.00    -0.038 C  
HETATM   25  C   UNL     1      -5.863   5.890  69.588  1.00  0.00    -0.020 C  
ENDBRANCH  22  23
ENDBRANCH  21  22
ENDBRANCH  20  21
ENDBRANCH  17  20
ENDBRANCH  13  14
ENDBRANCH  10  13
ENDBRANCH   5   9
BRANCH   8  26
HETATM   26  O   UNL     1     -12.132  14.471  70.087  1.00  0.00    -0.294 OA 
HETATM   27  C   UNL     1     -13.279  14.793  70.858  1.00  0.00    -0.356 C  
ENDBRANCH   8  26
BRANCH   7  28
HETATM   28  O   UNL     1     -11.055  13.860  67.465  1.00  0.00    -0.274 OA 
HETATM   29  C   UNL     1     -11.827  14.239  66.335  1.00  0.00    -0.411 C  
ENDBRANCH   7  28
ENDBRANCH   2   3
TORSDOF 10
ENDMDL
MODEL      135
REMARK 921   NORMALIZED FREE ENERGY PREDICTED BY IDOCK:   -4.49 KCAL/MOL
REMARK 922        TOTAL FREE ENERGY PREDICTED BY IDOCK:   -7.97 KCAL/MOL
REMARK 923 INTER-LIGAND FREE ENERGY PREDICTED BY IDOCK:   -7.14 KCAL/MOL
REMARK 924 INTRA-LIGAND FREE ENERGY PREDICTED BY IDOCK:   -0.83 KCAL/MOL
REMARK 927      BINDING AFFINITY PREDICTED BY RF-SCORE:    0.00 PKD
ROOT
HETATM    1  C   UNL     1     -14.398  13.442  72.314  1.00  0.00    -0.182 C  
HETATM    2  O   UNL     1     -12.991  13.275  72.146  1.00  0.00    -0.335 OA 
ENDROOT
BRANCH   2   3
HETATM    3  C   UNL     1     -12.487  13.622  70.916  1.00  0.00    -0.371 A  
HETATM    4  C   UNL     1     -12.148  12.644  69.970  1.00  0.00    -0.339 A  
HETATM    5  C   UNL     1     -11.730  13.001  68.687  1.00  0.00    -0.359 A  
HETATM    6  C   UNL     1     -11.614  14.347  68.358  1.00  0.00    -0.351 A  
HETATM    7  C   UNL     1     -12.326  14.993  70.605  1.00  0.00    -0.348 A  
HETATM    8  C   UNL     1     -11.903  15.348  69.304  1.00  0.00    -0.343 A  
BRANCH   5   9
HETATM    9  C   UNL     1     -11.513  11.908  67.700  1.00  0.00    -0.317 C  
HETATM   10  N   UNL     1     -10.751  10.840  68.107  1.00  0.00    -0.197 N  
HETATM   11  O   UNL     1     -12.024  11.985  66.587  1.00  0.00    -0.614 OA 
HETATM   12  H   UNL     1     -10.342  10.831  69.042  1.00  0.00     0.000 HD 
BRANCH  10  13
HETATM   13  C   UNL     1     -10.529   9.730  67.208  1.00  0.00    -0.261 C  
BRANCH  13  14
HETATM   14  C   UNL     1     -10.219   8.476  67.974  1.00  0.00    -0.264 A  
HETATM   15  C   UNL     1      -9.205   8.495  68.930  1.00  0.00    -0.146 A  
HETATM   16  C   UNL     1      -8.856   7.335  69.614  1.00  0.00    -0.141 A  
HETATM   17  C   UNL     1      -9.504   6.121  69.355  1.00  0.00    -0.138 A  
HETATM   18  C   UNL     1     -10.532   6.098  68.411  1.00  0.00    -0.280 A  
HETATM   19  C   UNL     1     -10.886   7.265  67.719  1.00  0.00    -0.214 A  
BRANCH  17  20
HETATM   20  O   UNL     1      -9.193   4.923  69.963  1.00  0.00    -0.114 OA 
BRANCH  20  21
HETATM   21  C   UNL     1      -8.897   3.877  69.032  1.00  0.00    -0.102 C  
BRANCH  21  22
HETATM   22  C   UNL     1      -7.445   3.880  68.537  1.00  0.00    -0.055 C  
BRANCH  22  23
HETATM   23  N   UNL     1      -7.372   4.038  67.064  1.00  0.00    -0.071 NA 
HETATM   24  C   UNL     1      -8.598   3.600  66.390  1.00  0.00    -0.115 C  
HETATM   25  C   UNL     1      -7.083   5.426  66.706  1.00  0.00    -0.069 C  
ENDBRANCH  22  23
ENDBRANCH  21  22
ENDBRANCH  20  21
ENDBRANCH  17  20
ENDBRANCH  13  14
ENDBRANCH  10  13
ENDBRANCH   5   9
BRANCH   8  26
HETATM   26  O   UNL     1     -11.730  16.601  68.770  1.00  0.00    -0.101 OA 
HETATM   27  C   UNL     1     -10.439  17.014  68.349  1.00  0.00    -0.370 C  
ENDBRANCH   8  26
BRANCH   7  28
HETATM   28  O   UNL     1     -12.648  16.020  71.458  1.00  0.00    -0.447 OA 
HETATM   29  C   UNL     1     -11.847  16.231  72.612  1.00  0.00    -0.497 C  
ENDBRANCH   7  28
ENDBRANCH   2   3
TORSDOF 10
ENDMDL
MODEL      136
REMARK 921   NORMALIZED FREE ENERGY PREDICTED BY IDOCK:   -4.49 KCAL/MOL
REMARK 922        TOTAL FREE ENERGY PREDICTED BY IDOCK:   -7.97 KCAL/MOL
REMARK 923 INTER-LIGAND FREE ENERGY PREDICTED BY IDOCK:   -7.67 KCAL/MOL
REMARK 924 INTRA-LIGAND FREE ENERGY PREDICTED BY IDOCK:   -0.30 KCAL/MOL
REMARK 927      BINDING AFFINITY PREDICTED BY RF-SCORE:    0.00 PKD
ROOT
HETATM    1  C   UNL     1     -11.298  12.153  66.032  1.00  0.00    -0.358 C  
HETATM    2  O   UNL     1     -11.580  13.544  65.891  1.00  0.00    -0.318 OA 
ENDROOT
BRANCH   2   3
HETATM    3  C   UNL     1     -11.633  14.268  67.057  1.00  0.00    -0.386 A  
HETATM    4  C   UNL     1     -12.099  13.692  68.247  1.00  0.00    -0.306 A  
HETATM    5  C   UNL     1     -12.060  14.398  69.451  1.00  0.00    -0.338 A  
HETATM    6  C   UNL     1     -11.585  15.704  69.458  1.00  0.00    -0.366 A  
HETATM    7  C   UNL     1     -11.194  15.613  67.048  1.00  0.00    -0.127 A  
HETATM    8  C   UNL     1     -11.156  16.323  68.270  1.00  0.00    -0.346 A  
BRANCH   5   9
HETATM    9  C   UNL     1     -12.450  13.674  70.692  1.00  0.00    -0.347 C  
HETATM   10  N   UNL     1     -12.688  12.326  70.581  1.00  0.00    -0.127 N  
HETATM   11  O   UNL     1     -12.526  14.287  71.753  1.00  0.00    -0.340 OA 
HETATM   12  H   UNL     1     -12.617  11.868  69.672  1.00  0.00     0.000 HD 
BRANCH  10  13
HETATM   13  C   UNL     1     -13.038  11.559  71.755  1.00  0.00    -0.398 C  
BRANCH  13  14
HETATM   14  C   UNL     1     -12.498  10.160  71.660  1.00  0.00    -0.506 A  
HETATM   15  C   UNL     1     -11.403   9.908  70.835  1.00  0.00    -0.446 A  
HETATM   16  C   UNL     1     -10.917   8.614  70.682  1.00  0.00    -0.274 A  
HETATM   17  C   UNL     1     -11.516   7.534  71.342  1.00  0.00    -0.265 A  
HETATM   18  C   UNL     1     -12.602   7.781  72.183  1.00  0.00    -0.250 A  
HETATM   19  C   UNL     1     -13.096   9.085  72.340  1.00  0.00    -0.487 A  
BRANCH  17  20
HETATM   20  O   UNL     1     -11.116   6.220  71.215  1.00  0.00    -0.266 OA 
BRANCH  20  21
HETATM   21  C   UNL     1      -9.782   5.988  71.679  1.00  0.00    -0.158 C  
BRANCH  21  22
HETATM   22  C   UNL     1      -9.269   7.055  72.655  1.00  0.00    -0.134 C  
BRANCH  22  23
HETATM   23  N   UNL     1      -7.893   7.489  72.312  1.00  0.00    -0.094 NA 
HETATM   24  C   UNL     1      -6.894   6.995  73.265  1.00  0.00    -0.073 C  
HETATM   25  C   UNL     1      -7.536   7.063  70.960  1.00  0.00    -0.086 C  
ENDBRANCH  22  23
ENDBRANCH  21  22
ENDBRANCH  20  21
ENDBRANCH  17  20
ENDBRANCH  13  14
ENDBRANCH  10  13
ENDBRANCH   5   9
BRANCH   8  26
HETATM   26  O   UNL     1     -10.723  17.605  68.503  1.00  0.00    -0.311 OA 
HETATM   27  C   UNL     1      -9.332  17.869  68.603  1.00  0.00    -0.277 C  
ENDBRANCH   8  26
BRANCH   7  28
HETATM   28  O   UNL     1     -10.705  16.256  65.937  1.00  0.00    -0.302 OA 
HETATM   29  C   UNL     1      -9.409  15.920  65.463  1.00  0.00     0.019 C  
ENDBRANCH   7  28
ENDBRANCH   2   3
TORSDOF 10
ENDMDL
MODEL      137
REMARK 921   NORMALIZED FREE ENERGY PREDICTED BY IDOCK:   -4.46 KCAL/MOL
REMARK 922        TOTAL FREE ENERGY PREDICTED BY IDOCK:   -7.93 KCAL/MOL
REMARK 923 INTER-LIGAND FREE ENERGY PREDICTED BY IDOCK:   -7.01 KCAL/MOL
REMARK 924 INTRA-LIGAND FREE ENERGY PREDICTED BY IDOCK:   -0.92 KCAL/MOL
REMARK 927      BINDING AFFINITY PREDICTED BY RF-SCORE:    0.00 PKD
ROOT
HETATM    1  C   UNL     1     -11.984  13.039  63.381  1.00  0.00    -0.520 C  
HETATM    2  O   UNL     1     -10.899  13.126  64.304  1.00  0.00    -0.374 OA 
ENDROOT
BRANCH   2   3
HETATM    3  C   UNL     1     -10.878  12.180  65.299  1.00  0.00    -0.293 A  
HETATM    4  C   UNL     1     -10.115  11.011  65.171  1.00  0.00    -0.346 A  
HETATM    5  C   UNL     1     -10.017  10.098  66.222  1.00  0.00    -0.304 A  
HETATM    6  C   UNL     1     -10.717  10.338  67.400  1.00  0.00    -0.339 A  
HETATM    7  C   UNL     1     -11.632  12.407  66.475  1.00  0.00    -0.387 A  
HETATM    8  C   UNL     1     -11.528  11.479  67.537  1.00  0.00    -0.282 A  
BRANCH   5   9
HETATM    9  C   UNL     1      -9.086   8.949  66.058  1.00  0.00    -0.214 C  
HETATM   10  N   UNL     1      -8.861   8.164  67.162  1.00  0.00    -0.129 N  
HETATM   11  O   UNL     1      -8.575   8.733  64.964  1.00  0.00    -0.175 OA 
HETATM   12  H   UNL     1      -9.306   8.393  68.051  1.00  0.00     0.000 HD 
BRANCH  10  13
HETATM   13  C   UNL     1      -7.993   7.012  67.062  1.00  0.00    -0.116 C  
BRANCH  13  14
HETATM   14  C   UNL     1      -8.382   5.961  68.062  1.00  0.00    -0.111 A  
HETATM   15  C   UNL     1      -9.270   4.956  67.683  1.00  0.00    -0.138 A  
HETATM   16  C   UNL     1      -9.694   4.002  68.602  1.00  0.00    -0.138 A  
HETATM   17  C   UNL     1      -9.248   4.031  69.930  1.00  0.00    -0.143 A  
HETATM   18  C   UNL     1      -8.346   5.024  70.313  1.00  0.00    -0.092 A  
HETATM   19  C   UNL     1      -7.917   5.988  69.389  1.00  0.00    -0.103 A  
BRANCH  17  20
HETATM   20  O   UNL     1      -9.648   3.146  70.908  1.00  0.00    -0.156 OA 
BRANCH  20  21
HETATM   21  C   UNL     1      -9.444   3.641  72.236  1.00  0.00    -0.129 C  
BRANCH  21  22
HETATM   22  C   UNL     1     -10.685   3.543  73.133  1.00  0.00    -0.172 C  
BRANCH  22  23
HETATM   23  N   UNL     1     -11.081   4.871  73.659  1.00  0.00    -0.325 NA 
HETATM   24  C   UNL     1     -10.009   5.517  74.422  1.00  0.00    -0.242 C  
HETATM   25  C   UNL     1     -11.512   5.752  72.575  1.00  0.00    -0.296 C  
ENDBRANCH  22  23
ENDBRANCH  21  22
ENDBRANCH  20  21
ENDBRANCH  17  20
ENDBRANCH  13  14
ENDBRANCH  10  13
ENDBRANCH   5   9
BRANCH   8  26
HETATM   26  O   UNL     1     -12.121  11.523  68.775  1.00  0.00    -0.439 OA 
HETATM   27  C   UNL     1     -11.445  10.976  69.896  1.00  0.00    -0.320 C  
ENDBRANCH   8  26
BRANCH   7  28
HETATM   28  O   UNL     1     -12.393  13.528  66.698  1.00  0.00    -0.376 OA 
HETATM   29  C   UNL     1     -11.796  14.648  67.336  1.00  0.00    -0.348 C  
ENDBRANCH   7  28
ENDBRANCH   2   3
TORSDOF 10
ENDMDL
MODEL      138
REMARK 921   NORMALIZED FREE ENERGY PREDICTED BY IDOCK:   -4.45 KCAL/MOL
REMARK 922        TOTAL FREE ENERGY PREDICTED BY IDOCK:   -7.92 KCAL/MOL
REMARK 923 INTER-LIGAND FREE ENERGY PREDICTED BY IDOCK:   -6.98 KCAL/MOL
REMARK 924 INTRA-LIGAND FREE ENERGY PREDICTED BY IDOCK:   -0.93 KCAL/MOL
REMARK 927      BINDING AFFINITY PREDICTED BY RF-SCORE:    0.00 PKD
ROOT
HETATM    1  C   UNL     1      -9.523   3.761  65.503  1.00  0.00    -0.169 C  
HETATM    2  O   UNL     1      -8.303   4.278  66.033  1.00  0.00    -0.108 OA 
ENDROOT
BRANCH   2   3
HETATM    3  C   UNL     1      -8.363   5.549  66.550  1.00  0.00    -0.109 A  
HETATM    4  C   UNL     1      -8.386   6.672  65.710  1.00  0.00    -0.143 A  
HETATM    5  C   UNL     1      -8.546   7.956  66.232  1.00  0.00    -0.160 A  
HETATM    6  C   UNL     1      -8.648   8.123  67.609  1.00  0.00    -0.130 A  
HETATM    7  C   UNL     1      -8.418   5.715  67.953  1.00  0.00    -0.102 A  
HETATM    8  C   UNL     1      -8.581   7.018  68.477  1.00  0.00    -0.123 A  
BRANCH   5   9
HETATM    9  C   UNL     1      -8.690   9.083  65.270  1.00  0.00    -0.193 C  
HETATM   10  N   UNL     1      -9.945   9.622  65.124  1.00  0.00    -0.402 N  
HETATM   11  O   UNL     1      -7.705   9.496  64.667  1.00  0.00    -0.111 OA 
HETATM   12  H   UNL     1     -10.732   9.235  65.646  1.00  0.00     0.000 HD 
BRANCH  10  13
HETATM   13  C   UNL     1     -10.147  10.740  64.231  1.00  0.00    -0.361 C  
BRANCH  13  14
HETATM   14  C   UNL     1     -10.460  11.991  65.001  1.00  0.00    -0.327 A  
HETATM   15  C   UNL     1     -10.842  11.890  66.337  1.00  0.00    -0.318 A  
HETATM   16  C   UNL     1     -11.194  13.025  67.061  1.00  0.00    -0.325 A  
HETATM   17  C   UNL     1     -11.180  14.293  66.466  1.00  0.00    -0.332 A  
HETATM   18  C   UNL     1     -10.782  14.404  65.133  1.00  0.00    -0.413 A  
HETATM   19  C   UNL     1     -10.428  13.262  64.400  1.00  0.00    -0.424 A  
BRANCH  17  20
HETATM   20  O   UNL     1     -11.548  15.459  67.103  1.00  0.00    -0.220 OA 
BRANCH  20  21
HETATM   21  C   UNL     1     -10.629  16.536  66.887  1.00  0.00    -0.238 C  
BRANCH  21  22
HETATM   22  C   UNL     1     -10.566  17.540  68.044  1.00  0.00    -0.384 C  
BRANCH  22  23
HETATM   23  N   UNL     1     -10.791  18.928  67.573  1.00  0.00    -0.428 NA 
HETATM   24  C   UNL     1     -10.106  19.922  68.404  1.00  0.00    -0.437 C  
HETATM   25  C   UNL     1     -10.370  19.078  66.181  1.00  0.00    -0.468 C  
ENDBRANCH  22  23
ENDBRANCH  21  22
ENDBRANCH  20  21
ENDBRANCH  17  20
ENDBRANCH  13  14
ENDBRANCH  10  13
ENDBRANCH   5   9
BRANCH   8  26
HETATM   26  O   UNL     1      -8.709   7.406  69.788  1.00  0.00    -0.139 OA 
HETATM   27  C   UNL     1      -9.976   7.814  70.279  1.00  0.00    -0.189 C  
ENDBRANCH   8  26
BRANCH   7  28
HETATM   28  O   UNL     1      -8.420   4.676  68.853  1.00  0.00    -0.081 OA 
HETATM   29  C   UNL     1      -9.661   4.103  69.237  1.00  0.00    -0.149 C  
ENDBRANCH   7  28
ENDBRANCH   2   3
TORSDOF 10
ENDMDL
MODEL      139
REMARK 921   NORMALIZED FREE ENERGY PREDICTED BY IDOCK:   -4.45 KCAL/MOL
REMARK 922        TOTAL FREE ENERGY PREDICTED BY IDOCK:   -7.92 KCAL/MOL
REMARK 923 INTER-LIGAND FREE ENERGY PREDICTED BY IDOCK:   -6.92 KCAL/MOL
REMARK 924 INTRA-LIGAND FREE ENERGY PREDICTED BY IDOCK:   -1.00 KCAL/MOL
REMARK 927      BINDING AFFINITY PREDICTED BY RF-SCORE:    0.00 PKD
ROOT
HETATM    1  C   UNL     1     -11.074  15.100  65.306  1.00  0.00    -0.383 C  
HETATM    2  O   UNL     1     -10.711  15.187  66.683  1.00  0.00    -0.300 OA 
ENDROOT
BRANCH   2   3
HETATM    3  C   UNL     1     -10.993  14.083  67.451  1.00  0.00    -0.293 A  
HETATM    4  C   UNL     1     -10.601  12.800  67.046  1.00  0.00    -0.253 A  
HETATM    5  C   UNL     1     -10.800  11.694  67.873  1.00  0.00    -0.255 A  
HETATM    6  C   UNL     1     -11.430  11.866  69.101  1.00  0.00    -0.356 A  
HETATM    7  C   UNL     1     -11.677  14.260  68.676  1.00  0.00    -0.345 A  
HETATM    8  C   UNL     1     -11.876  13.136  69.510  1.00  0.00    -0.322 A  
BRANCH   5   9
HETATM    9  C   UNL     1     -10.241  10.387  67.431  1.00  0.00    -0.214 C  
HETATM   10  N   UNL     1     -11.028   9.276  67.613  1.00  0.00    -0.483 N  
HETATM   11  O   UNL     1      -9.130  10.346  66.912  1.00  0.00    -0.142 OA 
HETATM   12  H   UNL     1     -11.943   9.366  68.057  1.00  0.00     0.000 HD 
BRANCH  10  13
HETATM   13  C   UNL     1     -10.558   7.981  67.176  1.00  0.00    -0.297 C  
BRANCH  13  14
HETATM   14  C   UNL     1     -10.152   7.136  68.349  1.00  0.00    -0.182 A  
HETATM   15  C   UNL     1      -8.833   7.181  68.797  1.00  0.00    -0.130 A  
HETATM   16  C   UNL     1      -8.413   6.367  69.843  1.00  0.00    -0.131 A  
HETATM   17  C   UNL     1      -9.297   5.478  70.466  1.00  0.00    -0.157 A  
HETATM   18  C   UNL     1     -10.623   5.438  70.034  1.00  0.00    -0.354 A  
HETATM   19  C   UNL     1     -11.051   6.257  68.979  1.00  0.00    -0.446 A  
BRANCH  17  20
HETATM   20  O   UNL     1      -8.950   4.614  71.483  1.00  0.00    -0.127 OA 
BRANCH  20  21
HETATM   21  C   UNL     1      -9.068   3.234  71.118  1.00  0.00    -0.111 C  
BRANCH  21  22
HETATM   22  C   UNL     1      -7.768   2.622  70.579  1.00  0.00    -0.043 C  
BRANCH  22  23
HETATM   23  N   UNL     1      -7.983   1.951  69.274  1.00  0.00    -0.045 NA 
HETATM   24  C   UNL     1      -9.375   1.537  69.078  1.00  0.00    -0.130 C  
HETATM   25  C   UNL     1      -7.567   2.815  68.171  1.00  0.00    -0.056 C  
ENDBRANCH  22  23
ENDBRANCH  21  22
ENDBRANCH  20  21
ENDBRANCH  17  20
ENDBRANCH  13  14
ENDBRANCH  10  13
ENDBRANCH   5   9
BRANCH   8  26
HETATM   26  O   UNL     1     -12.462  13.082  70.751  1.00  0.00    -0.354 OA 
HETATM   27  C   UNL     1     -12.778  11.823  71.324  1.00  0.00    -0.316 C  
ENDBRANCH   8  26
BRANCH   7  28
HETATM   28  O   UNL     1     -12.084  15.478  69.164  1.00  0.00    -0.326 OA 
HETATM   29  C   UNL     1     -11.283  16.129  70.139  1.00  0.00    -0.370 C  
ENDBRANCH   7  28
ENDBRANCH   2   3
TORSDOF 10
ENDMDL
MODEL      140
REMARK 921   NORMALIZED FREE ENERGY PREDICTED BY IDOCK:   -4.44 KCAL/MOL
REMARK 922        TOTAL FREE ENERGY PREDICTED BY IDOCK:   -7.90 KCAL/MOL
REMARK 923 INTER-LIGAND FREE ENERGY PREDICTED BY IDOCK:   -7.06 KCAL/MOL
REMARK 924 INTRA-LIGAND FREE ENERGY PREDICTED BY IDOCK:   -0.84 KCAL/MOL
REMARK 927      BINDING AFFINITY PREDICTED BY RF-SCORE:    0.00 PKD
ROOT
HETATM    1  C   UNL     1     -10.531  19.761  65.849  1.00  0.00    -0.486 C  
HETATM    2  O   UNL     1      -9.240  19.163  65.951  1.00  0.00    -0.436 OA 
ENDROOT
BRANCH   2   3
HETATM    3  C   UNL     1      -9.166  18.013  66.700  1.00  0.00    -0.284 A  
HETATM    4  C   UNL     1     -10.072  16.961  66.502  1.00  0.00    -0.320 A  
HETATM    5  C   UNL     1      -9.935  15.757  67.194  1.00  0.00    -0.242 A  
HETATM    6  C   UNL     1      -8.905  15.615  68.117  1.00  0.00    -0.174 A  
HETATM    7  C   UNL     1      -8.146  17.895  67.672  1.00  0.00    -0.224 A  
HETATM    8  C   UNL     1      -8.011  16.672  68.369  1.00  0.00    -0.205 A  
BRANCH   5   9
HETATM    9  C   UNL     1     -10.856  14.643  66.836  1.00  0.00    -0.305 C  
HETATM   10  N   UNL     1     -10.824  13.526  67.634  1.00  0.00    -0.257 N  
HETATM   11  O   UNL     1     -11.608  14.763  65.874  1.00  0.00    -0.348 OA 
HETATM   12  H   UNL     1     -10.173  13.476  68.418  1.00  0.00     0.000 HD 
BRANCH  10  13
HETATM   13  C   UNL     1     -11.716  12.422  67.361  1.00  0.00    -0.347 C  
BRANCH  13  14
HETATM   14  C   UNL     1     -10.989  11.305  66.668  1.00  0.00    -0.326 A  
HETATM   15  C   UNL     1     -10.716  10.132  67.368  1.00  0.00    -0.336 A  
HETATM   16  C   UNL     1      -9.994   9.103  66.772  1.00  0.00    -0.322 A  
HETATM   17  C   UNL     1      -9.516   9.222  65.461  1.00  0.00    -0.240 A  
HETATM   18  C   UNL     1      -9.799  10.388  64.747  1.00  0.00    -0.406 A  
HETATM   19  C   UNL     1     -10.527  11.427  65.345  1.00  0.00    -0.336 A  
BRANCH  17  20
HETATM   20  O   UNL     1      -8.764   8.266  64.813  1.00  0.00    -0.080 OA 
BRANCH  20  21
HETATM   21  C   UNL     1      -8.270   7.246  65.688  1.00  0.00    -0.138 C  
BRANCH  21  22
HETATM   22  C   UNL     1      -8.161   5.864  65.033  1.00  0.00    -0.138 C  
BRANCH  22  23
HETATM   23  N   UNL     1      -8.194   4.778  66.042  1.00  0.00    -0.110 NA 
HETATM   24  C   UNL     1      -9.248   3.795  65.776  1.00  0.00    -0.156 C  
HETATM   25  C   UNL     1      -6.900   4.103  66.120  1.00  0.00    -0.054 C  
ENDBRANCH  22  23
ENDBRANCH  21  22
ENDBRANCH  20  21
ENDBRANCH  17  20
ENDBRANCH  13  14
ENDBRANCH  10  13
ENDBRANCH   5   9
BRANCH   8  26
HETATM   26  O   UNL     1      -7.073  16.319  69.307  1.00  0.00    -0.207 OA 
HETATM   27  C   UNL     1      -5.922  15.590  68.909  1.00  0.00    -0.102 C  
ENDBRANCH   8  26
BRANCH   7  28
HETATM   28  O   UNL     1      -7.203  18.863  67.922  1.00  0.00    -0.233 OA 
HETATM   29  C   UNL     1      -7.443  19.802  68.960  1.00  0.00    -0.251 C  
ENDBRANCH   7  28
ENDBRANCH   2   3
TORSDOF 10
ENDMDL
MODEL      141
REMARK 921   NORMALIZED FREE ENERGY PREDICTED BY IDOCK:   -4.42 KCAL/MOL
REMARK 922        TOTAL FREE ENERGY PREDICTED BY IDOCK:   -7.87 KCAL/MOL
REMARK 923 INTER-LIGAND FREE ENERGY PREDICTED BY IDOCK:   -7.03 KCAL/MOL
REMARK 924 INTRA-LIGAND FREE ENERGY PREDICTED BY IDOCK:   -0.84 KCAL/MOL
REMARK 927      BINDING AFFINITY PREDICTED BY RF-SCORE:    0.00 PKD
ROOT
HETATM    1  C   UNL     1      -9.422   6.473  66.684  1.00  0.00    -0.159 C  
HETATM    2  O   UNL     1      -8.434   5.929  67.558  1.00  0.00    -0.105 OA 
ENDROOT
BRANCH   2   3
HETATM    3  C   UNL     1      -8.892   5.455  68.763  1.00  0.00    -0.103 A  
HETATM    4  C   UNL     1      -9.589   6.286  69.651  1.00  0.00    -0.163 A  
HETATM    5  C   UNL     1     -10.138   5.777  70.829  1.00  0.00    -0.260 A  
HETATM    6  C   UNL     1      -9.958   4.434  71.140  1.00  0.00    -0.243 A  
HETATM    7  C   UNL     1      -8.663   4.099  69.095  1.00  0.00    -0.086 A  
HETATM    8  C   UNL     1      -9.222   3.589  70.289  1.00  0.00    -0.155 A  
BRANCH   5   9
HETATM    9  C   UNL     1     -10.973   6.691  71.655  1.00  0.00    -0.241 C  
HETATM   10  N   UNL     1     -12.052   7.278  71.040  1.00  0.00    -0.378 N  
HETATM   11  O   UNL     1     -10.690   6.872  72.835  1.00  0.00    -0.239 OA 
HETATM   12  H   UNL     1     -12.238   7.099  70.053  1.00  0.00     0.000 HD 
BRANCH  10  13
HETATM   13  C   UNL     1     -12.924   8.150  71.795  1.00  0.00    -0.342 C  
BRANCH  13  14
HETATM   14  C   UNL     1     -12.728   9.583  71.389  1.00  0.00    -0.445 A  
HETATM   15  C   UNL     1     -11.826   9.885  70.371  1.00  0.00    -0.310 A  
HETATM   16  C   UNL     1     -11.580  11.206  70.012  1.00  0.00    -0.421 A  
HETATM   17  C   UNL     1     -12.223  12.264  70.668  1.00  0.00    -0.287 A  
HETATM   18  C   UNL     1     -13.140  11.969  71.677  1.00  0.00    -0.422 A  
HETATM   19  C   UNL     1     -13.390  10.638  72.042  1.00  0.00    -0.409 A  
BRANCH  17  20
HETATM   20  O   UNL     1     -12.007  13.599  70.397  1.00  0.00    -0.322 OA 
BRANCH  20  21
HETATM   21  C   UNL     1     -11.981  13.894  68.996  1.00  0.00    -0.364 C  
BRANCH  21  22
HETATM   22  C   UNL     1     -11.170  15.147  68.640  1.00  0.00    -0.286 C  
BRANCH  22  23
HETATM   23  N   UNL     1     -11.104  15.354  67.174  1.00  0.00    -0.318 NA 
HETATM   24  C   UNL     1      -9.752  15.171  66.640  1.00  0.00    -0.258 C  
HETATM   25  C   UNL     1     -12.032  14.462  66.481  1.00  0.00    -0.386 C  
ENDBRANCH  22  23
ENDBRANCH  21  22
ENDBRANCH  20  21
ENDBRANCH  17  20
ENDBRANCH  13  14
ENDBRANCH  10  13
ENDBRANCH   5   9
BRANCH   8  26
HETATM   26  O   UNL     1      -9.173   2.308  70.780  1.00  0.00    -0.104 OA 
HETATM   27  C   UNL     1      -8.290   1.998  71.847  1.00  0.00    -0.052 C  
ENDBRANCH   8  26
BRANCH   7  28
HETATM   28  O   UNL     1      -8.008   3.206  68.282  1.00  0.00    -0.058 OA 
HETATM   29  C   UNL     1      -8.773   2.328  67.469  1.00  0.00    -0.116 C  
ENDBRANCH   7  28
ENDBRANCH   2   3
TORSDOF 10
ENDMDL
MODEL      142
REMARK 921   NORMALIZED FREE ENERGY PREDICTED BY IDOCK:   -4.42 KCAL/MOL
REMARK 922        TOTAL FREE ENERGY PREDICTED BY IDOCK:   -7.87 KCAL/MOL
REMARK 923 INTER-LIGAND FREE ENERGY PREDICTED BY IDOCK:   -6.87 KCAL/MOL
REMARK 924 INTRA-LIGAND FREE ENERGY PREDICTED BY IDOCK:   -1.00 KCAL/MOL
REMARK 927      BINDING AFFINITY PREDICTED BY RF-SCORE:    0.00 PKD
ROOT
HETATM    1  C   UNL     1     -11.830  15.254  69.533  1.00  0.00    -0.345 C  
HETATM    2  O   UNL     1     -12.508  14.307  68.709  1.00  0.00    -0.157 OA 
ENDROOT
BRANCH   2   3
HETATM    3  C   UNL     1     -11.728  13.317  68.163  1.00  0.00    -0.362 A  
HETATM    4  C   UNL     1     -11.332  12.206  68.921  1.00  0.00    -0.335 A  
HETATM    5  C   UNL     1     -10.623  11.154  68.337  1.00  0.00    -0.223 A  
HETATM    6  C   UNL     1     -10.276  11.230  66.993  1.00  0.00    -0.250 A  
HETATM    7  C   UNL     1     -11.336  13.424  66.808  1.00  0.00    -0.325 A  
HETATM    8  C   UNL     1     -10.619  12.356  66.222  1.00  0.00    -0.249 A  
BRANCH   5   9
HETATM    9  C   UNL     1     -10.352   9.953  69.173  1.00  0.00    -0.209 C  
HETATM   10  N   UNL     1     -11.253   8.919  69.092  1.00  0.00    -0.421 N  
HETATM   11  O   UNL     1      -9.348   9.917  69.877  1.00  0.00    -0.220 OA 
HETATM   12  H   UNL     1     -12.077   9.005  68.496  1.00  0.00     0.000 HD 
BRANCH  10  13
HETATM   13  C   UNL     1     -11.032   7.710  69.853  1.00  0.00    -0.200 C  
BRANCH  13  14
HETATM   14  C   UNL     1     -10.681   6.565  68.946  1.00  0.00    -0.318 A  
HETATM   15  C   UNL     1     -10.092   5.424  69.488  1.00  0.00    -0.310 A  
HETATM   16  C   UNL     1      -9.704   4.370  68.667  1.00  0.00    -0.190 A  
HETATM   17  C   UNL     1      -9.886   4.431  67.280  1.00  0.00    -0.162 A  
HETATM   18  C   UNL     1     -10.490   5.563  66.732  1.00  0.00    -0.355 A  
HETATM   19  C   UNL     1     -10.883   6.628  67.556  1.00  0.00    -0.417 A  
BRANCH  17  20
HETATM   20  O   UNL     1      -9.496   3.447  66.396  1.00  0.00    -0.177 OA 
BRANCH  20  21
HETATM   21  C   UNL     1      -8.649   3.932  65.347  1.00  0.00    -0.114 C  
BRANCH  21  22
HETATM   22  C   UNL     1      -7.172   4.048  65.746  1.00  0.00    -0.072 C  
BRANCH  22  23
HETATM   23  N   UNL     1      -6.324   3.116  64.965  1.00  0.00    -0.023 NA 
HETATM   24  C   UNL     1      -7.111   2.199  64.135  1.00  0.00    -0.048 C  
HETATM   25  C   UNL     1      -5.382   3.853  64.125  1.00  0.00    -0.009 C  
ENDBRANCH  22  23
ENDBRANCH  21  22
ENDBRANCH  20  21
ENDBRANCH  17  20
ENDBRANCH  13  14
ENDBRANCH  10  13
ENDBRANCH   5   9
BRANCH   8  26
HETATM   26  O   UNL     1     -10.186  12.223  64.926  1.00  0.00    -0.277 OA 
HETATM   27  C   UNL     1     -10.909  11.398  64.025  1.00  0.00    -0.383 C  
ENDBRANCH   8  26
BRANCH   7  28
HETATM   28  O   UNL     1     -11.691  14.464  65.983  1.00  0.00    -0.364 OA 
HETATM   29  C   UNL     1     -10.775  15.533  65.794  1.00  0.00    -0.353 C  
ENDBRANCH   7  28
ENDBRANCH   2   3
TORSDOF 10
ENDMDL
MODEL      143
REMARK 921   NORMALIZED FREE ENERGY PREDICTED BY IDOCK:   -4.42 KCAL/MOL
REMARK 922        TOTAL FREE ENERGY PREDICTED BY IDOCK:   -7.87 KCAL/MOL
REMARK 923 INTER-LIGAND FREE ENERGY PREDICTED BY IDOCK:   -7.00 KCAL/MOL
REMARK 924 INTRA-LIGAND FREE ENERGY PREDICTED BY IDOCK:   -0.86 KCAL/MOL
REMARK 927      BINDING AFFINITY PREDICTED BY RF-SCORE:    0.00 PKD
ROOT
HETATM    1  C   UNL     1     -12.631  13.907  65.396  1.00  0.00    -0.507 C  
HETATM    2  O   UNL     1     -11.752  14.976  65.050  1.00  0.00    -0.353 OA 
ENDROOT
BRANCH   2   3
HETATM    3  C   UNL     1     -10.570  15.033  65.747  1.00  0.00    -0.339 A  
HETATM    4  C   UNL     1      -9.968  13.870  66.247  1.00  0.00    -0.315 A  
HETATM    5  C   UNL     1      -8.719  13.919  66.869  1.00  0.00    -0.177 A  
HETATM    6  C   UNL     1      -8.082  15.145  67.023  1.00  0.00    -0.240 A  
HETATM    7  C   UNL     1      -9.951  16.290  65.943  1.00  0.00    -0.339 A  
HETATM    8  C   UNL     1      -8.686  16.333  66.572  1.00  0.00    -0.292 A  
BRANCH   5   9
HETATM    9  C   UNL     1      -8.087  12.628  67.257  1.00  0.00    -0.178 C  
HETATM   10  N   UNL     1      -8.151  11.602  66.347  1.00  0.00    -0.356 N  
HETATM   11  O   UNL     1      -7.526  12.529  68.344  1.00  0.00    -0.114 OA 
HETATM   12  H   UNL     1      -8.637  11.736  65.459  1.00  0.00     0.000 HD 
BRANCH  10  13
HETATM   13  C   UNL     1      -7.529  10.332  66.648  1.00  0.00    -0.110 C  
BRANCH  13  14
HETATM   14  C   UNL     1      -8.484   9.428  67.374  1.00  0.00    -0.125 A  
HETATM   15  C   UNL     1      -9.731   9.161  66.812  1.00  0.00    -0.271 A  
HETATM   16  C   UNL     1     -10.658   8.375  67.487  1.00  0.00    -0.285 A  
HETATM   17  C   UNL     1     -10.368   7.839  68.748  1.00  0.00    -0.204 A  
HETATM   18  C   UNL     1      -9.115   8.088  69.310  1.00  0.00    -0.148 A  
HETATM   19  C   UNL     1      -8.178   8.881  68.633  1.00  0.00    -0.116 A  
BRANCH  17  20
HETATM   20  O   UNL     1     -11.244   7.082  69.496  1.00  0.00    -0.220 OA 
BRANCH  20  21
HETATM   21  C   UNL     1     -11.105   7.285  70.907  1.00  0.00    -0.261 C  
BRANCH  21  22
HETATM   22  C   UNL     1     -11.342   6.021  71.743  1.00  0.00    -0.265 C  
BRANCH  22  23
HETATM   23  N   UNL     1     -10.064   5.366  72.113  1.00  0.00    -0.184 NA 
HETATM   24  C   UNL     1      -9.465   4.631  70.995  1.00  0.00    -0.161 C  
HETATM   25  C   UNL     1      -9.109   6.346  72.626  1.00  0.00    -0.135 C  
ENDBRANCH  22  23
ENDBRANCH  21  22
ENDBRANCH  20  21
ENDBRANCH  17  20
ENDBRANCH  13  14
ENDBRANCH  10  13
ENDBRANCH   5   9
BRANCH   8  26
HETATM   26  O   UNL     1      -7.887  17.422  66.818  1.00  0.00    -0.203 OA 
HETATM   27  C   UNL     1      -6.960  17.850  65.833  1.00  0.00    -0.278 C  
ENDBRANCH   8  26
BRANCH   7  28
HETATM   28  O   UNL     1     -10.455  17.479  65.474  1.00  0.00    -0.628 OA 
HETATM   29  C   UNL     1     -10.746  18.515  66.400  1.00  0.00    -0.201 C  
ENDBRANCH   7  28
ENDBRANCH   2   3
TORSDOF 10
ENDMDL
MODEL      144
REMARK 921   NORMALIZED FREE ENERGY PREDICTED BY IDOCK:   -4.39 KCAL/MOL
REMARK 922        TOTAL FREE ENERGY PREDICTED BY IDOCK:   -7.82 KCAL/MOL
REMARK 923 INTER-LIGAND FREE ENERGY PREDICTED BY IDOCK:   -7.27 KCAL/MOL
REMARK 924 INTRA-LIGAND FREE ENERGY PREDICTED BY IDOCK:   -0.55 KCAL/MOL
REMARK 927      BINDING AFFINITY PREDICTED BY RF-SCORE:    0.00 PKD
ROOT
HETATM    1  C   UNL     1     -10.617  16.705  68.373  1.00  0.00    -0.343 C  
HETATM    2  O   UNL     1     -11.830  15.986  68.155  1.00  0.00    -0.194 OA 
ENDROOT
BRANCH   2   3
HETATM    3  C   UNL     1     -11.704  14.628  67.993  1.00  0.00    -0.342 A  
HETATM    4  C   UNL     1     -11.708  13.763  69.097  1.00  0.00    -0.379 A  
HETATM    5  C   UNL     1     -11.679  12.379  68.924  1.00  0.00    -0.372 A  
HETATM    6  C   UNL     1     -11.608  11.854  67.638  1.00  0.00    -0.382 A  
HETATM    7  C   UNL     1     -11.583  14.104  66.685  1.00  0.00    -0.384 A  
HETATM    8  C   UNL     1     -11.554  12.701  66.516  1.00  0.00    -0.381 A  
BRANCH   5   9
HETATM    9  C   UNL     1     -11.817  11.525  70.136  1.00  0.00    -0.356 C  
HETATM   10  N   UNL     1     -11.080  10.367  70.172  1.00  0.00    -0.300 N  
HETATM   11  O   UNL     1     -12.554  11.883  71.050  1.00  0.00    -0.363 OA 
HETATM   12  H   UNL     1     -10.488  10.113  69.381  1.00  0.00     0.000 HD 
BRANCH  10  13
HETATM   13  C   UNL     1     -11.143   9.510  71.334  1.00  0.00    -0.368 C  
BRANCH  13  14
HETATM   14  C   UNL     1     -10.695   8.117  70.996  1.00  0.00    -0.248 A  
HETATM   15  C   UNL     1     -11.647   7.161  70.647  1.00  0.00    -0.354 A  
HETATM   16  C   UNL     1     -11.270   5.849  70.385  1.00  0.00    -0.307 A  
HETATM   17  C   UNL     1      -9.930   5.452  70.473  1.00  0.00    -0.221 A  
HETATM   18  C   UNL     1      -8.968   6.407  70.805  1.00  0.00    -0.144 A  
HETATM   19  C   UNL     1      -9.345   7.731  71.071  1.00  0.00    -0.160 A  
BRANCH  17  20
HETATM   20  O   UNL     1      -9.480   4.165  70.264  1.00  0.00    -0.145 OA 
BRANCH  20  21
HETATM   21  C   UNL     1      -8.144   4.110  69.750  1.00  0.00    -0.055 C  
BRANCH  21  22
HETATM   22  C   UNL     1      -7.963   3.111  68.599  1.00  0.00    -0.057 C  
BRANCH  22  23
HETATM   23  N   UNL     1      -6.645   2.436  68.668  1.00  0.00    -0.029 NA 
HETATM   24  C   UNL     1      -5.784   2.765  67.528  1.00  0.00    -0.019 C  
HETATM   25  C   UNL     1      -5.957   2.767  69.915  1.00  0.00    -0.023 C  
ENDBRANCH  22  23
ENDBRANCH  21  22
ENDBRANCH  20  21
ENDBRANCH  17  20
ENDBRANCH  13  14
ENDBRANCH  10  13
ENDBRANCH   5   9
BRANCH   8  26
HETATM   26  O   UNL     1     -11.494  11.979  65.349  1.00  0.00    -0.340 OA 
HETATM   27  C   UNL     1     -12.477  12.182  64.346  1.00  0.00    -0.324 C  
ENDBRANCH   8  26
BRANCH   7  28
HETATM   28  O   UNL     1     -11.588  14.870  65.544  1.00  0.00    -0.336 OA 
HETATM   29  C   UNL     1     -10.347  15.238  64.959  1.00  0.00    -0.342 C  
ENDBRANCH   7  28
ENDBRANCH   2   3
TORSDOF 10
ENDMDL
MODEL      145
REMARK 921   NORMALIZED FREE ENERGY PREDICTED BY IDOCK:   -4.38 KCAL/MOL
REMARK 922        TOTAL FREE ENERGY PREDICTED BY IDOCK:   -7.80 KCAL/MOL
REMARK 923 INTER-LIGAND FREE ENERGY PREDICTED BY IDOCK:   -7.18 KCAL/MOL
REMARK 924 INTRA-LIGAND FREE ENERGY PREDICTED BY IDOCK:   -0.62 KCAL/MOL
REMARK 927      BINDING AFFINITY PREDICTED BY RF-SCORE:    0.00 PKD
ROOT
HETATM    1  C   UNL     1      -7.665   7.330  67.414  1.00  0.00    -0.110 C  
HETATM    2  O   UNL     1      -7.684   7.796  68.763  1.00  0.00    -0.108 OA 
ENDROOT
BRANCH   2   3
HETATM    3  C   UNL     1      -8.779   8.541  69.127  1.00  0.00    -0.134 A  
HETATM    4  C   UNL     1      -9.407   9.400  68.214  1.00  0.00    -0.140 A  
HETATM    5  C   UNL     1     -10.577  10.080  68.556  1.00  0.00    -0.245 A  
HETATM    6  C   UNL     1     -11.104   9.928  69.833  1.00  0.00    -0.318 A  
HETATM    7  C   UNL     1      -9.282   8.419  70.443  1.00  0.00    -0.153 A  
HETATM    8  C   UNL     1     -10.468   9.109  70.784  1.00  0.00    -0.257 A  
BRANCH   5   9
HETATM    9  C   UNL     1     -11.255  10.871  67.493  1.00  0.00    -0.293 C  
HETATM   10  N   UNL     1     -10.737  10.785  66.223  1.00  0.00    -0.185 N  
HETATM   11  O   UNL     1     -12.242  11.545  67.773  1.00  0.00    -0.560 OA 
HETATM   12  H   UNL     1      -9.909  10.216  66.047  1.00  0.00     0.000 HD 
BRANCH  10  13
HETATM   13  C   UNL     1     -11.368  11.502  65.138  1.00  0.00    -0.086 C  
BRANCH  13  14
HETATM   14  C   UNL     1     -10.996  12.957  65.171  1.00  0.00    -0.316 A  
HETATM   15  C   UNL     1      -9.770  13.334  65.716  1.00  0.00    -0.149 A  
HETATM   16  C   UNL     1      -9.421  14.677  65.813  1.00  0.00    -0.180 A  
HETATM   17  C   UNL     1     -10.293  15.682  65.375  1.00  0.00    -0.393 A  
HETATM   18  C   UNL     1     -11.515  15.312  64.813  1.00  0.00    -0.364 A  
HETATM   19  C   UNL     1     -11.870  13.959  64.714  1.00  0.00    -0.414 A  
BRANCH  17  20
HETATM   20  O   UNL     1     -10.038  17.034  65.469  1.00  0.00    -0.577 OA 
BRANCH  20  21
HETATM   21  C   UNL     1     -10.754  17.672  66.532  1.00  0.00    -0.097 C  
BRANCH  21  22
HETATM   22  C   UNL     1     -10.040  17.608  67.888  1.00  0.00    -0.345 C  
BRANCH  22  23
HETATM   23  N   UNL     1     -10.219  16.287  68.536  1.00  0.00    -0.236 NA 
HETATM   24  C   UNL     1      -9.025  15.851  69.266  1.00  0.00    -0.251 C  
HETATM   25  C   UNL     1     -11.369  16.303  69.439  1.00  0.00    -0.284 C  
ENDBRANCH  22  23
ENDBRANCH  21  22
ENDBRANCH  20  21
ENDBRANCH  17  20
ENDBRANCH  13  14
ENDBRANCH  10  13
ENDBRANCH   5   9
BRANCH   8  26
HETATM   26  O   UNL     1     -11.156   9.097  71.972  1.00  0.00    -0.357 OA 
HETATM   27  C   UNL     1     -12.566   9.256  71.968  1.00  0.00    -0.390 C  
ENDBRANCH   8  26
BRANCH   7  28
HETATM   28  O   UNL     1      -8.746   7.590  71.399  1.00  0.00    -0.123 OA 
HETATM   29  C   UNL     1      -7.759   8.106  72.280  1.00  0.00    -0.120 C  
ENDBRANCH   7  28
ENDBRANCH   2   3
TORSDOF 10
ENDMDL
MODEL      146
REMARK 921   NORMALIZED FREE ENERGY PREDICTED BY IDOCK:   -4.36 KCAL/MOL
REMARK 922        TOTAL FREE ENERGY PREDICTED BY IDOCK:   -7.77 KCAL/MOL
REMARK 923 INTER-LIGAND FREE ENERGY PREDICTED BY IDOCK:   -6.91 KCAL/MOL
REMARK 924 INTRA-LIGAND FREE ENERGY PREDICTED BY IDOCK:   -0.86 KCAL/MOL
REMARK 927      BINDING AFFINITY PREDICTED BY RF-SCORE:    0.00 PKD
ROOT
HETATM    1  C   UNL     1      -9.199   4.705  67.600  1.00  0.00    -0.129 C  
HETATM    2  O   UNL     1      -8.514   4.340  68.798  1.00  0.00    -0.082 OA 
ENDROOT
BRANCH   2   3
HETATM    3  C   UNL     1      -8.894   5.010  69.936  1.00  0.00    -0.102 A  
HETATM    4  C   UNL     1     -10.036   5.822  69.951  1.00  0.00    -0.273 A  
HETATM    5  C   UNL     1     -10.475   6.422  71.132  1.00  0.00    -0.265 A  
HETATM    6  C   UNL     1      -9.744   6.239  72.301  1.00  0.00    -0.165 A  
HETATM    7  C   UNL     1      -8.118   4.858  71.109  1.00  0.00    -0.101 A  
HETATM    8  C   UNL     1      -8.567   5.468  72.302  1.00  0.00    -0.126 A  
BRANCH   5   9
HETATM    9  C   UNL     1     -11.766   7.161  71.097  1.00  0.00    -0.313 C  
HETATM   10  N   UNL     1     -11.850   8.309  71.847  1.00  0.00    -0.302 N  
HETATM   11  O   UNL     1     -12.686   6.743  70.401  1.00  0.00    -0.053 OA 
HETATM   12  H   UNL     1     -11.056   8.608  72.414  1.00  0.00     0.000 HD 
BRANCH  10  13
HETATM   13  C   UNL     1     -13.065   9.092  71.831  1.00  0.00    -0.411 C  
BRANCH  13  14
HETATM   14  C   UNL     1     -12.784  10.505  71.407  1.00  0.00    -0.547 A  
HETATM   15  C   UNL     1     -13.373  11.556  72.107  1.00  0.00    -0.284 A  
HETATM   16  C   UNL     1     -13.179  12.873  71.703  1.00  0.00    -0.416 A  
HETATM   17  C   UNL     1     -12.397  13.176  70.582  1.00  0.00    -0.326 A  
HETATM   18  C   UNL     1     -11.791  12.131  69.885  1.00  0.00    -0.392 A  
HETATM   19  C   UNL     1     -11.984  10.802  70.289  1.00  0.00    -0.438 A  
BRANCH  17  20
HETATM   20  O   UNL     1     -12.186  14.450  70.097  1.00  0.00    -0.305 OA 
BRANCH  20  21
HETATM   21  C   UNL     1     -11.125  14.520  69.138  1.00  0.00    -0.263 C  
BRANCH  21  22
HETATM   22  C   UNL     1     -11.402  15.482  67.975  1.00  0.00    -0.330 C  
BRANCH  22  23
HETATM   23  N   UNL     1     -10.868  14.956  66.695  1.00  0.00    -0.314 NA 
HETATM   24  C   UNL     1      -9.620  14.208  66.872  1.00  0.00    -0.270 C  
HETATM   25  C   UNL     1     -11.857  14.112  66.028  1.00  0.00    -0.398 C  
ENDBRANCH  22  23
ENDBRANCH  21  22
ENDBRANCH  20  21
ENDBRANCH  17  20
ENDBRANCH  13  14
ENDBRANCH  10  13
ENDBRANCH   5   9
BRANCH   8  26
HETATM   26  O   UNL     1      -8.009   5.413  73.556  1.00  0.00    -0.108 OA 
HETATM   27  C   UNL     1      -8.203   6.490  74.459  1.00  0.00    -0.132 C  
ENDBRANCH   8  26
BRANCH   7  28
HETATM   28  O   UNL     1      -6.995   4.071  71.194  1.00  0.00    -0.031 OA 
HETATM   29  C   UNL     1      -7.141   2.703  71.546  1.00  0.00    -0.032 C  
ENDBRANCH   7  28
ENDBRANCH   2   3
TORSDOF 10
ENDMDL
MODEL      147
REMARK 921   NORMALIZED FREE ENERGY PREDICTED BY IDOCK:   -4.35 KCAL/MOL
REMARK 922        TOTAL FREE ENERGY PREDICTED BY IDOCK:   -7.76 KCAL/MOL
REMARK 923 INTER-LIGAND FREE ENERGY PREDICTED BY IDOCK:   -6.75 KCAL/MOL
REMARK 924 INTRA-LIGAND FREE ENERGY PREDICTED BY IDOCK:   -1.02 KCAL/MOL
REMARK 927      BINDING AFFINITY PREDICTED BY RF-SCORE:    0.00 PKD
ROOT
HETATM    1  C   UNL     1     -12.280  14.567  64.481  1.00  0.00    -0.465 C  
HETATM    2  O   UNL     1     -12.520  14.038  65.784  1.00  0.00    -0.463 OA 
ENDROOT
BRANCH   2   3
HETATM    3  C   UNL     1     -11.482  13.341  66.351  1.00  0.00    -0.329 A  
HETATM    4  C   UNL     1     -11.374  11.951  66.198  1.00  0.00    -0.383 A  
HETATM    5  C   UNL     1     -10.266  11.259  66.691  1.00  0.00    -0.268 A  
HETATM    6  C   UNL     1      -9.276  11.956  67.374  1.00  0.00    -0.177 A  
HETATM    7  C   UNL     1     -10.503  14.050  67.086  1.00  0.00    -0.270 A  
HETATM    8  C   UNL     1      -9.383  13.343  67.582  1.00  0.00    -0.217 A  
BRANCH   5   9
HETATM    9  C   UNL     1     -10.160   9.808  66.377  1.00  0.00    -0.243 C  
HETATM   10  N   UNL     1     -10.757   8.934  67.252  1.00  0.00    -0.401 N  
HETATM   11  O   UNL     1      -9.573   9.448  65.361  1.00  0.00    -0.273 OA 
HETATM   12  H   UNL     1     -11.227   9.287  68.086  1.00  0.00     0.000 HD 
BRANCH  10  13
HETATM   13  C   UNL     1     -10.720   7.513  66.988  1.00  0.00    -0.297 C  
BRANCH  13  14
HETATM   14  C   UNL     1     -10.267   6.755  68.204  1.00  0.00    -0.198 A  
HETATM   15  C   UNL     1     -11.217   6.314  69.123  1.00  0.00    -0.439 A  
HETATM   16  C   UNL     1     -10.825   5.661  70.287  1.00  0.00    -0.336 A  
HETATM   17  C   UNL     1      -9.472   5.437  70.569  1.00  0.00    -0.165 A  
HETATM   18  C   UNL     1      -8.516   5.861  69.644  1.00  0.00    -0.117 A  
HETATM   19  C   UNL     1      -8.907   6.521  68.470  1.00  0.00    -0.121 A  
BRANCH  17  20
HETATM   20  O   UNL     1      -9.001   4.831  71.714  1.00  0.00    -0.127 OA 
BRANCH  20  21
HETATM   21  C   UNL     1      -8.302   3.607  71.459  1.00  0.00    -0.069 C  
BRANCH  21  22
HETATM   22  C   UNL     1      -9.186   2.498  70.874  1.00  0.00    -0.129 C  
BRANCH  22  23
HETATM   23  N   UNL     1      -8.621   1.960  69.614  1.00  0.00    -0.048 NA 
HETATM   24  C   UNL     1      -9.380   2.380  68.433  1.00  0.00    -0.204 C  
HETATM   25  C   UNL     1      -7.221   2.353  69.463  1.00  0.00    -0.043 C  
ENDBRANCH  22  23
ENDBRANCH  21  22
ENDBRANCH  20  21
ENDBRANCH  17  20
ENDBRANCH  13  14
ENDBRANCH  10  13
ENDBRANCH   5   9
BRANCH   8  26
HETATM   26  O   UNL     1      -8.299  13.829  68.270  1.00  0.00    -0.150 OA 
HETATM   27  C   UNL     1      -7.004  13.733  67.697  1.00  0.00    -0.174 C  
ENDBRANCH   8  26
BRANCH   7  28
HETATM   28  O   UNL     1     -10.515  15.411  67.273  1.00  0.00    -0.270 OA 
HETATM   29  C   UNL     1     -11.167  15.941  68.417  1.00  0.00    -0.368 C  
ENDBRANCH   7  28
ENDBRANCH   2   3
TORSDOF 10
ENDMDL
MODEL      148
REMARK 921   NORMALIZED FREE ENERGY PREDICTED BY IDOCK:   -4.35 KCAL/MOL
REMARK 922        TOTAL FREE ENERGY PREDICTED BY IDOCK:   -7.75 KCAL/MOL
REMARK 923 INTER-LIGAND FREE ENERGY PREDICTED BY IDOCK:   -6.98 KCAL/MOL
REMARK 924 INTRA-LIGAND FREE ENERGY PREDICTED BY IDOCK:   -0.77 KCAL/MOL
REMARK 927      BINDING AFFINITY PREDICTED BY RF-SCORE:    0.00 PKD
ROOT
HETATM    1  C   UNL     1      -6.887   4.440  68.945  1.00  0.00    -0.047 C  
HETATM    2  O   UNL     1      -6.848   5.666  69.673  1.00  0.00    -0.056 OA 
ENDROOT
BRANCH   2   3
HETATM    3  C   UNL     1      -8.051   6.308  69.837  1.00  0.00    -0.120 A  
HETATM    4  C   UNL     1      -8.584   7.118  68.825  1.00  0.00    -0.125 A  
HETATM    5  C   UNL     1      -9.851   7.689  68.954  1.00  0.00    -0.164 A  
HETATM    6  C   UNL     1     -10.578   7.476  70.121  1.00  0.00    -0.241 A  
HETATM    7  C   UNL     1      -8.763   6.126  71.046  1.00  0.00    -0.132 A  
HETATM    8  C   UNL     1     -10.046   6.706  71.171  1.00  0.00    -0.182 A  
BRANCH   5   9
HETATM    9  C   UNL     1     -10.401   8.429  67.786  1.00  0.00    -0.235 C  
HETATM   10  N   UNL     1     -10.643   9.770  67.954  1.00  0.00    -0.244 N  
HETATM   11  O   UNL     1     -10.597   7.836  66.730  1.00  0.00    -0.331 OA 
HETATM   12  H   UNL     1     -10.469  10.212  68.856  1.00  0.00     0.000 HD 
BRANCH  10  13
HETATM   13  C   UNL     1     -11.146  10.554  66.848  1.00  0.00    -0.050 C  
BRANCH  13  14
HETATM   14  C   UNL     1     -11.388  11.976  67.267  1.00  0.00    -0.394 A  
HETATM   15  C   UNL     1     -11.830  12.899  66.321  1.00  0.00    -0.477 A  
HETATM   16  C   UNL     1     -12.007  14.235  66.665  1.00  0.00    -0.454 A  
HETATM   17  C   UNL     1     -11.739  14.688  67.963  1.00  0.00    -0.342 A  
HETATM   18  C   UNL     1     -11.312  13.767  68.920  1.00  0.00    -0.328 A  
HETATM   19  C   UNL     1     -11.132  12.419  68.577  1.00  0.00    -0.296 A  
BRANCH  17  20
HETATM   20  O   UNL     1     -11.854  16.000  68.373  1.00  0.00    -0.304 OA 
BRANCH  20  21
HETATM   21  C   UNL     1     -10.601  16.691  68.418  1.00  0.00    -0.343 C  
BRANCH  21  22
HETATM   22  C   UNL     1     -10.218  17.370  67.096  1.00  0.00    -0.323 C  
BRANCH  22  23
HETATM   23  N   UNL     1      -9.194  18.422  67.302  1.00  0.00    -0.267 NA 
HETATM   24  C   UNL     1      -9.182  19.413  66.222  1.00  0.00    -0.348 C  
HETATM   25  C   UNL     1      -9.391  19.094  68.584  1.00  0.00    -0.388 C  
ENDBRANCH  22  23
ENDBRANCH  21  22
ENDBRANCH  20  21
ENDBRANCH  17  20
ENDBRANCH  13  14
ENDBRANCH  10  13
ENDBRANCH   5   9
BRANCH   8  26
HETATM   26  O   UNL     1     -10.928   6.619  72.220  1.00  0.00    -0.229 OA 
HETATM   27  C   UNL     1     -11.628   7.777  72.648  1.00  0.00    -0.344 C  
ENDBRANCH   8  26
BRANCH   7  28
HETATM   28  O   UNL     1      -8.331   5.337  72.085  1.00  0.00    -0.122 OA 
HETATM   29  C   UNL     1      -7.540   5.923  73.108  1.00  0.00    -0.098 C  
ENDBRANCH   7  28
ENDBRANCH   2   3
TORSDOF 10
ENDMDL
MODEL      149
REMARK 921   NORMALIZED FREE ENERGY PREDICTED BY IDOCK:   -4.35 KCAL/MOL
REMARK 922        TOTAL FREE ENERGY PREDICTED BY IDOCK:   -7.75 KCAL/MOL
REMARK 923 INTER-LIGAND FREE ENERGY PREDICTED BY IDOCK:   -7.00 KCAL/MOL
REMARK 924 INTRA-LIGAND FREE ENERGY PREDICTED BY IDOCK:   -0.76 KCAL/MOL
REMARK 927      BINDING AFFINITY PREDICTED BY RF-SCORE:    0.00 PKD
ROOT
HETATM    1  C   UNL     1      -5.813   4.426  69.998  1.00  0.00    -0.017 C  
HETATM    2  O   UNL     1      -6.186   5.247  71.104  1.00  0.00    -0.024 OA 
ENDROOT
BRANCH   2   3
HETATM    3  C   UNL     1      -7.534   5.442  71.281  1.00  0.00    -0.093 A  
HETATM    4  C   UNL     1      -8.297   6.135  70.330  1.00  0.00    -0.125 A  
HETATM    5  C   UNL     1      -9.682   6.246  70.464  1.00  0.00    -0.196 A  
HETATM    6  C   UNL     1     -10.305   5.691  71.576  1.00  0.00    -0.279 A  
HETATM    7  C   UNL     1      -8.154   4.917  72.439  1.00  0.00    -0.111 A  
HETATM    8  C   UNL     1      -9.557   5.032  72.568  1.00  0.00    -0.146 A  
BRANCH   5   9
HETATM    9  C   UNL     1     -10.437   6.882  69.350  1.00  0.00    -0.217 C  
HETATM   10  N   UNL     1      -9.931   8.053  68.841  1.00  0.00    -0.189 N  
HETATM   11  O   UNL     1     -11.452   6.344  68.920  1.00  0.00    -0.314 OA 
HETATM   12  H   UNL     1      -9.086   8.461  69.241  1.00  0.00     0.000 HD 
BRANCH  10  13
HETATM   13  C   UNL     1     -10.598   8.705  67.736  1.00  0.00    -0.183 C  
BRANCH  13  14
HETATM   14  C   UNL     1     -11.009  10.101  68.109  1.00  0.00    -0.313 A  
HETATM   15  C   UNL     1     -11.123  11.066  67.110  1.00  0.00    -0.333 A  
HETATM   16  C   UNL     1     -11.446  12.381  67.431  1.00  0.00    -0.418 A  
HETATM   17  C   UNL     1     -11.655  12.769  68.760  1.00  0.00    -0.312 A  
HETATM   18  C   UNL     1     -11.559  11.805  69.764  1.00  0.00    -0.372 A  
HETATM   19  C   UNL     1     -11.233  10.478  69.445  1.00  0.00    -0.327 A  
BRANCH  17  20
HETATM   20  O   UNL     1     -11.942  14.057  69.162  1.00  0.00    -0.329 OA 
BRANCH  20  21
HETATM   21  C   UNL     1     -12.756  14.112  70.339  1.00  0.00    -0.279 C  
BRANCH  21  22
HETATM   22  C   UNL     1     -12.065  14.771  71.541  1.00  0.00    -0.350 C  
BRANCH  22  23
HETATM   23  N   UNL     1     -12.942  14.776  72.736  1.00  0.00    -0.424 NA 
HETATM   24  C   UNL     1     -12.256  15.268  73.935  1.00  0.00    -0.610 C  
HETATM   25  C   UNL     1     -14.143  15.573  72.496  1.00  0.00    -0.506 C  
ENDBRANCH  22  23
ENDBRANCH  21  22
ENDBRANCH  20  21
ENDBRANCH  17  20
ENDBRANCH  13  14
ENDBRANCH  10  13
ENDBRANCH   5   9
BRANCH   8  26
HETATM   26  O   UNL     1     -10.367   4.557  73.570  1.00  0.00    -0.158 OA 
HETATM   27  C   UNL     1     -10.928   3.258  73.463  1.00  0.00    -0.227 C  
ENDBRANCH   8  26
BRANCH   7  28
HETATM   28  O   UNL     1      -7.493   4.210  73.414  1.00  0.00    -0.072 OA 
HETATM   29  C   UNL     1      -7.007   4.903  74.554  1.00  0.00    -0.073 C  
ENDBRANCH   7  28
ENDBRANCH   2   3
TORSDOF 10
ENDMDL
MODEL      150
REMARK 921   NORMALIZED FREE ENERGY PREDICTED BY IDOCK:   -4.33 KCAL/MOL
REMARK 922        TOTAL FREE ENERGY PREDICTED BY IDOCK:   -7.73 KCAL/MOL
REMARK 923 INTER-LIGAND FREE ENERGY PREDICTED BY IDOCK:   -6.93 KCAL/MOL
REMARK 924 INTRA-LIGAND FREE ENERGY PREDICTED BY IDOCK:   -0.80 KCAL/MOL
REMARK 927      BINDING AFFINITY PREDICTED BY RF-SCORE:    0.00 PKD
ROOT
HETATM    1  C   UNL     1      -7.897  19.309  68.842  1.00  0.00    -0.332 C  
HETATM    2  O   UNL     1      -9.189  18.760  68.588  1.00  0.00    -0.342 OA 
ENDROOT
BRANCH   2   3
HETATM    3  C   UNL     1      -9.225  17.663  67.762  1.00  0.00    -0.251 A  
HETATM    4  C   UNL     1      -8.451  16.526  68.034  1.00  0.00    -0.186 A  
HETATM    5  C   UNL     1      -8.563  15.377  67.249  1.00  0.00    -0.216 A  
HETATM    6  C   UNL     1      -9.430  15.377  66.162  1.00  0.00    -0.371 A  
HETATM    7  C   UNL     1     -10.072  17.688  66.629  1.00  0.00    -0.335 A  
HETATM    8  C   UNL     1     -10.182  16.521  65.839  1.00  0.00    -0.349 A  
BRANCH   5   9
HETATM    9  C   UNL     1      -7.807  14.169  67.677  1.00  0.00    -0.179 C  
HETATM   10  N   UNL     1      -8.484  12.973  67.672  1.00  0.00    -0.173 N  
HETATM   11  O   UNL     1      -6.627  14.272  67.996  1.00  0.00    -0.117 OA 
HETATM   12  H   UNL     1      -9.468  12.945  67.405  1.00  0.00     0.000 HD 
BRANCH  10  13
HETATM   13  C   UNL     1      -7.798  11.757  68.045  1.00  0.00    -0.134 C  
BRANCH  13  14
HETATM   14  C   UNL     1      -8.654  10.554  67.767  1.00  0.00    -0.118 A  
HETATM   15  C   UNL     1      -8.614   9.967  66.503  1.00  0.00    -0.131 A  
HETATM   16  C   UNL     1      -9.437   8.888  66.198  1.00  0.00    -0.318 A  
HETATM   17  C   UNL     1     -10.330   8.371  67.144  1.00  0.00    -0.311 A  
HETATM   18  C   UNL     1     -10.364   8.942  68.417  1.00  0.00    -0.237 A  
HETATM   19  C   UNL     1      -9.536  10.031  68.729  1.00  0.00    -0.162 A  
BRANCH  17  20
HETATM   20  O   UNL     1     -11.203   7.330  66.909  1.00  0.00    -0.176 OA 
BRANCH  20  21
HETATM   21  C   UNL     1     -10.880   6.144  67.646  1.00  0.00    -0.332 C  
BRANCH  21  22
HETATM   22  C   UNL     1      -9.985   5.162  66.880  1.00  0.00    -0.201 C  
BRANCH  22  23
HETATM   23  N   UNL     1      -8.753   4.842  67.641  1.00  0.00    -0.103 NA 
HETATM   24  C   UNL     1      -8.686   5.547  68.925  1.00  0.00    -0.102 C  
HETATM   25  C   UNL     1      -8.641   3.402  67.864  1.00  0.00    -0.100 C  
ENDBRANCH  22  23
ENDBRANCH  21  22
ENDBRANCH  20  21
ENDBRANCH  17  20
ENDBRANCH  13  14
ENDBRANCH  10  13
ENDBRANCH   5   9
BRANCH   8  26
HETATM   26  O   UNL     1     -10.973  16.303  64.737  1.00  0.00    -0.631 OA 
HETATM   27  C   UNL     1     -11.765  15.128  64.663  1.00  0.00    -0.348 C  
ENDBRANCH   8  26
BRANCH   7  28
HETATM   28  O   UNL     1     -10.880  18.747  66.293  1.00  0.00    -0.293 OA 
HETATM   29  C   UNL     1     -10.280  19.944  65.820  1.00  0.00    -0.386 C  
ENDBRANCH   7  28
ENDBRANCH   2   3
TORSDOF 10
ENDMDL
MODEL      151
REMARK 921   NORMALIZED FREE ENERGY PREDICTED BY IDOCK:   -4.31 KCAL/MOL
REMARK 922        TOTAL FREE ENERGY PREDICTED BY IDOCK:   -7.70 KCAL/MOL
REMARK 923 INTER-LIGAND FREE ENERGY PREDICTED BY IDOCK:   -6.75 KCAL/MOL
REMARK 924 INTRA-LIGAND FREE ENERGY PREDICTED BY IDOCK:   -0.95 KCAL/MOL
REMARK 927      BINDING AFFINITY PREDICTED BY RF-SCORE:    0.00 PKD
ROOT
HETATM    1  C   UNL     1     -12.208  11.861  63.565  1.00  0.00    -0.482 C  
HETATM    2  O   UNL     1     -11.062  12.709  63.509  1.00  0.00    -0.448 OA 
ENDROOT
BRANCH   2   3
HETATM    3  C   UNL     1     -10.509  13.054  64.719  1.00  0.00    -0.363 A  
HETATM    4  C   UNL     1      -9.921  12.089  65.548  1.00  0.00    -0.267 A  
HETATM    5  C   UNL     1      -9.274  12.456  66.729  1.00  0.00    -0.212 A  
HETATM    6  C   UNL     1      -9.245  13.795  67.102  1.00  0.00    -0.245 A  
HETATM    7  C   UNL     1     -10.527  14.412  65.115  1.00  0.00    -0.415 A  
HETATM    8  C   UNL     1      -9.870  14.778  66.312  1.00  0.00    -0.296 A  
BRANCH   5   9
HETATM    9  C   UNL     1      -8.562  11.392  67.488  1.00  0.00    -0.137 C  
HETATM   10  N   UNL     1      -9.165  10.160  67.553  1.00  0.00    -0.137 N  
HETATM   11  O   UNL     1      -7.476  11.638  68.005  1.00  0.00    -0.089 OA 
HETATM   12  H   UNL     1     -10.073  10.012  67.111  1.00  0.00     0.000 HD 
BRANCH  10  13
HETATM   13  C   UNL     1      -8.511   9.074  68.247  1.00  0.00    -0.129 C  
BRANCH  13  14
HETATM   14  C   UNL     1      -9.235   8.741  69.521  1.00  0.00    -0.149 A  
HETATM   15  C   UNL     1      -8.561   8.850  70.736  1.00  0.00    -0.236 A  
HETATM   16  C   UNL     1      -9.185   8.493  71.926  1.00  0.00    -0.326 A  
HETATM   17  C   UNL     1     -10.500   8.010  71.935  1.00  0.00    -0.236 A  
HETATM   18  C   UNL     1     -11.187   7.914  70.724  1.00  0.00    -0.274 A  
HETATM   19  C   UNL     1     -10.560   8.272  69.522  1.00  0.00    -0.216 A  
BRANCH  17  20
HETATM   20  O   UNL     1     -11.176   7.602  73.066  1.00  0.00    -0.384 OA 
BRANCH  20  21
HETATM   21  C   UNL     1     -10.451   6.641  73.842  1.00  0.00    -0.326 C  
BRANCH  21  22
HETATM   22  C   UNL     1     -10.905   5.193  73.616  1.00  0.00    -0.305 C  
BRANCH  22  23
HETATM   23  N   UNL     1      -9.776   4.329  73.196  1.00  0.00    -0.126 NA 
HETATM   24  C   UNL     1      -9.906   3.868  71.810  1.00  0.00    -0.179 C  
HETATM   25  C   UNL     1      -8.500   5.022  73.366  1.00  0.00    -0.110 C  
ENDBRANCH  22  23
ENDBRANCH  21  22
ENDBRANCH  20  21
ENDBRANCH  17  20
ENDBRANCH  13  14
ENDBRANCH  10  13
ENDBRANCH   5   9
BRANCH   8  26
HETATM   26  O   UNL     1      -9.717  16.028  66.859  1.00  0.00    -0.226 OA 
HETATM   27  C   UNL     1      -8.580  16.808  66.522  1.00  0.00    -0.277 C  
ENDBRANCH   8  26
BRANCH   7  28
HETATM   28  O   UNL     1     -11.064  15.428  64.362  1.00  0.00    -0.293 OA 
HETATM   29  C   UNL     1     -12.476  15.568  64.304  1.00  0.00     0.128 C  
ENDBRANCH   7  28
ENDBRANCH   2   3
TORSDOF 10
ENDMDL
MODEL      152
REMARK 921   NORMALIZED FREE ENERGY PREDICTED BY IDOCK:   -4.28 KCAL/MOL
REMARK 922        TOTAL FREE ENERGY PREDICTED BY IDOCK:   -7.65 KCAL/MOL
REMARK 923 INTER-LIGAND FREE ENERGY PREDICTED BY IDOCK:   -6.87 KCAL/MOL
REMARK 924 INTRA-LIGAND FREE ENERGY PREDICTED BY IDOCK:   -0.78 KCAL/MOL
REMARK 927      BINDING AFFINITY PREDICTED BY RF-SCORE:    0.00 PKD
ROOT
HETATM    1  C   UNL     1      -7.752   2.300  70.342  1.00  0.00    -0.042 C  
HETATM    2  O   UNL     1      -9.089   2.286  69.845  1.00  0.00    -0.086 OA 
ENDROOT
BRANCH   2   3
HETATM    3  C   UNL     1      -9.502   3.424  69.195  1.00  0.00    -0.141 A  
HETATM    4  C   UNL     1     -10.017   4.517  69.906  1.00  0.00    -0.273 A  
HETATM    5  C   UNL     1     -10.343   5.708  69.254  1.00  0.00    -0.340 A  
HETATM    6  C   UNL     1     -10.186   5.795  67.876  1.00  0.00    -0.231 A  
HETATM    7  C   UNL     1      -9.384   3.488  67.787  1.00  0.00    -0.197 A  
HETATM    8  C   UNL     1      -9.715   4.696  67.133  1.00  0.00    -0.192 A  
BRANCH   5   9
HETATM    9  C   UNL     1     -10.761   6.865  70.092  1.00  0.00    -0.237 C  
HETATM   10  N   UNL     1     -10.827   8.091  69.477  1.00  0.00    -0.387 N  
HETATM   11  O   UNL     1     -11.044   6.689  71.273  1.00  0.00    -0.247 OA 
HETATM   12  H   UNL     1     -10.573   8.183  68.493  1.00  0.00     0.000 HD 
BRANCH  10  13
HETATM   13  C   UNL     1     -11.257   9.250  70.226  1.00  0.00    -0.231 C  
BRANCH  13  14
HETATM   14  C   UNL     1     -11.465  10.427  69.316  1.00  0.00    -0.281 A  
HETATM   15  C   UNL     1     -11.171  10.300  67.960  1.00  0.00    -0.303 A  
HETATM   16  C   UNL     1     -11.298  11.389  67.103  1.00  0.00    -0.327 A  
HETATM   17  C   UNL     1     -11.714  12.638  67.580  1.00  0.00    -0.361 A  
HETATM   18  C   UNL     1     -12.026  12.769  68.934  1.00  0.00    -0.286 A  
HETATM   19  C   UNL     1     -11.899  11.674  69.801  1.00  0.00    -0.428 A  
BRANCH  17  20
HETATM   20  O   UNL     1     -11.830  13.772  66.804  1.00  0.00    -0.372 OA 
BRANCH  20  21
HETATM   21  C   UNL     1     -10.629  14.097  66.095  1.00  0.00    -0.293 C  
BRANCH  21  22
HETATM   22  C   UNL     1     -10.406  15.604  65.910  1.00  0.00    -0.350 C  
BRANCH  22  23
HETATM   23  N   UNL     1     -10.117  16.273  67.200  1.00  0.00    -0.262 NA 
HETATM   24  C   UNL     1      -8.953  15.701  67.883  1.00  0.00    -0.180 C  
HETATM   25  C   UNL     1      -9.917  17.708  67.007  1.00  0.00    -0.320 C  
ENDBRANCH  22  23
ENDBRANCH  21  22
ENDBRANCH  20  21
ENDBRANCH  17  20
ENDBRANCH  13  14
ENDBRANCH  10  13
ENDBRANCH   5   9
BRANCH   8  26
HETATM   26  O   UNL     1      -9.631   4.999  65.796  1.00  0.00    -0.159 OA 
HETATM   27  C   UNL     1     -10.451   4.308  64.866  1.00  0.00    -0.152 C  
ENDBRANCH   8  26
BRANCH   7  28
HETATM   28  O   UNL     1      -8.875   2.476  67.009  1.00  0.00    -0.117 OA 
HETATM   29  C   UNL     1      -7.493   2.491  66.683  1.00  0.00    -0.070 C  
ENDBRANCH   7  28
ENDBRANCH   2   3
TORSDOF 10
ENDMDL
MODEL      153
REMARK 921   NORMALIZED FREE ENERGY PREDICTED BY IDOCK:   -4.28 KCAL/MOL
REMARK 922        TOTAL FREE ENERGY PREDICTED BY IDOCK:   -7.64 KCAL/MOL
REMARK 923 INTER-LIGAND FREE ENERGY PREDICTED BY IDOCK:   -6.77 KCAL/MOL
REMARK 924 INTRA-LIGAND FREE ENERGY PREDICTED BY IDOCK:   -0.88 KCAL/MOL
REMARK 927      BINDING AFFINITY PREDICTED BY RF-SCORE:    0.00 PKD
ROOT
HETATM    1  C   UNL     1     -11.174   6.512  70.139  1.00  0.00    -0.377 C  
HETATM    2  O   UNL     1     -11.311   5.726  68.956  1.00  0.00    -0.137 OA 
ENDROOT
BRANCH   2   3
HETATM    3  C   UNL     1     -10.199   5.651  68.152  1.00  0.00    -0.186 A  
HETATM    4  C   UNL     1      -9.853   6.706  67.296  1.00  0.00    -0.184 A  
HETATM    5  C   UNL     1      -8.672   6.669  66.553  1.00  0.00    -0.137 A  
HETATM    6  C   UNL     1      -7.847   5.553  66.640  1.00  0.00    -0.101 A  
HETATM    7  C   UNL     1      -9.391   4.492  68.209  1.00  0.00    -0.141 A  
HETATM    8  C   UNL     1      -8.195   4.461  67.456  1.00  0.00    -0.099 A  
BRANCH   5   9
HETATM    9  C   UNL     1      -8.309   7.880  65.768  1.00  0.00    -0.136 C  
HETATM   10  N   UNL     1      -9.242   8.350  64.877  1.00  0.00    -0.262 N  
HETATM   11  O   UNL     1      -7.221   8.418  65.949  1.00  0.00    -0.071 OA 
HETATM   12  H   UNL     1     -10.129   7.859  64.759  1.00  0.00     0.000 HD 
BRANCH  10  13
HETATM   13  C   UNL     1      -8.966   9.541  64.106  1.00  0.00    -0.198 C  
BRANCH  13  14
HETATM   14  C   UNL     1      -9.898  10.655  64.489  1.00  0.00    -0.388 A  
HETATM   15  C   UNL     1     -10.421  11.479  63.494  1.00  0.00    -0.486 A  
HETATM   16  C   UNL     1     -11.240  12.553  63.823  1.00  0.00    -0.524 A  
HETATM   17  C   UNL     1     -11.555  12.839  65.157  1.00  0.00    -0.338 A  
HETATM   18  C   UNL     1     -11.050  12.009  66.158  1.00  0.00    -0.367 A  
HETATM   19  C   UNL     1     -10.222  10.925  65.831  1.00  0.00    -0.314 A  
BRANCH  17  20
HETATM   20  O   UNL     1     -12.329  13.904  65.567  1.00  0.00    -0.422 OA 
BRANCH  20  21
HETATM   21  C   UNL     1     -11.621  14.832  66.397  1.00  0.00    -0.299 C  
BRANCH  21  22
HETATM   22  C   UNL     1     -10.691  15.774  65.621  1.00  0.00    -0.348 C  
BRANCH  22  23
HETATM   23  N   UNL     1      -9.783  16.513  66.531  1.00  0.00    -0.257 NA 
HETATM   24  C   UNL     1     -10.479  17.056  67.701  1.00  0.00    -0.343 C  
HETATM   25  C   UNL     1      -8.680  15.659  66.968  1.00  0.00    -0.230 C  
ENDBRANCH  22  23
ENDBRANCH  21  22
ENDBRANCH  20  21
ENDBRANCH  17  20
ENDBRANCH  13  14
ENDBRANCH  10  13
ENDBRANCH   5   9
BRANCH   8  26
HETATM   26  O   UNL     1      -7.243   3.473  67.399  1.00  0.00    -0.058 OA 
HETATM   27  C   UNL     1      -5.963   3.699  67.968  1.00  0.00    -0.027 C  
ENDBRANCH   8  26
BRANCH   7  28
HETATM   28  O   UNL     1      -9.640   3.418  69.030  1.00  0.00    -0.165 OA 
HETATM   29  C   UNL     1      -9.302   3.513  70.406  1.00  0.00    -0.169 C  
ENDBRANCH   7  28
ENDBRANCH   2   3
TORSDOF 10
ENDMDL
MODEL      154
REMARK 921   NORMALIZED FREE ENERGY PREDICTED BY IDOCK:   -4.27 KCAL/MOL
REMARK 922        TOTAL FREE ENERGY PREDICTED BY IDOCK:   -7.64 KCAL/MOL
REMARK 923 INTER-LIGAND FREE ENERGY PREDICTED BY IDOCK:   -6.50 KCAL/MOL
REMARK 924 INTRA-LIGAND FREE ENERGY PREDICTED BY IDOCK:   -1.13 KCAL/MOL
REMARK 927      BINDING AFFINITY PREDICTED BY RF-SCORE:    0.00 PKD
ROOT
HETATM    1  C   UNL     1      -7.953  15.202  67.519  1.00  0.00    -0.174 C  
HETATM    2  O   UNL     1      -9.186  14.745  68.073  1.00  0.00    -0.186 OA 
ENDROOT
BRANCH   2   3
HETATM    3  C   UNL     1      -9.801  13.714  67.406  1.00  0.00    -0.234 A  
HETATM    4  C   UNL     1      -9.388  12.387  67.585  1.00  0.00    -0.188 A  
HETATM    5  C   UNL     1     -10.077  11.333  66.983  1.00  0.00    -0.238 A  
HETATM    6  C   UNL     1     -11.167  11.610  66.165  1.00  0.00    -0.314 A  
HETATM    7  C   UNL     1     -10.879  14.009  66.538  1.00  0.00    -0.300 A  
HETATM    8  C   UNL     1     -11.573  12.937  65.931  1.00  0.00    -0.377 A  
BRANCH   5   9
HETATM    9  C   UNL     1      -9.658   9.946  67.324  1.00  0.00    -0.160 C  
HETATM   10  N   UNL     1      -8.447   9.796  67.955  1.00  0.00    -0.124 N  
HETATM   11  O   UNL     1     -10.397   9.004  67.054  1.00  0.00    -0.253 OA 
HETATM   12  H   UNL     1      -7.868  10.613  68.149  1.00  0.00     0.000 HD 
BRANCH  10  13
HETATM   13  C   UNL     1      -7.996   8.479  68.343  1.00  0.00    -0.118 C  
BRANCH  13  14
HETATM   14  C   UNL     1      -8.135   8.282  69.826  1.00  0.00    -0.118 A  
HETATM   15  C   UNL     1      -9.070   9.039  70.529  1.00  0.00    -0.259 A  
HETATM   16  C   UNL     1      -9.182   8.920  71.910  1.00  0.00    -0.240 A  
HETATM   17  C   UNL     1      -8.357   8.047  72.629  1.00  0.00    -0.166 A  
HETATM   18  C   UNL     1      -7.430   7.273  71.930  1.00  0.00    -0.084 A  
HETATM   19  C   UNL     1      -7.313   7.390  70.538  1.00  0.00    -0.076 A  
BRANCH  17  20
HETATM   20  O   UNL     1      -8.381   7.899  74.000  1.00  0.00    -0.210 OA 
BRANCH  20  21
HETATM   21  C   UNL     1      -8.965   6.662  74.424  1.00  0.00    -0.181 C  
BRANCH  21  22
HETATM   22  C   UNL     1     -10.462   6.542  74.112  1.00  0.00    -0.239 C  
BRANCH  22  23
HETATM   23  N   UNL     1     -10.742   5.389  73.223  1.00  0.00    -0.252 NA 
HETATM   24  C   UNL     1     -11.147   5.803  71.876  1.00  0.00    -0.248 C  
HETATM   25  C   UNL     1      -9.581   4.506  73.138  1.00  0.00    -0.130 C  
ENDBRANCH  22  23
ENDBRANCH  21  22
ENDBRANCH  20  21
ENDBRANCH  17  20
ENDBRANCH  13  14
ENDBRANCH  10  13
ENDBRANCH   5   9
BRANCH   8  26
HETATM   26  O   UNL     1     -12.668  12.984  65.104  1.00  0.00    -0.585 OA 
HETATM   27  C   UNL     1     -12.528  12.645  63.733  1.00  0.00    -0.420 C  
ENDBRANCH   8  26
BRANCH   7  28
HETATM   28  O   UNL     1     -11.365  15.274  66.314  1.00  0.00    -0.280 OA 
HETATM   29  C   UNL     1     -10.913  15.992  65.175  1.00  0.00    -0.348 C  
ENDBRANCH   7  28
ENDBRANCH   2   3
TORSDOF 10
ENDMDL
MODEL      155
REMARK 921   NORMALIZED FREE ENERGY PREDICTED BY IDOCK:   -4.26 KCAL/MOL
REMARK 922        TOTAL FREE ENERGY PREDICTED BY IDOCK:   -7.61 KCAL/MOL
REMARK 923 INTER-LIGAND FREE ENERGY PREDICTED BY IDOCK:   -6.86 KCAL/MOL
REMARK 924 INTRA-LIGAND FREE ENERGY PREDICTED BY IDOCK:   -0.75 KCAL/MOL
REMARK 927      BINDING AFFINITY PREDICTED BY RF-SCORE:    0.00 PKD
ROOT
HETATM    1  C   UNL     1     -10.643  17.377  65.548  1.00  0.00    -0.108 C  
HETATM    2  O   UNL     1      -9.891  16.299  66.102  1.00  0.00    -0.292 OA 
ENDROOT
BRANCH   2   3
HETATM    3  C   UNL     1     -10.622  15.282  66.667  1.00  0.00    -0.304 A  
HETATM    4  C   UNL     1     -10.655  14.006  66.088  1.00  0.00    -0.290 A  
HETATM    5  C   UNL     1     -11.318  12.950  66.716  1.00  0.00    -0.367 A  
HETATM    6  C   UNL     1     -11.984  13.181  67.915  1.00  0.00    -0.347 A  
HETATM    7  C   UNL     1     -11.337  15.537  67.860  1.00  0.00    -0.308 A  
HETATM    8  C   UNL     1     -12.006  14.464  68.492  1.00  0.00    -0.298 A  
BRANCH   5   9
HETATM    9  C   UNL     1     -11.200  11.597  66.108  1.00  0.00    -0.254 C  
HETATM   10  N   UNL     1     -10.263  10.749  66.646  1.00  0.00    -0.225 N  
HETATM   11  O   UNL     1     -11.937  11.282  65.179  1.00  0.00     0.188 OA 
HETATM   12  H   UNL     1      -9.669  11.065  67.414  1.00  0.00     0.000 HD 
BRANCH  10  13
HETATM   13  C   UNL     1     -10.119   9.410  66.123  1.00  0.00    -0.254 C  
BRANCH  13  14
HETATM   14  C   UNL     1     -10.458   8.387  67.170  1.00  0.00    -0.380 A  
HETATM   15  C   UNL     1     -10.481   8.767  68.511  1.00  0.00    -0.212 A  
HETATM   16  C   UNL     1     -10.734   7.831  69.508  1.00  0.00    -0.200 A  
HETATM   17  C   UNL     1     -10.964   6.486  69.193  1.00  0.00    -0.323 A  
HETATM   18  C   UNL     1     -10.960   6.101  67.852  1.00  0.00    -0.399 A  
HETATM   19  C   UNL     1     -10.704   7.042  66.844  1.00  0.00    -0.376 A  
BRANCH  17  20
HETATM   20  O   UNL     1     -11.187   5.492  70.123  1.00  0.00    -0.168 OA 
BRANCH  20  21
HETATM   21  C   UNL     1     -10.728   5.834  71.436  1.00  0.00    -0.256 C  
BRANCH  21  22
HETATM   22  C   UNL     1      -9.497   5.039  71.889  1.00  0.00    -0.148 C  
BRANCH  22  23
HETATM   23  N   UNL     1      -9.864   3.963  72.840  1.00  0.00    -0.134 NA 
HETATM   24  C   UNL     1     -11.101   4.256  73.571  1.00  0.00    -0.290 C  
HETATM   25  C   UNL     1      -9.994   2.681  72.149  1.00  0.00    -0.166 C  
ENDBRANCH  22  23
ENDBRANCH  21  22
ENDBRANCH  20  21
ENDBRANCH  17  20
ENDBRANCH  13  14
ENDBRANCH  10  13
ENDBRANCH   5   9
BRANCH   8  26
HETATM   26  O   UNL     1     -12.711  14.467  69.671  1.00  0.00    -0.165 OA 
HETATM   27  C   UNL     1     -12.079  14.045  70.869  1.00  0.00    -0.329 C  
ENDBRANCH   8  26
BRANCH   7  28
HETATM   28  O   UNL     1     -11.349  16.748  68.509  1.00  0.00    -0.268 OA 
HETATM   29  C   UNL     1     -10.274  17.072  69.378  1.00  0.00    -0.190 C  
ENDBRANCH   7  28
ENDBRANCH   2   3
TORSDOF 10
ENDMDL
MODEL      156
REMARK 921   NORMALIZED FREE ENERGY PREDICTED BY IDOCK:   -4.24 KCAL/MOL
REMARK 922        TOTAL FREE ENERGY PREDICTED BY IDOCK:   -7.59 KCAL/MOL
REMARK 923 INTER-LIGAND FREE ENERGY PREDICTED BY IDOCK:   -6.69 KCAL/MOL
REMARK 924 INTRA-LIGAND FREE ENERGY PREDICTED BY IDOCK:   -0.89 KCAL/MOL
REMARK 927      BINDING AFFINITY PREDICTED BY RF-SCORE:    0.00 PKD
ROOT
HETATM    1  C   UNL     1     -11.128  16.286  69.171  1.00  0.00    -0.322 C  
HETATM    2  O   UNL     1     -10.757  17.303  68.242  1.00  0.00    -0.373 OA 
ENDROOT
BRANCH   2   3
HETATM    3  C   UNL     1      -9.429  17.344  67.893  1.00  0.00    -0.265 A  
HETATM    4  C   UNL     1      -8.595  16.234  68.086  1.00  0.00    -0.183 A  
HETATM    5  C   UNL     1      -7.272  16.243  67.641  1.00  0.00    -0.162 A  
HETATM    6  C   UNL     1      -6.767  17.386  67.030  1.00  0.00    -0.218 A  
HETATM    7  C   UNL     1      -8.909  18.527  67.317  1.00  0.00    -0.270 A  
HETATM    8  C   UNL     1      -7.569  18.530  66.867  1.00  0.00    -0.221 A  
BRANCH   5   9
HETATM    9  C   UNL     1      -6.490  14.983  67.765  1.00  0.00    -0.163 C  
HETATM   10  N   UNL     1      -7.090  13.829  67.323  1.00  0.00    -0.316 N  
HETATM   11  O   UNL     1      -5.355  15.016  68.229  1.00  0.00    -0.100 OA 
HETATM   12  H   UNL     1      -8.040  13.857  66.952  1.00  0.00     0.000 HD 
BRANCH  10  13
HETATM   13  C   UNL     1      -6.372  12.576  67.384  1.00  0.00    -0.157 C  
BRANCH  13  14
HETATM   14  C   UNL     1      -7.208  11.512  68.037  1.00  0.00    -0.085 A  
HETATM   15  C   UNL     1      -8.597  11.615  67.991  1.00  0.00    -0.152 A  
HETATM   16  C   UNL     1      -9.397  10.677  68.636  1.00  0.00    -0.177 A  
HETATM   17  C   UNL     1      -8.831   9.615  69.351  1.00  0.00    -0.180 A  
HETATM   18  C   UNL     1      -7.441   9.496  69.387  1.00  0.00    -0.088 A  
HETATM   19  C   UNL     1      -6.631  10.440  68.739  1.00  0.00    -0.052 A  
BRANCH  17  20
HETATM   20  O   UNL     1      -9.553   8.666  70.045  1.00  0.00    -0.166 OA 
BRANCH  20  21
HETATM   21  C   UNL     1     -10.883   9.090  70.363  1.00  0.00    -0.246 C  
BRANCH  21  22
HETATM   22  C   UNL     1     -11.248   8.931  71.845  1.00  0.00    -0.377 C  
BRANCH  22  23
HETATM   23  N   UNL     1     -12.603   9.459  72.131  1.00  0.00    -0.365 NA 
HETATM   24  C   UNL     1     -12.940  10.621  71.303  1.00  0.00    -0.414 C  
HETATM   25  C   UNL     1     -13.614   8.419  71.953  1.00  0.00    -0.379 C  
ENDBRANCH  22  23
ENDBRANCH  21  22
ENDBRANCH  20  21
ENDBRANCH  17  20
ENDBRANCH  13  14
ENDBRANCH  10  13
ENDBRANCH   5   9
BRANCH   8  26
HETATM   26  O   UNL     1      -6.878  19.537  66.238  1.00  0.00    -0.203 OA 
HETATM   27  C   UNL     1      -6.307  19.305  64.960  1.00  0.00    -0.261 C  
ENDBRANCH   8  26
BRANCH   7  28
HETATM   28  O   UNL     1      -9.652  19.656  67.072  1.00  0.00    -0.319 OA 
HETATM   29  C   UNL     1     -10.396  19.741  65.866  1.00  0.00    -0.483 C  
ENDBRANCH   7  28
ENDBRANCH   2   3
TORSDOF 10
ENDMDL
MODEL      157
REMARK 921   NORMALIZED FREE ENERGY PREDICTED BY IDOCK:   -4.24 KCAL/MOL
REMARK 922        TOTAL FREE ENERGY PREDICTED BY IDOCK:   -7.58 KCAL/MOL
REMARK 923 INTER-LIGAND FREE ENERGY PREDICTED BY IDOCK:   -7.19 KCAL/MOL
REMARK 924 INTRA-LIGAND FREE ENERGY PREDICTED BY IDOCK:   -0.39 KCAL/MOL
REMARK 927      BINDING AFFINITY PREDICTED BY RF-SCORE:    0.00 PKD
ROOT
HETATM    1  C   UNL     1     -14.286  13.594  72.498  1.00  0.00    -0.263 C  
HETATM    2  O   UNL     1     -12.965  13.099  72.287  1.00  0.00    -0.321 OA 
ENDROOT
BRANCH   2   3
HETATM    3  C   UNL     1     -12.451  13.276  71.025  1.00  0.00    -0.336 A  
HETATM    4  C   UNL     1     -12.049  12.182  70.246  1.00  0.00    -0.385 A  
HETATM    5  C   UNL     1     -11.620  12.356  68.930  1.00  0.00    -0.364 A  
HETATM    6  C   UNL     1     -11.558  13.639  68.398  1.00  0.00    -0.377 A  
HETATM    7  C   UNL     1     -12.344  14.589  70.508  1.00  0.00    -0.337 A  
HETATM    8  C   UNL     1     -11.910  14.759  69.174  1.00  0.00    -0.305 A  
BRANCH   5   9
HETATM    9  C   UNL     1     -11.334  11.136  68.126  1.00  0.00    -0.309 C  
HETATM   10  N   UNL     1     -10.851  10.042  68.801  1.00  0.00    -0.229 N  
HETATM   11  O   UNL     1     -11.552  11.140  66.919  1.00  0.00    -0.428 OA 
HETATM   12  H   UNL     1     -10.680  10.096  69.806  1.00  0.00     0.000 HD 
BRANCH  10  13
HETATM   13  C   UNL     1     -10.583   8.815  68.086  1.00  0.00    -0.147 C  
BRANCH  13  14
HETATM   14  C   UNL     1     -10.293   7.692  69.040  1.00  0.00    -0.220 A  
HETATM   15  C   UNL     1      -9.040   7.618  69.644  1.00  0.00    -0.147 A  
HETATM   16  C   UNL     1      -8.722   6.559  70.487  1.00  0.00    -0.144 A  
HETATM   17  C   UNL     1      -9.645   5.538  70.743  1.00  0.00    -0.170 A  
HETATM   18  C   UNL     1     -10.909   5.613  70.155  1.00  0.00    -0.356 A  
HETATM   19  C   UNL     1     -11.233   6.680  69.304  1.00  0.00    -0.326 A  
BRANCH  17  20
HETATM   20  O   UNL     1      -9.395   4.437  71.536  1.00  0.00    -0.129 OA 
BRANCH  20  21
HETATM   21  C   UNL     1      -9.139   3.246  70.785  1.00  0.00    -0.114 C  
BRANCH  21  22
HETATM   22  C   UNL     1      -8.301   2.205  71.539  1.00  0.00    -0.054 C  
BRANCH  22  23
HETATM   23  N   UNL     1      -7.213   2.843  72.317  1.00  0.00    -0.038 NA 
HETATM   24  C   UNL     1      -6.978   2.181  73.603  1.00  0.00    -0.024 C  
HETATM   25  C   UNL     1      -5.971   2.871  71.545  1.00  0.00    -0.014 C  
ENDBRANCH  22  23
ENDBRANCH  21  22
ENDBRANCH  20  21
ENDBRANCH  17  20
ENDBRANCH  13  14
ENDBRANCH  10  13
ENDBRANCH   5   9
BRANCH   8  26
HETATM   26  O   UNL     1     -11.782  15.923  68.456  1.00  0.00    -0.383 OA 
HETATM   27  C   UNL     1     -10.494  16.361  68.052  1.00  0.00    -0.303 C  
ENDBRANCH   8  26
BRANCH   7  28
HETATM   28  O   UNL     1     -12.729  15.718  71.189  1.00  0.00    -0.471 OA 
HETATM   29  C   UNL     1     -11.842  16.280  72.145  1.00  0.00    -0.499 C  
ENDBRANCH   7  28
ENDBRANCH   2   3
TORSDOF 10
ENDMDL
MODEL      158
REMARK 921   NORMALIZED FREE ENERGY PREDICTED BY IDOCK:   -4.22 KCAL/MOL
REMARK 922        TOTAL FREE ENERGY PREDICTED BY IDOCK:   -7.55 KCAL/MOL
REMARK 923 INTER-LIGAND FREE ENERGY PREDICTED BY IDOCK:   -6.89 KCAL/MOL
REMARK 924 INTRA-LIGAND FREE ENERGY PREDICTED BY IDOCK:   -0.65 KCAL/MOL
REMARK 927      BINDING AFFINITY PREDICTED BY RF-SCORE:    0.00 PKD
ROOT
HETATM    1  C   UNL     1     -11.272   6.450  69.800  1.00  0.00    -0.419 C  
HETATM    2  O   UNL     1     -11.353   6.250  68.390  1.00  0.00    -0.298 OA 
ENDROOT
BRANCH   2   3
HETATM    3  C   UNL     1     -10.225   6.565  67.672  1.00  0.00    -0.170 A  
HETATM    4  C   UNL     1     -10.173   7.714  66.871  1.00  0.00    -0.365 A  
HETATM    5  C   UNL     1      -8.994   8.084  66.221  1.00  0.00    -0.208 A  
HETATM    6  C   UNL     1      -7.867   7.279  66.344  1.00  0.00    -0.106 A  
HETATM    7  C   UNL     1      -9.098   5.715  67.763  1.00  0.00    -0.106 A  
HETATM    8  C   UNL     1      -7.907   6.095  67.103  1.00  0.00    -0.102 A  
BRANCH   5   9
HETATM    9  C   UNL     1      -8.981   9.384  65.496  1.00  0.00    -0.204 C  
HETATM   10  N   UNL     1     -10.158   9.789  64.918  1.00  0.00    -0.319 N  
HETATM   11  O   UNL     1      -7.948  10.045  65.455  1.00  0.00    -0.129 OA 
HETATM   12  H   UNL     1     -10.987   9.196  64.976  1.00  0.00     0.000 HD 
BRANCH  10  13
HETATM   13  C   UNL     1     -10.222  11.057  64.226  1.00  0.00    -0.352 C  
BRANCH  13  14
HETATM   14  C   UNL     1     -10.723  12.139  65.139  1.00  0.00    -0.333 A  
HETATM   15  C   UNL     1     -10.518  13.473  64.792  1.00  0.00    -0.430 A  
HETATM   16  C   UNL     1     -10.919  14.496  65.644  1.00  0.00    -0.323 A  
HETATM   17  C   UNL     1     -11.530  14.215  66.872  1.00  0.00    -0.357 A  
HETATM   18  C   UNL     1     -11.754  12.882  67.220  1.00  0.00    -0.431 A  
HETATM   19  C   UNL     1     -11.351  11.848  66.364  1.00  0.00    -0.400 A  
BRANCH  17  20
HETATM   20  O   UNL     1     -11.923  15.169  67.787  1.00  0.00    -0.250 OA 
BRANCH  20  21
HETATM   21  C   UNL     1     -11.221  15.081  69.032  1.00  0.00    -0.268 C  
BRANCH  21  22
HETATM   22  C   UNL     1      -9.699  15.215  68.898  1.00  0.00    -0.224 C  
BRANCH  22  23
HETATM   23  N   UNL     1      -9.288  16.633  68.762  1.00  0.00    -0.249 NA 
HETATM   24  C   UNL     1      -8.677  16.918  67.461  1.00  0.00    -0.208 C  
HETATM   25  C   UNL     1     -10.424  17.526  68.978  1.00  0.00    -0.250 C  
ENDBRANCH  22  23
ENDBRANCH  21  22
ENDBRANCH  20  21
ENDBRANCH  17  20
ENDBRANCH  13  14
ENDBRANCH  10  13
ENDBRANCH   5   9
BRANCH   8  26
HETATM   26  O   UNL     1      -6.690   5.458  67.096  1.00  0.00    -0.055 OA 
HETATM   27  C   UNL     1      -6.334   4.636  65.995  1.00  0.00    -0.036 C  
ENDBRANCH   8  26
BRANCH   7  28
HETATM   28  O   UNL     1      -9.049   4.579  68.535  1.00  0.00    -0.107 OA 
HETATM   29  C   UNL     1      -9.333   3.326  67.931  1.00  0.00    -0.194 C  
ENDBRANCH   7  28
ENDBRANCH   2   3
TORSDOF 10
ENDMDL
MODEL      159
REMARK 921   NORMALIZED FREE ENERGY PREDICTED BY IDOCK:   -4.22 KCAL/MOL
REMARK 922        TOTAL FREE ENERGY PREDICTED BY IDOCK:   -7.55 KCAL/MOL
REMARK 923 INTER-LIGAND FREE ENERGY PREDICTED BY IDOCK:   -6.80 KCAL/MOL
REMARK 924 INTRA-LIGAND FREE ENERGY PREDICTED BY IDOCK:   -0.74 KCAL/MOL
REMARK 927      BINDING AFFINITY PREDICTED BY RF-SCORE:    0.00 PKD
ROOT
HETATM    1  C   UNL     1     -10.327  20.052  65.913  1.00  0.00    -0.424 C  
HETATM    2  O   UNL     1      -9.789  20.112  67.232  1.00  0.00    -0.387 OA 
ENDROOT
BRANCH   2   3
HETATM    3  C   UNL     1      -9.404  18.913  67.781  1.00  0.00    -0.293 A  
HETATM    4  C   UNL     1     -10.353  17.961  68.179  1.00  0.00    -0.395 A  
HETATM    5  C   UNL     1      -9.959  16.706  68.644  1.00  0.00    -0.261 A  
HETATM    6  C   UNL     1      -8.604  16.412  68.746  1.00  0.00    -0.250 A  
HETATM    7  C   UNL     1      -8.024  18.640  67.927  1.00  0.00    -0.259 A  
HETATM    8  C   UNL     1      -7.631  17.367  68.398  1.00  0.00    -0.255 A  
BRANCH   5   9
HETATM    9  C   UNL     1     -11.024  15.704  68.924  1.00  0.00    -0.266 C  
HETATM   10  N   UNL     1     -10.924  14.491  68.287  1.00  0.00    -0.241 N  
HETATM   11  O   UNL     1     -11.925  15.980  69.709  1.00  0.00    -0.297 OA 
HETATM   12  H   UNL     1     -10.158  14.317  67.636  1.00  0.00     0.000 HD 
BRANCH  10  13
HETATM   13  C   UNL     1     -11.908  13.463  68.540  1.00  0.00    -0.366 C  
BRANCH  13  14
HETATM   14  C   UNL     1     -11.293  12.097  68.434  1.00  0.00    -0.336 A  
HETATM   15  C   UNL     1     -10.870  11.635  67.188  1.00  0.00    -0.306 A  
HETATM   16  C   UNL     1     -10.349  10.353  67.048  1.00  0.00    -0.295 A  
HETATM   17  C   UNL     1     -10.245   9.492  68.148  1.00  0.00    -0.193 A  
HETATM   18  C   UNL     1     -10.650   9.953  69.401  1.00  0.00    -0.250 A  
HETATM   19  C   UNL     1     -11.176  11.245  69.546  1.00  0.00    -0.337 A  
BRANCH  17  20
HETATM   20  O   UNL     1      -9.774   8.198  68.085  1.00  0.00    -0.154 OA 
BRANCH  20  21
HETATM   21  C   UNL     1      -9.243   7.850  66.802  1.00  0.00    -0.166 C  
BRANCH  21  22
HETATM   22  C   UNL     1      -8.639   6.441  66.741  1.00  0.00    -0.113 C  
BRANCH  22  23
HETATM   23  N   UNL     1      -7.518   6.371  65.773  1.00  0.00    -0.080 NA 
HETATM   24  C   UNL     1      -6.210   6.524  66.416  1.00  0.00    -0.037 C  
HETATM   25  C   UNL     1      -7.555   5.115  65.026  1.00  0.00    -0.082 C  
ENDBRANCH  22  23
ENDBRANCH  21  22
ENDBRANCH  20  21
ENDBRANCH  17  20
ENDBRANCH  13  14
ENDBRANCH  10  13
ENDBRANCH   5   9
BRANCH   8  26
HETATM   26  O   UNL     1      -6.362  16.869  68.568  1.00  0.00    -0.144 OA 
HETATM   27  C   UNL     1      -5.848  16.690  69.878  1.00  0.00    -0.217 C  
ENDBRANCH   8  26
BRANCH   7  28
HETATM   28  O   UNL     1      -7.023  19.502  67.549  1.00  0.00    -0.210 OA 
HETATM   29  C   UNL     1      -6.477  19.390  66.243  1.00  0.00    -0.190 C  
ENDBRANCH   7  28
ENDBRANCH   2   3
TORSDOF 10
ENDMDL
MODEL      160
REMARK 921   NORMALIZED FREE ENERGY PREDICTED BY IDOCK:   -4.20 KCAL/MOL
REMARK 922        TOTAL FREE ENERGY PREDICTED BY IDOCK:   -7.51 KCAL/MOL
REMARK 923 INTER-LIGAND FREE ENERGY PREDICTED BY IDOCK:   -6.84 KCAL/MOL
REMARK 924 INTRA-LIGAND FREE ENERGY PREDICTED BY IDOCK:   -0.68 KCAL/MOL
REMARK 927      BINDING AFFINITY PREDICTED BY RF-SCORE:    0.00 PKD
ROOT
HETATM    1  C   UNL     1     -12.573  13.944  65.512  1.00  0.00    -0.526 C  
HETATM    2  O   UNL     1     -11.576  14.790  64.941  1.00  0.00    -0.373 OA 
ENDROOT
BRANCH   2   3
HETATM    3  C   UNL     1     -10.420  14.934  65.670  1.00  0.00    -0.349 A  
HETATM    4  C   UNL     1      -9.828  13.838  66.311  1.00  0.00    -0.314 A  
HETATM    5  C   UNL     1      -8.602  13.966  66.967  1.00  0.00    -0.190 A  
HETATM    6  C   UNL     1      -7.982  15.209  67.013  1.00  0.00    -0.223 A  
HETATM    7  C   UNL     1      -9.820  16.212  65.753  1.00  0.00    -0.320 A  
HETATM    8  C   UNL     1      -8.578  16.336  66.418  1.00  0.00    -0.326 A  
BRANCH   5   9
HETATM    9  C   UNL     1      -7.975  12.731  67.512  1.00  0.00    -0.177 C  
HETATM   10  N   UNL     1      -7.780  11.691  66.637  1.00  0.00    -0.308 N  
HETATM   11  O   UNL     1      -7.643  12.689  68.693  1.00  0.00    -0.124 OA 
HETATM   12  H   UNL     1      -8.082  11.777  65.666  1.00  0.00     0.000 HD 
BRANCH  10  13
HETATM   13  C   UNL     1      -7.145  10.475  67.094  1.00  0.00    -0.091 C  
BRANCH  13  14
HETATM   14  C   UNL     1      -8.118   9.331  67.090  1.00  0.00    -0.109 A  
HETATM   15  C   UNL     1      -9.393   9.522  66.563  1.00  0.00    -0.220 A  
HETATM   16  C   UNL     1     -10.335   8.499  66.598  1.00  0.00    -0.303 A  
HETATM   17  C   UNL     1     -10.030   7.257  67.168  1.00  0.00    -0.215 A  
HETATM   18  C   UNL     1      -8.749   7.052  67.683  1.00  0.00    -0.121 A  
HETATM   19  C   UNL     1      -7.798   8.081  67.651  1.00  0.00    -0.122 A  
BRANCH  17  20
HETATM   20  O   UNL     1     -10.917   6.206  67.274  1.00  0.00    -0.329 OA 
BRANCH  20  21
HETATM   21  C   UNL     1     -10.392   4.972  66.772  1.00  0.00    -0.244 C  
BRANCH  21  22
HETATM   22  C   UNL     1     -10.822   4.653  65.335  1.00  0.00    -0.050 C  
BRANCH  22  23
HETATM   23  N   UNL     1      -9.709   4.066  64.551  1.00  0.00    -0.174 NA 
HETATM   24  C   UNL     1      -9.117   2.895  65.204  1.00  0.00    -0.148 C  
HETATM   25  C   UNL     1     -10.155   3.706  63.206  1.00  0.00    -0.177 C  
ENDBRANCH  22  23
ENDBRANCH  21  22
ENDBRANCH  20  21
ENDBRANCH  17  20
ENDBRANCH  13  14
ENDBRANCH  10  13
ENDBRANCH   5   9
BRANCH   8  26
HETATM   26  O   UNL     1      -7.798  17.455  66.575  1.00  0.00    -0.235 OA 
HETATM   27  C   UNL     1      -7.401  17.858  67.877  1.00  0.00    -0.222 C  
ENDBRANCH   8  26
BRANCH   7  28
HETATM   28  O   UNL     1     -10.316  17.339  65.143  1.00  0.00    -0.546 OA 
HETATM   29  C   UNL     1     -10.602  18.480  65.938  1.00  0.00    -0.300 C  
ENDBRANCH   7  28
ENDBRANCH   2   3
TORSDOF 10
ENDMDL
MODEL      161
REMARK 921   NORMALIZED FREE ENERGY PREDICTED BY IDOCK:   -4.20 KCAL/MOL
REMARK 922        TOTAL FREE ENERGY PREDICTED BY IDOCK:   -7.51 KCAL/MOL
REMARK 923 INTER-LIGAND FREE ENERGY PREDICTED BY IDOCK:   -6.63 KCAL/MOL
REMARK 924 INTRA-LIGAND FREE ENERGY PREDICTED BY IDOCK:   -0.88 KCAL/MOL
REMARK 927      BINDING AFFINITY PREDICTED BY RF-SCORE:    0.00 PKD
ROOT
HETATM    1  C   UNL     1      -9.992   3.762  63.889  1.00  0.00    -0.189 C  
HETATM    2  O   UNL     1      -8.632   4.133  64.109  1.00  0.00    -0.101 OA 
ENDROOT
BRANCH   2   3
HETATM    3  C   UNL     1      -8.427   5.198  64.952  1.00  0.00    -0.149 A  
HETATM    4  C   UNL     1      -8.495   6.517  64.483  1.00  0.00     0.131 A  
HETATM    5  C   UNL     1      -8.385   7.597  65.359  1.00  0.00    -0.134 A  
HETATM    6  C   UNL     1      -8.168   7.358  66.711  1.00  0.00    -0.121 A  
HETATM    7  C   UNL     1      -8.158   4.946  66.318  1.00  0.00    -0.107 A  
HETATM    8  C   UNL     1      -8.048   6.044  67.201  1.00  0.00    -0.106 A  
BRANCH   5   9
HETATM    9  C   UNL     1      -8.597   8.963  64.806  1.00  0.00    -0.158 C  
HETATM   10  N   UNL     1      -9.871   9.472  64.872  1.00  0.00    -0.396 N  
HETATM   11  O   UNL     1      -7.647   9.583  64.338  1.00  0.00    -0.112 OA 
HETATM   12  H   UNL     1     -10.626   8.910  65.265  1.00  0.00     0.000 HD 
BRANCH  10  13
HETATM   13  C   UNL     1     -10.139  10.806  64.382  1.00  0.00    -0.353 C  
BRANCH  13  14
HETATM   14  C   UNL     1     -10.712  11.669  65.470  1.00  0.00    -0.333 A  
HETATM   15  C   UNL     1     -11.607  12.683  65.134  1.00  0.00    -0.386 A  
HETATM   16  C   UNL     1     -12.110  13.536  66.111  1.00  0.00    -0.482 A  
HETATM   17  C   UNL     1     -11.725  13.405  67.451  1.00  0.00    -0.373 A  
HETATM   18  C   UNL     1     -10.842  12.382  67.798  1.00  0.00    -0.257 A  
HETATM   19  C   UNL     1     -10.332  11.520  66.815  1.00  0.00    -0.262 A  
BRANCH  17  20
HETATM   20  O   UNL     1     -12.149  14.230  68.471  1.00  0.00    -0.329 OA 
BRANCH  20  21
HETATM   21  C   UNL     1     -12.405  13.531  69.694  1.00  0.00    -0.165 C  
BRANCH  21  22
HETATM   22  C   UNL     1     -11.915  14.272  70.946  1.00  0.00    -0.320 C  
BRANCH  22  23
HETATM   23  N   UNL     1     -12.958  14.308  71.999  1.00  0.00    -0.336 NA 
HETATM   24  C   UNL     1     -14.035  15.254  71.692  1.00  0.00    -0.529 C  
HETATM   25  C   UNL     1     -13.521  12.977  72.217  1.00  0.00    -0.547 C  
ENDBRANCH  22  23
ENDBRANCH  21  22
ENDBRANCH  20  21
ENDBRANCH  17  20
ENDBRANCH  13  14
ENDBRANCH  10  13
ENDBRANCH   5   9
BRANCH   8  26
HETATM   26  O   UNL     1      -7.843   6.035  68.559  1.00  0.00    -0.097 OA 
HETATM   27  C   UNL     1      -8.379   7.080  69.356  1.00  0.00    -0.133 C  
ENDBRANCH   8  26
BRANCH   7  28
HETATM   28  O   UNL     1      -8.091   3.690  66.872  1.00  0.00    -0.093 OA 
HETATM   29  C   UNL     1      -9.256   3.139  67.467  1.00  0.00    -0.193 C  
ENDBRANCH   7  28
ENDBRANCH   2   3
TORSDOF 10
ENDMDL
MODEL      162
REMARK 921   NORMALIZED FREE ENERGY PREDICTED BY IDOCK:   -4.16 KCAL/MOL
REMARK 922        TOTAL FREE ENERGY PREDICTED BY IDOCK:   -7.45 KCAL/MOL
REMARK 923 INTER-LIGAND FREE ENERGY PREDICTED BY IDOCK:   -6.43 KCAL/MOL
REMARK 924 INTRA-LIGAND FREE ENERGY PREDICTED BY IDOCK:   -1.02 KCAL/MOL
REMARK 927      BINDING AFFINITY PREDICTED BY RF-SCORE:    0.00 PKD
ROOT
HETATM    1  C   UNL     1     -11.799  12.766  63.446  1.00  0.00    -0.518 C  
HETATM    2  O   UNL     1     -10.754  12.878  64.410  1.00  0.00    -0.339 OA 
ENDROOT
BRANCH   2   3
HETATM    3  C   UNL     1     -10.736  11.917  65.392  1.00  0.00    -0.283 A  
HETATM    4  C   UNL     1      -9.911  10.789  65.285  1.00  0.00    -0.329 A  
HETATM    5  C   UNL     1      -9.820   9.865  66.327  1.00  0.00    -0.308 A  
HETATM    6  C   UNL     1     -10.588  10.051  67.471  1.00  0.00    -0.336 A  
HETATM    7  C   UNL     1     -11.556  12.089  66.531  1.00  0.00    -0.314 A  
HETATM    8  C   UNL     1     -11.459  11.150  67.584  1.00  0.00    -0.250 A  
BRANCH   5   9
HETATM    9  C   UNL     1      -8.827   8.764  66.193  1.00  0.00    -0.168 C  
HETATM   10  N   UNL     1      -9.132   7.750  65.319  1.00  0.00    -0.365 N  
HETATM   11  O   UNL     1      -7.784   8.805  66.839  1.00  0.00    -0.093 OA 
HETATM   12  H   UNL     1     -10.017   7.762  64.812  1.00  0.00     0.000 HD 
BRANCH  10  13
HETATM   13  C   UNL     1      -8.196   6.668  65.117  1.00  0.00    -0.118 C  
BRANCH  13  14
HETATM   14  C   UNL     1      -8.473   5.538  66.067  1.00  0.00    -0.126 A  
HETATM   15  C   UNL     1      -7.442   4.660  66.401  1.00  0.00    -0.082 A  
HETATM   16  C   UNL     1      -7.682   3.571  67.232  1.00  0.00    -0.079 A  
HETATM   17  C   UNL     1      -8.960   3.323  67.746  1.00  0.00    -0.150 A  
HETATM   18  C   UNL     1      -9.993   4.206  67.430  1.00  0.00    -0.076 A  
HETATM   19  C   UNL     1      -9.756   5.305  66.592  1.00  0.00    -0.177 A  
BRANCH  17  20
HETATM   20  O   UNL     1      -9.286   2.247  68.545  1.00  0.00    -0.171 OA 
BRANCH  20  21
HETATM   21  C   UNL     1      -8.693   2.310  69.847  1.00  0.00    -0.063 C  
BRANCH  21  22
HETATM   22  C   UNL     1      -9.477   3.171  70.846  1.00  0.00    -0.160 C  
BRANCH  22  23
HETATM   23  N   UNL     1      -8.607   4.182  71.493  1.00  0.00    -0.103 NA 
HETATM   24  C   UNL     1      -8.564   5.445  70.751  1.00  0.00    -0.128 C  
HETATM   25  C   UNL     1      -9.038   4.433  72.867  1.00  0.00    -0.120 C  
ENDBRANCH  22  23
ENDBRANCH  21  22
ENDBRANCH  20  21
ENDBRANCH  17  20
ENDBRANCH  13  14
ENDBRANCH  10  13
ENDBRANCH   5   9
BRANCH   8  26
HETATM   26  O   UNL     1     -12.113  11.145  68.792  1.00  0.00    -0.522 OA 
HETATM   27  C   UNL     1     -11.421  10.745  69.964  1.00  0.00    -0.331 C  
ENDBRANCH   8  26
BRANCH   7  28
HETATM   28  O   UNL     1     -12.381  13.169  66.732  1.00  0.00    -0.316 OA 
HETATM   29  C   UNL     1     -11.871  14.305  67.415  1.00  0.00    -0.409 C  
ENDBRANCH   7  28
ENDBRANCH   2   3
TORSDOF 10
ENDMDL
MODEL      163
REMARK 921   NORMALIZED FREE ENERGY PREDICTED BY IDOCK:   -4.15 KCAL/MOL
REMARK 922        TOTAL FREE ENERGY PREDICTED BY IDOCK:   -7.44 KCAL/MOL
REMARK 923 INTER-LIGAND FREE ENERGY PREDICTED BY IDOCK:   -6.62 KCAL/MOL
REMARK 924 INTRA-LIGAND FREE ENERGY PREDICTED BY IDOCK:   -0.82 KCAL/MOL
REMARK 927      BINDING AFFINITY PREDICTED BY RF-SCORE:    0.00 PKD
ROOT
HETATM    1  C   UNL     1     -11.062   6.203  68.844  1.00  0.00    -0.345 C  
HETATM    2  O   UNL     1     -11.314   6.493  67.471  1.00  0.00    -0.284 OA 
ENDROOT
BRANCH   2   3
HETATM    3  C   UNL     1     -10.217   6.830  66.716  1.00  0.00    -0.202 A  
HETATM    4  C   UNL     1      -9.738   8.147  66.682  1.00  0.00    -0.318 A  
HETATM    5  C   UNL     1      -8.567   8.467  65.994  1.00  0.00    -0.162 A  
HETATM    6  C   UNL     1      -7.888   7.469  65.303  1.00  0.00    -0.120 A  
HETATM    7  C   UNL     1      -9.560   5.819  65.977  1.00  0.00    -0.050 A  
HETATM    8  C   UNL     1      -8.373   6.149  65.282  1.00  0.00    -0.144 A  
BRANCH   5   9
HETATM    9  C   UNL     1      -8.052   9.859  66.111  1.00  0.00    -0.119 C  
HETATM   10  N   UNL     1      -8.930  10.814  66.562  1.00  0.00    -0.153 N  
HETATM   11  O   UNL     1      -6.883  10.100  65.827  1.00  0.00    -0.103 OA 
HETATM   12  H   UNL     1      -9.894  10.560  66.777  1.00  0.00     0.000 HD 
BRANCH  10  13
HETATM   13  C   UNL     1      -8.485  12.179  66.730  1.00  0.00    -0.138 C  
BRANCH  13  14
HETATM   14  C   UNL     1      -9.509  12.988  67.473  1.00  0.00    -0.198 A  
HETATM   15  C   UNL     1      -9.155  14.238  67.977  1.00  0.00    -0.191 A  
HETATM   16  C   UNL     1     -10.065  14.986  68.718  1.00  0.00    -0.231 A  
HETATM   17  C   UNL     1     -11.351  14.501  68.983  1.00  0.00    -0.272 A  
HETATM   18  C   UNL     1     -11.719  13.257  68.468  1.00  0.00    -0.388 A  
HETATM   19  C   UNL     1     -10.805  12.500  67.720  1.00  0.00    -0.254 A  
BRANCH  17  20
HETATM   20  O   UNL     1     -12.296  15.163  69.738  1.00  0.00    -0.300 OA 
BRANCH  20  21
HETATM   21  C   UNL     1     -11.727  15.986  70.763  1.00  0.00    -0.378 C  
BRANCH  21  22
HETATM   22  C   UNL     1     -11.465  15.245  72.080  1.00  0.00    -0.413 C  
BRANCH  22  23
HETATM   23  N   UNL     1     -12.719  15.026  72.839  1.00  0.00    -0.390 NA 
HETATM   24  C   UNL     1     -13.356  13.746  72.516  1.00  0.00    -0.552 C  
HETATM   25  C   UNL     1     -12.474  15.103  74.279  1.00  0.00    -0.488 C  
ENDBRANCH  22  23
ENDBRANCH  21  22
ENDBRANCH  20  21
ENDBRANCH  17  20
ENDBRANCH  13  14
ENDBRANCH  10  13
ENDBRANCH   5   9
BRANCH   8  26
HETATM   26  O   UNL     1      -7.551   5.328  64.551  1.00  0.00    -0.070 OA 
HETATM   27  C   UNL     1      -7.618   5.348  63.133  1.00  0.00    -0.069 C  
ENDBRANCH   8  26
BRANCH   7  28
HETATM   28  O   UNL     1      -9.944   4.500  65.963  1.00  0.00    -0.203 OA 
HETATM   29  C   UNL     1     -10.674   4.009  64.848  1.00  0.00    -0.086 C  
ENDBRANCH   7  28
ENDBRANCH   2   3
TORSDOF 10
ENDMDL
MODEL      164
REMARK 921   NORMALIZED FREE ENERGY PREDICTED BY IDOCK:   -4.15 KCAL/MOL
REMARK 922        TOTAL FREE ENERGY PREDICTED BY IDOCK:   -7.43 KCAL/MOL
REMARK 923 INTER-LIGAND FREE ENERGY PREDICTED BY IDOCK:   -6.35 KCAL/MOL
REMARK 924 INTRA-LIGAND FREE ENERGY PREDICTED BY IDOCK:   -1.09 KCAL/MOL
REMARK 927      BINDING AFFINITY PREDICTED BY RF-SCORE:    0.00 PKD
ROOT
HETATM    1  C   UNL     1      -6.899  14.519  68.392  1.00  0.00    -0.104 C  
HETATM    2  O   UNL     1      -8.269  14.244  68.677  1.00  0.00    -0.148 OA 
ENDROOT
BRANCH   2   3
HETATM    3  C   UNL     1      -8.938  13.488  67.745  1.00  0.00    -0.201 A  
HETATM    4  C   UNL     1      -8.799  12.093  67.709  1.00  0.00    -0.172 A  
HETATM    5  C   UNL     1      -9.554  11.319  66.826  1.00  0.00    -0.214 A  
HETATM    6  C   UNL     1     -10.428  11.947  65.947  1.00  0.00    -0.296 A  
HETATM    7  C   UNL     1      -9.789  14.138  66.820  1.00  0.00    -0.272 A  
HETATM    8  C   UNL     1     -10.551  13.348  65.929  1.00  0.00    -0.283 A  
BRANCH   5   9
HETATM    9  C   UNL     1      -9.447   9.838  66.937  1.00  0.00    -0.160 C  
HETATM   10  N   UNL     1      -8.678   9.342  67.961  1.00  0.00    -0.124 N  
HETATM   11  O   UNL     1     -10.049   9.125  66.141  1.00  0.00    -0.290 OA 
HETATM   12  H   UNL     1      -8.192   9.981  68.591  1.00  0.00     0.000 HD 
BRANCH  10  13
HETATM   13  C   UNL     1      -8.558   7.913  68.145  1.00  0.00    -0.123 C  
BRANCH  13  14
HETATM   14  C   UNL     1      -9.442   7.443  69.265  1.00  0.00    -0.154 A  
HETATM   15  C   UNL     1      -9.001   7.571  70.580  1.00  0.00    -0.154 A  
HETATM   16  C   UNL     1      -9.770   7.092  71.635  1.00  0.00    -0.166 A  
HETATM   17  C   UNL     1     -11.000   6.463  71.404  1.00  0.00    -0.267 A  
HETATM   18  C   UNL     1     -11.457   6.346  70.091  1.00  0.00    -0.484 A  
HETATM   19  C   UNL     1     -10.683   6.827  69.024  1.00  0.00    -0.280 A  
BRANCH  17  20
HETATM   20  O   UNL     1     -11.804   5.931  72.390  1.00  0.00    -0.311 OA 
BRANCH  20  21
HETATM   21  C   UNL     1     -11.070   5.229  73.400  1.00  0.00    -0.303 C  
BRANCH  21  22
HETATM   22  C   UNL     1     -10.946   3.722  73.142  1.00  0.00    -0.136 C  
BRANCH  22  23
HETATM   23  N   UNL     1      -9.567   3.350  72.743  1.00  0.00    -0.120 NA 
HETATM   24  C   UNL     1      -9.337   3.503  71.304  1.00  0.00    -0.139 C  
HETATM   25  C   UNL     1      -8.583   4.136  73.485  1.00  0.00    -0.092 C  
ENDBRANCH  22  23
ENDBRANCH  21  22
ENDBRANCH  20  21
ENDBRANCH  17  20
ENDBRANCH  13  14
ENDBRANCH  10  13
ENDBRANCH   5   9
BRANCH   8  26
HETATM   26  O   UNL     1     -11.470  13.756  64.993  1.00  0.00    -0.315 OA 
HETATM   27  C   UNL     1     -11.664  12.986  63.818  1.00  0.00    -0.485 C  
ENDBRANCH   8  26
BRANCH   7  28
HETATM   28  O   UNL     1     -10.002  15.494  66.791  1.00  0.00    -0.239 OA 
HETATM   29  C   UNL     1      -9.171  16.302  65.970  1.00  0.00    -0.316 C  
ENDBRANCH   7  28
ENDBRANCH   2   3
TORSDOF 10
ENDMDL
MODEL      165
REMARK 921   NORMALIZED FREE ENERGY PREDICTED BY IDOCK:   -4.10 KCAL/MOL
REMARK 922        TOTAL FREE ENERGY PREDICTED BY IDOCK:   -7.36 KCAL/MOL
REMARK 923 INTER-LIGAND FREE ENERGY PREDICTED BY IDOCK:   -6.58 KCAL/MOL
REMARK 924 INTRA-LIGAND FREE ENERGY PREDICTED BY IDOCK:   -0.78 KCAL/MOL
REMARK 927      BINDING AFFINITY PREDICTED BY RF-SCORE:    0.00 PKD
ROOT
HETATM    1  C   UNL     1     -11.526   7.050  70.698  1.00  0.00    -0.324 C  
HETATM    2  O   UNL     1     -11.624   6.149  69.596  1.00  0.00    -0.407 OA 
ENDROOT
BRANCH   2   3
HETATM    3  C   UNL     1     -10.540   6.109  68.753  1.00  0.00    -0.273 A  
HETATM    4  C   UNL     1     -10.409   7.021  67.697  1.00  0.00    -0.270 A  
HETATM    5  C   UNL     1      -9.261   7.042  66.904  1.00  0.00    -0.174 A  
HETATM    6  C   UNL     1      -8.249   6.119  67.147  1.00  0.00    -0.106 A  
HETATM    7  C   UNL     1      -9.537   5.136  68.976  1.00  0.00    -0.145 A  
HETATM    8  C   UNL     1      -8.376   5.163  68.170  1.00  0.00    -0.097 A  
BRANCH   5   9
HETATM    9  C   UNL     1      -9.140   8.122  65.887  1.00  0.00    -0.130 C  
HETATM   10  N   UNL     1     -10.149   9.053  65.841  1.00  0.00    -0.394 N  
HETATM   11  O   UNL     1      -8.158   8.157  65.152  1.00  0.00    -0.124 OA 
HETATM   12  H   UNL     1     -10.947   8.972  66.471  1.00  0.00     0.000 HD 
BRANCH  10  13
HETATM   13  C   UNL     1     -10.076  10.146  64.898  1.00  0.00    -0.207 C  
BRANCH  13  14
HETATM   14  C   UNL     1     -10.352  11.457  65.578  1.00  0.00    -0.317 A  
HETATM   15  C   UNL     1     -11.609  12.045  65.439  1.00  0.00    -0.343 A  
HETATM   16  C   UNL     1     -11.876  13.285  66.008  1.00  0.00    -0.440 A  
HETATM   17  C   UNL     1     -10.893  13.978  66.724  1.00  0.00    -0.294 A  
HETATM   18  C   UNL     1      -9.638  13.389  66.882  1.00  0.00    -0.257 A  
HETATM   19  C   UNL     1      -9.364  12.138  66.310  1.00  0.00    -0.221 A  
BRANCH  17  20
HETATM   20  O   UNL     1     -11.067  15.225  67.287  1.00  0.00    -0.327 OA 
BRANCH  20  21
HETATM   21  C   UNL     1     -12.109  15.262  68.268  1.00  0.00     0.016 C  
BRANCH  21  22
HETATM   22  C   UNL     1     -11.875  14.321  69.458  1.00  0.00    -0.329 C  
BRANCH  22  23
HETATM   23  N   UNL     1     -12.001  15.037  70.750  1.00  0.00    -0.293 NA 
HETATM   24  C   UNL     1     -11.216  16.274  70.786  1.00  0.00    -0.266 C  
HETATM   25  C   UNL     1     -13.402  15.335  71.044  1.00  0.00    -0.474 C  
ENDBRANCH  22  23
ENDBRANCH  21  22
ENDBRANCH  20  21
ENDBRANCH  17  20
ENDBRANCH  13  14
ENDBRANCH  10  13
ENDBRANCH   5   9
BRANCH   8  26
HETATM   26  O   UNL     1      -7.265   4.358  68.241  1.00  0.00    -0.059 OA 
HETATM   27  C   UNL     1      -6.094   4.714  67.523  1.00  0.00    -0.027 C  
ENDBRANCH   8  26
BRANCH   7  28
HETATM   28  O   UNL     1      -9.569   4.215  69.995  1.00  0.00    -0.173 OA 
HETATM   29  C   UNL     1      -8.984   4.553  71.244  1.00  0.00    -0.127 C  
ENDBRANCH   7  28
ENDBRANCH   2   3
TORSDOF 10
ENDMDL
MODEL      166
REMARK 921   NORMALIZED FREE ENERGY PREDICTED BY IDOCK:   -4.09 KCAL/MOL
REMARK 922        TOTAL FREE ENERGY PREDICTED BY IDOCK:   -7.35 KCAL/MOL
REMARK 923 INTER-LIGAND FREE ENERGY PREDICTED BY IDOCK:   -6.33 KCAL/MOL
REMARK 924 INTRA-LIGAND FREE ENERGY PREDICTED BY IDOCK:   -1.02 KCAL/MOL
REMARK 927      BINDING AFFINITY PREDICTED BY RF-SCORE:    0.00 PKD
ROOT
HETATM    1  C   UNL     1     -10.440  11.815  63.332  1.00  0.00    -0.434 C  
HETATM    2  O   UNL     1      -9.455  10.836  63.008  1.00  0.00    -0.281 OA 
ENDROOT
BRANCH   2   3
HETATM    3  C   UNL     1      -9.163   9.927  63.996  1.00  0.00    -0.253 A  
HETATM    4  C   UNL     1      -9.831   9.956  65.228  1.00  0.00    -0.373 A  
HETATM    5  C   UNL     1      -9.604   8.973  66.192  1.00  0.00    -0.341 A  
HETATM    6  C   UNL     1      -8.673   7.972  65.937  1.00  0.00    -0.184 A  
HETATM    7  C   UNL     1      -8.180   8.940  63.748  1.00  0.00    -0.172 A  
HETATM    8  C   UNL     1      -7.954   7.947  64.728  1.00  0.00    -0.140 A  
BRANCH   5   9
HETATM    9  C   UNL     1     -10.445   8.998  67.420  1.00  0.00    -0.269 C  
HETATM   10  N   UNL     1     -10.400  10.137  68.185  1.00  0.00    -0.175 N  
HETATM   11  O   UNL     1     -11.149   8.031  67.693  1.00  0.00     0.017 OA 
HETATM   12  H   UNL     1      -9.791  10.910  67.916  1.00  0.00     0.000 HD 
BRANCH  10  13
HETATM   13  C   UNL     1     -11.218  10.239  69.373  1.00  0.00    -0.239 C  
BRANCH  13  14
HETATM   14  C   UNL     1     -10.606   9.473  70.511  1.00  0.00    -0.358 A  
HETATM   15  C   UNL     1     -11.438   8.905  71.474  1.00  0.00    -0.391 A  
HETATM   16  C   UNL     1     -10.899   8.239  72.570  1.00  0.00    -0.421 A  
HETATM   17  C   UNL     1      -9.514   8.130  72.739  1.00  0.00    -0.279 A  
HETATM   18  C   UNL     1      -8.674   8.681  71.770  1.00  0.00    -0.266 A  
HETATM   19  C   UNL     1      -9.213   9.354  70.663  1.00  0.00    -0.303 A  
BRANCH  17  20
HETATM   20  O   UNL     1      -8.902   7.518  73.813  1.00  0.00    -0.188 OA 
BRANCH  20  21
HETATM   21  C   UNL     1      -9.672   6.445  74.366  1.00  0.00    -0.292 C  
BRANCH  21  22
HETATM   22  C   UNL     1      -9.145   5.051  74.002  1.00  0.00    -0.112 C  
BRANCH  22  23
HETATM   23  N   UNL     1     -10.090   4.326  73.119  1.00  0.00    -0.142 NA 
HETATM   24  C   UNL     1     -11.491   4.602  73.448  1.00  0.00    -0.245 C  
HETATM   25  C   UNL     1      -9.842   4.650  71.716  1.00  0.00    -0.183 C  
ENDBRANCH  22  23
ENDBRANCH  21  22
ENDBRANCH  20  21
ENDBRANCH  17  20
ENDBRANCH  13  14
ENDBRANCH  10  13
ENDBRANCH   5   9
BRANCH   8  26
HETATM   26  O   UNL     1      -7.096   6.875  64.681  1.00  0.00    -0.055 OA 
HETATM   27  C   UNL     1      -6.882   6.095  65.847  1.00  0.00    -0.057 C  
ENDBRANCH   8  26
BRANCH   7  28
HETATM   28  O   UNL     1      -7.487   8.821  62.568  1.00  0.00    -0.101 OA 
HETATM   29  C   UNL     1      -6.243   9.493  62.431  1.00  0.00    -0.096 C  
ENDBRANCH   7  28
ENDBRANCH   2   3
TORSDOF 10
ENDMDL
MODEL      167
REMARK 921   NORMALIZED FREE ENERGY PREDICTED BY IDOCK:   -4.09 KCAL/MOL
REMARK 922        TOTAL FREE ENERGY PREDICTED BY IDOCK:   -7.34 KCAL/MOL
REMARK 923 INTER-LIGAND FREE ENERGY PREDICTED BY IDOCK:   -6.67 KCAL/MOL
REMARK 924 INTRA-LIGAND FREE ENERGY PREDICTED BY IDOCK:   -0.68 KCAL/MOL
REMARK 927      BINDING AFFINITY PREDICTED BY RF-SCORE:    0.00 PKD
ROOT
HETATM    1  C   UNL     1     -10.499   4.931  66.319  1.00  0.00    -0.304 C  
HETATM    2  O   UNL     1      -9.774   6.160  66.314  1.00  0.00    -0.146 OA 
ENDROOT
BRANCH   2   3
HETATM    3  C   UNL     1      -9.471   6.685  67.546  1.00  0.00    -0.126 A  
HETATM    4  C   UNL     1     -10.177   7.782  68.060  1.00  0.00    -0.249 A  
HETATM    5  C   UNL     1      -9.934   8.251  69.352  1.00  0.00    -0.188 A  
HETATM    6  C   UNL     1      -8.952   7.641  70.124  1.00  0.00    -0.146 A  
HETATM    7  C   UNL     1      -8.437   6.091  68.307  1.00  0.00    -0.112 A  
HETATM    8  C   UNL     1      -8.196   6.569  69.615  1.00  0.00    -0.126 A  
BRANCH   5   9
HETATM    9  C   UNL     1     -10.812   9.334  69.873  1.00  0.00    -0.234 C  
HETATM   10  N   UNL     1     -11.392  10.167  68.949  1.00  0.00    -0.443 N  
HETATM   11  O   UNL     1     -11.001   9.434  71.082  1.00  0.00    -0.302 OA 
HETATM   12  H   UNL     1     -11.195  10.044  67.955  1.00  0.00     0.000 HD 
BRANCH  10  13
HETATM   13  C   UNL     1     -12.282  11.219  69.386  1.00  0.00    -0.247 C  
BRANCH  13  14
HETATM   14  C   UNL     1     -11.640  12.567  69.220  1.00  0.00    -0.378 A  
HETATM   15  C   UNL     1     -10.530  12.694  68.386  1.00  0.00    -0.248 A  
HETATM   16  C   UNL     1      -9.879  13.916  68.256  1.00  0.00    -0.231 A  
HETATM   17  C   UNL     1     -10.313  15.044  68.963  1.00  0.00    -0.243 A  
HETATM   18  C   UNL     1     -11.434  14.929  69.787  1.00  0.00    -0.328 A  
HETATM   19  C   UNL     1     -12.093  13.698  69.921  1.00  0.00    -0.406 A  
BRANCH  17  20
HETATM   20  O   UNL     1      -9.702  16.279  68.917  1.00  0.00    -0.227 OA 
BRANCH  20  21
HETATM   21  C   UNL     1      -9.981  17.003  67.713  1.00  0.00    -0.280 C  
BRANCH  21  22
HETATM   22  C   UNL     1     -10.694  18.342  67.944  1.00  0.00    -0.311 C  
BRANCH  22  23
HETATM   23  N   UNL     1      -9.806  19.490  67.643  1.00  0.00    -0.344 NA 
HETATM   24  C   UNL     1      -8.510  19.392  68.320  1.00  0.00    -0.341 C  
HETATM   25  C   UNL     1      -9.599  19.621  66.202  1.00  0.00    -0.386 C  
ENDBRANCH  22  23
ENDBRANCH  21  22
ENDBRANCH  20  21
ENDBRANCH  17  20
ENDBRANCH  13  14
ENDBRANCH  10  13
ENDBRANCH   5   9
BRANCH   8  26
HETATM   26  O   UNL     1      -7.289   6.115  70.541  1.00  0.00    -0.080 OA 
HETATM   27  C   UNL     1      -7.745   5.392  71.673  1.00  0.00    -0.106 C  
ENDBRANCH   8  26
BRANCH   7  28
HETATM   28  O   UNL     1      -7.704   5.004  67.895  1.00  0.00    -0.083 OA 
HETATM   29  C   UNL     1      -6.655   5.198  66.958  1.00  0.00    -0.053 C  
ENDBRANCH   7  28
ENDBRANCH   2   3
TORSDOF 10
ENDMDL
MODEL      168
REMARK 921   NORMALIZED FREE ENERGY PREDICTED BY IDOCK:   -4.06 KCAL/MOL
REMARK 922        TOTAL FREE ENERGY PREDICTED BY IDOCK:   -7.30 KCAL/MOL
REMARK 923 INTER-LIGAND FREE ENERGY PREDICTED BY IDOCK:   -6.71 KCAL/MOL
REMARK 924 INTRA-LIGAND FREE ENERGY PREDICTED BY IDOCK:   -0.60 KCAL/MOL
REMARK 927      BINDING AFFINITY PREDICTED BY RF-SCORE:    0.00 PKD
ROOT
HETATM    1  C   UNL     1      -6.851   5.145  69.167  1.00  0.00    -0.054 C  
HETATM    2  O   UNL     1      -6.900   5.494  70.550  1.00  0.00    -0.045 OA 
ENDROOT
BRANCH   2   3
HETATM    3  C   UNL     1      -8.074   5.205  71.202  1.00  0.00    -0.108 A  
HETATM    4  C   UNL     1      -8.851   6.220  71.777  1.00  0.00    -0.137 A  
HETATM    5  C   UNL     1     -10.091   5.936  72.352  1.00  0.00    -0.203 A  
HETATM    6  C   UNL     1     -10.541   4.621  72.385  1.00  0.00    -0.225 A  
HETATM    7  C   UNL     1      -8.502   3.859  71.275  1.00  0.00    -0.073 A  
HETATM    8  C   UNL     1      -9.758   3.578  71.858  1.00  0.00    -0.164 A  
BRANCH   5   9
HETATM    9  C   UNL     1     -10.915   7.082  72.824  1.00  0.00    -0.294 C  
HETATM   10  N   UNL     1     -11.874   7.559  71.964  1.00  0.00    -0.285 N  
HETATM   11  O   UNL     1     -10.728   7.543  73.946  1.00  0.00    -0.285 OA 
HETATM   12  H   UNL     1     -11.981   7.144  71.038  1.00  0.00     0.000 HD 
BRANCH  10  13
HETATM   13  C   UNL     1     -12.730   8.649  72.374  1.00  0.00    -0.362 C  
BRANCH  13  14
HETATM   14  C   UNL     1     -12.414   9.897  71.601  1.00  0.00    -0.507 A  
HETATM   15  C   UNL     1     -13.073  11.082  71.921  1.00  0.00    -0.525 A  
HETATM   16  C   UNL     1     -12.845  12.241  71.186  1.00  0.00    -0.302 A  
HETATM   17  C   UNL     1     -11.956  12.245  70.104  1.00  0.00    -0.298 A  
HETATM   18  C   UNL     1     -11.279  11.067  69.787  1.00  0.00    -0.339 A  
HETATM   19  C   UNL     1     -11.507   9.896  70.526  1.00  0.00    -0.391 A  
BRANCH  17  20
HETATM   20  O   UNL     1     -11.702  13.340  69.305  1.00  0.00    -0.288 OA 
BRANCH  20  21
HETATM   21  C   UNL     1     -11.706  13.032  67.906  1.00  0.00    -0.357 C  
BRANCH  21  22
HETATM   22  C   UNL     1     -10.614  13.756  67.108  1.00  0.00    -0.277 C  
BRANCH  22  23
HETATM   23  N   UNL     1     -11.140  14.972  66.445  1.00  0.00    -0.337 NA 
HETATM   24  C   UNL     1     -11.150  16.138  67.334  1.00  0.00    -0.134 C  
HETATM   25  C   UNL     1     -10.373  15.280  65.239  1.00  0.00    -0.401 C  
ENDBRANCH  22  23
ENDBRANCH  21  22
ENDBRANCH  20  21
ENDBRANCH  17  20
ENDBRANCH  13  14
ENDBRANCH  10  13
ENDBRANCH   5   9
BRANCH   8  26
HETATM   26  O   UNL     1     -10.391   2.366  71.988  1.00  0.00    -0.130 OA 
HETATM   27  C   UNL     1     -10.428   1.725  73.254  1.00  0.00    -0.113 C  
ENDBRANCH   8  26
BRANCH   7  28
HETATM   28  O   UNL     1      -7.818   2.801  70.726  1.00  0.00    -0.042 OA 
HETATM   29  C   UNL     1      -6.914   2.071  71.542  1.00  0.00    -0.031 C  
ENDBRANCH   7  28
ENDBRANCH   2   3
TORSDOF 10
ENDMDL
MODEL      169
REMARK 921   NORMALIZED FREE ENERGY PREDICTED BY IDOCK:   -4.03 KCAL/MOL
REMARK 922        TOTAL FREE ENERGY PREDICTED BY IDOCK:   -7.25 KCAL/MOL
REMARK 923 INTER-LIGAND FREE ENERGY PREDICTED BY IDOCK:   -6.30 KCAL/MOL
REMARK 924 INTRA-LIGAND FREE ENERGY PREDICTED BY IDOCK:   -0.95 KCAL/MOL
REMARK 927      BINDING AFFINITY PREDICTED BY RF-SCORE:    0.00 PKD
ROOT
HETATM    1  C   UNL     1     -11.308  12.968  66.691  1.00  0.00    -0.325 C  
HETATM    2  O   UNL     1     -11.095  14.355  66.432  1.00  0.00    -0.314 OA 
ENDROOT
BRANCH   2   3
HETATM    3  C   UNL     1      -9.822  14.820  66.659  1.00  0.00    -0.259 A  
HETATM    4  C   UNL     1      -8.866  14.027  67.309  1.00  0.00    -0.225 A  
HETATM    5  C   UNL     1      -7.548  14.464  67.450  1.00  0.00    -0.196 A  
HETATM    6  C   UNL     1      -7.191  15.719  66.971  1.00  0.00    -0.208 A  
HETATM    7  C   UNL     1      -9.480  16.118  66.212  1.00  0.00    -0.316 A  
HETATM    8  C   UNL     1      -8.143  16.554  66.357  1.00  0.00    -0.327 A  
BRANCH   5   9
HETATM    9  C   UNL     1      -6.562  13.514  68.034  1.00  0.00    -0.137 C  
HETATM   10  N   UNL     1      -6.924  12.872  69.194  1.00  0.00    -0.250 N  
HETATM   11  O   UNL     1      -5.491  13.324  67.466  1.00  0.00    -0.288 OA 
HETATM   12  H   UNL     1      -7.825  13.072  69.629  1.00  0.00     0.000 HD 
BRANCH  10  13
HETATM   13  C   UNL     1      -6.026  11.912  69.795  1.00  0.00    -0.132 C  
BRANCH  13  14
HETATM   14  C   UNL     1      -6.616  10.531  69.757  1.00  0.00    -0.112 A  
HETATM   15  C   UNL     1      -6.412   9.674  70.837  1.00  0.00    -0.083 A  
HETATM   16  C   UNL     1      -6.896   8.370  70.807  1.00  0.00    -0.041 A  
HETATM   17  C   UNL     1      -7.591   7.884  69.693  1.00  0.00    -0.098 A  
HETATM   18  C   UNL     1      -7.813   8.741  68.615  1.00  0.00    -0.103 A  
HETATM   19  C   UNL     1      -7.326  10.056  68.641  1.00  0.00    -0.081 A  
BRANCH  17  20
HETATM   20  O   UNL     1      -8.070   6.597  69.571  1.00  0.00    -0.121 OA 
BRANCH  20  21
HETATM   21  C   UNL     1      -9.493   6.535  69.423  1.00  0.00    -0.145 C  
BRANCH  21  22
HETATM   22  C   UNL     1     -10.257   6.566  70.753  1.00  0.00    -0.187 C  
BRANCH  22  23
HETATM   23  N   UNL     1     -11.213   7.698  70.806  1.00  0.00    -0.266 NA 
HETATM   24  C   UNL     1     -12.527   7.301  71.318  1.00  0.00    -0.366 C  
HETATM   25  C   UNL     1     -10.678   8.791  71.616  1.00  0.00    -0.327 C  
ENDBRANCH  22  23
ENDBRANCH  21  22
ENDBRANCH  20  21
ENDBRANCH  17  20
ENDBRANCH  13  14
ENDBRANCH  10  13
ENDBRANCH   5   9
BRANCH   8  26
HETATM   26  O   UNL     1      -7.579  17.740  65.954  1.00  0.00    -0.487 OA 
HETATM   27  C   UNL     1      -6.666  18.409  66.809  1.00  0.00    -0.189 C  
ENDBRANCH   8  26
BRANCH   7  28
HETATM   28  O   UNL     1     -10.342  16.958  65.551  1.00  0.00    -0.572 OA 
HETATM   29  C   UNL     1     -10.680  18.202  66.146  1.00  0.00    -0.145 C  
ENDBRANCH   7  28
ENDBRANCH   2   3
TORSDOF 10
ENDMDL
MODEL      170
REMARK 921   NORMALIZED FREE ENERGY PREDICTED BY IDOCK:   -4.02 KCAL/MOL
REMARK 922        TOTAL FREE ENERGY PREDICTED BY IDOCK:   -7.24 KCAL/MOL
REMARK 923 INTER-LIGAND FREE ENERGY PREDICTED BY IDOCK:   -6.40 KCAL/MOL
REMARK 924 INTRA-LIGAND FREE ENERGY PREDICTED BY IDOCK:   -0.83 KCAL/MOL
REMARK 927      BINDING AFFINITY PREDICTED BY RF-SCORE:    0.00 PKD
ROOT
HETATM    1  C   UNL     1      -6.397   8.643  73.017  1.00  0.00    -0.057 C  
HETATM    2  O   UNL     1      -7.392   7.627  72.903  1.00  0.00    -0.073 OA 
ENDROOT
BRANCH   2   3
HETATM    3  C   UNL     1      -8.395   7.867  71.996  1.00  0.00    -0.127 A  
HETATM    4  C   UNL     1      -8.250   8.836  70.994  1.00  0.00    -0.194 A  
HETATM    5  C   UNL     1      -9.229   9.009  70.014  1.00  0.00    -0.193 A  
HETATM    6  C   UNL     1     -10.380   8.230  70.057  1.00  0.00    -0.212 A  
HETATM    7  C   UNL     1      -9.584   7.104  72.075  1.00  0.00    -0.143 A  
HETATM    8  C   UNL     1     -10.572   7.283  71.079  1.00  0.00    -0.221 A  
BRANCH   5   9
HETATM    9  C   UNL     1      -8.944   9.967  68.911  1.00  0.00    -0.153 C  
HETATM   10  N   UNL     1      -8.135  11.037  69.205  1.00  0.00    -0.359 N  
HETATM   11  O   UNL     1      -9.414   9.765  67.795  1.00  0.00    -0.133 OA 
HETATM   12  H   UNL     1      -7.777  11.161  70.153  1.00  0.00     0.000 HD 
BRANCH  10  13
HETATM   13  C   UNL     1      -7.793  11.986  68.171  1.00  0.00    -0.145 C  
BRANCH  13  14
HETATM   14  C   UNL     1      -8.426  13.321  68.439  1.00  0.00    -0.128 A  
HETATM   15  C   UNL     1      -9.801  13.471  68.261  1.00  0.00    -0.233 A  
HETATM   16  C   UNL     1     -10.407  14.709  68.445  1.00  0.00    -0.237 A  
HETATM   17  C   UNL     1      -9.656  15.835  68.805  1.00  0.00    -0.216 A  
HETATM   18  C   UNL     1      -8.282  15.689  69.002  1.00  0.00    -0.233 A  
HETATM   19  C   UNL     1      -7.667  14.443  68.816  1.00  0.00    -0.139 A  
BRANCH  17  20
HETATM   20  O   UNL     1     -10.176  17.101  68.972  1.00  0.00    -0.302 OA 
BRANCH  20  21
HETATM   21  C   UNL     1     -10.716  17.654  67.766  1.00  0.00    -0.332 C  
BRANCH  21  22
HETATM   22  C   UNL     1      -9.716  17.705  66.604  1.00  0.00    -0.301 C  
BRANCH  22  23
HETATM   23  N   UNL     1      -9.182  19.073  66.407  1.00  0.00    -0.336 NA 
HETATM   24  C   UNL     1     -10.238  20.088  66.359  1.00  0.00    -0.478 C  
HETATM   25  C   UNL     1      -8.221  19.412  67.455  1.00  0.00    -0.286 C  
ENDBRANCH  22  23
ENDBRANCH  21  22
ENDBRANCH  20  21
ENDBRANCH  17  20
ENDBRANCH  13  14
ENDBRANCH  10  13
ENDBRANCH   5   9
BRANCH   8  26
HETATM   26  O   UNL     1     -11.767   6.623  70.929  1.00  0.00    -0.339 OA 
HETATM   27  C   UNL     1     -12.954   7.189  71.463  1.00  0.00    -0.383 C  
ENDBRANCH   8  26
BRANCH   7  28
HETATM   28  O   UNL     1      -9.810   6.121  73.008  1.00  0.00    -0.165 OA 
HETATM   29  C   UNL     1     -10.407   6.474  74.247  1.00  0.00    -0.287 C  
ENDBRANCH   7  28
ENDBRANCH   2   3
TORSDOF 10
ENDMDL
MODEL      171
REMARK 921   NORMALIZED FREE ENERGY PREDICTED BY IDOCK:   -4.01 KCAL/MOL
REMARK 922        TOTAL FREE ENERGY PREDICTED BY IDOCK:   -7.22 KCAL/MOL
REMARK 923 INTER-LIGAND FREE ENERGY PREDICTED BY IDOCK:   -6.16 KCAL/MOL
REMARK 924 INTRA-LIGAND FREE ENERGY PREDICTED BY IDOCK:   -1.06 KCAL/MOL
REMARK 927      BINDING AFFINITY PREDICTED BY RF-SCORE:    0.00 PKD
ROOT
HETATM    1  C   UNL     1      -6.743  14.602  67.944  1.00  0.00    -0.162 C  
HETATM    2  O   UNL     1      -8.139  14.411  68.167  1.00  0.00    -0.121 OA 
ENDROOT
BRANCH   2   3
HETATM    3  C   UNL     1      -8.807  13.685  67.211  1.00  0.00    -0.224 A  
HETATM    4  C   UNL     1      -8.543  12.321  67.022  1.00  0.00    -0.191 A  
HETATM    5  C   UNL     1      -9.291  11.564  66.119  1.00  0.00    -0.230 A  
HETATM    6  C   UNL     1     -10.288  12.183  65.373  1.00  0.00    -0.301 A  
HETATM    7  C   UNL     1      -9.786  14.332  66.422  1.00  0.00    -0.296 A  
HETATM    8  C   UNL     1     -10.541  13.560  65.510  1.00  0.00    -0.296 A  
BRANCH   5   9
HETATM    9  C   UNL     1      -9.039  10.098  66.068  1.00  0.00    -0.154 C  
HETATM   10  N   UNL     1      -7.936   9.630  66.739  1.00  0.00    -0.105 N  
HETATM   11  O   UNL     1      -9.815   9.369  65.457  1.00  0.00    -0.290 OA 
HETATM   12  H   UNL     1      -7.319  10.281  67.225  1.00  0.00     0.000 HD 
BRANCH  10  13
HETATM   13  C   UNL     1      -7.652   8.213  66.757  1.00  0.00    -0.094 C  
BRANCH  13  14
HETATM   14  C   UNL     1      -8.107   7.592  68.046  1.00  0.00    -0.124 A  
HETATM   15  C   UNL     1      -7.668   8.131  69.254  1.00  0.00    -0.104 A  
HETATM   16  C   UNL     1      -8.025   7.544  70.463  1.00  0.00    -0.098 A  
HETATM   17  C   UNL     1      -8.825   6.395  70.499  1.00  0.00    -0.144 A  
HETATM   18  C   UNL     1      -9.283   5.859  69.295  1.00  0.00    -0.134 A  
HETATM   19  C   UNL     1      -8.925   6.448  68.074  1.00  0.00    -0.115 A  
BRANCH  17  20
HETATM   20  O   UNL     1      -9.193   5.734  71.652  1.00  0.00    -0.146 OA 
BRANCH  20  21
HETATM   21  C   UNL     1     -10.583   5.390  71.688  1.00  0.00    -0.218 C  
BRANCH  21  22
HETATM   22  C   UNL     1     -11.453   6.402  72.443  1.00  0.00    -0.282 C  
BRANCH  22  23
HETATM   23  N   UNL     1     -12.093   7.367  71.517  1.00  0.00    -0.311 NA 
HETATM   24  C   UNL     1     -13.554   7.254  71.508  1.00  0.00    -0.356 C  
HETATM   25  C   UNL     1     -11.708   8.738  71.849  1.00  0.00    -0.359 C  
ENDBRANCH  22  23
ENDBRANCH  21  22
ENDBRANCH  20  21
ENDBRANCH  17  20
ENDBRANCH  13  14
ENDBRANCH  10  13
ENDBRANCH   5   9
BRANCH   8  26
HETATM   26  O   UNL     1     -11.566  13.962  64.689  1.00  0.00    -0.354 OA 
HETATM   27  C   UNL     1     -12.880  14.079  65.211  1.00  0.00    -0.384 C  
ENDBRANCH   8  26
BRANCH   7  28
HETATM   28  O   UNL     1     -10.126  15.658  66.549  1.00  0.00    -0.261 OA 
HETATM   29  C   UNL     1     -10.899  16.064  67.668  1.00  0.00    -0.311 C  
ENDBRANCH   7  28
ENDBRANCH   2   3
TORSDOF 10
ENDMDL
MODEL      172
REMARK 921   NORMALIZED FREE ENERGY PREDICTED BY IDOCK:   -4.00 KCAL/MOL
REMARK 922        TOTAL FREE ENERGY PREDICTED BY IDOCK:   -7.20 KCAL/MOL
REMARK 923 INTER-LIGAND FREE ENERGY PREDICTED BY IDOCK:   -6.15 KCAL/MOL
REMARK 924 INTRA-LIGAND FREE ENERGY PREDICTED BY IDOCK:   -1.05 KCAL/MOL
REMARK 927      BINDING AFFINITY PREDICTED BY RF-SCORE:    0.00 PKD
ROOT
HETATM    1  C   UNL     1      -9.902  15.756  69.541  1.00  0.00    -0.283 C  
HETATM    2  O   UNL     1     -11.203  15.315  69.156  1.00  0.00    -0.246 OA 
ENDROOT
BRANCH   2   3
HETATM    3  C   UNL     1     -11.477  13.986  69.375  1.00  0.00    -0.290 A  
HETATM    4  C   UNL     1     -11.027  12.999  68.488  1.00  0.00    -0.290 A  
HETATM    5  C   UNL     1     -11.221  11.644  68.763  1.00  0.00    -0.304 A  
HETATM    6  C   UNL     1     -11.903  11.275  69.917  1.00  0.00    -0.436 A  
HETATM    7  C   UNL     1     -12.214  13.621  70.526  1.00  0.00    -0.368 A  
HETATM    8  C   UNL     1     -12.407  12.248  70.800  1.00  0.00    -0.290 A  
BRANCH   5   9
HETATM    9  C   UNL     1     -10.602  10.654  67.841  1.00  0.00    -0.228 C  
HETATM   10  N   UNL     1     -11.138   9.389  67.830  1.00  0.00    -0.503 N  
HETATM   11  O   UNL     1      -9.666  10.994  67.124  1.00  0.00    -0.171 OA 
HETATM   12  H   UNL     1     -11.912   9.157  68.454  1.00  0.00     0.000 HD 
BRANCH  10  13
HETATM   13  C   UNL     1     -10.605   8.389  66.934  1.00  0.00    -0.215 C  
BRANCH  13  14
HETATM   14  C   UNL     1      -9.935   7.285  67.702  1.00  0.00    -0.207 A  
HETATM   15  C   UNL     1      -9.797   6.031  67.111  1.00  0.00    -0.165 A  
HETATM   16  C   UNL     1      -9.233   4.974  67.818  1.00  0.00    -0.131 A  
HETATM   17  C   UNL     1      -8.799   5.139  69.139  1.00  0.00    -0.092 A  
HETATM   18  C   UNL     1      -8.919   6.396  69.732  1.00  0.00    -0.141 A  
HETATM   19  C   UNL     1      -9.487   7.464  69.023  1.00  0.00    -0.148 A  
BRANCH  17  20
HETATM   20  O   UNL     1      -8.264   4.134  69.917  1.00  0.00    -0.058 OA 
BRANCH  20  21
HETATM   21  C   UNL     1      -6.836   4.184  70.002  1.00  0.00    -0.034 C  
BRANCH  21  22
HETATM   22  C   UNL     1      -6.121   3.368  68.917  1.00  0.00    -0.028 C  
BRANCH  22  23
HETATM   23  N   UNL     1      -5.330   4.239  68.015  1.00  0.00    -0.014 NA 
HETATM   24  C   UNL     1      -5.752   4.130  66.615  1.00  0.00    -0.022 C  
HETATM   25  C   UNL     1      -5.404   5.634  68.443  1.00  0.00    -0.004 C  
ENDBRANCH  22  23
ENDBRANCH  21  22
ENDBRANCH  20  21
ENDBRANCH  17  20
ENDBRANCH  13  14
ENDBRANCH  10  13
ENDBRANCH   5   9
BRANCH   8  26
HETATM   26  O   UNL     1     -13.038  11.668  71.873  1.00  0.00    -0.478 OA 
HETATM   27  C   UNL     1     -13.152  10.255  71.941  1.00  0.00    -0.463 C  
ENDBRANCH   8  26
BRANCH   7  28
HETATM   28  O   UNL     1     -12.679  14.515  71.460  1.00  0.00    -0.305 OA 
HETATM   29  C   UNL     1     -11.835  14.880  72.542  1.00  0.00    -0.237 C  
ENDBRANCH   7  28
ENDBRANCH   2   3
TORSDOF 10
ENDMDL
MODEL      173
REMARK 921   NORMALIZED FREE ENERGY PREDICTED BY IDOCK:   -3.99 KCAL/MOL
REMARK 922        TOTAL FREE ENERGY PREDICTED BY IDOCK:   -7.18 KCAL/MOL
REMARK 923 INTER-LIGAND FREE ENERGY PREDICTED BY IDOCK:   -6.29 KCAL/MOL
REMARK 924 INTRA-LIGAND FREE ENERGY PREDICTED BY IDOCK:   -0.89 KCAL/MOL
REMARK 927      BINDING AFFINITY PREDICTED BY RF-SCORE:    0.00 PKD
ROOT
HETATM    1  C   UNL     1     -12.253  15.212  69.136  1.00  0.00    -0.150 C  
HETATM    2  O   UNL     1     -11.203  15.445  68.198  1.00  0.00    -0.298 OA 
ENDROOT
BRANCH   2   3
HETATM    3  C   UNL     1     -10.729  14.337  67.538  1.00  0.00    -0.270 A  
HETATM    4  C   UNL     1     -10.005  13.346  68.216  1.00  0.00    -0.240 A  
HETATM    5  C   UNL     1      -9.610  12.176  67.566  1.00  0.00    -0.179 A  
HETATM    6  C   UNL     1      -9.909  12.011  66.218  1.00  0.00    -0.250 A  
HETATM    7  C   UNL     1     -10.995  14.199  66.156  1.00  0.00    -0.309 A  
HETATM    8  C   UNL     1     -10.593  13.011  65.503  1.00  0.00    -0.282 A  
BRANCH   5   9
HETATM    9  C   UNL     1      -8.960  11.115  68.383  1.00  0.00    -0.165 C  
HETATM   10  N   UNL     1      -9.716  10.537  69.373  1.00  0.00    -0.349 N  
HETATM   11  O   UNL     1      -7.803  10.785  68.140  1.00  0.00    -0.105 OA 
HETATM   12  H   UNL     1     -10.672  10.855  69.537  1.00  0.00     0.000 HD 
BRANCH  10  13
HETATM   13  C   UNL     1      -9.156   9.478  70.181  1.00  0.00    -0.240 C  
BRANCH  13  14
HETATM   14  C   UNL     1      -9.432   8.134  69.569  1.00  0.00    -0.156 A  
HETATM   15  C   UNL     1      -8.397   7.449  68.935  1.00  0.00    -0.129 A  
HETATM   16  C   UNL     1      -8.635   6.231  68.308  1.00  0.00    -0.117 A  
HETATM   17  C   UNL     1      -9.916   5.666  68.290  1.00  0.00    -0.155 A  
HETATM   18  C   UNL     1     -10.954   6.338  68.938  1.00  0.00    -0.435 A  
HETATM   19  C   UNL     1     -10.719   7.567  69.570  1.00  0.00    -0.222 A  
BRANCH  17  20
HETATM   20  O   UNL     1     -10.241   4.482  67.662  1.00  0.00    -0.071 OA 
BRANCH  20  21
HETATM   21  C   UNL     1      -9.556   4.297  66.418  1.00  0.00    -0.198 C  
BRANCH  21  22
HETATM   22  C   UNL     1     -10.466   4.402  65.187  1.00  0.00    -0.158 C  
BRANCH  22  23
HETATM   23  N   UNL     1     -10.193   3.317  64.214  1.00  0.00    -0.160 NA 
HETATM   24  C   UNL     1     -10.618   3.661  62.854  1.00  0.00    -0.209 C  
HETATM   25  C   UNL     1      -8.774   2.967  64.212  1.00  0.00    -0.094 C  
ENDBRANCH  22  23
ENDBRANCH  21  22
ENDBRANCH  20  21
ENDBRANCH  17  20
ENDBRANCH  13  14
ENDBRANCH  10  13
ENDBRANCH   5   9
BRANCH   8  26
HETATM   26  O   UNL     1     -10.790  12.643  64.195  1.00  0.00    -0.341 OA 
HETATM   27  C   UNL     1     -12.067  12.186  63.779  1.00  0.00    -0.525 C  
ENDBRANCH   8  26
BRANCH   7  28
HETATM   28  O   UNL     1     -11.711  15.107  65.414  1.00  0.00    -0.236 OA 
HETATM   29  C   UNL     1     -11.009  16.114  64.699  1.00  0.00    -0.245 C  
ENDBRANCH   7  28
ENDBRANCH   2   3
TORSDOF 10
ENDMDL
MODEL      174
REMARK 921   NORMALIZED FREE ENERGY PREDICTED BY IDOCK:   -3.98 KCAL/MOL
REMARK 922        TOTAL FREE ENERGY PREDICTED BY IDOCK:   -7.17 KCAL/MOL
REMARK 923 INTER-LIGAND FREE ENERGY PREDICTED BY IDOCK:   -6.25 KCAL/MOL
REMARK 924 INTRA-LIGAND FREE ENERGY PREDICTED BY IDOCK:   -0.92 KCAL/MOL
REMARK 927      BINDING AFFINITY PREDICTED BY RF-SCORE:    0.00 PKD
ROOT
HETATM    1  C   UNL     1     -12.872  10.576  71.620  1.00  0.00    -0.475 C  
HETATM    2  O   UNL     1     -11.705   9.779  71.819  1.00  0.00    -0.369 OA 
ENDROOT
BRANCH   2   3
HETATM    3  C   UNL     1     -11.092   9.316  70.680  1.00  0.00    -0.276 A  
HETATM    4  C   UNL     1     -10.131  10.086  70.011  1.00  0.00    -0.289 A  
HETATM    5  C   UNL     1      -9.439   9.574  68.912  1.00  0.00    -0.155 A  
HETATM    6  C   UNL     1      -9.735   8.294  68.457  1.00  0.00    -0.165 A  
HETATM    7  C   UNL     1     -11.434   8.032  70.194  1.00  0.00    -0.003 A  
HETATM    8  C   UNL     1     -10.728   7.518  69.082  1.00  0.00    -0.151 A  
BRANCH   5   9
HETATM    9  C   UNL     1      -8.344  10.401  68.336  1.00  0.00    -0.119 C  
HETATM   10  N   UNL     1      -8.053  11.583  68.971  1.00  0.00    -0.354 N  
HETATM   11  O   UNL     1      -7.738  10.002  67.346  1.00  0.00    -0.095 OA 
HETATM   12  H   UNL     1      -8.594  11.871  69.787  1.00  0.00     0.000 HD 
BRANCH  10  13
HETATM   13  C   UNL     1      -6.979  12.418  68.482  1.00  0.00    -0.092 C  
BRANCH  13  14
HETATM   14  C   UNL     1      -7.391  13.862  68.462  1.00  0.00    -0.116 A  
HETATM   15  C   UNL     1      -7.733  14.456  67.248  1.00  0.00    -0.164 A  
HETATM   16  C   UNL     1      -8.063  15.806  67.189  1.00  0.00    -0.244 A  
HETATM   17  C   UNL     1      -8.052  16.603  68.340  1.00  0.00    -0.208 A  
HETATM   18  C   UNL     1      -7.727  16.012  69.562  1.00  0.00    -0.080 A  
HETATM   19  C   UNL     1      -7.393  14.651  69.626  1.00  0.00    -0.064 A  
BRANCH  17  20
HETATM   20  O   UNL     1      -8.331  17.953  68.359  1.00  0.00    -0.288 OA 
BRANCH  20  21
HETATM   21  C   UNL     1      -7.471  18.720  67.510  1.00  0.00    -0.228 C  
BRANCH  21  22
HETATM   22  C   UNL     1      -6.056  18.914  68.071  1.00  0.00    -0.211 C  
BRANCH  22  23
HETATM   23  N   UNL     1      -6.088  19.375  69.479  1.00  0.00    -0.265 NA 
HETATM   24  C   UNL     1      -5.254  18.552  70.360  1.00  0.00    -0.241 C  
HETATM   25  C   UNL     1      -5.674  20.774  69.577  1.00  0.00    -0.338 C  
ENDBRANCH  22  23
ENDBRANCH  21  22
ENDBRANCH  20  21
ENDBRANCH  17  20
ENDBRANCH  13  14
ENDBRANCH  10  13
ENDBRANCH   5   9
BRANCH   8  26
HETATM   26  O   UNL     1     -10.854   6.290  68.479  1.00  0.00    -0.263 OA 
HETATM   27  C   UNL     1     -10.894   6.204  67.064  1.00  0.00    -0.356 C  
ENDBRANCH   8  26
BRANCH   7  28
HETATM   28  O   UNL     1     -12.348   7.199  70.793  1.00  0.00    -0.314 OA 
HETATM   29  C   UNL     1     -11.926   6.379  71.873  1.00  0.00    -0.329 C  
ENDBRANCH   7  28
ENDBRANCH   2   3
TORSDOF 10
ENDMDL
MODEL      175
REMARK 921   NORMALIZED FREE ENERGY PREDICTED BY IDOCK:   -3.98 KCAL/MOL
REMARK 922        TOTAL FREE ENERGY PREDICTED BY IDOCK:   -7.16 KCAL/MOL
REMARK 923 INTER-LIGAND FREE ENERGY PREDICTED BY IDOCK:   -6.78 KCAL/MOL
REMARK 924 INTRA-LIGAND FREE ENERGY PREDICTED BY IDOCK:   -0.38 KCAL/MOL
REMARK 927      BINDING AFFINITY PREDICTED BY RF-SCORE:    0.00 PKD
ROOT
HETATM    1  C   UNL     1     -10.519   5.099  66.722  1.00  0.00    -0.251 C  
HETATM    2  O   UNL     1      -9.636   5.898  67.508  1.00  0.00    -0.110 OA 
ENDROOT
BRANCH   2   3
HETATM    3  C   UNL     1     -10.065   6.196  68.779  1.00  0.00    -0.169 A  
HETATM    4  C   UNL     1     -10.550   7.471  69.099  1.00  0.00    -0.204 A  
HETATM    5  C   UNL     1     -11.076   7.743  70.362  1.00  0.00    -0.259 A  
HETATM    6  C   UNL     1     -11.085   6.741  71.326  1.00  0.00    -0.303 A  
HETATM    7  C   UNL     1     -10.025   5.185  69.768  1.00  0.00    -0.243 A  
HETATM    8  C   UNL     1     -10.560   5.466  71.046  1.00  0.00    -0.205 A  
BRANCH   5   9
HETATM    9  C   UNL     1     -11.690   9.080  70.585  1.00  0.00    -0.198 C  
HETATM   10  N   UNL     1     -11.185  10.129  69.856  1.00  0.00    -0.270 N  
HETATM   11  O   UNL     1     -12.618   9.198  71.380  1.00  0.00    -0.312 OA 
HETATM   12  H   UNL     1     -10.406   9.977  69.214  1.00  0.00     0.000 HD 
BRANCH  10  13
HETATM   13  C   UNL     1     -11.758  11.448  70.001  1.00  0.00    -0.334 C  
BRANCH  13  14
HETATM   14  C   UNL     1     -11.252  12.371  68.929  1.00  0.00    -0.330 A  
HETATM   15  C   UNL     1     -12.057  13.427  68.504  1.00  0.00    -0.283 A  
HETATM   16  C   UNL     1     -11.642  14.263  67.474  1.00  0.00    -0.390 A  
HETATM   17  C   UNL     1     -10.413  14.063  66.832  1.00  0.00    -0.276 A  
HETATM   18  C   UNL     1      -9.594  13.018  67.263  1.00  0.00    -0.225 A  
HETATM   19  C   UNL     1     -10.010  12.172  68.301  1.00  0.00    -0.212 A  
BRANCH  17  20
HETATM   20  O   UNL     1      -9.946  14.824  65.781  1.00  0.00    -0.309 OA 
BRANCH  20  21
HETATM   21  C   UNL     1      -9.933  16.228  66.062  1.00  0.00    -0.345 C  
BRANCH  21  22
HETATM   22  C   UNL     1      -9.548  16.568  67.508  1.00  0.00    -0.231 C  
BRANCH  22  23
HETATM   23  N   UNL     1      -8.149  17.049  67.600  1.00  0.00    -0.179 NA 
HETATM   24  C   UNL     1      -7.274  16.105  68.301  1.00  0.00    -0.135 C  
HETATM   25  C   UNL     1      -7.608  17.327  66.271  1.00  0.00    -0.325 C  
ENDBRANCH  22  23
ENDBRANCH  21  22
ENDBRANCH  20  21
ENDBRANCH  17  20
ENDBRANCH  13  14
ENDBRANCH  10  13
ENDBRANCH   5   9
BRANCH   8  26
HETATM   26  O   UNL     1     -10.673   4.631  72.130  1.00  0.00    -0.151 OA 
HETATM   27  C   UNL     1     -10.846   5.182  73.426  1.00  0.00    -0.302 C  
ENDBRANCH   8  26
BRANCH   7  28
HETATM   28  O   UNL     1      -9.585   3.903  69.543  1.00  0.00    -0.183 OA 
HETATM   29  C   UNL     1      -8.247   3.568  69.881  1.00  0.00    -0.052 C  
ENDBRANCH   7  28
ENDBRANCH   2   3
TORSDOF 10
ENDMDL
MODEL      176
REMARK 921   NORMALIZED FREE ENERGY PREDICTED BY IDOCK:   -3.95 KCAL/MOL
REMARK 922        TOTAL FREE ENERGY PREDICTED BY IDOCK:   -7.13 KCAL/MOL
REMARK 923 INTER-LIGAND FREE ENERGY PREDICTED BY IDOCK:   -6.37 KCAL/MOL
REMARK 924 INTRA-LIGAND FREE ENERGY PREDICTED BY IDOCK:   -0.76 KCAL/MOL
REMARK 927      BINDING AFFINITY PREDICTED BY RF-SCORE:    0.00 PKD
ROOT
HETATM    1  C   UNL     1     -11.831  11.412  68.361  1.00  0.00    -0.274 C  
HETATM    2  O   UNL     1     -11.366  10.308  67.587  1.00  0.00    -0.335 OA 
ENDROOT
BRANCH   2   3
HETATM    3  C   UNL     1     -10.063   9.929  67.801  1.00  0.00    -0.180 A  
HETATM    4  C   UNL     1      -9.182  10.742  68.528  1.00  0.00    -0.174 A  
HETATM    5  C   UNL     1      -7.889  10.311  68.829  1.00  0.00    -0.106 A  
HETATM    6  C   UNL     1      -7.461   9.071  68.369  1.00  0.00    -0.082 A  
HETATM    7  C   UNL     1      -9.619   8.688  67.288  1.00  0.00    -0.167 A  
HETATM    8  C   UNL     1      -8.309   8.256  67.597  1.00  0.00    -0.127 A  
BRANCH   5   9
HETATM    9  C   UNL     1      -7.059  11.173  69.713  1.00  0.00    -0.003 C  
HETATM   10  N   UNL     1      -6.920  12.490  69.350  1.00  0.00    -0.316 N  
HETATM   11  O   UNL     1      -6.553  10.697  70.725  1.00  0.00    -0.343 OA 
HETATM   12  H   UNL     1      -7.356  12.833  68.494  1.00  0.00     0.000 HD 
BRANCH  10  13
HETATM   13  C   UNL     1      -6.153  13.390  70.183  1.00  0.00    -0.112 C  
BRANCH  13  14
HETATM   14  C   UNL     1      -6.457  14.821  69.844  1.00  0.00    -0.164 A  
HETATM   15  C   UNL     1      -7.606  15.120  69.115  1.00  0.00    -0.188 A  
HETATM   16  C   UNL     1      -7.885  16.429  68.737  1.00  0.00    -0.220 A  
HETATM   17  C   UNL     1      -7.017  17.476  69.070  1.00  0.00    -0.237 A  
HETATM   18  C   UNL     1      -5.872  17.188  69.814  1.00  0.00    -0.231 A  
HETATM   19  C   UNL     1      -5.587  15.869  70.197  1.00  0.00    -0.162 A  
BRANCH  17  20
HETATM   20  O   UNL     1      -7.202  18.793  68.703  1.00  0.00    -0.283 OA 
BRANCH  20  21
HETATM   21  C   UNL     1      -7.843  18.940  67.430  1.00  0.00    -0.238 C  
BRANCH  21  22
HETATM   22  C   UNL     1      -8.626  20.250  67.278  1.00  0.00    -0.347 C  
BRANCH  22  23
HETATM   23  N   UNL     1     -10.087  20.005  67.210  1.00  0.00    -0.418 NA 
HETATM   24  C   UNL     1     -10.562  19.809  65.837  1.00  0.00    -0.453 C  
HETATM   25  C   UNL     1     -10.459  18.852  68.029  1.00  0.00    -0.358 C  
ENDBRANCH  22  23
ENDBRANCH  21  22
ENDBRANCH  20  21
ENDBRANCH  17  20
ENDBRANCH  13  14
ENDBRANCH  10  13
ENDBRANCH   5   9
BRANCH   8  26
HETATM   26  O   UNL     1      -7.691   7.078  67.254  1.00  0.00    -0.105 OA 
HETATM   27  C   UNL     1      -7.560   6.047  68.220  1.00  0.00    -0.091 C  
ENDBRANCH   8  26
BRANCH   7  28
HETATM   28  O   UNL     1     -10.413   7.817  66.582  1.00  0.00    -0.292 OA 
HETATM   29  C   UNL     1     -11.022   6.733  67.268  1.00  0.00    -0.363 C  
ENDBRANCH   7  28
ENDBRANCH   2   3
TORSDOF 10
ENDMDL
MODEL      177
REMARK 921   NORMALIZED FREE ENERGY PREDICTED BY IDOCK:   -3.95 KCAL/MOL
REMARK 922        TOTAL FREE ENERGY PREDICTED BY IDOCK:   -7.13 KCAL/MOL
REMARK 923 INTER-LIGAND FREE ENERGY PREDICTED BY IDOCK:   -6.38 KCAL/MOL
REMARK 924 INTRA-LIGAND FREE ENERGY PREDICTED BY IDOCK:   -0.74 KCAL/MOL
REMARK 927      BINDING AFFINITY PREDICTED BY RF-SCORE:    0.00 PKD
ROOT
HETATM    1  C   UNL     1     -10.616  20.085  66.272  1.00  0.00    -0.350 C  
HETATM    2  O   UNL     1      -9.390  19.603  65.724  1.00  0.00    -0.386 OA 
ENDROOT
BRANCH   2   3
HETATM    3  C   UNL     1      -8.964  18.382  66.186  1.00  0.00    -0.099 A  
HETATM    4  C   UNL     1      -9.877  17.361  66.483  1.00  0.00    -0.310 A  
HETATM    5  C   UNL     1      -9.437  16.090  66.858  1.00  0.00    -0.242 A  
HETATM    6  C   UNL     1      -8.073  15.848  66.971  1.00  0.00    -0.265 A  
HETATM    7  C   UNL     1      -7.576  18.158  66.346  1.00  0.00    -0.256 A  
HETATM    8  C   UNL     1      -7.136  16.869  66.724  1.00  0.00    -0.238 A  
BRANCH   5   9
HETATM    9  C   UNL     1     -10.462  15.025  67.031  1.00  0.00    -0.278 C  
HETATM   10  N   UNL     1     -10.381  14.259  68.168  1.00  0.00    -0.229 N  
HETATM   11  O   UNL     1     -11.337  14.880  66.183  1.00  0.00    -0.344 OA 
HETATM   12  H   UNL     1      -9.628  14.416  68.838  1.00  0.00     0.000 HD 
BRANCH  10  13
HETATM   13  C   UNL     1     -11.365  13.228  68.413  1.00  0.00    -0.291 C  
BRANCH  13  14
HETATM   14  C   UNL     1     -10.705  11.891  68.592  1.00  0.00    -0.266 A  
HETATM   15  C   UNL     1      -9.318  11.796  68.491  1.00  0.00    -0.158 A  
HETATM   16  C   UNL     1      -8.684  10.563  68.595  1.00  0.00    -0.143 A  
HETATM   17  C   UNL     1      -9.418   9.388  68.795  1.00  0.00    -0.150 A  
HETATM   18  C   UNL     1     -10.806   9.476  68.914  1.00  0.00    -0.177 A  
HETATM   19  C   UNL     1     -11.450  10.718  68.809  1.00  0.00    -0.364 A  
BRANCH  17  20
HETATM   20  O   UNL     1      -8.868   8.126  68.873  1.00  0.00    -0.140 OA 
BRANCH  20  21
HETATM   21  C   UNL     1      -8.750   7.642  70.215  1.00  0.00    -0.144 C  
BRANCH  21  22
HETATM   22  C   UNL     1      -9.820   6.612  70.600  1.00  0.00    -0.183 C  
BRANCH  22  23
HETATM   23  N   UNL     1      -9.238   5.258  70.762  1.00  0.00    -0.149 NA 
HETATM   24  C   UNL     1      -9.322   4.770  72.141  1.00  0.00    -0.136 C  
HETATM   25  C   UNL     1      -9.885   4.304  69.863  1.00  0.00    -0.197 C  
ENDBRANCH  22  23
ENDBRANCH  21  22
ENDBRANCH  20  21
ENDBRANCH  17  20
ENDBRANCH  13  14
ENDBRANCH  10  13
ENDBRANCH   5   9
BRANCH   8  26
HETATM   26  O   UNL     1      -5.851  16.415  66.887  1.00  0.00    -0.317 OA 
HETATM   27  C   UNL     1      -5.212  16.551  68.146  1.00  0.00    -0.109 C  
ENDBRANCH   8  26
BRANCH   7  28
HETATM   28  O   UNL     1      -6.607  19.089  66.062  1.00  0.00    -0.202 OA 
HETATM   29  C   UNL     1      -6.072  19.146  64.748  1.00  0.00    -0.263 C  
ENDBRANCH   7  28
ENDBRANCH   2   3
TORSDOF 10
ENDMDL
MODEL      178
REMARK 921   NORMALIZED FREE ENERGY PREDICTED BY IDOCK:   -3.93 KCAL/MOL
REMARK 922        TOTAL FREE ENERGY PREDICTED BY IDOCK:   -7.10 KCAL/MOL
REMARK 923 INTER-LIGAND FREE ENERGY PREDICTED BY IDOCK:   -6.26 KCAL/MOL
REMARK 924 INTRA-LIGAND FREE ENERGY PREDICTED BY IDOCK:   -0.83 KCAL/MOL
REMARK 927      BINDING AFFINITY PREDICTED BY RF-SCORE:    0.00 PKD
ROOT
HETATM    1  C   UNL     1     -12.737  11.318  71.028  1.00  0.00    -0.359 C  
HETATM    2  O   UNL     1     -12.049  10.167  71.516  1.00  0.00    -0.377 OA 
ENDROOT
BRANCH   2   3
HETATM    3  C   UNL     1     -10.876   9.851  70.875  1.00  0.00    -0.286 A  
HETATM    4  C   UNL     1     -10.461  10.554  69.736  1.00  0.00    -0.245 A  
HETATM    5  C   UNL     1      -9.223  10.297  69.145  1.00  0.00    -0.203 A  
HETATM    6  C   UNL     1      -8.408   9.304  69.676  1.00  0.00    -0.140 A  
HETATM    7  C   UNL     1     -10.075   8.806  71.392  1.00  0.00    -0.284 A  
HETATM    8  C   UNL     1      -8.821   8.550  70.790  1.00  0.00    -0.161 A  
BRANCH   5   9
HETATM    9  C   UNL     1      -8.797  11.172  68.019  1.00  0.00    -0.142 C  
HETATM   10  N   UNL     1      -9.495  12.341  67.837  1.00  0.00    -0.193 N  
HETATM   11  O   UNL     1      -7.847  10.840  67.317  1.00  0.00    -0.109 OA 
HETATM   12  H   UNL     1     -10.283  12.565  68.445  1.00  0.00     0.000 HD 
BRANCH  10  13
HETATM   13  C   UNL     1      -9.112  13.251  66.781  1.00  0.00    -0.210 C  
BRANCH  13  14
HETATM   14  C   UNL     1      -8.908  14.639  67.320  1.00  0.00    -0.220 A  
HETATM   15  C   UNL     1      -9.594  15.703  66.738  1.00  0.00    -0.257 A  
HETATM   16  C   UNL     1      -9.383  17.006  67.177  1.00  0.00    -0.241 A  
HETATM   17  C   UNL     1      -8.472  17.283  68.204  1.00  0.00    -0.238 A  
HETATM   18  C   UNL     1      -7.794  16.221  68.803  1.00  0.00    -0.216 A  
HETATM   19  C   UNL     1      -8.004  14.905  68.364  1.00  0.00    -0.134 A  
BRANCH  17  20
HETATM   20  O   UNL     1      -8.180  18.547  68.671  1.00  0.00    -0.325 OA 
BRANCH  20  21
HETATM   21  C   UNL     1      -8.347  19.568  67.680  1.00  0.00    -0.305 C  
BRANCH  21  22
HETATM   22  C   UNL     1      -7.214  20.601  67.657  1.00  0.00    -0.308 C  
BRANCH  22  23
HETATM   23  N   UNL     1      -6.380  20.468  66.438  1.00  0.00    -0.214 NA 
HETATM   24  C   UNL     1      -5.173  19.670  66.667  1.00  0.00    -0.163 C  
HETATM   25  C   UNL     1      -7.153  19.886  65.342  1.00  0.00    -0.261 C  
ENDBRANCH  22  23
ENDBRANCH  21  22
ENDBRANCH  20  21
ENDBRANCH  17  20
ENDBRANCH  13  14
ENDBRANCH  10  13
ENDBRANCH   5   9
BRANCH   8  26
HETATM   26  O   UNL     1      -7.867   7.632  71.152  1.00  0.00    -0.087 OA 
HETATM   27  C   UNL     1      -7.183   7.779  72.386  1.00  0.00    -0.082 C  
ENDBRANCH   8  26
BRANCH   7  28
HETATM   28  O   UNL     1     -10.389   8.075  72.512  1.00  0.00    -0.256 OA 
HETATM   29  C   UNL     1     -10.976   6.792  72.352  1.00  0.00    -0.246 C  
ENDBRANCH   7  28
ENDBRANCH   2   3
TORSDOF 10
ENDMDL
MODEL      179
REMARK 921   NORMALIZED FREE ENERGY PREDICTED BY IDOCK:   -3.91 KCAL/MOL
REMARK 922        TOTAL FREE ENERGY PREDICTED BY IDOCK:   -7.06 KCAL/MOL
REMARK 923 INTER-LIGAND FREE ENERGY PREDICTED BY IDOCK:   -6.18 KCAL/MOL
REMARK 924 INTRA-LIGAND FREE ENERGY PREDICTED BY IDOCK:   -0.88 KCAL/MOL
REMARK 927      BINDING AFFINITY PREDICTED BY RF-SCORE:    0.00 PKD
ROOT
HETATM    1  C   UNL     1      -8.861   4.373  66.914  1.00  0.00    -0.114 C  
HETATM    2  O   UNL     1      -7.941   5.246  66.260  1.00  0.00    -0.102 OA 
ENDROOT
BRANCH   2   3
HETATM    3  C   UNL     1      -8.426   6.486  65.921  1.00  0.00    -0.147 A  
HETATM    4  C   UNL     1      -9.231   7.216  66.806  1.00  0.00    -0.188 A  
HETATM    5  C   UNL     1      -9.640   8.514  66.500  1.00  0.00    -0.303 A  
HETATM    6  C   UNL     1      -9.272   9.075  65.282  1.00  0.00    -0.205 A  
HETATM    7  C   UNL     1      -8.088   7.030  64.660  1.00  0.00    -0.083 A  
HETATM    8  C   UNL     1      -8.505   8.346  64.355  1.00  0.00    -0.039 A  
BRANCH   5   9
HETATM    9  C   UNL     1     -10.382   9.272  67.544  1.00  0.00    -0.262 C  
HETATM   10  N   UNL     1     -10.966  10.455  67.162  1.00  0.00    -0.241 N  
HETATM   11  O   UNL     1     -10.464   8.818  68.682  1.00  0.00    -0.211 OA 
HETATM   12  H   UNL     1     -10.861  10.791  66.204  1.00  0.00     0.000 HD 
BRANCH  10  13
HETATM   13  C   UNL     1     -11.729  11.223  68.120  1.00  0.00    -0.253 C  
BRANCH  13  14
HETATM   14  C   UNL     1     -11.553  12.697  67.885  1.00  0.00    -0.401 A  
HETATM   15  C   UNL     1     -11.089  13.138  66.647  1.00  0.00    -0.316 A  
HETATM   16  C   UNL     1     -10.861  14.491  66.419  1.00  0.00    -0.318 A  
HETATM   17  C   UNL     1     -11.082  15.440  67.425  1.00  0.00    -0.311 A  
HETATM   18  C   UNL     1     -11.563  15.008  68.661  1.00  0.00    -0.347 A  
HETATM   19  C   UNL     1     -11.793  13.644  68.896  1.00  0.00    -0.402 A  
BRANCH  17  20
HETATM   20  O   UNL     1     -10.846  16.792  67.290  1.00  0.00    -0.258 OA 
BRANCH  20  21
HETATM   21  C   UNL     1      -9.791  17.093  66.369  1.00  0.00    -0.300 C  
BRANCH  21  22
HETATM   22  C   UNL     1      -8.795  18.138  66.888  1.00  0.00    -0.267 C  
BRANCH  22  23
HETATM   23  N   UNL     1      -7.854  17.551  67.872  1.00  0.00    -0.213 NA 
HETATM   24  C   UNL     1      -6.552  17.227  67.281  1.00  0.00    -0.159 C  
HETATM   25  C   UNL     1      -7.667  18.449  69.010  1.00  0.00    -0.139 C  
ENDBRANCH  22  23
ENDBRANCH  21  22
ENDBRANCH  20  21
ENDBRANCH  17  20
ENDBRANCH  13  14
ENDBRANCH  10  13
ENDBRANCH   5   9
BRANCH   8  26
HETATM   26  O   UNL     1      -8.251   9.087  63.227  1.00  0.00    -0.162 OA 
HETATM   27  C   UNL     1      -9.221  10.011  62.761  1.00  0.00    -0.290 C  
ENDBRANCH   8  26
BRANCH   7  28
HETATM   28  O   UNL     1      -7.292   6.398  63.735  1.00  0.00    -0.061 OA 
HETATM   29  C   UNL     1      -7.901   5.569  62.756  1.00  0.00    -0.090 C  
ENDBRANCH   7  28
ENDBRANCH   2   3
TORSDOF 10
ENDMDL
MODEL      180
REMARK 921   NORMALIZED FREE ENERGY PREDICTED BY IDOCK:   -3.85 KCAL/MOL
REMARK 922        TOTAL FREE ENERGY PREDICTED BY IDOCK:   -6.96 KCAL/MOL
REMARK 923 INTER-LIGAND FREE ENERGY PREDICTED BY IDOCK:   -5.88 KCAL/MOL
REMARK 924 INTRA-LIGAND FREE ENERGY PREDICTED BY IDOCK:   -1.08 KCAL/MOL
REMARK 927      BINDING AFFINITY PREDICTED BY RF-SCORE:    0.00 PKD
ROOT
HETATM    1  C   UNL     1     -11.373  10.958  70.178  1.00  0.00    -0.284 C  
HETATM    2  O   UNL     1     -11.750  11.394  68.872  1.00  0.00    -0.288 OA 
ENDROOT
BRANCH   2   3
HETATM    3  C   UNL     1     -11.135  10.753  67.824  1.00  0.00    -0.318 A  
HETATM    4  C   UNL     1     -10.919   9.369  67.847  1.00  0.00    -0.122 A  
HETATM    5  C   UNL     1     -10.384   8.707  66.741  1.00  0.00    -0.336 A  
HETATM    6  C   UNL     1     -10.028   9.440  65.615  1.00  0.00    -0.210 A  
HETATM    7  C   UNL     1     -10.731  11.513  66.701  1.00  0.00    -0.268 A  
HETATM    8  C   UNL     1     -10.190  10.838  65.584  1.00  0.00    -0.257 A  
BRANCH   5   9
HETATM    9  C   UNL     1     -10.306   7.221  66.793  1.00  0.00    -0.241 C  
HETATM   10  N   UNL     1      -9.178   6.636  66.272  1.00  0.00    -0.234 N  
HETATM   11  O   UNL     1     -11.221   6.582  67.303  1.00  0.00    -0.376 OA 
HETATM   12  H   UNL     1      -8.450   7.214  65.852  1.00  0.00     0.000 HD 
BRANCH  10  13
HETATM   13  C   UNL     1      -9.024   5.200  66.321  1.00  0.00    -0.130 C  
BRANCH  13  14
HETATM   14  C   UNL     1      -8.625   4.751  67.697  1.00  0.00    -0.103 A  
HETATM   15  C   UNL     1      -7.599   5.421  68.361  1.00  0.00    -0.080 A  
HETATM   16  C   UNL     1      -7.167   4.993  69.612  1.00  0.00    -0.056 A  
HETATM   17  C   UNL     1      -7.743   3.877  70.231  1.00  0.00    -0.048 A  
HETATM   18  C   UNL     1      -8.782   3.211  69.581  1.00  0.00    -0.130 A  
HETATM   19  C   UNL     1      -9.220   3.639  68.319  1.00  0.00    -0.218 A  
BRANCH  17  20
HETATM   20  O   UNL     1      -7.349   3.369  71.451  1.00  0.00    -0.036 OA 
BRANCH  20  21
HETATM   21  C   UNL     1      -7.551   4.282  72.536  1.00  0.00    -0.079 C  
BRANCH  21  22
HETATM   22  C   UNL     1      -9.015   4.407  72.976  1.00  0.00    -0.116 C  
BRANCH  22  23
HETATM   23  N   UNL     1      -9.549   5.765  72.711  1.00  0.00    -0.149 NA 
HETATM   24  C   UNL     1     -10.580   5.770  71.669  1.00  0.00    -0.245 C  
HETATM   25  C   UNL     1     -10.083   6.361  73.934  1.00  0.00    -0.288 C  
ENDBRANCH  22  23
ENDBRANCH  21  22
ENDBRANCH  20  21
ENDBRANCH  17  20
ENDBRANCH  13  14
ENDBRANCH  10  13
ENDBRANCH   5   9
BRANCH   8  26
HETATM   26  O   UNL     1      -9.783  11.359  64.380  1.00  0.00    -0.237 OA 
HETATM   27  C   UNL     1      -9.647  10.506  63.255  1.00  0.00    -0.331 C  
ENDBRANCH   8  26
BRANCH   7  28
HETATM   28  O   UNL     1     -10.917  12.869  66.581  1.00  0.00    -0.267 OA 
HETATM   29  C   UNL     1     -12.132  13.349  66.023  1.00  0.00    -0.438 C  
ENDBRANCH   7  28
ENDBRANCH   2   3
TORSDOF 10
ENDMDL
MODEL      181
REMARK 921   NORMALIZED FREE ENERGY PREDICTED BY IDOCK:   -3.83 KCAL/MOL
REMARK 922        TOTAL FREE ENERGY PREDICTED BY IDOCK:   -6.93 KCAL/MOL
REMARK 923 INTER-LIGAND FREE ENERGY PREDICTED BY IDOCK:   -7.52 KCAL/MOL
REMARK 924 INTRA-LIGAND FREE ENERGY PREDICTED BY IDOCK:    0.59 KCAL/MOL
REMARK 927      BINDING AFFINITY PREDICTED BY RF-SCORE:    0.00 PKD
ROOT
HETATM    1  C   UNL     1     -12.033  16.011  72.662  1.00  0.00    -0.541 C  
HETATM    2  O   UNL     1     -12.654  15.951  71.379  1.00  0.00    -0.451 OA 
ENDROOT
BRANCH   2   3
HETATM    3  C   UNL     1     -12.165  14.998  70.519  1.00  0.00    -0.337 A  
HETATM    4  C   UNL     1     -12.287  13.632  70.806  1.00  0.00    -0.446 A  
HETATM    5  C   UNL     1     -11.878  12.665  69.886  1.00  0.00    -0.364 A  
HETATM    6  C   UNL     1     -11.310  13.068  68.683  1.00  0.00    -0.329 A  
HETATM    7  C   UNL     1     -11.544  15.416  69.318  1.00  0.00    -0.339 A  
HETATM    8  C   UNL     1     -11.132  14.432  68.390  1.00  0.00    -0.255 A  
BRANCH   5   9
HETATM    9  C   UNL     1     -12.159  11.239  70.207  1.00  0.00    -0.373 C  
HETATM   10  N   UNL     1     -12.319  10.917  71.533  1.00  0.00    -0.291 N  
HETATM   11  O   UNL     1     -12.254  10.419  69.300  1.00  0.00    -0.133 OA 
HETATM   12  H   UNL     1     -12.222  11.638  72.249  1.00  0.00     0.000 HD 
BRANCH  10  13
HETATM   13  C   UNL     1     -12.626   9.556  71.911  1.00  0.00    -0.396 C  
BRANCH  13  14
HETATM   14  C   UNL     1     -11.501   8.632  71.543  1.00  0.00    -0.363 A  
HETATM   15  C   UNL     1     -10.221   8.889  72.032  1.00  0.00    -0.363 A  
HETATM   16  C   UNL     1      -9.148   8.085  71.662  1.00  0.00    -0.194 A  
HETATM   17  C   UNL     1      -9.322   7.007  70.786  1.00  0.00    -0.161 A  
HETATM   18  C   UNL     1     -10.603   6.733  70.306  1.00  0.00    -0.251 A  
HETATM   19  C   UNL     1     -11.688   7.541  70.676  1.00  0.00    -0.240 A  
BRANCH  17  20
HETATM   20  O   UNL     1      -8.306   6.186  70.344  1.00  0.00    -0.121 OA 
BRANCH  20  21
HETATM   21  C   UNL     1      -8.041   6.318  68.943  1.00  0.00    -0.110 C  
BRANCH  21  22
HETATM   22  C   UNL     1      -9.210   6.909  68.144  1.00  0.00    -0.126 C  
BRANCH  22  23
HETATM   23  N   UNL     1      -9.076   6.626  66.695  1.00  0.00    -0.140 NA 
HETATM   24  C   UNL     1      -7.687   6.700  66.233  1.00  0.00    -0.098 C  
HETATM   25  C   UNL     1      -9.634   5.315  66.368  1.00  0.00    -0.160 C  
ENDBRANCH  22  23
ENDBRANCH  21  22
ENDBRANCH  20  21
ENDBRANCH  17  20
ENDBRANCH  13  14
ENDBRANCH  10  13
ENDBRANCH   5   9
BRANCH   8  26
HETATM   26  O   UNL     1     -10.562  14.606  67.153  1.00  0.00    -0.275 OA 
HETATM   27  C   UNL     1      -9.229  14.176  66.928  1.00  0.00    -0.257 C  
ENDBRANCH   8  26
BRANCH   7  28
HETATM   28  O   UNL     1     -11.396  16.729  68.943  1.00  0.00    -0.203 OA 
HETATM   29  C   UNL     1     -10.179  17.396  69.245  1.00  0.00    -0.204 C  
ENDBRANCH   7  28
ENDBRANCH   2   3
TORSDOF 10
ENDMDL
MODEL      182
REMARK 921   NORMALIZED FREE ENERGY PREDICTED BY IDOCK:   -3.82 KCAL/MOL
REMARK 922        TOTAL FREE ENERGY PREDICTED BY IDOCK:   -6.92 KCAL/MOL
REMARK 923 INTER-LIGAND FREE ENERGY PREDICTED BY IDOCK:   -6.03 KCAL/MOL
REMARK 924 INTRA-LIGAND FREE ENERGY PREDICTED BY IDOCK:   -0.90 KCAL/MOL
REMARK 927      BINDING AFFINITY PREDICTED BY RF-SCORE:    0.00 PKD
ROOT
HETATM    1  C   UNL     1      -7.764   5.622  73.305  1.00  0.00    -0.099 C  
HETATM    2  O   UNL     1      -8.962   4.988  72.858  1.00  0.00    -0.117 OA 
ENDROOT
BRANCH   2   3
HETATM    3  C   UNL     1      -9.036   4.723  71.512  1.00  0.00    -0.134 A  
HETATM    4  C   UNL     1      -8.689   5.693  70.563  1.00  0.00    -0.140 A  
HETATM    5  C   UNL     1      -8.670   5.391  69.201  1.00  0.00    -0.104 A  
HETATM    6  C   UNL     1      -9.037   4.117  68.781  1.00  0.00    -0.188 A  
HETATM    7  C   UNL     1      -9.457   3.440  71.091  1.00  0.00    -0.154 A  
HETATM    8  C   UNL     1      -9.436   3.139  69.710  1.00  0.00    -0.128 A  
BRANCH   5   9
HETATM    9  C   UNL     1      -8.166   6.434  68.265  1.00  0.00    -0.116 C  
HETATM   10  N   UNL     1      -9.073   6.977  67.388  1.00  0.00    -0.123 N  
HETATM   11  O   UNL     1      -6.990   6.780  68.318  1.00  0.00    -0.074 OA 
HETATM   12  H   UNL     1     -10.038   6.647  67.381  1.00  0.00     0.000 HD 
BRANCH  10  13
HETATM   13  C   UNL     1      -8.656   8.018  66.476  1.00  0.00    -0.140 C  
BRANCH  13  14
HETATM   14  C   UNL     1      -9.603   9.183  66.526  1.00  0.00    -0.289 A  
HETATM   15  C   UNL     1      -9.764   9.978  65.392  1.00  0.00    -0.368 A  
HETATM   16  C   UNL     1     -10.589  11.098  65.425  1.00  0.00    -0.291 A  
HETATM   17  C   UNL     1     -11.269  11.460  66.595  1.00  0.00    -0.231 A  
HETATM   18  C   UNL     1     -11.125  10.659  67.729  1.00  0.00    -0.385 A  
HETATM   19  C   UNL     1     -10.294   9.529  67.700  1.00  0.00    -0.299 A  
BRANCH  17  20
HETATM   20  O   UNL     1     -12.074  12.572  66.719  1.00  0.00    -0.546 OA 
BRANCH  20  21
HETATM   21  C   UNL     1     -11.600  13.507  67.694  1.00  0.00    -0.339 C  
BRANCH  21  22
HETATM   22  C   UNL     1     -11.424  14.932  67.153  1.00  0.00    -0.335 C  
BRANCH  22  23
HETATM   23  N   UNL     1     -10.561  14.954  65.948  1.00  0.00    -0.309 NA 
HETATM   24  C   UNL     1     -11.205  15.609  64.806  1.00  0.00    -0.382 C  
HETATM   25  C   UNL     1      -9.286  15.609  66.236  1.00  0.00    -0.323 C  
ENDBRANCH  22  23
ENDBRANCH  21  22
ENDBRANCH  20  21
ENDBRANCH  17  20
ENDBRANCH  13  14
ENDBRANCH  10  13
ENDBRANCH   5   9
BRANCH   8  26
HETATM   26  O   UNL     1      -9.748   1.956  69.085  1.00  0.00    -0.056 OA 
HETATM   27  C   UNL     1      -9.202   1.672  67.807  1.00  0.00    -0.150 C  
ENDBRANCH   8  26
BRANCH   7  28
HETATM   28  O   UNL     1      -9.798   2.420  71.947  1.00  0.00    -0.144 OA 
HETATM   29  C   UNL     1      -8.790   1.516  72.375  1.00  0.00    -0.060 C  
ENDBRANCH   7  28
ENDBRANCH   2   3
TORSDOF 10
ENDMDL
MODEL      183
REMARK 921   NORMALIZED FREE ENERGY PREDICTED BY IDOCK:   -3.81 KCAL/MOL
REMARK 922        TOTAL FREE ENERGY PREDICTED BY IDOCK:   -6.90 KCAL/MOL
REMARK 923 INTER-LIGAND FREE ENERGY PREDICTED BY IDOCK:   -6.15 KCAL/MOL
REMARK 924 INTRA-LIGAND FREE ENERGY PREDICTED BY IDOCK:   -0.75 KCAL/MOL
REMARK 927      BINDING AFFINITY PREDICTED BY RF-SCORE:    0.00 PKD
ROOT
HETATM    1  C   UNL     1      -7.414   2.444  71.584  1.00  0.00    -0.040 C  
HETATM    2  O   UNL     1      -8.125   2.368  70.350  1.00  0.00    -0.042 OA 
ENDROOT
BRANCH   2   3
HETATM    3  C   UNL     1      -8.589   3.560  69.849  1.00  0.00    -0.058 A  
HETATM    4  C   UNL     1      -9.466   4.364  70.590  1.00  0.00    -0.242 A  
HETATM    5  C   UNL     1      -9.858   5.619  70.122  1.00  0.00    -0.250 A  
HETATM    6  C   UNL     1      -9.399   6.059  68.885  1.00  0.00    -0.131 A  
HETATM    7  C   UNL     1      -8.156   3.978  68.569  1.00  0.00    -0.075 A  
HETATM    8  C   UNL     1      -8.556   5.251  68.100  1.00  0.00    -0.099 A  
BRANCH   5   9
HETATM    9  C   UNL     1     -10.685   6.468  71.022  1.00  0.00    -0.243 C  
HETATM   10  N   UNL     1     -11.321   7.546  70.455  1.00  0.00    -0.305 N  
HETATM   11  O   UNL     1     -10.786   6.175  72.209  1.00  0.00    -0.222 OA 
HETATM   12  H   UNL     1     -11.197   7.748  69.463  1.00  0.00     0.000 HD 
BRANCH  10  13
HETATM   13  C   UNL     1     -12.166   8.391  71.268  1.00  0.00    -0.277 C  
BRANCH  13  14
HETATM   14  C   UNL     1     -11.991   9.836  70.896  1.00  0.00    -0.413 A  
HETATM   15  C   UNL     1     -12.766  10.802  71.536  1.00  0.00    -0.536 A  
HETATM   16  C   UNL     1     -12.669  12.142  71.174  1.00  0.00    -0.351 A  
HETATM   17  C   UNL     1     -11.800  12.552  70.155  1.00  0.00    -0.258 A  
HETATM   18  C   UNL     1     -11.009  11.593  69.521  1.00  0.00    -0.159 A  
HETATM   19  C   UNL     1     -11.105  10.242  69.883  1.00  0.00    -0.362 A  
BRANCH  17  20
HETATM   20  O   UNL     1     -11.672  13.852  69.713  1.00  0.00    -0.281 OA 
BRANCH  20  21
HETATM   21  C   UNL     1     -12.087  14.031  68.354  1.00  0.00    -0.283 C  
BRANCH  21  22
HETATM   22  C   UNL     1     -10.925  14.140  67.359  1.00  0.00    -0.299 C  
BRANCH  22  23
HETATM   23  N   UNL     1     -11.285  13.573  66.038  1.00  0.00    -0.294 NA 
HETATM   24  C   UNL     1     -11.560  14.609  65.038  1.00  0.00    -0.385 C  
HETATM   25  C   UNL     1     -10.231  12.686  65.549  1.00  0.00    -0.281 C  
ENDBRANCH  22  23
ENDBRANCH  21  22
ENDBRANCH  20  21
ENDBRANCH  17  20
ENDBRANCH  13  14
ENDBRANCH  10  13
ENDBRANCH   5   9
BRANCH   8  26
HETATM   26  O   UNL     1      -8.218   5.877  66.926  1.00  0.00    -0.105 OA 
HETATM   27  C   UNL     1      -7.158   6.820  66.912  1.00  0.00    -0.075 C  
ENDBRANCH   8  26
BRANCH   7  28
HETATM   28  O   UNL     1      -7.285   3.268  67.779  1.00  0.00    -0.053 OA 
HETATM   29  C   UNL     1      -5.890   3.391  68.012  1.00  0.00    -0.026 C  
ENDBRANCH   7  28
ENDBRANCH   2   3
TORSDOF 10
ENDMDL
MODEL      184
REMARK 921   NORMALIZED FREE ENERGY PREDICTED BY IDOCK:   -3.81 KCAL/MOL
REMARK 922        TOTAL FREE ENERGY PREDICTED BY IDOCK:   -6.90 KCAL/MOL
REMARK 923 INTER-LIGAND FREE ENERGY PREDICTED BY IDOCK:   -6.17 KCAL/MOL
REMARK 924 INTRA-LIGAND FREE ENERGY PREDICTED BY IDOCK:   -0.73 KCAL/MOL
REMARK 927      BINDING AFFINITY PREDICTED BY RF-SCORE:    0.00 PKD
ROOT
HETATM    1  C   UNL     1     -10.394   7.437  66.762  1.00  0.00    -0.251 C  
HETATM    2  O   UNL     1     -10.837   7.911  68.033  1.00  0.00    -0.103 OA 
ENDROOT
BRANCH   2   3
HETATM    3  C   UNL     1      -9.849   8.239  68.930  1.00  0.00    -0.180 A  
HETATM    4  C   UNL     1      -8.898   9.224  68.631  1.00  0.00    -0.132 A  
HETATM    5  C   UNL     1      -7.957   9.625  69.581  1.00  0.00    -0.137 A  
HETATM    6  C   UNL     1      -7.944   9.011  70.828  1.00  0.00    -0.172 A  
HETATM    7  C   UNL     1      -9.812   7.576  70.179  1.00  0.00    -0.180 A  
HETATM    8  C   UNL     1      -8.857   7.987  71.137  1.00  0.00    -0.140 A  
BRANCH   5   9
HETATM    9  C   UNL     1      -7.065  10.766  69.235  1.00  0.00    -0.116 C  
HETATM   10  N   UNL     1      -7.627  12.019  69.227  1.00  0.00    -0.331 N  
HETATM   11  O   UNL     1      -5.880  10.558  68.991  1.00  0.00    -0.041 OA 
HETATM   12  H   UNL     1      -8.620  12.135  69.430  1.00  0.00     0.000 HD 
BRANCH  10  13
HETATM   13  C   UNL     1      -6.808  13.173  68.931  1.00  0.00    -0.103 C  
BRANCH  13  14
HETATM   14  C   UNL     1      -7.552  14.147  68.063  1.00  0.00    -0.142 A  
HETATM   15  C   UNL     1      -8.821  13.812  67.594  1.00  0.00    -0.189 A  
HETATM   16  C   UNL     1      -9.510  14.668  66.742  1.00  0.00    -0.275 A  
HETATM   17  C   UNL     1      -8.946  15.881  66.326  1.00  0.00    -0.346 A  
HETATM   18  C   UNL     1      -7.683  16.232  66.805  1.00  0.00    -0.295 A  
HETATM   19  C   UNL     1      -6.984  15.371  67.664  1.00  0.00    -0.209 A  
BRANCH  17  20
HETATM   20  O   UNL     1      -9.547  16.766  65.457  1.00  0.00    -0.515 OA 
BRANCH  20  21
HETATM   21  C   UNL     1     -10.762  17.324  65.969  1.00  0.00    -0.110 C  
BRANCH  21  22
HETATM   22  C   UNL     1     -10.594  18.050  67.311  1.00  0.00    -0.346 C  
BRANCH  22  23
HETATM   23  N   UNL     1     -10.105  19.436  67.122  1.00  0.00    -0.357 NA 
HETATM   24  C   UNL     1      -8.695  19.591  67.492  1.00  0.00    -0.307 C  
HETATM   25  C   UNL     1     -10.301  19.872  65.740  1.00  0.00    -0.410 C  
ENDBRANCH  22  23
ENDBRANCH  21  22
ENDBRANCH  20  21
ENDBRANCH  17  20
ENDBRANCH  13  14
ENDBRANCH  10  13
ENDBRANCH   5   9
BRANCH   8  26
HETATM   26  O   UNL     1      -8.675   7.526  72.417  1.00  0.00    -0.116 OA 
HETATM   27  C   UNL     1      -9.492   8.022  73.466  1.00  0.00    -0.178 C  
ENDBRANCH   8  26
BRANCH   7  28
HETATM   28  O   UNL     1     -10.712   6.613  70.567  1.00  0.00    -0.226 OA 
HETATM   29  C   UNL     1     -10.430   5.252  70.273  1.00  0.00    -0.261 C  
ENDBRANCH   7  28
ENDBRANCH   2   3
TORSDOF 10
ENDMDL
MODEL      185
REMARK 921   NORMALIZED FREE ENERGY PREDICTED BY IDOCK:   -3.79 KCAL/MOL
REMARK 922        TOTAL FREE ENERGY PREDICTED BY IDOCK:   -6.87 KCAL/MOL
REMARK 923 INTER-LIGAND FREE ENERGY PREDICTED BY IDOCK:   -6.80 KCAL/MOL
REMARK 924 INTRA-LIGAND FREE ENERGY PREDICTED BY IDOCK:   -0.07 KCAL/MOL
REMARK 927      BINDING AFFINITY PREDICTED BY RF-SCORE:    0.00 PKD
ROOT
HETATM    1  C   UNL     1      -8.083   6.292  71.787  1.00  0.00    -0.103 C  
HETATM    2  O   UNL     1      -9.164   6.235  70.859  1.00  0.00    -0.156 OA 
ENDROOT
BRANCH   2   3
HETATM    3  C   UNL     1      -9.778   7.431  70.576  1.00  0.00    -0.175 A  
HETATM    4  C   UNL     1      -9.174   8.374  69.733  1.00  0.00    -0.157 A  
HETATM    5  C   UNL     1      -9.842   9.544  69.369  1.00  0.00    -0.194 A  
HETATM    6  C   UNL     1     -11.111   9.791  69.881  1.00  0.00    -0.293 A  
HETATM    7  C   UNL     1     -11.049   7.697  71.139  1.00  0.00    -0.251 A  
HETATM    8  C   UNL     1     -11.721   8.884  70.767  1.00  0.00    -0.230 A  
BRANCH   5   9
HETATM    9  C   UNL     1      -9.189  10.433  68.370  1.00  0.00    -0.147 C  
HETATM   10  N   UNL     1      -9.883  10.686  67.212  1.00  0.00    -0.172 N  
HETATM   11  O   UNL     1      -8.087  10.915  68.614  1.00  0.00    -0.127 OA 
HETATM   12  H   UNL     1     -10.793  10.253  67.056  1.00  0.00     0.000 HD 
BRANCH  10  13
HETATM   13  C   UNL     1      -9.319  11.568  66.214  1.00  0.00    -0.213 C  
BRANCH  13  14
HETATM   14  C   UNL     1      -9.716  12.993  66.474  1.00  0.00    -0.266 A  
HETATM   15  C   UNL     1      -8.747  13.905  66.887  1.00  0.00    -0.177 A  
HETATM   16  C   UNL     1      -9.095  15.217  67.191  1.00  0.00    -0.226 A  
HETATM   17  C   UNL     1     -10.422  15.652  67.099  1.00  0.00    -0.303 A  
HETATM   18  C   UNL     1     -11.396  14.749  66.669  1.00  0.00    -0.347 A  
HETATM   19  C   UNL     1     -11.050  13.425  66.362  1.00  0.00    -0.312 A  
BRANCH  17  20
HETATM   20  O   UNL     1     -10.853  16.923  67.416  1.00  0.00    -0.278 OA 
BRANCH  20  21
HETATM   21  C   UNL     1     -10.771  17.215  68.815  1.00  0.00    -0.289 C  
BRANCH  21  22
HETATM   22  C   UNL     1     -10.786  15.970  69.711  1.00  0.00    -0.337 C  
BRANCH  22  23
HETATM   23  N   UNL     1     -12.130  15.735  70.293  1.00  0.00    -0.368 NA 
HETATM   24  C   UNL     1     -12.539  14.330  70.213  1.00  0.00    -0.319 C  
HETATM   25  C   UNL     1     -12.178  16.183  71.683  1.00  0.00    -0.367 C  
ENDBRANCH  22  23
ENDBRANCH  21  22
ENDBRANCH  20  21
ENDBRANCH  17  20
ENDBRANCH  13  14
ENDBRANCH  10  13
ENDBRANCH   5   9
BRANCH   8  26
HETATM   26  O   UNL     1     -12.968   9.317  71.143  1.00  0.00    -0.291 OA 
HETATM   27  C   UNL     1     -13.092  10.324  72.135  1.00  0.00    -0.343 C  
ENDBRANCH   8  26
BRANCH   7  28
HETATM   28  O   UNL     1     -11.726   6.828  71.960  1.00  0.00    -0.281 OA 
HETATM   29  C   UNL     1     -13.120   6.641  71.761  1.00  0.00    -0.081 C  
ENDBRANCH   7  28
ENDBRANCH   2   3
TORSDOF 10
ENDMDL
MODEL      186
REMARK 921   NORMALIZED FREE ENERGY PREDICTED BY IDOCK:   -3.79 KCAL/MOL
REMARK 922        TOTAL FREE ENERGY PREDICTED BY IDOCK:   -6.86 KCAL/MOL
REMARK 923 INTER-LIGAND FREE ENERGY PREDICTED BY IDOCK:   -6.06 KCAL/MOL
REMARK 924 INTRA-LIGAND FREE ENERGY PREDICTED BY IDOCK:   -0.80 KCAL/MOL
REMARK 927      BINDING AFFINITY PREDICTED BY RF-SCORE:    0.00 PKD
ROOT
HETATM    1  C   UNL     1      -5.807   4.450  70.716  1.00  0.00    -0.013 C  
HETATM    2  O   UNL     1      -6.359   4.602  72.023  1.00  0.00    -0.020 OA 
ENDROOT
BRANCH   2   3
HETATM    3  C   UNL     1      -7.729   4.677  72.092  1.00  0.00    -0.091 A  
HETATM    4  C   UNL     1      -8.464   5.399  71.141  1.00  0.00    -0.125 A  
HETATM    5  C   UNL     1      -9.860   5.393  71.157  1.00  0.00    -0.243 A  
HETATM    6  C   UNL     1     -10.527   4.688  72.153  1.00  0.00    -0.219 A  
HETATM    7  C   UNL     1      -8.399   3.998  73.137  1.00  0.00    -0.089 A  
HETATM    8  C   UNL     1      -9.813   3.995  73.147  1.00  0.00    -0.129 A  
BRANCH   5   9
HETATM    9  C   UNL     1     -10.568   6.075  70.039  1.00  0.00    -0.274 C  
HETATM   10  N   UNL     1      -9.810   6.460  68.961  1.00  0.00    -0.137 N  
HETATM   11  O   UNL     1     -11.781   6.250  70.106  1.00  0.00    -0.398 OA 
HETATM   12  H   UNL     1      -8.803   6.297  68.960  1.00  0.00     0.000 HD 
BRANCH  10  13
HETATM   13  C   UNL     1     -10.441   7.098  67.828  1.00  0.00    -0.223 C  
BRANCH  13  14
HETATM   14  C   UNL     1     -10.266   8.589  67.888  1.00  0.00    -0.273 A  
HETATM   15  C   UNL     1     -10.047   9.200  69.121  1.00  0.00    -0.199 A  
HETATM   16  C   UNL     1      -9.939  10.584  69.215  1.00  0.00    -0.233 A  
HETATM   17  C   UNL     1     -10.054  11.396  68.080  1.00  0.00    -0.189 A  
HETATM   18  C   UNL     1     -10.257  10.790  66.840  1.00  0.00    -0.274 A  
HETATM   19  C   UNL     1     -10.367   9.396  66.740  1.00  0.00    -0.303 A  
BRANCH  17  20
HETATM   20  O   UNL     1      -9.995  12.774  68.095  1.00  0.00    -0.218 OA 
BRANCH  20  21
HETATM   21  C   UNL     1     -10.375  13.370  66.850  1.00  0.00    -0.257 C  
BRANCH  21  22
HETATM   22  C   UNL     1     -11.707  14.128  66.906  1.00  0.00    -0.414 C  
BRANCH  22  23
HETATM   23  N   UNL     1     -12.298  14.291  65.556  1.00  0.00    -0.420 NA 
HETATM   24  C   UNL     1     -11.484  15.145  64.685  1.00  0.00    -0.362 C  
HETATM   25  C   UNL     1     -12.501  12.992  64.918  1.00  0.00    -0.455 C  
ENDBRANCH  22  23
ENDBRANCH  21  22
ENDBRANCH  20  21
ENDBRANCH  17  20
ENDBRANCH  13  14
ENDBRANCH  10  13
ENDBRANCH   5   9
BRANCH   8  26
HETATM   26  O   UNL     1     -10.662   3.367  74.024  1.00  0.00    -0.187 OA 
HETATM   27  C   UNL     1     -11.319   2.172  73.631  1.00  0.00    -0.220 C  
ENDBRANCH   8  26
BRANCH   7  28
HETATM   28  O   UNL     1      -7.766   3.252  74.102  1.00  0.00    -0.062 OA 
HETATM   29  C   UNL     1      -7.502   1.881  73.846  1.00  0.00    -0.036 C  
ENDBRANCH   7  28
ENDBRANCH   2   3
TORSDOF 10
ENDMDL
MODEL      187
REMARK 921   NORMALIZED FREE ENERGY PREDICTED BY IDOCK:   -3.78 KCAL/MOL
REMARK 922        TOTAL FREE ENERGY PREDICTED BY IDOCK:   -6.85 KCAL/MOL
REMARK 923 INTER-LIGAND FREE ENERGY PREDICTED BY IDOCK:   -6.04 KCAL/MOL
REMARK 924 INTRA-LIGAND FREE ENERGY PREDICTED BY IDOCK:   -0.81 KCAL/MOL
REMARK 927      BINDING AFFINITY PREDICTED BY RF-SCORE:    0.00 PKD
ROOT
HETATM    1  C   UNL     1     -11.303  12.794  68.855  1.00  0.00    -0.296 C  
HETATM    2  O   UNL     1     -11.851  12.620  67.550  1.00  0.00    -0.366 OA 
ENDROOT
BRANCH   2   3
HETATM    3  C   UNL     1     -11.164  11.771  66.717  1.00  0.00    -0.328 A  
HETATM    4  C   UNL     1     -10.726  10.516  67.162  1.00  0.00    -0.323 A  
HETATM    5  C   UNL     1     -10.115   9.617  66.287  1.00  0.00    -0.322 A  
HETATM    6  C   UNL     1      -9.908   9.988  64.964  1.00  0.00    -0.374 A  
HETATM    7  C   UNL     1     -10.913  12.176  65.385  1.00  0.00    -0.302 A  
HETATM    8  C   UNL     1     -10.295  11.260  64.503  1.00  0.00    -0.322 A  
BRANCH   5   9
HETATM    9  C   UNL     1      -9.796   8.257  66.802  1.00  0.00    -0.263 C  
HETATM   10  N   UNL     1      -8.714   8.144  67.640  1.00  0.00    -0.129 N  
HETATM   11  O   UNL     1     -10.503   7.306  66.484  1.00  0.00    -0.175 OA 
HETATM   12  H   UNL     1      -8.155   8.967  67.866  1.00  0.00     0.000 HD 
BRANCH  10  13
HETATM   13  C   UNL     1      -8.370   6.858  68.202  1.00  0.00    -0.118 C  
BRANCH  13  14
HETATM   14  C   UNL     1      -8.748   6.789  69.654  1.00  0.00    -0.137 A  
HETATM   15  C   UNL     1      -8.559   7.909  70.460  1.00  0.00    -0.131 A  
HETATM   16  C   UNL     1      -8.845   7.858  71.821  1.00  0.00    -0.163 A  
HETATM   17  C   UNL     1      -9.321   6.683  72.415  1.00  0.00    -0.141 A  
HETATM   18  C   UNL     1      -9.529   5.562  71.610  1.00  0.00    -0.176 A  
HETATM   19  C   UNL     1      -9.241   5.609  70.238  1.00  0.00    -0.178 A  
BRANCH  17  20
HETATM   20  O   UNL     1      -9.594   6.541  73.759  1.00  0.00    -0.158 OA 
BRANCH  20  21
HETATM   21  C   UNL     1      -8.764   5.568  74.404  1.00  0.00    -0.117 C  
BRANCH  21  22
HETATM   22  C   UNL     1      -7.282   5.960  74.468  1.00  0.00    -0.087 C  
BRANCH  22  23
HETATM   23  N   UNL     1      -6.400   4.793  74.231  1.00  0.00    -0.055 NA 
HETATM   24  C   UNL     1      -7.092   3.695  73.550  1.00  0.00    -0.051 C  
HETATM   25  C   UNL     1      -5.220   5.183  73.461  1.00  0.00    -0.013 C  
ENDBRANCH  22  23
ENDBRANCH  21  22
ENDBRANCH  20  21
ENDBRANCH  17  20
ENDBRANCH  13  14
ENDBRANCH  10  13
ENDBRANCH   5   9
BRANCH   8  26
HETATM   26  O   UNL     1     -10.005  11.416  63.170  1.00  0.00    -0.353 OA 
HETATM   27  C   UNL     1      -9.150  10.486  62.523  1.00  0.00    -0.292 C  
ENDBRANCH   8  26
BRANCH   7  28
HETATM   28  O   UNL     1     -11.319  13.376  64.854  1.00  0.00    -0.311 OA 
HETATM   29  C   UNL     1     -10.740  14.576  65.346  1.00  0.00    -0.361 C  
ENDBRANCH   7  28
ENDBRANCH   2   3
TORSDOF 10
ENDMDL
MODEL      188
REMARK 921   NORMALIZED FREE ENERGY PREDICTED BY IDOCK:   -3.77 KCAL/MOL
REMARK 922        TOTAL FREE ENERGY PREDICTED BY IDOCK:   -6.84 KCAL/MOL
REMARK 923 INTER-LIGAND FREE ENERGY PREDICTED BY IDOCK:   -6.24 KCAL/MOL
REMARK 924 INTRA-LIGAND FREE ENERGY PREDICTED BY IDOCK:   -0.60 KCAL/MOL
REMARK 927      BINDING AFFINITY PREDICTED BY RF-SCORE:    0.00 PKD
ROOT
HETATM    1  C   UNL     1      -6.184  13.784  69.889  1.00  0.00    -0.129 C  
HETATM    2  O   UNL     1      -6.635  15.127  69.717  1.00  0.00    -0.155 OA 
ENDROOT
BRANCH   2   3
HETATM    3  C   UNL     1      -7.309  15.390  68.550  1.00  0.00    -0.116 A  
HETATM    4  C   UNL     1      -8.184  14.448  67.990  1.00  0.00    -0.149 A  
HETATM    5  C   UNL     1      -8.942  14.755  66.860  1.00  0.00    -0.276 A  
HETATM    6  C   UNL     1      -8.799  16.002  66.261  1.00  0.00    -0.379 A  
HETATM    7  C   UNL     1      -7.122  16.643  67.919  1.00  0.00    -0.140 A  
HETATM    8  C   UNL     1      -7.893  16.948  66.775  1.00  0.00    -0.244 A  
BRANCH   5   9
HETATM    9  C   UNL     1      -9.942  13.752  66.402  1.00  0.00    -0.297 C  
HETATM   10  N   UNL     1      -9.522  12.828  65.477  1.00  0.00    -0.462 N  
HETATM   11  O   UNL     1     -11.077  13.770  66.868  1.00  0.00    -0.294 OA 
HETATM   12  H   UNL     1      -8.568  12.863  65.117  1.00  0.00     0.000 HD 
BRANCH  10  13
HETATM   13  C   UNL     1     -10.434  11.806  65.015  1.00  0.00    -0.285 C  
BRANCH  13  14
HETATM   14  C   UNL     1     -10.033  10.456  65.537  1.00  0.00    -0.348 A  
HETATM   15  C   UNL     1      -9.004   9.760  64.906  1.00  0.00    -0.257 A  
HETATM   16  C   UNL     1      -8.649   8.483  65.330  1.00  0.00    -0.192 A  
HETATM   17  C   UNL     1      -9.318   7.863  66.392  1.00  0.00    -0.189 A  
HETATM   18  C   UNL     1     -10.338   8.561  67.041  1.00  0.00    -0.379 A  
HETATM   19  C   UNL     1     -10.700   9.848  66.616  1.00  0.00    -0.116 A  
BRANCH  17  20
HETATM   20  O   UNL     1      -9.051   6.590  66.849  1.00  0.00    -0.129 OA 
BRANCH  20  21
HETATM   21  C   UNL     1      -8.301   5.802  65.917  1.00  0.00    -0.130 C  
BRANCH  21  22
HETATM   22  C   UNL     1      -8.783   4.349  65.804  1.00  0.00    -0.120 C  
BRANCH  22  23
HETATM   23  N   UNL     1      -9.362   4.071  64.468  1.00  0.00    -0.152 NA 
HETATM   24  C   UNL     1      -9.039   2.726  63.985  1.00  0.00    -0.107 C  
HETATM   25  C   UNL     1     -10.812   4.253  64.484  1.00  0.00    -0.043 C  
ENDBRANCH  22  23
ENDBRANCH  21  22
ENDBRANCH  20  21
ENDBRANCH  17  20
ENDBRANCH  13  14
ENDBRANCH  10  13
ENDBRANCH   5   9
BRANCH   8  26
HETATM   26  O   UNL     1      -7.915  18.108  66.040  1.00  0.00    -0.468 OA 
HETATM   27  C   UNL     1      -6.709  18.611  65.485  1.00  0.00    -0.249 C  
ENDBRANCH   8  26
BRANCH   7  28
HETATM   28  O   UNL     1      -6.302  17.634  68.402  1.00  0.00    -0.177 OA 
HETATM   29  C   UNL     1      -6.878  18.707  69.131  1.00  0.00    -0.261 C  
ENDBRANCH   7  28
ENDBRANCH   2   3
TORSDOF 10
ENDMDL
MODEL      189
REMARK 921   NORMALIZED FREE ENERGY PREDICTED BY IDOCK:   -3.76 KCAL/MOL
REMARK 922        TOTAL FREE ENERGY PREDICTED BY IDOCK:   -6.83 KCAL/MOL
REMARK 923 INTER-LIGAND FREE ENERGY PREDICTED BY IDOCK:   -5.65 KCAL/MOL
REMARK 924 INTRA-LIGAND FREE ENERGY PREDICTED BY IDOCK:   -1.17 KCAL/MOL
REMARK 927      BINDING AFFINITY PREDICTED BY RF-SCORE:    0.00 PKD
ROOT
HETATM    1  C   UNL     1     -12.658  11.752  63.318  1.00  0.00    -0.254 C  
HETATM    2  O   UNL     1     -11.330  12.272  63.307  1.00  0.00    -0.419 OA 
ENDROOT
BRANCH   2   3
HETATM    3  C   UNL     1     -10.557  11.972  64.402  1.00  0.00    -0.318 A  
HETATM    4  C   UNL     1      -9.874  10.751  64.494  1.00  0.00    -0.369 A  
HETATM    5  C   UNL     1      -9.012  10.489  65.560  1.00  0.00    -0.203 A  
HETATM    6  C   UNL     1      -8.858  11.442  66.562  1.00  0.00    -0.187 A  
HETATM    7  C   UNL     1     -10.443  12.926  65.441  1.00  0.00    -0.292 A  
HETATM    8  C   UNL     1      -9.568  12.655  66.518  1.00  0.00    -0.248 A  
BRANCH   5   9
HETATM    9  C   UNL     1      -8.225   9.227  65.521  1.00  0.00    -0.124 C  
HETATM   10  N   UNL     1      -8.726   8.201  64.757  1.00  0.00    -0.396 N  
HETATM   11  O   UNL     1      -7.170   9.149  66.143  1.00  0.00    -0.088 OA 
HETATM   12  H   UNL     1      -9.613   8.316  64.267  1.00  0.00     0.000 HD 
BRANCH  10  13
HETATM   13  C   UNL     1      -7.994   6.959  64.650  1.00  0.00    -0.112 C  
BRANCH  13  14
HETATM   14  C   UNL     1      -8.373   6.018  65.758  1.00  0.00    -0.142 A  
HETATM   15  C   UNL     1      -9.706   5.938  66.157  1.00  0.00    -0.084 A  
HETATM   16  C   UNL     1     -10.079   5.119  67.218  1.00  0.00    -0.235 A  
HETATM   17  C   UNL     1      -9.129   4.363  67.915  1.00  0.00    -0.127 A  
HETATM   18  C   UNL     1      -7.795   4.424  67.510  1.00  0.00    -0.085 A  
HETATM   19  C   UNL     1      -7.415   5.249  66.441  1.00  0.00    -0.087 A  
BRANCH  17  20
HETATM   20  O   UNL     1      -9.412   3.556  68.997  1.00  0.00    -0.164 OA 
BRANCH  20  21
HETATM   21  C   UNL     1     -10.031   4.260  70.080  1.00  0.00    -0.126 C  
BRANCH  21  22
HETATM   22  C   UNL     1      -9.133   4.415  71.314  1.00  0.00    -0.127 C  
BRANCH  22  23
HETATM   23  N   UNL     1      -8.660   5.811  71.472  1.00  0.00    -0.131 NA 
HETATM   24  C   UNL     1      -7.297   6.004  70.968  1.00  0.00    -0.080 C  
HETATM   25  C   UNL     1      -9.567   6.744  70.805  1.00  0.00    -0.168 C  
ENDBRANCH  22  23
ENDBRANCH  21  22
ENDBRANCH  20  21
ENDBRANCH  17  20
ENDBRANCH  13  14
ENDBRANCH  10  13
ENDBRANCH   5   9
BRANCH   8  26
HETATM   26  O   UNL     1      -9.265  13.449  67.597  1.00  0.00    -0.194 OA 
HETATM   27  C   UNL     1     -10.165  13.520  68.691  1.00  0.00    -0.189 C  
ENDBRANCH   8  26
BRANCH   7  28
HETATM   28  O   UNL     1     -11.059  14.154  65.430  1.00  0.00    -0.302 OA 
HETATM   29  C   UNL     1     -12.382  14.264  65.933  1.00  0.00    -0.403 C  
ENDBRANCH   7  28
ENDBRANCH   2   3
TORSDOF 10
ENDMDL
MODEL      190
REMARK 921   NORMALIZED FREE ENERGY PREDICTED BY IDOCK:   -3.75 KCAL/MOL
REMARK 922        TOTAL FREE ENERGY PREDICTED BY IDOCK:   -6.81 KCAL/MOL
REMARK 923 INTER-LIGAND FREE ENERGY PREDICTED BY IDOCK:   -5.71 KCAL/MOL
REMARK 924 INTRA-LIGAND FREE ENERGY PREDICTED BY IDOCK:   -1.09 KCAL/MOL
REMARK 927      BINDING AFFINITY PREDICTED BY RF-SCORE:    0.00 PKD
ROOT
HETATM    1  C   UNL     1     -11.940  11.623  69.429  1.00  0.00    -0.316 C  
HETATM    2  O   UNL     1     -12.157  11.953  68.058  1.00  0.00    -0.541 OA 
ENDROOT
BRANCH   2   3
HETATM    3  C   UNL     1     -11.200  11.517  67.175  1.00  0.00    -0.301 A  
HETATM    4  C   UNL     1     -10.058  10.837  67.622  1.00  0.00    -0.205 A  
HETATM    5  C   UNL     1      -9.137  10.309  66.716  1.00  0.00    -0.161 A  
HETATM    6  C   UNL     1      -9.338  10.494  65.353  1.00  0.00    -0.255 A  
HETATM    7  C   UNL     1     -11.387  11.751  65.792  1.00  0.00    -0.250 A  
HETATM    8  C   UNL     1     -10.451  11.214  64.880  1.00  0.00    -0.308 A  
BRANCH   5   9
HETATM    9  C   UNL     1      -8.020   9.489  67.262  1.00  0.00    -0.106 C  
HETATM   10  N   UNL     1      -8.026   9.246  68.613  1.00  0.00    -0.099 N  
HETATM   11  O   UNL     1      -7.161   9.051  66.503  1.00  0.00    -0.083 OA 
HETATM   12  H   UNL     1      -8.761   9.642  69.201  1.00  0.00     0.000 HD 
BRANCH  10  13
HETATM   13  C   UNL     1      -6.988   8.430  69.202  1.00  0.00    -0.059 C  
BRANCH  13  14
HETATM   14  C   UNL     1      -7.299   6.970  69.037  1.00  0.00    -0.093 A  
HETATM   15  C   UNL     1      -8.522   6.478  69.488  1.00  0.00    -0.131 A  
HETATM   16  C   UNL     1      -8.815   5.121  69.402  1.00  0.00    -0.119 A  
HETATM   17  C   UNL     1      -7.889   4.215  68.869  1.00  0.00    -0.061 A  
HETATM   18  C   UNL     1      -6.669   4.702  68.400  1.00  0.00    -0.050 A  
HETATM   19  C   UNL     1      -6.369   6.070  68.486  1.00  0.00    -0.040 A  
BRANCH  17  20
HETATM   20  O   UNL     1      -8.089   2.854  68.782  1.00  0.00    -0.056 OA 
BRANCH  20  21
HETATM   21  C   UNL     1      -9.258   2.500  68.034  1.00  0.00    -0.206 C  
BRANCH  21  22
HETATM   22  C   UNL     1      -8.968   2.103  66.581  1.00  0.00    -0.108 C  
BRANCH  22  23
HETATM   23  N   UNL     1      -8.827   3.293  65.709  1.00  0.00    -0.130 NA 
HETATM   24  C   UNL     1      -8.580   2.939  64.308  1.00  0.00    -0.094 C  
HETATM   25  C   UNL     1     -10.012   4.145  65.798  1.00  0.00    -0.190 C  
ENDBRANCH  22  23
ENDBRANCH  21  22
ENDBRANCH  20  21
ENDBRANCH  17  20
ENDBRANCH  13  14
ENDBRANCH  10  13
ENDBRANCH   5   9
BRANCH   8  26
HETATM   26  O   UNL     1     -10.460  11.271  63.508  1.00  0.00    -0.361 OA 
HETATM   27  C   UNL     1      -9.347  10.781  62.777  1.00  0.00    -0.330 C  
ENDBRANCH   8  26
BRANCH   7  28
HETATM   28  O   UNL     1     -12.481  12.391  65.260  1.00  0.00    -0.611 OA 
HETATM   29  C   UNL     1     -12.456  13.805  65.136  1.00  0.00    -0.450 C  
ENDBRANCH   7  28
ENDBRANCH   2   3
TORSDOF 10
ENDMDL
MODEL      191
REMARK 921   NORMALIZED FREE ENERGY PREDICTED BY IDOCK:   -3.73 KCAL/MOL
REMARK 922        TOTAL FREE ENERGY PREDICTED BY IDOCK:   -6.77 KCAL/MOL
REMARK 923 INTER-LIGAND FREE ENERGY PREDICTED BY IDOCK:   -5.74 KCAL/MOL
REMARK 924 INTRA-LIGAND FREE ENERGY PREDICTED BY IDOCK:   -1.04 KCAL/MOL
REMARK 927      BINDING AFFINITY PREDICTED BY RF-SCORE:    0.00 PKD
ROOT
HETATM    1  C   UNL     1     -11.711  12.476  68.147  1.00  0.00    -0.348 C  
HETATM    2  O   UNL     1     -11.862  12.264  66.744  1.00  0.00    -0.533 OA 
ENDROOT
BRANCH   2   3
HETATM    3  C   UNL     1     -10.798  11.671  66.107  1.00  0.00    -0.294 A  
HETATM    4  C   UNL     1      -9.668  11.253  66.822  1.00  0.00    -0.218 A  
HETATM    5  C   UNL     1      -8.633  10.563  66.189  1.00  0.00    -0.155 A  
HETATM    6  C   UNL     1      -8.712  10.320  64.822  1.00  0.00    -0.201 A  
HETATM    7  C   UNL     1     -10.865  11.471  64.708  1.00  0.00    -0.297 A  
HETATM    8  C   UNL     1      -9.814  10.771  64.073  1.00  0.00    -0.332 A  
BRANCH   5   9
HETATM    9  C   UNL     1      -7.528  10.039  67.038  1.00  0.00    -0.092 C  
HETATM   10  N   UNL     1      -7.352  10.626  68.267  1.00  0.00    -0.086 N  
HETATM   11  O   UNL     1      -6.837   9.110  66.631  1.00  0.00    -0.078 OA 
HETATM   12  H   UNL     1      -7.950  11.401  68.554  1.00  0.00     0.000 HD 
BRANCH  10  13
HETATM   13  C   UNL     1      -6.318  10.142  69.154  1.00  0.00    -0.044 C  
BRANCH  13  14
HETATM   14  C   UNL     1      -6.882   9.175  70.156  1.00  0.00    -0.053 A  
HETATM   15  C   UNL     1      -8.181   9.360  70.625  1.00  0.00    -0.207 A  
HETATM   16  C   UNL     1      -8.710   8.516  71.595  1.00  0.00    -0.262 A  
HETATM   17  C   UNL     1      -7.953   7.467  72.130  1.00  0.00    -0.093 A  
HETATM   18  C   UNL     1      -6.657   7.264  71.653  1.00  0.00    -0.047 A  
HETATM   19  C   UNL     1      -6.119   8.114  70.676  1.00  0.00    -0.032 A  
BRANCH  17  20
HETATM   20  O   UNL     1      -8.391   6.610  73.117  1.00  0.00    -0.116 OA 
BRANCH  20  21
HETATM   21  C   UNL     1      -9.423   5.720  72.677  1.00  0.00    -0.149 C  
BRANCH  21  22
HETATM   22  C   UNL     1      -8.900   4.461  71.975  1.00  0.00    -0.117 C  
BRANCH  22  23
HETATM   23  N   UNL     1      -9.226   4.469  70.529  1.00  0.00    -0.114 NA 
HETATM   24  C   UNL     1      -9.454   3.123  69.995  1.00  0.00    -0.148 C  
HETATM   25  C   UNL     1     -10.394   5.307  70.265  1.00  0.00    -0.280 C  
ENDBRANCH  22  23
ENDBRANCH  21  22
ENDBRANCH  20  21
ENDBRANCH  17  20
ENDBRANCH  13  14
ENDBRANCH  10  13
ENDBRANCH   5   9
BRANCH   8  26
HETATM   26  O   UNL     1      -9.694  10.420  62.750  1.00  0.00    -0.312 OA 
HETATM   27  C   UNL     1      -8.887   9.311  62.389  1.00  0.00    -0.233 C  
ENDBRANCH   8  26
BRANCH   7  28
HETATM   28  O   UNL     1     -11.938  11.829  63.928  1.00  0.00    -0.384 OA 
HETATM   29  C   UNL     1     -12.153  13.205  63.648  1.00  0.00    -0.513 C  
ENDBRANCH   7  28
ENDBRANCH   2   3
TORSDOF 10
ENDMDL
MODEL      192
REMARK 921   NORMALIZED FREE ENERGY PREDICTED BY IDOCK:   -3.72 KCAL/MOL
REMARK 922        TOTAL FREE ENERGY PREDICTED BY IDOCK:   -6.76 KCAL/MOL
REMARK 923 INTER-LIGAND FREE ENERGY PREDICTED BY IDOCK:   -5.53 KCAL/MOL
REMARK 924 INTRA-LIGAND FREE ENERGY PREDICTED BY IDOCK:   -1.23 KCAL/MOL
REMARK 927      BINDING AFFINITY PREDICTED BY RF-SCORE:    0.00 PKD
ROOT
HETATM    1  C   UNL     1      -9.886   7.986  66.651  1.00  0.00    -0.252 C  
HETATM    2  O   UNL     1     -10.031   7.993  68.070  1.00  0.00    -0.165 OA 
ENDROOT
BRANCH   2   3
HETATM    3  C   UNL     1      -8.995   8.554  68.778  1.00  0.00    -0.139 A  
HETATM    4  C   UNL     1      -8.414   9.764  68.374  1.00  0.00    -0.114 A  
HETATM    5  C   UNL     1      -7.430  10.381  69.148  1.00  0.00    -0.112 A  
HETATM    6  C   UNL     1      -6.997   9.765  70.317  1.00  0.00    -0.135 A  
HETATM    7  C   UNL     1      -8.527   7.897  69.939  1.00  0.00    -0.127 A  
HETATM    8  C   UNL     1      -7.530   8.527  70.719  1.00  0.00    -0.072 A  
BRANCH   5   9
HETATM    9  C   UNL     1      -6.955  11.726  68.721  1.00  0.00    -0.103 C  
HETATM   10  N   UNL     1      -7.286  12.789  69.525  1.00  0.00    -0.302 N  
HETATM   11  O   UNL     1      -6.283  11.837  67.701  1.00  0.00    -0.061 OA 
HETATM   12  H   UNL     1      -7.854  12.642  70.360  1.00  0.00     0.000 HD 
BRANCH  10  13
HETATM   13  C   UNL     1      -6.828  14.118  69.186  1.00  0.00    -0.113 C  
BRANCH  13  14
HETATM   14  C   UNL     1      -7.840  14.831  68.336  1.00  0.00    -0.128 A  
HETATM   15  C   UNL     1      -9.116  15.063  68.846  1.00  0.00    -0.202 A  
HETATM   16  C   UNL     1     -10.092  15.670  68.063  1.00  0.00    -0.224 A  
HETATM   17  C   UNL     1      -9.823  16.054  66.743  1.00  0.00    -0.250 A  
HETATM   18  C   UNL     1      -8.542  15.841  66.231  1.00  0.00    -0.307 A  
HETATM   19  C   UNL     1      -7.556  15.229  67.017  1.00  0.00    -0.161 A  
BRANCH  17  20
HETATM   20  O   UNL     1     -10.744  16.627  65.892  1.00  0.00    -0.278 OA 
BRANCH  20  21
HETATM   21  C   UNL     1     -10.926  15.890  64.678  1.00  0.00    -0.305 C  
BRANCH  21  22
HETATM   22  C   UNL     1     -11.593  14.523  64.875  1.00  0.00    -0.401 C  
BRANCH  22  23
HETATM   23  N   UNL     1     -10.732  13.422  64.381  1.00  0.00    -0.414 NA 
HETATM   24  C   UNL     1     -10.134  12.643  65.469  1.00  0.00    -0.265 C  
HETATM   25  C   UNL     1     -11.484  12.533  63.497  1.00  0.00    -0.496 C  
ENDBRANCH  22  23
ENDBRANCH  21  22
ENDBRANCH  20  21
ENDBRANCH  17  20
ENDBRANCH  13  14
ENDBRANCH  10  13
ENDBRANCH   5   9
BRANCH   8  26
HETATM   26  O   UNL     1      -6.969   8.104  71.899  1.00  0.00    -0.066 OA 
HETATM   27  C   UNL     1      -7.553   8.490  73.133  1.00  0.00     0.020 C  
ENDBRANCH   8  26
BRANCH   7  28
HETATM   28  O   UNL     1      -9.045   6.720  70.422  1.00  0.00    -0.152 OA 
HETATM   29  C   UNL     1     -10.181   6.768  71.273  1.00  0.00    -0.202 C  
ENDBRANCH   7  28
ENDBRANCH   2   3
TORSDOF 10
ENDMDL
MODEL      193
REMARK 921   NORMALIZED FREE ENERGY PREDICTED BY IDOCK:   -3.72 KCAL/MOL
REMARK 922        TOTAL FREE ENERGY PREDICTED BY IDOCK:   -6.75 KCAL/MOL
REMARK 923 INTER-LIGAND FREE ENERGY PREDICTED BY IDOCK:   -5.84 KCAL/MOL
REMARK 924 INTRA-LIGAND FREE ENERGY PREDICTED BY IDOCK:   -0.91 KCAL/MOL
REMARK 927      BINDING AFFINITY PREDICTED BY RF-SCORE:    0.00 PKD
ROOT
HETATM    1  C   UNL     1     -11.158  14.574  64.598  1.00  0.00    -0.346 C  
HETATM    2  O   UNL     1     -10.958  15.963  64.856  1.00  0.00    -0.443 OA 
ENDROOT
BRANCH   2   3
HETATM    3  C   UNL     1      -9.975  16.270  65.765  1.00  0.00    -0.323 A  
HETATM    4  C   UNL     1      -9.304  15.264  66.474  1.00  0.00    -0.309 A  
HETATM    5  C   UNL     1      -8.240  15.572  67.323  1.00  0.00    -0.224 A  
HETATM    6  C   UNL     1      -7.866  16.901  67.493  1.00  0.00    -0.186 A  
HETATM    7  C   UNL     1      -9.633  17.628  65.969  1.00  0.00    -0.103 A  
HETATM    8  C   UNL     1      -8.554  17.934  66.830  1.00  0.00    -0.254 A  
BRANCH   5   9
HETATM    9  C   UNL     1      -7.495  14.441  67.939  1.00  0.00    -0.152 C  
HETATM   10  N   UNL     1      -7.329  13.312  67.175  1.00  0.00    -0.364 N  
HETATM   11  O   UNL     1      -7.047  14.556  69.076  1.00  0.00    -0.111 OA 
HETATM   12  H   UNL     1      -7.729  13.266  66.237  1.00  0.00     0.000 HD 
BRANCH  10  13
HETATM   13  C   UNL     1      -6.587  12.189  67.702  1.00  0.00    -0.116 C  
BRANCH  13  14
HETATM   14  C   UNL     1      -7.503  11.216  68.388  1.00  0.00    -0.102 A  
HETATM   15  C   UNL     1      -8.698  10.853  67.768  1.00  0.00    -0.129 A  
HETATM   16  C   UNL     1      -9.594  10.000  68.404  1.00  0.00    -0.153 A  
HETATM   17  C   UNL     1      -9.325   9.492  69.680  1.00  0.00    -0.200 A  
HETATM   18  C   UNL     1      -8.123   9.837  70.300  1.00  0.00    -0.181 A  
HETATM   19  C   UNL     1      -7.217  10.698  69.663  1.00  0.00    -0.139 A  
BRANCH  17  20
HETATM   20  O   UNL     1     -10.176   8.672  70.391  1.00  0.00    -0.185 OA 
BRANCH  20  21
HETATM   21  C   UNL     1      -9.746   7.306  70.425  1.00  0.00    -0.172 C  
BRANCH  21  22
HETATM   22  C   UNL     1     -10.871   6.295  70.168  1.00  0.00    -0.313 C  
BRANCH  22  23
HETATM   23  N   UNL     1     -10.696   5.606  68.867  1.00  0.00    -0.239 NA 
HETATM   24  C   UNL     1     -11.272   6.360  67.750  1.00  0.00    -0.152 C  
HETATM   25  C   UNL     1      -9.282   5.342  68.606  1.00  0.00    -0.117 C  
ENDBRANCH  22  23
ENDBRANCH  21  22
ENDBRANCH  20  21
ENDBRANCH  17  20
ENDBRANCH  13  14
ENDBRANCH  10  13
ENDBRANCH   5   9
BRANCH   8  26
HETATM   26  O   UNL     1      -8.020  19.162  67.132  1.00  0.00    -0.254 OA 
HETATM   27  C   UNL     1      -6.741  19.515  66.630  1.00  0.00    -0.189 C  
ENDBRANCH   8  26
BRANCH   7  28
HETATM   28  O   UNL     1     -10.221  18.679  65.308  1.00  0.00    -0.208 OA 
HETATM   29  C   UNL     1     -11.032  19.584  66.042  1.00  0.00    -0.178 C  
ENDBRANCH   7  28
ENDBRANCH   2   3
TORSDOF 10
ENDMDL
MODEL      194
REMARK 921   NORMALIZED FREE ENERGY PREDICTED BY IDOCK:   -3.68 KCAL/MOL
REMARK 922        TOTAL FREE ENERGY PREDICTED BY IDOCK:   -6.70 KCAL/MOL
REMARK 923 INTER-LIGAND FREE ENERGY PREDICTED BY IDOCK:   -5.88 KCAL/MOL
REMARK 924 INTRA-LIGAND FREE ENERGY PREDICTED BY IDOCK:   -0.82 KCAL/MOL
REMARK 927      BINDING AFFINITY PREDICTED BY RF-SCORE:    0.00 PKD
ROOT
HETATM    1  C   UNL     1      -6.438  19.939  67.018  1.00  0.00    -0.192 C  
HETATM    2  O   UNL     1      -7.365  19.165  67.778  1.00  0.00    -0.242 OA 
ENDROOT
BRANCH   2   3
HETATM    3  C   UNL     1      -7.671  17.925  67.271  1.00  0.00    -0.204 A  
HETATM    4  C   UNL     1      -6.919  16.795  67.620  1.00  0.00    -0.156 A  
HETATM    5  C   UNL     1      -7.290  15.523  67.183  1.00  0.00    -0.226 A  
HETATM    6  C   UNL     1      -8.402  15.383  66.360  1.00  0.00    -0.080 A  
HETATM    7  C   UNL     1      -8.775  17.798  66.395  1.00  0.00    -0.228 A  
HETATM    8  C   UNL     1      -9.146  16.506  65.956  1.00  0.00    -0.255 A  
BRANCH   5   9
HETATM    9  C   UNL     1      -6.519  14.359  67.701  1.00  0.00    -0.131 C  
HETATM   10  N   UNL     1      -6.870  13.118  67.230  1.00  0.00    -0.329 N  
HETATM   11  O   UNL     1      -5.605  14.543  68.498  1.00  0.00    -0.086 OA 
HETATM   12  H   UNL     1      -7.644  13.021  66.572  1.00  0.00     0.000 HD 
BRANCH  10  13
HETATM   13  C   UNL     1      -6.140  11.949  67.667  1.00  0.00    -0.084 C  
BRANCH  13  14
HETATM   14  C   UNL     1      -6.999  11.076  68.536  1.00  0.00    -0.070 A  
HETATM   15  C   UNL     1      -6.426   9.979  69.178  1.00  0.00    -0.048 A  
HETATM   16  C   UNL     1      -7.207   9.119  69.942  1.00  0.00    -0.062 A  
HETATM   17  C   UNL     1      -8.585   9.326  70.081  1.00  0.00    -0.198 A  
HETATM   18  C   UNL     1      -9.163  10.432  69.456  1.00  0.00    -0.143 A  
HETATM   19  C   UNL     1      -8.379  11.301  68.683  1.00  0.00    -0.146 A  
BRANCH  17  20
HETATM   20  O   UNL     1      -9.432   8.502  70.790  1.00  0.00    -0.162 OA 
BRANCH  20  21
HETATM   21  C   UNL     1      -8.874   7.210  71.055  1.00  0.00    -0.145 C  
BRANCH  21  22
HETATM   22  C   UNL     1      -9.905   6.168  71.508  1.00  0.00    -0.167 C  
BRANCH  22  23
HETATM   23  N   UNL     1     -10.205   5.195  70.431  1.00  0.00    -0.259 NA 
HETATM   24  C   UNL     1     -10.669   5.843  69.200  1.00  0.00    -0.324 C  
HETATM   25  C   UNL     1      -9.036   4.367  70.139  1.00  0.00    -0.088 C  
ENDBRANCH  22  23
ENDBRANCH  21  22
ENDBRANCH  20  21
ENDBRANCH  17  20
ENDBRANCH  13  14
ENDBRANCH  10  13
ENDBRANCH   5   9
BRANCH   8  26
HETATM   26  O   UNL     1     -10.201  16.144  65.155  1.00  0.00    -0.542 OA 
HETATM   27  C   UNL     1     -10.497  14.769  64.963  1.00  0.00    -0.416 C  
ENDBRANCH   8  26
BRANCH   7  28
HETATM   28  O   UNL     1      -9.580  18.843  66.012  1.00  0.00    -0.468 OA 
HETATM   29  C   UNL     1     -10.677  19.203  66.839  1.00  0.00    -0.424 C  
ENDBRANCH   7  28
ENDBRANCH   2   3
TORSDOF 10
ENDMDL
MODEL      195
REMARK 921   NORMALIZED FREE ENERGY PREDICTED BY IDOCK:   -3.68 KCAL/MOL
REMARK 922        TOTAL FREE ENERGY PREDICTED BY IDOCK:   -6.70 KCAL/MOL
REMARK 923 INTER-LIGAND FREE ENERGY PREDICTED BY IDOCK:   -5.95 KCAL/MOL
REMARK 924 INTRA-LIGAND FREE ENERGY PREDICTED BY IDOCK:   -0.74 KCAL/MOL
REMARK 927      BINDING AFFINITY PREDICTED BY RF-SCORE:    0.00 PKD
ROOT
HETATM    1  C   UNL     1     -12.636  14.083  65.194  1.00  0.00    -0.428 C  
HETATM    2  O   UNL     1     -11.649  15.061  64.870  1.00  0.00    -0.386 OA 
ENDROOT
BRANCH   2   3
HETATM    3  C   UNL     1     -10.534  15.079  65.672  1.00  0.00    -0.350 A  
HETATM    4  C   UNL     1     -10.014  13.896  66.215  1.00  0.00    -0.315 A  
HETATM    5  C   UNL     1      -8.825  13.904  66.947  1.00  0.00    -0.210 A  
HETATM    6  C   UNL     1      -8.169  15.109  67.168  1.00  0.00    -0.251 A  
HETATM    7  C   UNL     1      -9.899  16.316  65.933  1.00  0.00    -0.334 A  
HETATM    8  C   UNL     1      -8.695  16.317  66.674  1.00  0.00    -0.259 A  
BRANCH   5   9
HETATM    9  C   UNL     1      -8.270  12.593  67.381  1.00  0.00    -0.184 C  
HETATM   10  N   UNL     1      -7.271  12.051  66.609  1.00  0.00    -0.381 N  
HETATM   11  O   UNL     1      -8.698  12.058  68.399  1.00  0.00    -0.173 OA 
HETATM   12  H   UNL     1      -6.957  12.534  65.767  1.00  0.00     0.000 HD 
BRANCH  10  13
HETATM   13  C   UNL     1      -6.665  10.796  66.992  1.00  0.00    -0.090 C  
BRANCH  13  14
HETATM   14  C   UNL     1      -6.808   9.777  65.899  1.00  0.00    -0.096 A  
HETATM   15  C   UNL     1      -6.027   8.623  65.936  1.00  0.00    -0.048 A  
HETATM   16  C   UNL     1      -6.095   7.689  64.908  1.00  0.00    -0.038 A  
HETATM   17  C   UNL     1      -6.941   7.885  63.809  1.00  0.00    -0.071 A  
HETATM   18  C   UNL     1      -7.739   9.029  63.773  1.00  0.00    -0.125 A  
HETATM   19  C   UNL     1      -7.672   9.974  64.807  1.00  0.00    -0.142 A  
BRANCH  17  20
HETATM   20  O   UNL     1      -7.040   7.026  62.735  1.00  0.00    -0.054 OA 
BRANCH  20  21
HETATM   21  C   UNL     1      -8.218   6.213  62.768  1.00  0.00    -0.049 C  
BRANCH  21  22
HETATM   22  C   UNL     1      -8.001   4.829  63.391  1.00  0.00    -0.087 C  
BRANCH  22  23
HETATM   23  N   UNL     1      -9.063   4.502  64.373  1.00  0.00    -0.152 NA 
HETATM   24  C   UNL     1      -9.246   3.057  64.543  1.00  0.00    -0.140 C  
HETATM   25  C   UNL     1      -8.779   5.117  65.668  1.00  0.00    -0.143 C  
ENDBRANCH  22  23
ENDBRANCH  21  22
ENDBRANCH  20  21
ENDBRANCH  17  20
ENDBRANCH  13  14
ENDBRANCH  10  13
ENDBRANCH   5   9
BRANCH   8  26
HETATM   26  O   UNL     1      -7.890  17.381  66.999  1.00  0.00    -0.193 OA 
HETATM   27  C   UNL     1      -6.918  17.836  66.071  1.00  0.00    -0.300 C  
ENDBRANCH   8  26
BRANCH   7  28
HETATM   28  O   UNL     1     -10.323  17.522  65.429  1.00  0.00    -0.629 OA 
HETATM   29  C   UNL     1     -10.646  18.568  66.334  1.00  0.00    -0.325 C  
ENDBRANCH   7  28
ENDBRANCH   2   3
TORSDOF 10
ENDMDL
MODEL      196
REMARK 921   NORMALIZED FREE ENERGY PREDICTED BY IDOCK:   -3.68 KCAL/MOL
REMARK 922        TOTAL FREE ENERGY PREDICTED BY IDOCK:   -6.70 KCAL/MOL
REMARK 923 INTER-LIGAND FREE ENERGY PREDICTED BY IDOCK:   -5.87 KCAL/MOL
REMARK 924 INTRA-LIGAND FREE ENERGY PREDICTED BY IDOCK:   -0.82 KCAL/MOL
REMARK 927      BINDING AFFINITY PREDICTED BY RF-SCORE:    0.00 PKD
ROOT
HETATM    1  C   UNL     1      -9.814  20.180  66.968  1.00  0.00    -0.455 C  
HETATM    2  O   UNL     1      -8.739  19.879  67.856  1.00  0.00    -0.309 OA 
ENDROOT
BRANCH   2   3
HETATM    3  C   UNL     1      -8.408  18.551  67.972  1.00  0.00    -0.276 A  
HETATM    4  C   UNL     1      -9.329  17.544  67.653  1.00  0.00    -0.244 A  
HETATM    5  C   UNL     1      -8.959  16.198  67.676  1.00  0.00    -0.194 A  
HETATM    6  C   UNL     1      -7.666  15.854  68.056  1.00  0.00    -0.139 A  
HETATM    7  C   UNL     1      -7.106  18.207  68.405  1.00  0.00    -0.252 A  
HETATM    8  C   UNL     1      -6.736  16.843  68.426  1.00  0.00    -0.164 A  
BRANCH   5   9
HETATM    9  C   UNL     1      -9.953  15.197  67.201  1.00  0.00    -0.237 C  
HETATM   10  N   UNL     1      -9.476  14.153  66.448  1.00  0.00    -0.367 N  
HETATM   11  O   UNL     1     -11.135  15.324  67.505  1.00  0.00    -0.312 OA 
HETATM   12  H   UNL     1      -8.484  14.100  66.217  1.00  0.00     0.000 HD 
BRANCH  10  13
HETATM   13  C   UNL     1     -10.384  13.128  65.982  1.00  0.00    -0.287 C  
BRANCH  13  14
HETATM   14  C   UNL     1      -9.993  11.782  66.521  1.00  0.00    -0.229 A  
HETATM   15  C   UNL     1      -8.735  11.266  66.216  1.00  0.00    -0.184 A  
HETATM   16  C   UNL     1      -8.365   9.998  66.652  1.00  0.00    -0.125 A  
HETATM   17  C   UNL     1      -9.247   9.206  67.399  1.00  0.00    -0.130 A  
HETATM   18  C   UNL     1     -10.502   9.723  67.723  1.00  0.00    -0.297 A  
HETATM   19  C   UNL     1     -10.878  11.001  67.285  1.00  0.00    -0.335 A  
BRANCH  17  20
HETATM   20  O   UNL     1      -8.970   7.928  67.837  1.00  0.00    -0.130 OA 
BRANCH  20  21
HETATM   21  C   UNL     1      -9.060   7.786  69.259  1.00  0.00    -0.145 C  
BRANCH  21  22
HETATM   22  C   UNL     1      -8.567   6.430  69.780  1.00  0.00    -0.138 C  
BRANCH  22  23
HETATM   23  N   UNL     1      -7.710   6.587  70.979  1.00  0.00    -0.093 NA 
HETATM   24  C   UNL     1      -7.205   5.306  71.482  1.00  0.00    -0.075 C  
HETATM   25  C   UNL     1      -6.588   7.482  70.702  1.00  0.00    -0.043 C  
ENDBRANCH  22  23
ENDBRANCH  21  22
ENDBRANCH  20  21
ENDBRANCH  17  20
ENDBRANCH  13  14
ENDBRANCH  10  13
ENDBRANCH   5   9
BRANCH   8  26
HETATM   26  O   UNL     1      -5.525  16.287  68.757  1.00  0.00    -0.107 OA 
HETATM   27  C   UNL     1      -5.482  15.147  69.601  1.00  0.00    -0.094 C  
ENDBRANCH   8  26
BRANCH   7  28
HETATM   28  O   UNL     1      -6.131  19.122  68.721  1.00  0.00    -0.219 OA 
HETATM   29  C   UNL     1      -6.049  19.606  70.054  1.00  0.00    -0.294 C  
ENDBRANCH   7  28
ENDBRANCH   2   3
TORSDOF 10
ENDMDL
MODEL      197
REMARK 921   NORMALIZED FREE ENERGY PREDICTED BY IDOCK:   -3.66 KCAL/MOL
REMARK 922        TOTAL FREE ENERGY PREDICTED BY IDOCK:   -6.67 KCAL/MOL
REMARK 923 INTER-LIGAND FREE ENERGY PREDICTED BY IDOCK:   -5.53 KCAL/MOL
REMARK 924 INTRA-LIGAND FREE ENERGY PREDICTED BY IDOCK:   -1.14 KCAL/MOL
REMARK 927      BINDING AFFINITY PREDICTED BY RF-SCORE:    0.00 PKD
ROOT
HETATM    1  C   UNL     1      -7.454   2.996  69.044  1.00  0.00    -0.048 C  
HETATM    2  O   UNL     1      -8.682   3.339  68.404  1.00  0.00    -0.088 OA 
ENDROOT
BRANCH   2   3
HETATM    3  C   UNL     1      -8.727   4.578  67.813  1.00  0.00    -0.104 A  
HETATM    4  C   UNL     1      -8.925   5.737  68.576  1.00  0.00    -0.112 A  
HETATM    5  C   UNL     1      -8.871   7.002  67.987  1.00  0.00    -0.124 A  
HETATM    6  C   UNL     1      -8.654   7.107  66.618  1.00  0.00    -0.124 A  
HETATM    7  C   UNL     1      -8.554   4.674  66.413  1.00  0.00    -0.112 A  
HETATM    8  C   UNL     1      -8.500   5.957  65.822  1.00  0.00    -0.148 A  
BRANCH   5   9
HETATM    9  C   UNL     1      -8.962   8.188  68.883  1.00  0.00    -0.141 C  
HETATM   10  N   UNL     1      -8.330   9.334  68.467  1.00  0.00    -0.118 N  
HETATM   11  O   UNL     1      -9.597   8.111  69.929  1.00  0.00    -0.173 OA 
HETATM   12  H   UNL     1      -7.808   9.340  67.590  1.00  0.00     0.000 HD 
BRANCH  10  13
HETATM   13  C   UNL     1      -8.406  10.531  69.274  1.00  0.00    -0.137 C  
BRANCH  13  14
HETATM   14  C   UNL     1      -9.274  11.565  68.615  1.00  0.00    -0.136 A  
HETATM   15  C   UNL     1      -8.675  12.618  67.926  1.00  0.00    -0.181 A  
HETATM   16  C   UNL     1      -9.450  13.622  67.356  1.00  0.00    -0.225 A  
HETATM   17  C   UNL     1     -10.846  13.607  67.465  1.00  0.00    -0.264 A  
HETATM   18  C   UNL     1     -11.454  12.547  68.140  1.00  0.00    -0.368 A  
HETATM   19  C   UNL     1     -10.676  11.533  68.717  1.00  0.00    -0.247 A  
BRANCH  17  20
HETATM   20  O   UNL     1     -11.681  14.581  66.960  1.00  0.00    -0.377 OA 
BRANCH  20  21
HETATM   21  C   UNL     1     -12.534  14.107  65.912  1.00  0.00    -0.453 C  
BRANCH  21  22
HETATM   22  C   UNL     1     -11.783  13.697  64.638  1.00  0.00    -0.388 C  
BRANCH  22  23
HETATM   23  N   UNL     1     -11.847  12.233  64.417  1.00  0.00    -0.379 NA 
HETATM   24  C   UNL     1     -12.684  11.874  63.268  1.00  0.00    -0.271 C  
HETATM   25  C   UNL     1     -10.507  11.675  64.242  1.00  0.00    -0.331 C  
ENDBRANCH  22  23
ENDBRANCH  21  22
ENDBRANCH  20  21
ENDBRANCH  17  20
ENDBRANCH  13  14
ENDBRANCH  10  13
ENDBRANCH   5   9
BRANCH   8  26
HETATM   26  O   UNL     1      -8.291   6.287  64.506  1.00  0.00    -0.106 OA 
HETATM   27  C   UNL     1      -7.832   7.588  64.172  1.00  0.00    -0.130 C  
ENDBRANCH   8  26
BRANCH   7  28
HETATM   28  O   UNL     1      -8.336   3.598  65.587  1.00  0.00    -0.103 OA 
HETATM   29  C   UNL     1      -9.433   3.046  64.874  1.00  0.00    -0.136 C  
ENDBRANCH   7  28
ENDBRANCH   2   3
TORSDOF 10
ENDMDL
MODEL      198
REMARK 921   NORMALIZED FREE ENERGY PREDICTED BY IDOCK:   -3.59 KCAL/MOL
REMARK 922        TOTAL FREE ENERGY PREDICTED BY IDOCK:   -6.55 KCAL/MOL
REMARK 923 INTER-LIGAND FREE ENERGY PREDICTED BY IDOCK:   -5.66 KCAL/MOL
REMARK 924 INTRA-LIGAND FREE ENERGY PREDICTED BY IDOCK:   -0.89 KCAL/MOL
REMARK 927      BINDING AFFINITY PREDICTED BY RF-SCORE:    0.00 PKD
ROOT
HETATM    1  C   UNL     1     -11.515  11.425  68.845  1.00  0.00    -0.298 C  
HETATM    2  O   UNL     1     -11.160  10.064  68.610  1.00  0.00    -0.228 OA 
ENDROOT
BRANCH   2   3
HETATM    3  C   UNL     1     -10.063   9.601  69.294  1.00  0.00    -0.193 A  
HETATM    4  C   UNL     1      -8.866  10.331  69.324  1.00  0.00    -0.186 A  
HETATM    5  C   UNL     1      -7.786   9.908  70.100  1.00  0.00    -0.186 A  
HETATM    6  C   UNL     1      -7.890   8.726  70.825  1.00  0.00    -0.120 A  
HETATM    7  C   UNL     1     -10.160   8.373  69.990  1.00  0.00    -0.192 A  
HETATM    8  C   UNL     1      -9.063   7.950  70.775  1.00  0.00    -0.152 A  
BRANCH   5   9
HETATM    9  C   UNL     1      -6.599  10.802  70.182  1.00  0.00    -0.143 C  
HETATM   10  N   UNL     1      -6.703  12.035  69.586  1.00  0.00    -0.317 N  
HETATM   11  O   UNL     1      -5.596  10.426  70.780  1.00  0.00    -0.075 OA 
HETATM   12  H   UNL     1      -7.558  12.294  69.094  1.00  0.00     0.000 HD 
BRANCH  10  13
HETATM   13  C   UNL     1      -5.598  12.964  69.657  1.00  0.00    -0.096 C  
BRANCH  13  14
HETATM   14  C   UNL     1      -6.084  14.382  69.560  1.00  0.00    -0.114 A  
HETATM   15  C   UNL     1      -7.432  14.623  69.299  1.00  0.00    -0.132 A  
HETATM   16  C   UNL     1      -7.901  15.923  69.146  1.00  0.00    -0.227 A  
HETATM   17  C   UNL     1      -7.035  17.019  69.241  1.00  0.00    -0.198 A  
HETATM   18  C   UNL     1      -5.687  16.787  69.519  1.00  0.00    -0.184 A  
HETATM   19  C   UNL     1      -5.210  15.477  69.673  1.00  0.00    -0.097 A  
BRANCH  17  20
HETATM   20  O   UNL     1      -7.414  18.334  69.067  1.00  0.00    -0.260 OA 
BRANCH  20  21
HETATM   21  C   UNL     1      -8.674  18.475  68.402  1.00  0.00    -0.327 C  
BRANCH  21  22
HETATM   22  C   UNL     1      -8.572  18.472  66.871  1.00  0.00    -0.278 C  
BRANCH  22  23
HETATM   23  N   UNL     1      -9.644  17.655  66.255  1.00  0.00    -0.427 NA 
HETATM   24  C   UNL     1      -9.176  16.326  65.850  1.00  0.00    -0.233 C  
HETATM   25  C   UNL     1     -10.780  17.519  67.165  1.00  0.00    -0.191 C  
ENDBRANCH  22  23
ENDBRANCH  21  22
ENDBRANCH  20  21
ENDBRANCH  17  20
ENDBRANCH  13  14
ENDBRANCH  10  13
ENDBRANCH   5   9
BRANCH   8  26
HETATM   26  O   UNL     1      -8.955   6.833  71.567  1.00  0.00    -0.138 OA 
HETATM   27  C   UNL     1      -7.746   6.582  72.266  1.00  0.00    -0.097 C  
ENDBRANCH   8  26
BRANCH   7  28
HETATM   28  O   UNL     1     -11.294   7.599  70.035  1.00  0.00    -0.195 OA 
HETATM   29  C   UNL     1     -11.312   6.366  69.331  1.00  0.00    -0.377 C  
ENDBRANCH   7  28
ENDBRANCH   2   3
TORSDOF 10
ENDMDL
MODEL      199
REMARK 921   NORMALIZED FREE ENERGY PREDICTED BY IDOCK:   -3.56 KCAL/MOL
REMARK 922        TOTAL FREE ENERGY PREDICTED BY IDOCK:   -6.50 KCAL/MOL
REMARK 923 INTER-LIGAND FREE ENERGY PREDICTED BY IDOCK:   -5.56 KCAL/MOL
REMARK 924 INTRA-LIGAND FREE ENERGY PREDICTED BY IDOCK:   -0.94 KCAL/MOL
REMARK 927      BINDING AFFINITY PREDICTED BY RF-SCORE:    0.00 PKD
ROOT
HETATM    1  C   UNL     1      -5.515   4.803  73.874  1.00  0.00    -0.017 C  
HETATM    2  O   UNL     1      -6.776   5.440  74.071  1.00  0.00    -0.073 OA 
ENDROOT
BRANCH   2   3
HETATM    3  C   UNL     1      -7.470   5.767  72.931  1.00  0.00    -0.092 A  
HETATM    4  C   UNL     1      -7.238   6.978  72.265  1.00  0.00    -0.073 A  
HETATM    5  C   UNL     1      -7.871   7.264  71.054  1.00  0.00    -0.097 A  
HETATM    6  C   UNL     1      -8.771   6.348  70.523  1.00  0.00    -0.144 A  
HETATM    7  C   UNL     1      -8.420   4.851  72.423  1.00  0.00    -0.120 A  
HETATM    8  C   UNL     1      -9.058   5.146  71.196  1.00  0.00    -0.143 A  
BRANCH   5   9
HETATM    9  C   UNL     1      -7.476   8.511  70.343  1.00  0.00    -0.069 C  
HETATM   10  N   UNL     1      -8.489   9.314  69.880  1.00  0.00    -0.146 N  
HETATM   11  O   UNL     1      -6.286   8.784  70.212  1.00  0.00    -0.036 OA 
HETATM   12  H   UNL     1      -9.462   9.035  70.010  1.00  0.00     0.000 HD 
BRANCH  10  13
HETATM   13  C   UNL     1      -8.174  10.555  69.210  1.00  0.00    -0.145 C  
BRANCH  13  14
HETATM   14  C   UNL     1      -8.860  10.632  67.876  1.00  0.00    -0.131 A  
HETATM   15  C   UNL     1      -8.091  10.652  66.714  1.00  0.00    -0.131 A  
HETATM   16  C   UNL     1      -8.695  10.781  65.467  1.00  0.00    -0.196 A  
HETATM   17  C   UNL     1     -10.085  10.901  65.348  1.00  0.00    -0.277 A  
HETATM   18  C   UNL     1     -10.863  10.864  66.505  1.00  0.00    -0.234 A  
HETATM   19  C   UNL     1     -10.258  10.735  67.764  1.00  0.00    -0.212 A  
BRANCH  17  20
HETATM   20  O   UNL     1     -10.755  11.067  64.154  1.00  0.00    -0.378 OA 
BRANCH  20  21
HETATM   21  C   UNL     1     -10.682  12.404  63.646  1.00  0.00    -0.455 C  
BRANCH  21  22
HETATM   22  C   UNL     1     -12.050  13.065  63.439  1.00  0.00    -0.515 C  
BRANCH  22  23
HETATM   23  N   UNL     1     -12.259  14.189  64.383  1.00  0.00    -0.573 NA 
HETATM   24  C   UNL     1     -12.867  13.759  65.645  1.00  0.00    -0.408 C  
HETATM   25  C   UNL     1     -11.000  14.880  64.655  1.00  0.00    -0.306 C  
ENDBRANCH  22  23
ENDBRANCH  21  22
ENDBRANCH  20  21
ENDBRANCH  17  20
ENDBRANCH  13  14
ENDBRANCH  10  13
ENDBRANCH   5   9
BRANCH   8  26
HETATM   26  O   UNL     1      -9.964   4.387  70.497  1.00  0.00    -0.217 OA 
HETATM   27  C   UNL     1      -9.531   3.626  69.381  1.00  0.00    -0.179 C  
ENDBRANCH   8  26
BRANCH   7  28
HETATM   28  O   UNL     1      -8.701   3.634  72.995  1.00  0.00    -0.092 OA 
HETATM   29  C   UNL     1      -9.728   3.556  73.973  1.00  0.00    -0.106 C  
ENDBRANCH   7  28
ENDBRANCH   2   3
TORSDOF 10
ENDMDL
MODEL      200
REMARK 921   NORMALIZED FREE ENERGY PREDICTED BY IDOCK:   -3.56 KCAL/MOL
REMARK 922        TOTAL FREE ENERGY PREDICTED BY IDOCK:   -6.50 KCAL/MOL
REMARK 923 INTER-LIGAND FREE ENERGY PREDICTED BY IDOCK:   -6.14 KCAL/MOL
REMARK 924 INTRA-LIGAND FREE ENERGY PREDICTED BY IDOCK:   -0.36 KCAL/MOL
REMARK 927      BINDING AFFINITY PREDICTED BY RF-SCORE:    0.00 PKD
ROOT
HETATM    1  C   UNL     1     -11.208  15.902  68.839  1.00  0.00    -0.343 C  
HETATM    2  O   UNL     1     -12.081  14.905  68.310  1.00  0.00    -0.246 OA 
ENDROOT
BRANCH   2   3
HETATM    3  C   UNL     1     -11.638  13.608  68.402  1.00  0.00    -0.342 A  
HETATM    4  C   UNL     1     -11.872  12.842  69.552  1.00  0.00    -0.383 A  
HETATM    5  C   UNL     1     -11.508  11.496  69.604  1.00  0.00    -0.373 A  
HETATM    6  C   UNL     1     -10.872  10.919  68.511  1.00  0.00    -0.262 A  
HETATM    7  C   UNL     1     -10.948  13.043  67.304  1.00  0.00    -0.264 A  
HETATM    8  C   UNL     1     -10.583  11.678  67.362  1.00  0.00    -0.220 A  
BRANCH   5   9
HETATM    9  C   UNL     1     -11.906  10.716  70.808  1.00  0.00    -0.357 C  
HETATM   10  N   UNL     1     -11.105   9.658  71.161  1.00  0.00    -0.359 N  
HETATM   11  O   UNL     1     -12.903  11.046  71.443  1.00  0.00    -0.400 OA 
HETATM   12  H   UNL     1     -10.291   9.422  70.593  1.00  0.00     0.000 HD 
BRANCH  10  13
HETATM   13  C   UNL     1     -11.416   8.880  72.339  1.00  0.00    -0.136 C  
BRANCH  13  14
HETATM   14  C   UNL     1     -10.792   7.517  72.260  1.00  0.00    -0.302 A  
HETATM   15  C   UNL     1     -11.559   6.441  71.815  1.00  0.00    -0.367 A  
HETATM   16  C   UNL     1     -11.027   5.157  71.785  1.00  0.00    -0.078 A  
HETATM   17  C   UNL     1      -9.715   4.909  72.208  1.00  0.00    -0.160 A  
HETATM   18  C   UNL     1      -8.935   5.983  72.638  1.00  0.00    -0.127 A  
HETATM   19  C   UNL     1      -9.468   7.280  72.670  1.00  0.00    -0.186 A  
BRANCH  17  20
HETATM   20  O   UNL     1      -9.127   3.662  72.243  1.00  0.00    -0.104 OA 
BRANCH  20  21
HETATM   21  C   UNL     1      -7.733   3.704  72.571  1.00  0.00    -0.067 C  
BRANCH  21  22
HETATM   22  C   UNL     1      -7.450   3.679  74.079  1.00  0.00    -0.061 C  
BRANCH  22  23
HETATM   23  N   UNL     1      -5.995   3.617  74.358  1.00  0.00    -0.015 NA 
HETATM   24  C   UNL     1      -5.371   2.403  73.825  1.00  0.00     0.000 C  
HETATM   25  C   UNL     1      -5.314   4.795  73.823  1.00  0.00    -0.009 C  
ENDBRANCH  22  23
ENDBRANCH  21  22
ENDBRANCH  20  21
ENDBRANCH  17  20
ENDBRANCH  13  14
ENDBRANCH  10  13
ENDBRANCH   5   9
BRANCH   8  26
HETATM   26  O   UNL     1      -9.960  10.915  66.405  1.00  0.00    -0.206 OA 
HETATM   27  C   UNL     1      -9.041   9.908  66.797  1.00  0.00    -0.143 C  
ENDBRANCH   8  26
BRANCH   7  28
HETATM   28  O   UNL     1     -10.689  13.708  66.130  1.00  0.00    -0.282 OA 
HETATM   29  C   UNL     1     -11.707  13.781  65.143  1.00  0.00    -0.343 C  
ENDBRANCH   7  28
ENDBRANCH   2   3
TORSDOF 10
ENDMDL
MODEL      201
REMARK 921   NORMALIZED FREE ENERGY PREDICTED BY IDOCK:   -3.54 KCAL/MOL
REMARK 922        TOTAL FREE ENERGY PREDICTED BY IDOCK:   -6.48 KCAL/MOL
REMARK 923 INTER-LIGAND FREE ENERGY PREDICTED BY IDOCK:   -5.47 KCAL/MOL
REMARK 924 INTRA-LIGAND FREE ENERGY PREDICTED BY IDOCK:   -1.01 KCAL/MOL
REMARK 927      BINDING AFFINITY PREDICTED BY RF-SCORE:    0.00 PKD
ROOT
HETATM    1  C   UNL     1     -10.527   8.827  67.241  1.00  0.00    -0.283 C  
HETATM    2  O   UNL     1     -10.129   9.414  66.003  1.00  0.00    -0.300 OA 
ENDROOT
BRANCH   2   3
HETATM    3  C   UNL     1      -8.799   9.736  65.890  1.00  0.00    -0.150 A  
HETATM    4  C   UNL     1      -8.268  10.859  66.541  1.00  0.00    -0.157 A  
HETATM    5  C   UNL     1      -6.899  11.129  66.506  1.00  0.00    -0.126 A  
HETATM    6  C   UNL     1      -6.058  10.289  65.784  1.00  0.00    -0.107 A  
HETATM    7  C   UNL     1      -7.957   8.905  65.115  1.00  0.00    -0.122 A  
HETATM    8  C   UNL     1      -6.571   9.183  65.084  1.00  0.00    -0.072 A  
BRANCH   5   9
HETATM    9  C   UNL     1      -6.395  12.264  67.326  1.00  0.00    -0.150 C  
HETATM   10  N   UNL     1      -7.218  12.728  68.323  1.00  0.00    -0.104 N  
HETATM   11  O   UNL     1      -5.281  12.726  67.103  1.00  0.00    -0.326 OA 
HETATM   12  H   UNL     1      -8.139  12.312  68.460  1.00  0.00     0.000 HD 
BRANCH  10  13
HETATM   13  C   UNL     1      -6.775  13.807  69.178  1.00  0.00    -0.112 C  
BRANCH  13  14
HETATM   14  C   UNL     1      -7.485  15.085  68.836  1.00  0.00    -0.143 A  
HETATM   15  C   UNL     1      -8.687  15.030  68.133  1.00  0.00    -0.165 A  
HETATM   16  C   UNL     1      -9.339  16.198  67.752  1.00  0.00    -0.211 A  
HETATM   17  C   UNL     1      -8.803  17.456  68.056  1.00  0.00    -0.252 A  
HETATM   18  C   UNL     1      -7.609  17.520  68.775  1.00  0.00    -0.258 A  
HETATM   19  C   UNL     1      -6.948  16.344  69.160  1.00  0.00    -0.218 A  
BRANCH  17  20
HETATM   20  O   UNL     1      -9.368  18.657  67.684  1.00  0.00    -0.284 OA 
BRANCH  20  21
HETATM   21  C   UNL     1      -9.020  19.057  66.354  1.00  0.00    -0.324 C  
BRANCH  21  22
HETATM   22  C   UNL     1      -7.773  19.948  66.280  1.00  0.00    -0.315 C  
BRANCH  22  23
HETATM   23  N   UNL     1      -6.889  19.554  65.157  1.00  0.00    -0.413 NA 
HETATM   24  C   UNL     1      -5.927  20.602  64.804  1.00  0.00    -0.270 C  
HETATM   25  C   UNL     1      -6.177  18.316  65.467  1.00  0.00    -0.247 C  
ENDBRANCH  22  23
ENDBRANCH  21  22
ENDBRANCH  20  21
ENDBRANCH  17  20
ENDBRANCH  13  14
ENDBRANCH  10  13
ENDBRANCH   5   9
BRANCH   8  26
HETATM   26  O   UNL     1      -5.572   8.488  64.448  1.00  0.00    -0.060 OA 
HETATM   27  C   UNL     1      -5.139   8.901  63.161  1.00  0.00    -0.067 C  
ENDBRANCH   8  26
BRANCH   7  28
HETATM   28  O   UNL     1      -8.382   7.775  64.458  1.00  0.00    -0.104 OA 
HETATM   29  C   UNL     1      -8.266   6.518  65.109  1.00  0.00    -0.126 C  
ENDBRANCH   7  28
ENDBRANCH   2   3
TORSDOF 10
ENDMDL
MODEL      202
REMARK 921   NORMALIZED FREE ENERGY PREDICTED BY IDOCK:   -3.48 KCAL/MOL
REMARK 922        TOTAL FREE ENERGY PREDICTED BY IDOCK:   -6.37 KCAL/MOL
REMARK 923 INTER-LIGAND FREE ENERGY PREDICTED BY IDOCK:   -5.33 KCAL/MOL
REMARK 924 INTRA-LIGAND FREE ENERGY PREDICTED BY IDOCK:   -1.04 KCAL/MOL
REMARK 927      BINDING AFFINITY PREDICTED BY RF-SCORE:    0.00 PKD
ROOT
HETATM    1  C   UNL     1      -6.571   9.319  62.883  1.00  0.00    -0.093 C  
HETATM    2  O   UNL     1      -7.931   9.050  63.221  1.00  0.00    -0.132 OA 
ENDROOT
BRANCH   2   3
HETATM    3  C   UNL     1      -8.137   8.386  64.405  1.00  0.00    -0.158 A  
HETATM    4  C   UNL     1      -8.252   9.082  65.616  1.00  0.00    -0.120 A  
HETATM    5  C   UNL     1      -8.560   8.414  66.802  1.00  0.00    -0.123 A  
HETATM    6  C   UNL     1      -8.718   7.033  66.785  1.00  0.00    -0.124 A  
HETATM    7  C   UNL     1      -8.249   6.976  64.387  1.00  0.00     0.027 A  
HETATM    8  C   UNL     1      -8.561   6.304  65.591  1.00  0.00    -0.139 A  
BRANCH   5   9
HETATM    9  C   UNL     1      -8.793   9.237  68.021  1.00  0.00    -0.128 C  
HETATM   10  N   UNL     1     -10.073   9.270  68.517  1.00  0.00    -0.183 N  
HETATM   11  O   UNL     1      -7.853   9.830  68.542  1.00  0.00    -0.080 OA 
HETATM   12  H   UNL     1     -10.819   8.764  68.040  1.00  0.00     0.000 HD 
BRANCH  10  13
HETATM   13  C   UNL     1     -10.360  10.023  69.717  1.00  0.00    -0.255 C  
BRANCH  13  14
HETATM   14  C   UNL     1     -10.397   9.122  70.918  1.00  0.00    -0.349 A  
HETATM   15  C   UNL     1     -11.624   8.647  71.376  1.00  0.00    -0.354 A  
HETATM   16  C   UNL     1     -11.695   7.859  72.520  1.00  0.00    -0.423 A  
HETATM   17  C   UNL     1     -10.542   7.530  73.243  1.00  0.00    -0.384 A  
HETATM   18  C   UNL     1      -9.307   7.988  72.781  1.00  0.00    -0.330 A  
HETATM   19  C   UNL     1      -9.231   8.783  71.629  1.00  0.00    -0.333 A  
BRANCH  17  20
HETATM   20  O   UNL     1     -10.532   6.785  74.403  1.00  0.00    -0.282 OA 
BRANCH  20  21
HETATM   21  C   UNL     1      -9.670   5.644  74.335  1.00  0.00    -0.197 C  
BRANCH  21  22
HETATM   22  C   UNL     1     -10.415   4.304  74.288  1.00  0.00    -0.253 C  
BRANCH  22  23
HETATM   23  N   UNL     1     -10.083   3.540  73.062  1.00  0.00    -0.142 NA 
HETATM   24  C   UNL     1     -10.014   4.390  71.871  1.00  0.00    -0.189 C  
HETATM   25  C   UNL     1      -8.822   2.819  73.226  1.00  0.00    -0.079 C  
ENDBRANCH  22  23
ENDBRANCH  21  22
ENDBRANCH  20  21
ENDBRANCH  17  20
ENDBRANCH  13  14
ENDBRANCH  10  13
ENDBRANCH   5   9
BRANCH   8  26
HETATM   26  O   UNL     1      -8.766   4.962  65.797  1.00  0.00    -0.123 OA 
HETATM   27  C   UNL     1     -10.084   4.437  65.746  1.00  0.00    -0.245 C  
ENDBRANCH   8  26
BRANCH   7  28
HETATM   28  O   UNL     1      -8.169   6.210  63.249  1.00  0.00    -0.099 OA 
HETATM   29  C   UNL     1      -6.918   5.641  62.891  1.00  0.00    -0.043 C  
ENDBRANCH   7  28
ENDBRANCH   2   3
TORSDOF 10
ENDMDL
MODEL      203
REMARK 921   NORMALIZED FREE ENERGY PREDICTED BY IDOCK:   -3.47 KCAL/MOL
REMARK 922        TOTAL FREE ENERGY PREDICTED BY IDOCK:   -6.36 KCAL/MOL
REMARK 923 INTER-LIGAND FREE ENERGY PREDICTED BY IDOCK:   -5.73 KCAL/MOL
REMARK 924 INTRA-LIGAND FREE ENERGY PREDICTED BY IDOCK:   -0.63 KCAL/MOL
REMARK 927      BINDING AFFINITY PREDICTED BY RF-SCORE:    0.00 PKD
ROOT
HETATM    1  C   UNL     1     -11.046  15.143  65.852  1.00  0.00    -0.319 C  
HETATM    2  O   UNL     1     -10.575  16.388  66.365  1.00  0.00    -0.301 OA 
ENDROOT
BRANCH   2   3
HETATM    3  C   UNL     1      -9.385  16.345  67.051  1.00  0.00    -0.228 A  
HETATM    4  C   UNL     1      -8.648  15.157  67.148  1.00  0.00    -0.247 A  
HETATM    5  C   UNL     1      -7.393  15.138  67.759  1.00  0.00    -0.182 A  
HETATM    6  C   UNL     1      -6.887  16.310  68.310  1.00  0.00    -0.134 A  
HETATM    7  C   UNL     1      -8.899  17.530  67.651  1.00  0.00    -0.228 A  
HETATM    8  C   UNL     1      -7.628  17.506  68.269  1.00  0.00    -0.240 A  
BRANCH   5   9
HETATM    9  C   UNL     1      -6.616  13.870  67.708  1.00  0.00    -0.176 C  
HETATM   10  N   UNL     1      -7.303  12.706  67.954  1.00  0.00    -0.102 N  
HETATM   11  O   UNL     1      -5.420  13.901  67.437  1.00  0.00    -0.345 OA 
HETATM   12  H   UNL     1      -8.296  12.738  68.183  1.00  0.00     0.000 HD 
BRANCH  10  13
HETATM   13  C   UNL     1      -6.614  11.437  67.888  1.00  0.00    -0.059 C  
BRANCH  13  14
HETATM   14  C   UNL     1      -7.482  10.330  68.415  1.00  0.00    -0.090 A  
HETATM   15  C   UNL     1      -7.258   9.024  67.981  1.00  0.00    -0.080 A  
HETATM   16  C   UNL     1      -8.082   7.987  68.406  1.00  0.00    -0.122 A  
HETATM   17  C   UNL     1      -9.157   8.226  69.271  1.00  0.00    -0.151 A  
HETATM   18  C   UNL     1      -9.377   9.528  69.723  1.00  0.00    -0.227 A  
HETATM   19  C   UNL     1      -8.549  10.577  69.296  1.00  0.00    -0.136 A  
BRANCH  17  20
HETATM   20  O   UNL     1     -10.038   7.261  69.709  1.00  0.00    -0.187 OA 
BRANCH  20  21
HETATM   21  C   UNL     1      -9.647   6.657  70.947  1.00  0.00    -0.175 C  
BRANCH  21  22
HETATM   22  C   UNL     1     -10.778   5.900  71.654  1.00  0.00    -0.252 C  
BRANCH  22  23
HETATM   23  N   UNL     1     -10.269   4.707  72.371  1.00  0.00    -0.185 NA 
HETATM   24  C   UNL     1     -11.278   4.104  73.247  1.00  0.00    -0.209 C  
HETATM   25  C   UNL     1      -9.776   3.705  71.428  1.00  0.00    -0.170 C  
ENDBRANCH  22  23
ENDBRANCH  21  22
ENDBRANCH  20  21
ENDBRANCH  17  20
ENDBRANCH  13  14
ENDBRANCH  10  13
ENDBRANCH   5   9
BRANCH   8  26
HETATM   26  O   UNL     1      -6.943  18.537  68.863  1.00  0.00    -0.272 OA 
HETATM   27  C   UNL     1      -5.962  19.247  68.122  1.00  0.00    -0.216 C  
ENDBRANCH   8  26
BRANCH   7  28
HETATM   28  O   UNL     1      -9.541  18.744  67.593  1.00  0.00    -0.298 OA 
HETATM   29  C   UNL     1     -10.043  19.313  68.794  1.00  0.00    -0.401 C  
ENDBRANCH   7  28
ENDBRANCH   2   3
TORSDOF 10
ENDMDL
MODEL      204
REMARK 921   NORMALIZED FREE ENERGY PREDICTED BY IDOCK:   -3.47 KCAL/MOL
REMARK 922        TOTAL FREE ENERGY PREDICTED BY IDOCK:   -6.36 KCAL/MOL
REMARK 923 INTER-LIGAND FREE ENERGY PREDICTED BY IDOCK:   -5.49 KCAL/MOL
REMARK 924 INTRA-LIGAND FREE ENERGY PREDICTED BY IDOCK:   -0.87 KCAL/MOL
REMARK 927      BINDING AFFINITY PREDICTED BY RF-SCORE:    0.00 PKD
ROOT
HETATM    1  C   UNL     1     -11.128  16.286  69.171  1.00  0.00    -0.322 C  
HETATM    2  O   UNL     1     -10.757  17.303  68.242  1.00  0.00    -0.373 OA 
ENDROOT
BRANCH   2   3
HETATM    3  C   UNL     1      -9.429  17.344  67.893  1.00  0.00    -0.265 A  
HETATM    4  C   UNL     1      -8.595  16.234  68.086  1.00  0.00    -0.183 A  
HETATM    5  C   UNL     1      -7.272  16.243  67.641  1.00  0.00    -0.162 A  
HETATM    6  C   UNL     1      -6.767  17.386  67.030  1.00  0.00    -0.218 A  
HETATM    7  C   UNL     1      -8.909  18.527  67.317  1.00  0.00    -0.270 A  
HETATM    8  C   UNL     1      -7.569  18.530  66.867  1.00  0.00    -0.221 A  
BRANCH   5   9
HETATM    9  C   UNL     1      -6.490  14.983  67.765  1.00  0.00    -0.163 C  
HETATM   10  N   UNL     1      -7.090  13.829  67.323  1.00  0.00    -0.316 N  
HETATM   11  O   UNL     1      -5.355  15.016  68.229  1.00  0.00    -0.100 OA 
HETATM   12  H   UNL     1      -8.040  13.857  66.952  1.00  0.00     0.000 HD 
BRANCH  10  13
HETATM   13  C   UNL     1      -6.372  12.576  67.384  1.00  0.00    -0.157 C  
BRANCH  13  14
HETATM   14  C   UNL     1      -7.208  11.512  68.037  1.00  0.00    -0.085 A  
HETATM   15  C   UNL     1      -8.597  11.615  67.991  1.00  0.00    -0.152 A  
HETATM   16  C   UNL     1      -9.397  10.677  68.636  1.00  0.00    -0.177 A  
HETATM   17  C   UNL     1      -8.831   9.615  69.351  1.00  0.00    -0.180 A  
HETATM   18  C   UNL     1      -7.441   9.496  69.387  1.00  0.00    -0.088 A  
HETATM   19  C   UNL     1      -6.631  10.440  68.739  1.00  0.00    -0.052 A  
BRANCH  17  20
HETATM   20  O   UNL     1      -9.553   8.666  70.045  1.00  0.00    -0.166 OA 
BRANCH  20  21
HETATM   21  C   UNL     1      -8.896   8.216  71.235  1.00  0.00    -0.146 C  
BRANCH  21  22
HETATM   22  C   UNL     1      -8.784   6.690  71.343  1.00  0.00    -0.129 C  
BRANCH  22  23
HETATM   23  N   UNL     1      -8.026   6.283  72.550  1.00  0.00    -0.103 NA 
HETATM   24  C   UNL     1      -6.958   7.229  72.888  1.00  0.00    -0.068 C  
HETATM   25  C   UNL     1      -8.920   6.122  73.695  1.00  0.00    -0.127 C  
ENDBRANCH  22  23
ENDBRANCH  21  22
ENDBRANCH  20  21
ENDBRANCH  17  20
ENDBRANCH  13  14
ENDBRANCH  10  13
ENDBRANCH   5   9
BRANCH   8  26
HETATM   26  O   UNL     1      -6.878  19.537  66.238  1.00  0.00    -0.203 OA 
HETATM   27  C   UNL     1      -6.307  19.305  64.960  1.00  0.00    -0.261 C  
ENDBRANCH   8  26
BRANCH   7  28
HETATM   28  O   UNL     1      -9.652  19.656  67.072  1.00  0.00    -0.319 OA 
HETATM   29  C   UNL     1     -10.396  19.741  65.866  1.00  0.00    -0.483 C  
ENDBRANCH   7  28
ENDBRANCH   2   3
TORSDOF 10
ENDMDL
MODEL      205
REMARK 921   NORMALIZED FREE ENERGY PREDICTED BY IDOCK:   -3.46 KCAL/MOL
REMARK 922        TOTAL FREE ENERGY PREDICTED BY IDOCK:   -6.34 KCAL/MOL
REMARK 923 INTER-LIGAND FREE ENERGY PREDICTED BY IDOCK:   -5.38 KCAL/MOL
REMARK 924 INTRA-LIGAND FREE ENERGY PREDICTED BY IDOCK:   -0.96 KCAL/MOL
REMARK 927      BINDING AFFINITY PREDICTED BY RF-SCORE:    0.00 PKD
ROOT
HETATM    1  C   UNL     1      -9.764  11.705  63.245  1.00  0.00    -0.368 C  
HETATM    2  O   UNL     1      -9.911  13.061  63.661  1.00  0.00    -0.193 OA 
ENDROOT
BRANCH   2   3
HETATM    3  C   UNL     1      -9.918  13.277  65.018  1.00  0.00    -0.145 A  
HETATM    4  C   UNL     1      -9.241  12.414  65.892  1.00  0.00     0.007 A  
HETATM    5  C   UNL     1      -9.167  12.690  67.258  1.00  0.00    -0.195 A  
HETATM    6  C   UNL     1      -9.804  13.819  67.761  1.00  0.00    -0.234 A  
HETATM    7  C   UNL     1     -10.609  14.401  65.528  1.00  0.00    -0.347 A  
HETATM    8  C   UNL     1     -10.530  14.675  66.912  1.00  0.00    -0.270 A  
BRANCH   5   9
HETATM    9  C   UNL     1      -8.323  11.799  68.100  1.00  0.00    -0.156 C  
HETATM   10  N   UNL     1      -8.951  11.123  69.118  1.00  0.00    -0.388 N  
HETATM   11  O   UNL     1      -7.127  11.684  67.853  1.00  0.00    -0.074 OA 
HETATM   12  H   UNL     1      -9.948  11.261  69.284  1.00  0.00     0.000 HD 
BRANCH  10  13
HETATM   13  C   UNL     1      -8.195  10.216  69.952  1.00  0.00    -0.109 C  
BRANCH  13  14
HETATM   14  C   UNL     1      -8.735   8.818  69.847  1.00  0.00    -0.135 A  
HETATM   15  C   UNL     1      -9.918   8.595  69.145  1.00  0.00    -0.193 A  
HETATM   16  C   UNL     1     -10.472   7.322  69.079  1.00  0.00    -0.219 A  
HETATM   17  C   UNL     1      -9.865   6.235  69.720  1.00  0.00    -0.165 A  
HETATM   18  C   UNL     1      -8.671   6.447  70.412  1.00  0.00    -0.147 A  
HETATM   19  C   UNL     1      -8.109   7.730  70.481  1.00  0.00    -0.103 A  
BRANCH  17  20
HETATM   20  O   UNL     1     -10.369   4.952  69.732  1.00  0.00    -0.260 OA 
BRANCH  20  21
HETATM   21  C   UNL     1      -9.363   3.948  69.561  1.00  0.00    -0.176 C  
BRANCH  21  22
HETATM   22  C   UNL     1      -9.367   3.296  68.172  1.00  0.00    -0.187 C  
BRANCH  22  23
HETATM   23  N   UNL     1      -8.610   4.107  67.189  1.00  0.00    -0.103 NA 
HETATM   24  C   UNL     1      -7.658   3.306  66.413  1.00  0.00    -0.077 C  
HETATM   25  C   UNL     1      -9.520   4.804  66.281  1.00  0.00    -0.160 C  
ENDBRANCH  22  23
ENDBRANCH  21  22
ENDBRANCH  20  21
ENDBRANCH  17  20
ENDBRANCH  13  14
ENDBRANCH  10  13
ENDBRANCH   5   9
BRANCH   8  26
HETATM   26  O   UNL     1     -11.071  15.727  67.611  1.00  0.00    -0.323 OA 
HETATM   27  C   UNL     1     -10.215  16.657  68.254  1.00  0.00    -0.281 C  
ENDBRANCH   8  26
BRANCH   7  28
HETATM   28  O   UNL     1     -11.283  15.310  64.749  1.00  0.00    -0.405 OA 
HETATM   29  C   UNL     1     -12.562  14.963  64.239  1.00  0.00     0.025 C  
ENDBRANCH   7  28
ENDBRANCH   2   3
TORSDOF 10
ENDMDL
MODEL      206
REMARK 921   NORMALIZED FREE ENERGY PREDICTED BY IDOCK:   -3.45 KCAL/MOL
REMARK 922        TOTAL FREE ENERGY PREDICTED BY IDOCK:   -6.33 KCAL/MOL
REMARK 923 INTER-LIGAND FREE ENERGY PREDICTED BY IDOCK:   -5.68 KCAL/MOL
REMARK 924 INTRA-LIGAND FREE ENERGY PREDICTED BY IDOCK:   -0.65 KCAL/MOL
REMARK 927      BINDING AFFINITY PREDICTED BY RF-SCORE:    0.00 PKD
ROOT
HETATM    1  C   UNL     1      -7.779   9.973  64.493  1.00  0.00    -0.145 C  
HETATM    2  O   UNL     1      -9.192   9.988  64.294  1.00  0.00    -0.233 OA 
ENDROOT
BRANCH   2   3
HETATM    3  C   UNL     1      -9.947  10.386  65.370  1.00  0.00    -0.295 A  
HETATM    4  C   UNL     1     -10.098   9.561  66.493  1.00  0.00    -0.326 A  
HETATM    5  C   UNL     1     -10.783  10.006  67.625  1.00  0.00    -0.340 A  
HETATM    6  C   UNL     1     -11.354  11.274  67.620  1.00  0.00    -0.352 A  
HETATM    7  C   UNL     1     -10.566  11.657  65.338  1.00  0.00    -0.280 A  
HETATM    8  C   UNL     1     -11.258  12.104  66.487  1.00  0.00    -0.328 A  
BRANCH   5   9
HETATM    9  C   UNL     1     -10.789   9.124  68.823  1.00  0.00    -0.060 C  
HETATM   10  N   UNL     1     -10.972   9.729  70.043  1.00  0.00    -0.260 N  
HETATM   11  O   UNL     1     -10.653   7.912  68.687  1.00  0.00    -0.190 OA 
HETATM   12  H   UNL     1     -11.074  10.742  70.101  1.00  0.00     0.000 HD 
BRANCH  10  13
HETATM   13  C   UNL     1     -11.022   8.926  71.244  1.00  0.00    -0.293 C  
BRANCH  13  14
HETATM   14  C   UNL     1      -9.725   8.197  71.454  1.00  0.00    -0.219 A  
HETATM   15  C   UNL     1      -9.750   6.840  71.769  1.00  0.00    -0.164 A  
HETATM   16  C   UNL     1      -8.569   6.151  72.025  1.00  0.00    -0.132 A  
HETATM   17  C   UNL     1      -7.330   6.801  71.982  1.00  0.00    -0.088 A  
HETATM   18  C   UNL     1      -7.295   8.157  71.651  1.00  0.00    -0.088 A  
HETATM   19  C   UNL     1      -8.484   8.855  71.392  1.00  0.00    -0.216 A  
BRANCH  17  20
HETATM   20  O   UNL     1      -6.121   6.200  72.258  1.00  0.00    -0.040 OA 
BRANCH  20  21
HETATM   21  C   UNL     1      -5.293   6.036  71.101  1.00  0.00    -0.017 C  
BRANCH  21  22
HETATM   22  C   UNL     1      -5.371   4.637  70.476  1.00  0.00    -0.004 C  
BRANCH  22  23
HETATM   23  N   UNL     1      -6.284   4.613  69.308  1.00  0.00    -0.029 NA 
HETATM   24  C   UNL     1      -5.587   4.306  68.055  1.00  0.00    -0.017 C  
HETATM   25  C   UNL     1      -7.367   3.653  69.516  1.00  0.00    -0.049 C  
ENDBRANCH  22  23
ENDBRANCH  21  22
ENDBRANCH  20  21
ENDBRANCH  17  20
ENDBRANCH  13  14
ENDBRANCH  10  13
ENDBRANCH   5   9
BRANCH   8  26
HETATM   26  O   UNL     1     -11.883  13.308  66.698  1.00  0.00    -0.360 OA 
HETATM   27  C   UNL     1     -11.878  13.885  67.994  1.00  0.00    -0.375 C  
ENDBRANCH   8  26
BRANCH   7  28
HETATM   28  O   UNL     1     -10.459  12.541  64.292  1.00  0.00    -0.331 OA 
HETATM   29  C   UNL     1     -11.583  12.744  63.447  1.00  0.00    -0.443 C  
ENDBRANCH   7  28
ENDBRANCH   2   3
TORSDOF 10
ENDMDL
MODEL      207
REMARK 921   NORMALIZED FREE ENERGY PREDICTED BY IDOCK:   -3.44 KCAL/MOL
REMARK 922        TOTAL FREE ENERGY PREDICTED BY IDOCK:   -6.31 KCAL/MOL
REMARK 923 INTER-LIGAND FREE ENERGY PREDICTED BY IDOCK:   -5.41 KCAL/MOL
REMARK 924 INTRA-LIGAND FREE ENERGY PREDICTED BY IDOCK:   -0.90 KCAL/MOL
REMARK 927      BINDING AFFINITY PREDICTED BY RF-SCORE:    0.00 PKD
ROOT
HETATM    1  C   UNL     1     -10.247  17.044  66.613  1.00  0.00    -0.310 C  
HETATM    2  O   UNL     1     -10.753  15.953  67.381  1.00  0.00    -0.312 OA 
ENDROOT
BRANCH   2   3
HETATM    3  C   UNL     1     -10.326  14.702  67.003  1.00  0.00    -0.263 A  
HETATM    4  C   UNL     1      -9.200  14.112  67.593  1.00  0.00    -0.193 A  
HETATM    5  C   UNL     1      -8.828  12.804  67.279  1.00  0.00    -0.198 A  
HETATM    6  C   UNL     1      -9.566  12.093  66.340  1.00  0.00    -0.243 A  
HETATM    7  C   UNL     1     -11.054  14.003  66.012  1.00  0.00    -0.303 A  
HETATM    8  C   UNL     1     -10.672  12.679  65.698  1.00  0.00    -0.269 A  
BRANCH   5   9
HETATM    9  C   UNL     1      -7.700  12.203  68.041  1.00  0.00    -0.134 C  
HETATM   10  N   UNL     1      -7.527  10.844  67.934  1.00  0.00    -0.088 N  
HETATM   11  O   UNL     1      -6.966  12.923  68.711  1.00  0.00    -0.097 OA 
HETATM   12  H   UNL     1      -8.171  10.290  67.369  1.00  0.00     0.000 HD 
BRANCH  10  13
HETATM   13  C   UNL     1      -6.431  10.201  68.623  1.00  0.00    -0.052 C  
BRANCH  13  14
HETATM   14  C   UNL     1      -6.937   9.317  69.726  1.00  0.00    -0.058 A  
HETATM   15  C   UNL     1      -6.317   8.090  69.955  1.00  0.00    -0.030 A  
HETATM   16  C   UNL     1      -6.799   7.225  70.931  1.00  0.00    -0.052 A  
HETATM   17  C   UNL     1      -7.920   7.558  71.701  1.00  0.00    -0.090 A  
HETATM   18  C   UNL     1      -8.537   8.792  71.489  1.00  0.00    -0.253 A  
HETATM   19  C   UNL     1      -8.054   9.667  70.506  1.00  0.00    -0.145 A  
BRANCH  17  20
HETATM   20  O   UNL     1      -8.480   6.741  72.661  1.00  0.00    -0.121 OA 
BRANCH  20  21
HETATM   21  C   UNL     1      -9.833   6.373  72.370  1.00  0.00    -0.166 C  
BRANCH  21  22
HETATM   22  C   UNL     1      -9.964   5.059  71.589  1.00  0.00    -0.187 C  
BRANCH  22  23
HETATM   23  N   UNL     1     -10.639   4.012  72.394  1.00  0.00    -0.086 NA 
HETATM   24  C   UNL     1      -9.808   2.819  72.575  1.00  0.00    -0.147 C  
HETATM   25  C   UNL     1     -11.036   4.537  73.700  1.00  0.00    -0.304 C  
ENDBRANCH  22  23
ENDBRANCH  21  22
ENDBRANCH  20  21
ENDBRANCH  17  20
ENDBRANCH  13  14
ENDBRANCH  10  13
ENDBRANCH   5   9
BRANCH   8  26
HETATM   26  O   UNL     1     -11.258  11.803  64.817  1.00  0.00    -0.309 OA 
HETATM   27  C   UNL     1     -10.636  11.541  63.569  1.00  0.00    -0.423 C  
ENDBRANCH   8  26
BRANCH   7  28
HETATM   28  O   UNL     1     -12.179  14.492  65.392  1.00  0.00    -0.357 OA 
HETATM   29  C   UNL     1     -12.054  15.076  64.104  1.00  0.00    -0.223 C  
ENDBRANCH   7  28
ENDBRANCH   2   3
TORSDOF 10
ENDMDL
MODEL      208
REMARK 921   NORMALIZED FREE ENERGY PREDICTED BY IDOCK:   -3.42 KCAL/MOL
REMARK 922        TOTAL FREE ENERGY PREDICTED BY IDOCK:   -6.29 KCAL/MOL
REMARK 923 INTER-LIGAND FREE ENERGY PREDICTED BY IDOCK:   -5.59 KCAL/MOL
REMARK 924 INTRA-LIGAND FREE ENERGY PREDICTED BY IDOCK:   -0.70 KCAL/MOL
REMARK 927      BINDING AFFINITY PREDICTED BY RF-SCORE:    0.00 PKD
ROOT
HETATM    1  C   UNL     1     -11.524  15.514  68.405  1.00  0.00    -0.363 C  
HETATM    2  O   UNL     1     -10.364  15.542  67.575  1.00  0.00    -0.260 OA 
ENDROOT
BRANCH   2   3
HETATM    3  C   UNL     1      -9.994  14.343  67.017  1.00  0.00    -0.257 A  
HETATM    4  C   UNL     1      -9.065  13.505  67.650  1.00  0.00    -0.205 A  
HETATM    5  C   UNL     1      -8.765  12.245  67.131  1.00  0.00    -0.193 A  
HETATM    6  C   UNL     1      -9.372  11.832  65.950  1.00  0.00    -0.214 A  
HETATM    7  C   UNL     1     -10.579  13.951  65.790  1.00  0.00    -0.297 A  
HETATM    8  C   UNL     1     -10.272  12.673  65.270  1.00  0.00    -0.284 A  
BRANCH   5   9
HETATM    9  C   UNL     1      -7.869  11.363  67.927  1.00  0.00    -0.117 C  
HETATM   10  N   UNL     1      -7.979  11.431  69.295  1.00  0.00    -0.366 N  
HETATM   11  O   UNL     1      -7.092  10.608  67.352  1.00  0.00    -0.086 OA 
HETATM   12  H   UNL     1      -8.638  12.082  69.723  1.00  0.00     0.000 HD 
BRANCH  10  13
HETATM   13  C   UNL     1      -7.161  10.577  70.126  1.00  0.00    -0.012 C  
BRANCH  13  14
HETATM   14  C   UNL     1      -7.863   9.281  70.417  1.00  0.00    -0.158 A  
HETATM   15  C   UNL     1      -7.180   8.080  70.233  1.00  0.00    -0.053 A  
HETATM   16  C   UNL     1      -7.821   6.863  70.438  1.00  0.00    -0.109 A  
HETATM   17  C   UNL     1      -9.166   6.812  70.824  1.00  0.00    -0.158 A  
HETATM   18  C   UNL     1      -9.852   8.010  71.027  1.00  0.00    -0.200 A  
HETATM   19  C   UNL     1      -9.210   9.240  70.820  1.00  0.00    -0.316 A  
BRANCH  17  20
HETATM   20  O   UNL     1      -9.882   5.648  71.013  1.00  0.00    -0.167 OA 
BRANCH  20  21
HETATM   21  C   UNL     1      -9.153   4.471  70.648  1.00  0.00    -0.119 C  
BRANCH  21  22
HETATM   22  C   UNL     1      -9.651   3.808  69.357  1.00  0.00    -0.149 C  
BRANCH  22  23
HETATM   23  N   UNL     1      -8.523   3.328  68.523  1.00  0.00    -0.080 NA 
HETATM   24  C   UNL     1      -8.818   3.392  67.088  1.00  0.00    -0.135 C  
HETATM   25  C   UNL     1      -7.306   4.085  68.809  1.00  0.00    -0.055 C  
ENDBRANCH  22  23
ENDBRANCH  21  22
ENDBRANCH  20  21
ENDBRANCH  17  20
ENDBRANCH  13  14
ENDBRANCH  10  13
ENDBRANCH   5   9
BRANCH   8  26
HETATM   26  O   UNL     1     -10.757  12.070  64.136  1.00  0.00    -0.299 OA 
HETATM   27  C   UNL     1      -9.894  11.271  63.342  1.00  0.00    -0.385 C  
ENDBRANCH   8  26
BRANCH   7  28
HETATM   28  O   UNL     1     -11.511  14.695  65.107  1.00  0.00    -0.349 OA 
HETATM   29  C   UNL     1     -12.883  14.347  65.219  1.00  0.00    -0.199 C  
ENDBRANCH   7  28
ENDBRANCH   2   3
TORSDOF 10
ENDMDL
MODEL      209
REMARK 921   NORMALIZED FREE ENERGY PREDICTED BY IDOCK:   -3.40 KCAL/MOL
REMARK 922        TOTAL FREE ENERGY PREDICTED BY IDOCK:   -6.26 KCAL/MOL
REMARK 923 INTER-LIGAND FREE ENERGY PREDICTED BY IDOCK:   -5.52 KCAL/MOL
REMARK 924 INTRA-LIGAND FREE ENERGY PREDICTED BY IDOCK:   -0.74 KCAL/MOL
REMARK 927      BINDING AFFINITY PREDICTED BY RF-SCORE:    0.00 PKD
ROOT
HETATM    1  C   UNL     1      -6.706   6.312  69.233  1.00  0.00    -0.056 C  
HETATM    2  O   UNL     1      -7.235   6.137  67.920  1.00  0.00    -0.078 OA 
ENDROOT
BRANCH   2   3
HETATM    3  C   UNL     1      -7.471   7.289  67.208  1.00  0.00    -0.099 A  
HETATM    4  C   UNL     1      -7.223   8.550  67.767  1.00  0.00    -0.084 A  
HETATM    5  C   UNL     1      -7.369   9.713  67.010  1.00  0.00    -0.087 A  
HETATM    6  C   UNL     1      -7.802   9.617  65.692  1.00  0.00    -0.107 A  
HETATM    7  C   UNL     1      -7.958   7.186  65.884  1.00  0.00    -0.116 A  
HETATM    8  C   UNL     1      -8.104   8.367  65.121  1.00  0.00    -0.147 A  
BRANCH   5   9
HETATM    9  C   UNL     1      -6.962  11.002  67.633  1.00  0.00    -0.083 C  
HETATM   10  N   UNL     1      -7.203  12.147  66.913  1.00  0.00    -0.359 N  
HETATM   11  O   UNL     1      -6.455  11.003  68.750  1.00  0.00    -0.047 OA 
HETATM   12  H   UNL     1      -7.621  12.088  65.985  1.00  0.00     0.000 HD 
BRANCH  10  13
HETATM   13  C   UNL     1      -6.862  13.434  67.475  1.00  0.00    -0.144 C  
BRANCH  13  14
HETATM   14  C   UNL     1      -8.083  14.121  68.018  1.00  0.00    -0.149 A  
HETATM   15  C   UNL     1      -9.325  13.854  67.446  1.00  0.00    -0.228 A  
HETATM   16  C   UNL     1     -10.465  14.517  67.889  1.00  0.00    -0.242 A  
HETATM   17  C   UNL     1     -10.394  15.472  68.911  1.00  0.00    -0.221 A  
HETATM   18  C   UNL     1      -9.156  15.733  69.500  1.00  0.00    -0.202 A  
HETATM   19  C   UNL     1      -8.004  15.067  69.056  1.00  0.00    -0.180 A  
BRANCH  17  20
HETATM   20  O   UNL     1     -11.468  16.197  69.380  1.00  0.00    -0.328 OA 
BRANCH  20  21
HETATM   21  C   UNL     1     -11.795  15.905  70.744  1.00  0.00    -0.391 C  
BRANCH  21  22
HETATM   22  C   UNL     1     -12.265  14.463  70.974  1.00  0.00    -0.351 C  
BRANCH  22  23
HETATM   23  N   UNL     1     -12.832  14.286  72.332  1.00  0.00    -0.353 NA 
HETATM   24  C   UNL     1     -12.631  15.462  73.183  1.00  0.00    -0.465 C  
HETATM   25  C   UNL     1     -14.257  13.967  72.262  1.00  0.00    -0.504 C  
ENDBRANCH  22  23
ENDBRANCH  21  22
ENDBRANCH  20  21
ENDBRANCH  17  20
ENDBRANCH  13  14
ENDBRANCH  10  13
ENDBRANCH   5   9
BRANCH   8  26
HETATM   26  O   UNL     1      -8.506   8.500  63.815  1.00  0.00    -0.134 OA 
HETATM   27  C   UNL     1      -7.602   8.188  62.767  1.00  0.00    -0.122 C  
ENDBRANCH   8  26
BRANCH   7  28
HETATM   28  O   UNL     1      -8.213   5.996  65.246  1.00  0.00    -0.128 OA 
HETATM   29  C   UNL     1      -9.389   5.274  65.583  1.00  0.00    -0.114 C  
ENDBRANCH   7  28
ENDBRANCH   2   3
TORSDOF 10
ENDMDL
MODEL      210
REMARK 921   NORMALIZED FREE ENERGY PREDICTED BY IDOCK:   -3.39 KCAL/MOL
REMARK 922        TOTAL FREE ENERGY PREDICTED BY IDOCK:   -6.24 KCAL/MOL
REMARK 923 INTER-LIGAND FREE ENERGY PREDICTED BY IDOCK:   -5.66 KCAL/MOL
REMARK 924 INTRA-LIGAND FREE ENERGY PREDICTED BY IDOCK:   -0.58 KCAL/MOL
REMARK 927      BINDING AFFINITY PREDICTED BY RF-SCORE:    0.00 PKD
ROOT
HETATM    1  C   UNL     1      -8.403   9.255  64.326  1.00  0.00    -0.177 C  
HETATM    2  O   UNL     1      -9.647   9.953  64.359  1.00  0.00    -0.294 OA 
ENDROOT
BRANCH   2   3
HETATM    3  C   UNL     1     -10.128  10.264  65.608  1.00  0.00    -0.271 A  
HETATM    4  C   UNL     1     -10.300   9.274  66.585  1.00  0.00    -0.292 A  
HETATM    5  C   UNL     1     -10.695   9.606  67.882  1.00  0.00    -0.302 A  
HETATM    6  C   UNL     1     -10.956  10.935  68.195  1.00  0.00    -0.302 A  
HETATM    7  C   UNL     1     -10.439  11.612  65.904  1.00  0.00    -0.255 A  
HETATM    8  C   UNL     1     -10.838  11.942  67.219  1.00  0.00    -0.247 A  
BRANCH   5   9
HETATM    9  C   UNL     1     -10.729   8.517  68.896  1.00  0.00    -0.073 C  
HETATM   10  N   UNL     1     -10.891   8.891  70.208  1.00  0.00    -0.235 N  
HETATM   11  O   UNL     1     -10.633   7.348  68.536  1.00  0.00    -0.199 OA 
HETATM   12  H   UNL     1     -10.958   9.879  70.454  1.00  0.00     0.000 HD 
BRANCH  10  13
HETATM   13  C   UNL     1     -10.965   7.881  71.240  1.00  0.00    -0.238 C  
BRANCH  13  14
HETATM   14  C   UNL     1      -9.677   7.806  72.009  1.00  0.00    -0.224 A  
HETATM   15  C   UNL     1      -9.716   7.780  73.402  1.00  0.00    -0.353 A  
HETATM   16  C   UNL     1      -8.539   7.770  74.143  1.00  0.00    -0.307 A  
HETATM   17  C   UNL     1      -7.289   7.793  73.513  1.00  0.00    -0.114 A  
HETATM   18  C   UNL     1      -7.242   7.802  72.118  1.00  0.00    -0.079 A  
HETATM   19  C   UNL     1      -8.426   7.814  71.367  1.00  0.00    -0.125 A  
BRANCH  17  20
HETATM   20  O   UNL     1      -6.080   7.821  74.174  1.00  0.00    -0.071 OA 
BRANCH  20  21
HETATM   21  C   UNL     1      -5.404   6.559  74.169  1.00  0.00    -0.046 C  
BRANCH  21  22
HETATM   22  C   UNL     1      -6.302   5.371  74.537  1.00  0.00    -0.069 C  
BRANCH  22  23
HETATM   23  N   UNL     1      -6.260   4.314  73.498  1.00  0.00    -0.030 NA 
HETATM   24  C   UNL     1      -7.594   3.951  73.011  1.00  0.00    -0.074 C  
HETATM   25  C   UNL     1      -5.421   4.725  72.373  1.00  0.00    -0.008 C  
ENDBRANCH  22  23
ENDBRANCH  21  22
ENDBRANCH  20  21
ENDBRANCH  17  20
ENDBRANCH  13  14
ENDBRANCH  10  13
ENDBRANCH   5   9
BRANCH   8  26
HETATM   26  O   UNL     1     -11.135  13.178  67.740  1.00  0.00    -0.246 OA 
HETATM   27  C   UNL     1     -11.527  13.291  69.099  1.00  0.00    -0.305 C  
ENDBRANCH   8  26
BRANCH   7  28
HETATM   28  O   UNL     1     -10.286  12.651  65.019  1.00  0.00    -0.286 OA 
HETATM   29  C   UNL     1     -11.020  12.631  63.803  1.00  0.00    -0.435 C  
ENDBRANCH   7  28
ENDBRANCH   2   3
TORSDOF 10
ENDMDL
MODEL      211
REMARK 921   NORMALIZED FREE ENERGY PREDICTED BY IDOCK:   -3.38 KCAL/MOL
REMARK 922        TOTAL FREE ENERGY PREDICTED BY IDOCK:   -6.23 KCAL/MOL
REMARK 923 INTER-LIGAND FREE ENERGY PREDICTED BY IDOCK:   -5.46 KCAL/MOL
REMARK 924 INTRA-LIGAND FREE ENERGY PREDICTED BY IDOCK:   -0.76 KCAL/MOL
REMARK 927      BINDING AFFINITY PREDICTED BY RF-SCORE:    0.00 PKD
ROOT
HETATM    1  C   UNL     1     -11.518  16.024  67.928  1.00  0.00    -0.140 C  
HETATM    2  O   UNL     1     -11.996  14.966  68.758  1.00  0.00    -0.303 OA 
ENDROOT
BRANCH   2   3
HETATM    3  C   UNL     1     -11.668  13.693  68.359  1.00  0.00    -0.358 A  
HETATM    4  C   UNL     1     -11.307  13.420  67.032  1.00  0.00    -0.346 A  
HETATM    5  C   UNL     1     -10.880  12.147  66.652  1.00  0.00    -0.307 A  
HETATM    6  C   UNL     1     -10.846  11.129  67.598  1.00  0.00    -0.295 A  
HETATM    7  C   UNL     1     -11.683  12.652  69.317  1.00  0.00    -0.322 A  
HETATM    8  C   UNL     1     -11.249  11.365  68.926  1.00  0.00    -0.248 A  
BRANCH   5   9
HETATM    9  C   UNL     1     -10.391  11.968  65.258  1.00  0.00    -0.275 C  
HETATM   10  N   UNL     1      -9.956  10.714  64.904  1.00  0.00    -0.295 N  
HETATM   11  O   UNL     1     -10.407  12.918  64.481  1.00  0.00    -0.351 OA 
HETATM   12  H   UNL     1      -9.956   9.960  65.592  1.00  0.00     0.000 HD 
BRANCH  10  13
HETATM   13  C   UNL     1      -9.499  10.464  63.556  1.00  0.00    -0.312 C  
BRANCH  13  14
HETATM   14  C   UNL     1      -8.599   9.263  63.510  1.00  0.00    -0.201 A  
HETATM   15  C   UNL     1      -8.659   8.408  62.411  1.00  0.00    -0.103 A  
HETATM   16  C   UNL     1      -7.880   7.257  62.366  1.00  0.00    -0.126 A  
HETATM   17  C   UNL     1      -7.025   6.922  63.423  1.00  0.00    -0.056 A  
HETATM   18  C   UNL     1      -6.947   7.782  64.520  1.00  0.00    -0.060 A  
HETATM   19  C   UNL     1      -7.731   8.943  64.569  1.00  0.00    -0.119 A  
BRANCH  17  20
HETATM   20  O   UNL     1      -6.249   5.784  63.471  1.00  0.00    -0.024 OA 
BRANCH  20  21
HETATM   21  C   UNL     1      -6.809   4.752  64.291  1.00  0.00    -0.048 C  
BRANCH  21  22
HETATM   22  C   UNL     1      -7.840   3.875  63.569  1.00  0.00    -0.078 C  
BRANCH  22  23
HETATM   23  N   UNL     1      -9.224   4.340  63.823  1.00  0.00    -0.142 NA 
HETATM   24  C   UNL     1     -10.227   3.317  63.515  1.00  0.00    -0.199 C  
HETATM   25  C   UNL     1      -9.378   4.777  65.210  1.00  0.00    -0.143 C  
ENDBRANCH  22  23
ENDBRANCH  21  22
ENDBRANCH  20  21
ENDBRANCH  17  20
ENDBRANCH  13  14
ENDBRANCH  10  13
ENDBRANCH   5   9
BRANCH   8  26
HETATM   26  O   UNL     1     -11.132  10.230  69.690  1.00  0.00    -0.240 OA 
HETATM   27  C   UNL     1     -10.256   9.192  69.278  1.00  0.00    -0.210 C  
ENDBRANCH   8  26
BRANCH   7  28
HETATM   28  O   UNL     1     -12.004  12.827  70.641  1.00  0.00    -0.300 OA 
HETATM   29  C   UNL     1     -13.176  12.207  71.151  1.00  0.00     0.137 C  
ENDBRANCH   7  28
ENDBRANCH   2   3
TORSDOF 10
ENDMDL
MODEL      212
REMARK 921   NORMALIZED FREE ENERGY PREDICTED BY IDOCK:   -3.37 KCAL/MOL
REMARK 922        TOTAL FREE ENERGY PREDICTED BY IDOCK:   -6.21 KCAL/MOL
REMARK 923 INTER-LIGAND FREE ENERGY PREDICTED BY IDOCK:   -5.27 KCAL/MOL
REMARK 924 INTRA-LIGAND FREE ENERGY PREDICTED BY IDOCK:   -0.94 KCAL/MOL
REMARK 927      BINDING AFFINITY PREDICTED BY RF-SCORE:    0.00 PKD
ROOT
HETATM    1  C   UNL     1     -10.828   9.763  67.081  1.00  0.00    -0.136 C  
HETATM    2  O   UNL     1     -10.355  10.576  66.008  1.00  0.00    -0.248 OA 
ENDROOT
BRANCH   2   3
HETATM    3  C   UNL     1      -8.992  10.726  65.923  1.00  0.00    -0.184 A  
HETATM    4  C   UNL     1      -8.305  11.598  66.780  1.00  0.00    -0.171 A  
HETATM    5  C   UNL     1      -6.911  11.675  66.758  1.00  0.00    -0.080 A  
HETATM    6  C   UNL     1      -6.200  10.902  65.848  1.00  0.00    -0.089 A  
HETATM    7  C   UNL     1      -8.279   9.972  64.962  1.00  0.00    -0.148 A  
HETATM    8  C   UNL     1      -6.868  10.054  64.945  1.00  0.00    -0.133 A  
BRANCH   5   9
HETATM    9  C   UNL     1      -6.248  12.525  67.785  1.00  0.00    -0.119 C  
HETATM   10  N   UNL     1      -6.879  12.645  68.999  1.00  0.00    -0.139 N  
HETATM   11  O   UNL     1      -5.176  13.064  67.526  1.00  0.00    -0.242 OA 
HETATM   12  H   UNL     1      -7.773  12.182  69.158  1.00  0.00     0.000 HD 
BRANCH  10  13
HETATM   13  C   UNL     1      -6.272  13.430  70.051  1.00  0.00    -0.089 C  
BRANCH  13  14
HETATM   14  C   UNL     1      -6.484  14.898  69.813  1.00  0.00    -0.164 A  
HETATM   15  C   UNL     1      -7.735  15.346  69.393  1.00  0.00    -0.227 A  
HETATM   16  C   UNL     1      -7.947  16.691  69.110  1.00  0.00    -0.154 A  
HETATM   17  C   UNL     1      -6.911  17.625  69.230  1.00  0.00    -0.194 A  
HETATM   18  C   UNL     1      -5.660  17.187  69.666  1.00  0.00    -0.206 A  
HETATM   19  C   UNL     1      -5.442  15.832  69.953  1.00  0.00    -0.126 A  
BRANCH  17  20
HETATM   20  O   UNL     1      -7.030  18.967  68.935  1.00  0.00    -0.291 OA 
BRANCH  20  21
HETATM   21  C   UNL     1      -8.377  19.369  68.662  1.00  0.00    -0.362 C  
BRANCH  21  22
HETATM   22  C   UNL     1      -8.648  19.669  67.182  1.00  0.00    -0.308 C  
BRANCH  22  23
HETATM   23  N   UNL     1      -9.978  19.169  66.761  1.00  0.00    -0.336 NA 
HETATM   24  C   UNL     1     -10.592  20.006  65.726  1.00  0.00    -0.323 C  
HETATM   25  C   UNL     1      -9.888  17.789  66.287  1.00  0.00    -0.294 C  
ENDBRANCH  22  23
ENDBRANCH  21  22
ENDBRANCH  20  21
ENDBRANCH  17  20
ENDBRANCH  13  14
ENDBRANCH  10  13
ENDBRANCH   5   9
BRANCH   8  26
HETATM   26  O   UNL     1      -5.979   9.381  64.143  1.00  0.00    -0.074 OA 
HETATM   27  C   UNL     1      -5.395  10.042  63.033  1.00  0.00    -0.101 C  
ENDBRANCH   8  26
BRANCH   7  28
HETATM   28  O   UNL     1      -8.863   9.081  64.094  1.00  0.00    -0.156 OA 
HETATM   29  C   UNL     1      -9.130   9.494  62.762  1.00  0.00    -0.174 C  
ENDBRANCH   7  28
ENDBRANCH   2   3
TORSDOF 10
ENDMDL
MODEL      213
REMARK 921   NORMALIZED FREE ENERGY PREDICTED BY IDOCK:   -3.37 KCAL/MOL
REMARK 922        TOTAL FREE ENERGY PREDICTED BY IDOCK:   -6.20 KCAL/MOL
REMARK 923 INTER-LIGAND FREE ENERGY PREDICTED BY IDOCK:   -5.35 KCAL/MOL
REMARK 924 INTRA-LIGAND FREE ENERGY PREDICTED BY IDOCK:   -0.85 KCAL/MOL
REMARK 927      BINDING AFFINITY PREDICTED BY RF-SCORE:    0.00 PKD
ROOT
HETATM    1  C   UNL     1      -6.018   4.461  69.959  1.00  0.00    -0.018 C  
HETATM    2  O   UNL     1      -6.436   5.219  71.094  1.00  0.00    -0.032 OA 
ENDROOT
BRANCH   2   3
HETATM    3  C   UNL     1      -7.793   5.341  71.268  1.00  0.00    -0.107 A  
HETATM    4  C   UNL     1      -8.601   5.919  70.279  1.00  0.00    -0.134 A  
HETATM    5  C   UNL     1      -9.990   5.953  70.416  1.00  0.00    -0.247 A  
HETATM    6  C   UNL     1     -10.573   5.438  71.568  1.00  0.00    -0.285 A  
HETATM    7  C   UNL     1      -8.375   4.858  72.464  1.00  0.00    -0.119 A  
HETATM    8  C   UNL     1      -9.782   4.895  72.596  1.00  0.00    -0.150 A  
BRANCH   5   9
HETATM    9  C   UNL     1     -10.787   6.465  69.268  1.00  0.00    -0.327 C  
HETATM   10  N   UNL     1     -10.090   6.974  68.200  1.00  0.00    -0.162 N  
HETATM   11  O   UNL     1     -12.012   6.400  69.302  1.00  0.00     0.045 OA 
HETATM   12  H   UNL     1      -9.070   7.011  68.226  1.00  0.00     0.000 HD 
BRANCH  10  13
HETATM   13  C   UNL     1     -10.803   7.457  67.039  1.00  0.00    -0.237 C  
BRANCH  13  14
HETATM   14  C   UNL     1     -10.494   8.905  66.786  1.00  0.00    -0.269 A  
HETATM   15  C   UNL     1      -9.548   9.241  65.819  1.00  0.00    -0.341 A  
HETATM   16  C   UNL     1      -9.199  10.570  65.603  1.00  0.00    -0.221 A  
HETATM   17  C   UNL     1      -9.779  11.600  66.352  1.00  0.00    -0.214 A  
HETATM   18  C   UNL     1     -10.740  11.273  67.311  1.00  0.00    -0.295 A  
HETATM   19  C   UNL     1     -11.094   9.935  67.533  1.00  0.00    -0.141 A  
BRANCH  17  20
HETATM   20  O   UNL     1      -9.462  12.936  66.224  1.00  0.00    -0.254 OA 
BRANCH  20  21
HETATM   21  C   UNL     1     -10.230  13.785  67.083  1.00  0.00    -0.244 C  
BRANCH  21  22
HETATM   22  C   UNL     1      -9.950  15.281  66.891  1.00  0.00    -0.239 C  
BRANCH  22  23
HETATM   23  N   UNL     1      -9.980  16.011  68.180  1.00  0.00    -0.225 NA 
HETATM   24  C   UNL     1      -8.648  16.444  68.613  1.00  0.00    -0.237 C  
HETATM   25  C   UNL     1     -10.871  17.167  68.102  1.00  0.00    -0.316 C  
ENDBRANCH  22  23
ENDBRANCH  21  22
ENDBRANCH  20  21
ENDBRANCH  17  20
ENDBRANCH  13  14
ENDBRANCH  10  13
ENDBRANCH   5   9
BRANCH   8  26
HETATM   26  O   UNL     1     -10.557   4.440  73.634  1.00  0.00    -0.187 OA 
HETATM   27  C   UNL     1     -11.017   3.097  73.631  1.00  0.00    -0.233 C  
ENDBRANCH   8  26
BRANCH   7  28
HETATM   28  O   UNL     1      -7.668   4.261  73.479  1.00  0.00    -0.079 OA 
HETATM   29  C   UNL     1      -7.202   5.062  74.555  1.00  0.00    -0.082 C  
ENDBRANCH   7  28
ENDBRANCH   2   3
TORSDOF 10
ENDMDL
MODEL      214
REMARK 921   NORMALIZED FREE ENERGY PREDICTED BY IDOCK:   -3.33 KCAL/MOL
REMARK 922        TOTAL FREE ENERGY PREDICTED BY IDOCK:   -6.15 KCAL/MOL
REMARK 923 INTER-LIGAND FREE ENERGY PREDICTED BY IDOCK:   -5.33 KCAL/MOL
REMARK 924 INTRA-LIGAND FREE ENERGY PREDICTED BY IDOCK:   -0.82 KCAL/MOL
REMARK 927      BINDING AFFINITY PREDICTED BY RF-SCORE:    0.00 PKD
ROOT
HETATM    1  C   UNL     1     -11.079  16.226  69.198  1.00  0.00    -0.322 C  
HETATM    2  O   UNL     1     -10.820  17.292  68.287  1.00  0.00    -0.365 OA 
ENDROOT
BRANCH   2   3
HETATM    3  C   UNL     1      -9.497  17.537  68.007  1.00  0.00    -0.280 A  
HETATM    4  C   UNL     1      -8.509  16.583  68.289  1.00  0.00    -0.199 A  
HETATM    5  C   UNL     1      -7.181  16.793  67.915  1.00  0.00    -0.159 A  
HETATM    6  C   UNL     1      -6.831  17.982  67.285  1.00  0.00    -0.203 A  
HETATM    7  C   UNL     1      -9.141  18.769  67.410  1.00  0.00    -0.276 A  
HETATM    8  C   UNL     1      -7.795  18.976  67.032  1.00  0.00    -0.242 A  
BRANCH   5   9
HETATM    9  C   UNL     1      -6.216  15.682  68.132  1.00  0.00    -0.127 C  
HETATM   10  N   UNL     1      -6.592  14.433  67.700  1.00  0.00    -0.174 N  
HETATM   11  O   UNL     1      -5.132  15.913  68.659  1.00  0.00    -0.091 OA 
HETATM   12  H   UNL     1      -7.509  14.295  67.274  1.00  0.00     0.000 HD 
BRANCH  10  13
HETATM   13  C   UNL     1      -5.688  13.316  67.851  1.00  0.00    -0.131 C  
BRANCH  13  14
HETATM   14  C   UNL     1      -6.397  12.128  68.436  1.00  0.00    -0.054 A  
HETATM   15  C   UNL     1      -6.049  11.687  69.711  1.00  0.00    -0.131 A  
HETATM   16  C   UNL     1      -6.647  10.555  70.256  1.00  0.00    -0.138 A  
HETATM   17  C   UNL     1      -7.605   9.828  69.538  1.00  0.00    -0.114 A  
HETATM   18  C   UNL     1      -7.971  10.274  68.267  1.00  0.00    -0.106 A  
HETATM   19  C   UNL     1      -7.370  11.414  67.714  1.00  0.00    -0.098 A  
BRANCH  17  20
HETATM   20  O   UNL     1      -8.216   8.679  69.992  1.00  0.00    -0.112 OA 
BRANCH  20  21
HETATM   21  C   UNL     1      -8.475   7.728  68.953  1.00  0.00    -0.129 C  
BRANCH  21  22
HETATM   22  C   UNL     1      -9.905   7.172  68.963  1.00  0.00    -0.156 C  
BRANCH  22  23
HETATM   23  N   UNL     1     -10.150   6.281  67.803  1.00  0.00    -0.136 NA 
HETATM   24  C   UNL     1      -9.485   6.749  66.584  1.00  0.00    -0.165 C  
HETATM   25  C   UNL     1      -9.728   4.914  68.100  1.00  0.00    -0.148 C  
ENDBRANCH  22  23
ENDBRANCH  21  22
ENDBRANCH  20  21
ENDBRANCH  17  20
ENDBRANCH  13  14
ENDBRANCH  10  13
ENDBRANCH   5   9
BRANCH   8  26
HETATM   26  O   UNL     1      -7.239  20.060  66.400  1.00  0.00    -0.244 OA 
HETATM   27  C   UNL     1      -6.596  19.889  65.146  1.00  0.00    -0.290 C  
ENDBRANCH   8  26
BRANCH   7  28
HETATM   28  O   UNL     1     -10.040  19.754  67.080  1.00  0.00    -0.369 OA 
HETATM   29  C   UNL     1     -10.662  19.717  65.804  1.00  0.00    -0.370 C  
ENDBRANCH   7  28
ENDBRANCH   2   3
TORSDOF 10
ENDMDL
MODEL      215
REMARK 921   NORMALIZED FREE ENERGY PREDICTED BY IDOCK:   -3.31 KCAL/MOL
REMARK 922        TOTAL FREE ENERGY PREDICTED BY IDOCK:   -6.10 KCAL/MOL
REMARK 923 INTER-LIGAND FREE ENERGY PREDICTED BY IDOCK:   -5.32 KCAL/MOL
REMARK 924 INTRA-LIGAND FREE ENERGY PREDICTED BY IDOCK:   -0.78 KCAL/MOL
REMARK 927      BINDING AFFINITY PREDICTED BY RF-SCORE:    0.00 PKD
ROOT
HETATM    1  C   UNL     1     -10.783   5.246  66.238  1.00  0.00    -0.196 C  
HETATM    2  O   UNL     1     -10.371   5.161  67.601  1.00  0.00    -0.169 OA 
ENDROOT
BRANCH   2   3
HETATM    3  C   UNL     1      -9.124   5.661  67.885  1.00  0.00    -0.107 A  
HETATM    4  C   UNL     1      -8.666   6.845  67.290  1.00  0.00    -0.119 A  
HETATM    5  C   UNL     1      -7.440   7.404  67.654  1.00  0.00    -0.097 A  
HETATM    6  C   UNL     1      -6.648   6.754  68.595  1.00  0.00    -0.051 A  
HETATM    7  C   UNL     1      -8.303   4.969  68.806  1.00  0.00    -0.084 A  
HETATM    8  C   UNL     1      -7.062   5.540  69.171  1.00  0.00    -0.064 A  
BRANCH   5   9
HETATM    9  C   UNL     1      -7.082   8.727  67.076  1.00  0.00    -0.078 C  
HETATM   10  N   UNL     1      -7.942   9.770  67.321  1.00  0.00    -0.105 N  
HETATM   11  O   UNL     1      -6.046   8.848  66.429  1.00  0.00    -0.057 OA 
HETATM   12  H   UNL     1      -8.795   9.613  67.859  1.00  0.00     0.000 HD 
BRANCH  10  13
HETATM   13  C   UNL     1      -7.636  11.089  66.815  1.00  0.00    -0.139 C  
BRANCH  13  14
HETATM   14  C   UNL     1      -8.720  12.064  67.177  1.00  0.00    -0.183 A  
HETATM   15  C   UNL     1     -10.044  11.630  67.210  1.00  0.00    -0.221 A  
HETATM   16  C   UNL     1     -11.075  12.522  67.485  1.00  0.00    -0.311 A  
HETATM   17  C   UNL     1     -10.812  13.877  67.725  1.00  0.00    -0.250 A  
HETATM   18  C   UNL     1      -9.488  14.316  67.710  1.00  0.00    -0.216 A  
HETATM   19  C   UNL     1      -8.446  13.419  67.433  1.00  0.00    -0.197 A  
BRANCH  17  20
HETATM   20  O   UNL     1     -11.779  14.829  67.969  1.00  0.00    -0.333 OA 
BRANCH  20  21
HETATM   21  C   UNL     1     -11.816  15.260  69.334  1.00  0.00    -0.343 C  
BRANCH  21  22
HETATM   22  C   UNL     1     -12.528  14.280  70.275  1.00  0.00    -0.361 C  
BRANCH  22  23
HETATM   23  N   UNL     1     -12.214  14.564  71.696  1.00  0.00    -0.342 NA 
HETATM   24  C   UNL     1     -11.826  15.960  71.918  1.00  0.00    -0.506 C  
HETATM   25  C   UNL     1     -13.347  14.226  72.555  1.00  0.00    -0.500 C  
ENDBRANCH  22  23
ENDBRANCH  21  22
ENDBRANCH  20  21
ENDBRANCH  17  20
ENDBRANCH  13  14
ENDBRANCH  10  13
ENDBRANCH   5   9
BRANCH   8  26
HETATM   26  O   UNL     1      -6.138   5.076  70.074  1.00  0.00    -0.020 OA 
HETATM   27  C   UNL     1      -6.028   5.693  71.347  1.00  0.00    -0.029 C  
ENDBRANCH   8  26
BRANCH   7  28
HETATM   28  O   UNL     1      -8.673   3.814  69.452  1.00  0.00    -0.071 OA 
HETATM   29  C   UNL     1      -9.482   3.907  70.615  1.00  0.00    -0.174 C  
ENDBRANCH   7  28
ENDBRANCH   2   3
TORSDOF 10
ENDMDL
MODEL      216
REMARK 921   NORMALIZED FREE ENERGY PREDICTED BY IDOCK:   -3.25 KCAL/MOL
REMARK 922        TOTAL FREE ENERGY PREDICTED BY IDOCK:   -6.02 KCAL/MOL
REMARK 923 INTER-LIGAND FREE ENERGY PREDICTED BY IDOCK:   -4.96 KCAL/MOL
REMARK 924 INTRA-LIGAND FREE ENERGY PREDICTED BY IDOCK:   -1.06 KCAL/MOL
REMARK 927      BINDING AFFINITY PREDICTED BY RF-SCORE:    0.00 PKD
ROOT
HETATM    1  C   UNL     1     -11.879  13.233  67.568  1.00  0.00    -0.358 C  
HETATM    2  O   UNL     1     -11.355  13.118  68.890  1.00  0.00    -0.256 OA 
ENDROOT
BRANCH   2   3
HETATM    3  C   UNL     1     -11.167  11.839  69.355  1.00  0.00    -0.234 A  
HETATM    4  C   UNL     1     -10.062  11.077  68.952  1.00  0.00    -0.212 A  
HETATM    5  C   UNL     1      -9.821   9.816  69.500  1.00  0.00    -0.230 A  
HETATM    6  C   UNL     1     -10.712   9.297  70.432  1.00  0.00    -0.300 A  
HETATM    7  C   UNL     1     -12.104  11.299  70.266  1.00  0.00    -0.373 A  
HETATM    8  C   UNL     1     -11.855  10.021  70.819  1.00  0.00    -0.346 A  
BRANCH   5   9
HETATM    9  C   UNL     1      -8.559   9.124  69.119  1.00  0.00    -0.133 C  
HETATM   10  N   UNL     1      -8.675   7.872  68.566  1.00  0.00    -0.131 N  
HETATM   11  O   UNL     1      -7.482   9.688  69.289  1.00  0.00    -0.076 OA 
HETATM   12  H   UNL     1      -9.596   7.446  68.454  1.00  0.00     0.000 HD 
BRANCH  10  13
HETATM   13  C   UNL     1      -7.491   7.159  68.144  1.00  0.00    -0.099 C  
BRANCH  13  14
HETATM   14  C   UNL     1      -7.563   6.821  66.683  1.00  0.00    -0.086 A  
HETATM   15  C   UNL     1      -8.049   7.771  65.787  1.00  0.00    -0.125 A  
HETATM   16  C   UNL     1      -8.182   7.467  64.436  1.00  0.00    -0.018 A  
HETATM   17  C   UNL     1      -7.841   6.202  63.943  1.00  0.00    -0.113 A  
HETATM   18  C   UNL     1      -7.338   5.250  64.831  1.00  0.00    -0.067 A  
HETATM   19  C   UNL     1      -7.203   5.552  66.194  1.00  0.00    -0.077 A  
BRANCH  17  20
HETATM   20  O   UNL     1      -7.977   5.811  62.628  1.00  0.00    -0.092 OA 
BRANCH  20  21
HETATM   21  C   UNL     1      -8.409   4.454  62.483  1.00  0.00    -0.083 C  
BRANCH  21  22
HETATM   22  C   UNL     1      -9.933   4.289  62.429  1.00  0.00    -0.120 C  
BRANCH  22  23
HETATM   23  N   UNL     1     -10.416   3.349  63.468  1.00  0.00    -0.227 NA 
HETATM   24  C   UNL     1      -9.437   2.304  63.780  1.00  0.00    -0.114 C  
HETATM   25  C   UNL     1     -10.776   4.066  64.690  1.00  0.00    -0.141 C  
ENDBRANCH  22  23
ENDBRANCH  21  22
ENDBRANCH  20  21
ENDBRANCH  17  20
ENDBRANCH  13  14
ENDBRANCH  10  13
ENDBRANCH   5   9
BRANCH   8  26
HETATM   26  O   UNL     1     -12.591   9.331  71.750  1.00  0.00    -0.332 OA 
HETATM   27  C   UNL     1     -12.032   8.190  72.381  1.00  0.00    -0.372 C  
ENDBRANCH   8  26
BRANCH   7  28
HETATM   28  O   UNL     1     -13.205  11.975  70.732  1.00  0.00     0.123 OA 
HETATM   29  C   UNL     1     -13.098  12.712  71.941  1.00  0.00    -0.366 C  
ENDBRANCH   7  28
ENDBRANCH   2   3
TORSDOF 10
ENDMDL
MODEL      217
REMARK 921   NORMALIZED FREE ENERGY PREDICTED BY IDOCK:   -3.23 KCAL/MOL
REMARK 922        TOTAL FREE ENERGY PREDICTED BY IDOCK:   -5.98 KCAL/MOL
REMARK 923 INTER-LIGAND FREE ENERGY PREDICTED BY IDOCK:   -6.20 KCAL/MOL
REMARK 924 INTRA-LIGAND FREE ENERGY PREDICTED BY IDOCK:    0.22 KCAL/MOL
REMARK 927      BINDING AFFINITY PREDICTED BY RF-SCORE:    0.00 PKD
ROOT
HETATM    1  C   UNL     1     -10.481   5.089  66.666  1.00  0.00    -0.250 C  
HETATM    2  O   UNL     1      -9.473   5.443  67.612  1.00  0.00    -0.116 OA 
ENDROOT
BRANCH   2   3
HETATM    3  C   UNL     1      -9.731   5.111  68.919  1.00  0.00    -0.156 A  
HETATM    4  C   UNL     1     -10.314   6.033  69.799  1.00  0.00    -0.290 A  
HETATM    5  C   UNL     1     -10.666   5.662  71.098  1.00  0.00    -0.310 A  
HETATM    6  C   UNL     1     -10.399   4.369  71.533  1.00  0.00    -0.096 A  
HETATM    7  C   UNL     1      -9.412   3.808  69.369  1.00  0.00    -0.187 A  
HETATM    8  C   UNL     1      -9.771   3.438  70.685  1.00  0.00    -0.105 A  
BRANCH   5   9
HETATM    9  C   UNL     1     -11.397   6.657  71.929  1.00  0.00    -0.279 C  
HETATM   10  N   UNL     1     -11.513   7.929  71.424  1.00  0.00    -0.255 N  
HETATM   11  O   UNL     1     -11.879   6.314  73.004  1.00  0.00     0.067 OA 
HETATM   12  H   UNL     1     -11.087   8.163  70.527  1.00  0.00     0.000 HD 
BRANCH  10  13
HETATM   13  C   UNL     1     -12.240   8.935  72.165  1.00  0.00    -0.367 C  
BRANCH  13  14
HETATM   14  C   UNL     1     -12.211  10.254  71.447  1.00  0.00    -0.481 A  
HETATM   15  C   UNL     1     -12.892  11.341  71.992  1.00  0.00    -0.274 A  
HETATM   16  C   UNL     1     -12.932  12.559  71.322  1.00  0.00    -0.301 A  
HETATM   17  C   UNL     1     -12.300  12.722  70.083  1.00  0.00    -0.165 A  
HETATM   18  C   UNL     1     -11.603  11.643  69.538  1.00  0.00    -0.397 A  
HETATM   19  C   UNL     1     -11.560  10.413  70.211  1.00  0.00    -0.410 A  
BRANCH  17  20
HETATM   20  O   UNL     1     -12.324  13.884  69.340  1.00  0.00    -0.329 OA 
BRANCH  20  21
HETATM   21  C   UNL     1     -11.691  14.988  69.996  1.00  0.00    -0.306 C  
BRANCH  21  22
HETATM   22  C   UNL     1     -12.660  15.882  70.780  1.00  0.00    -0.222 C  
BRANCH  22  23
HETATM   23  N   UNL     1     -12.496  15.711  72.243  1.00  0.00    -0.387 NA 
HETATM   24  C   UNL     1     -13.634  15.023  72.860  1.00  0.00    -0.426 C  
HETATM   25  C   UNL     1     -11.262  14.989  72.546  1.00  0.00     0.214 C  
ENDBRANCH  22  23
ENDBRANCH  21  22
ENDBRANCH  20  21
ENDBRANCH  17  20
ENDBRANCH  13  14
ENDBRANCH  10  13
ENDBRANCH   5   9
BRANCH   8  26
HETATM   26  O   UNL     1      -9.609   2.226  71.310  1.00  0.00    -0.138 OA 
HETATM   27  C   UNL     1      -9.663   2.152  72.726  1.00  0.00    -0.093 C  
ENDBRANCH   8  26
BRANCH   7  28
HETATM   28  O   UNL     1      -8.857   2.833  68.576  1.00  0.00    -0.089 OA 
HETATM   29  C   UNL     1      -7.446   2.678  68.564  1.00  0.00    -0.048 C  
ENDBRANCH   7  28
ENDBRANCH   2   3
TORSDOF 10
ENDMDL
MODEL      218
REMARK 921   NORMALIZED FREE ENERGY PREDICTED BY IDOCK:   -3.16 KCAL/MOL
REMARK 922        TOTAL FREE ENERGY PREDICTED BY IDOCK:   -5.87 KCAL/MOL
REMARK 923 INTER-LIGAND FREE ENERGY PREDICTED BY IDOCK:   -4.96 KCAL/MOL
REMARK 924 INTRA-LIGAND FREE ENERGY PREDICTED BY IDOCK:   -0.92 KCAL/MOL
REMARK 927      BINDING AFFINITY PREDICTED BY RF-SCORE:    0.00 PKD
ROOT
HETATM    1  C   UNL     1     -11.163  14.569  64.624  1.00  0.00    -0.353 C  
HETATM    2  O   UNL     1     -10.973  15.936  64.988  1.00  0.00    -0.425 OA 
ENDROOT
BRANCH   2   3
HETATM    3  C   UNL     1     -10.037  16.174  65.965  1.00  0.00    -0.351 A  
HETATM    4  C   UNL     1      -9.396  15.117  66.626  1.00  0.00    -0.291 A  
HETATM    5  C   UNL     1      -8.376  15.361  67.547  1.00  0.00    -0.190 A  
HETATM    6  C   UNL     1      -8.018  16.673  67.837  1.00  0.00    -0.177 A  
HETATM    7  C   UNL     1      -9.714  17.512  66.289  1.00  0.00    -0.258 A  
HETATM    8  C   UNL     1      -8.679  17.752  67.223  1.00  0.00    -0.237 A  
BRANCH   5   9
HETATM    9  C   UNL     1      -7.655  14.186  68.110  1.00  0.00    -0.136 C  
HETATM   10  N   UNL     1      -6.801  13.516  67.270  1.00  0.00    -0.293 N  
HETATM   11  O   UNL     1      -7.828  13.873  69.284  1.00  0.00     0.067 OA 
HETATM   12  H   UNL     1      -6.700  13.814  66.299  1.00  0.00     0.000 HD 
BRANCH  10  13
HETATM   13  C   UNL     1      -6.045  12.386  67.763  1.00  0.00    -0.111 C  
BRANCH  13  14
HETATM   14  C   UNL     1      -6.784  11.101  67.519  1.00  0.00    -0.075 A  
HETATM   15  C   UNL     1      -7.358  10.873  66.270  1.00  0.00    -0.127 A  
HETATM   16  C   UNL     1      -8.097   9.719  66.031  1.00  0.00    -0.114 A  
HETATM   17  C   UNL     1      -8.290   8.764  67.037  1.00  0.00    -0.103 A  
HETATM   18  C   UNL     1      -7.704   8.978  68.286  1.00  0.00    -0.095 A  
HETATM   19  C   UNL     1      -6.959  10.140  68.530  1.00  0.00    -0.069 A  
BRANCH  17  20
HETATM   20  O   UNL     1      -9.038   7.614  66.892  1.00  0.00    -0.133 OA 
BRANCH  20  21
HETATM   21  C   UNL     1      -8.239   6.431  66.787  1.00  0.00    -0.110 C  
BRANCH  21  22
HETATM   22  C   UNL     1      -8.685   5.478  65.670  1.00  0.00    -0.153 C  
BRANCH  22  23
HETATM   23  N   UNL     1      -7.688   5.419  64.575  1.00  0.00    -0.089 NA 
HETATM   24  C   UNL     1      -7.873   6.487  63.588  1.00  0.00    -0.106 C  
HETATM   25  C   UNL     1      -6.328   5.472  65.107  1.00  0.00    -0.038 C  
ENDBRANCH  22  23
ENDBRANCH  21  22
ENDBRANCH  20  21
ENDBRANCH  17  20
ENDBRANCH  13  14
ENDBRANCH  10  13
ENDBRANCH   5   9
BRANCH   8  26
HETATM   26  O   UNL     1      -8.167  18.955  67.645  1.00  0.00    -0.262 OA 
HETATM   27  C   UNL     1      -6.868  19.348  67.234  1.00  0.00    -0.197 C  
ENDBRANCH   8  26
BRANCH   7  28
HETATM   28  O   UNL     1     -10.275  18.610  65.683  1.00  0.00    -0.536 OA 
HETATM   29  C   UNL     1     -11.119  19.459  66.447  1.00  0.00     0.003 C  
ENDBRANCH   7  28
ENDBRANCH   2   3
TORSDOF 10
ENDMDL
MODEL      219
REMARK 921   NORMALIZED FREE ENERGY PREDICTED BY IDOCK:   -3.15 KCAL/MOL
REMARK 922        TOTAL FREE ENERGY PREDICTED BY IDOCK:   -5.86 KCAL/MOL
REMARK 923 INTER-LIGAND FREE ENERGY PREDICTED BY IDOCK:   -4.99 KCAL/MOL
REMARK 924 INTRA-LIGAND FREE ENERGY PREDICTED BY IDOCK:   -0.87 KCAL/MOL
REMARK 927      BINDING AFFINITY PREDICTED BY RF-SCORE:    0.00 PKD
ROOT
HETATM    1  C   UNL     1      -9.425  15.158  68.915  1.00  0.00    -0.213 C  
HETATM    2  O   UNL     1     -10.419  14.401  68.227  1.00  0.00    -0.234 OA 
ENDROOT
BRANCH   2   3
HETATM    3  C   UNL     1     -10.871  13.275  68.872  1.00  0.00    -0.210 A  
HETATM    4  C   UNL     1     -10.294  12.021  68.628  1.00  0.00    -0.211 A  
HETATM    5  C   UNL     1     -10.688  10.896  69.355  1.00  0.00    -0.265 A  
HETATM    6  C   UNL     1     -11.691  11.019  70.309  1.00  0.00    -0.445 A  
HETATM    7  C   UNL     1     -11.926  13.399  69.806  1.00  0.00    -0.330 A  
HETATM    8  C   UNL     1     -12.319  12.257  70.540  1.00  0.00    -0.264 A  
BRANCH   5   9
HETATM    9  C   UNL     1      -9.940   9.629  69.130  1.00  0.00    -0.185 C  
HETATM   10  N   UNL     1      -8.581   9.727  68.960  1.00  0.00    -0.137 N  
HETATM   11  O   UNL     1     -10.544   8.561  69.123  1.00  0.00    -0.223 OA 
HETATM   12  H   UNL     1      -8.130  10.642  68.967  1.00  0.00     0.000 HD 
BRANCH  10  13
HETATM   13  C   UNL     1      -7.791   8.532  68.770  1.00  0.00    -0.110 C  
BRANCH  13  14
HETATM   14  C   UNL     1      -7.816   8.097  67.332  1.00  0.00    -0.106 A  
HETATM   15  C   UNL     1      -7.941   6.742  67.033  1.00  0.00    -0.109 A  
HETATM   16  C   UNL     1      -7.909   6.302  65.713  1.00  0.00    -0.103 A  
HETATM   17  C   UNL     1      -7.742   7.205  64.656  1.00  0.00    -0.112 A  
HETATM   18  C   UNL     1      -7.632   8.566  64.947  1.00  0.00    -0.098 A  
HETATM   19  C   UNL     1      -7.664   9.012  66.276  1.00  0.00    -0.095 A  
BRANCH  17  20
HETATM   20  O   UNL     1      -7.664   6.847  63.327  1.00  0.00    -0.100 OA 
BRANCH  20  21
HETATM   21  C   UNL     1      -7.158   5.522  63.127  1.00  0.00    -0.039 C  
BRANCH  21  22
HETATM   22  C   UNL     1      -8.104   4.609  62.338  1.00  0.00    -0.072 C  
BRANCH  22  23
HETATM   23  N   UNL     1      -8.643   3.519  63.187  1.00  0.00    -0.089 NA 
HETATM   24  C   UNL     1      -9.415   2.537  62.421  1.00  0.00    -0.089 C  
HETATM   25  C   UNL     1      -7.566   2.843  63.908  1.00  0.00    -0.068 C  
ENDBRANCH  22  23
ENDBRANCH  21  22
ENDBRANCH  20  21
ENDBRANCH  17  20
ENDBRANCH  13  14
ENDBRANCH  10  13
ENDBRANCH   5   9
BRANCH   8  26
HETATM   26  O   UNL     1     -13.273  12.156  71.523  1.00  0.00    -0.345 OA 
HETATM   27  C   UNL     1     -13.581  10.885  72.074  1.00  0.00    -0.050 C  
ENDBRANCH   8  26
BRANCH   7  28
HETATM   28  O   UNL     1     -12.539  14.587  70.124  1.00  0.00    -0.341 OA 
HETATM   29  C   UNL     1     -12.123  15.284  71.289  1.00  0.00    -0.349 C  
ENDBRANCH   7  28
ENDBRANCH   2   3
TORSDOF 10
ENDMDL
MODEL      220
REMARK 921   NORMALIZED FREE ENERGY PREDICTED BY IDOCK:   -3.09 KCAL/MOL
REMARK 922        TOTAL FREE ENERGY PREDICTED BY IDOCK:   -5.76 KCAL/MOL
REMARK 923 INTER-LIGAND FREE ENERGY PREDICTED BY IDOCK:   -6.76 KCAL/MOL
REMARK 924 INTRA-LIGAND FREE ENERGY PREDICTED BY IDOCK:    1.00 KCAL/MOL
REMARK 927      BINDING AFFINITY PREDICTED BY RF-SCORE:    0.00 PKD
ROOT
HETATM    1  C   UNL     1     -12.087  14.828  71.940  1.00  0.00    -0.335 C  
HETATM    2  O   UNL     1     -12.585  13.733  71.173  1.00  0.00    -0.342 OA 
ENDROOT
BRANCH   2   3
HETATM    3  C   UNL     1     -11.884  13.430  70.031  1.00  0.00    -0.294 A  
HETATM    4  C   UNL     1     -11.585  12.102  69.697  1.00  0.00    -0.361 A  
HETATM    5  C   UNL     1     -10.960  11.789  68.489  1.00  0.00    -0.270 A  
HETATM    6  C   UNL     1     -10.597  12.815  67.624  1.00  0.00    -0.230 A  
HETATM    7  C   UNL     1     -11.475  14.483  69.180  1.00  0.00    -0.294 A  
HETATM    8  C   UNL     1     -10.843  14.160  67.957  1.00  0.00    -0.246 A  
BRANCH   5   9
HETATM    9  C   UNL     1     -10.793  10.350  68.147  1.00  0.00    -0.264 C  
HETATM   10  N   UNL     1     -10.764   9.458  69.191  1.00  0.00    -0.285 N  
HETATM   11  O   UNL     1     -10.708  10.011  66.970  1.00  0.00    -0.234 OA 
HETATM   12  H   UNL     1     -10.831   9.795  70.152  1.00  0.00     0.000 HD 
BRANCH  10  13
HETATM   13  C   UNL     1     -10.637   8.043  68.926  1.00  0.00    -0.140 C  
BRANCH  13  14
HETATM   14  C   UNL     1     -10.648   7.256  70.205  1.00  0.00    -0.243 A  
HETATM   15  C   UNL     1      -9.513   6.534  70.570  1.00  0.00    -0.173 A  
HETATM   16  C   UNL     1      -9.512   5.750  71.719  1.00  0.00    -0.167 A  
HETATM   17  C   UNL     1     -10.648   5.659  72.531  1.00  0.00    -0.224 A  
HETATM   18  C   UNL     1     -11.783   6.392  72.182  1.00  0.00    -0.366 A  
HETATM   19  C   UNL     1     -11.789   7.183  71.024  1.00  0.00    -0.373 A  
BRANCH  17  20
HETATM   20  O   UNL     1     -10.740   4.878  73.664  1.00  0.00    -0.238 OA 
BRANCH  20  21
HETATM   21  C   UNL     1      -9.494   4.279  74.040  1.00  0.00    -0.105 C  
BRANCH  21  22
HETATM   22  C   UNL     1      -9.447   2.760  73.831  1.00  0.00    -0.087 C  
BRANCH  22  23
HETATM   23  N   UNL     1     -10.410   2.324  72.792  1.00  0.00    -0.149 NA 
HETATM   24  C   UNL     1      -9.760   1.622  71.681  1.00  0.00    -0.133 C  
HETATM   25  C   UNL     1     -11.448   1.472  73.371  1.00  0.00    -0.189 C  
ENDBRANCH  22  23
ENDBRANCH  21  22
ENDBRANCH  20  21
ENDBRANCH  17  20
ENDBRANCH  13  14
ENDBRANCH  10  13
ENDBRANCH   5   9
BRANCH   8  26
HETATM   26  O   UNL     1     -10.413  15.006  66.965  1.00  0.00    -0.269 OA 
HETATM   27  C   UNL     1     -10.877  14.823  65.636  1.00  0.00    -0.339 C  
ENDBRANCH   8  26
BRANCH   7  28
HETATM   28  O   UNL     1     -11.738  15.811  69.415  1.00  0.00    -0.349 OA 
HETATM   29  C   UNL     1     -11.293  16.776  68.473  1.00  0.00    -0.064 C  
ENDBRANCH   7  28
ENDBRANCH   2   3
TORSDOF 10
ENDMDL
MODEL      221
REMARK 921   NORMALIZED FREE ENERGY PREDICTED BY IDOCK:   -3.09 KCAL/MOL
REMARK 922        TOTAL FREE ENERGY PREDICTED BY IDOCK:   -5.76 KCAL/MOL
REMARK 923 INTER-LIGAND FREE ENERGY PREDICTED BY IDOCK:   -4.84 KCAL/MOL
REMARK 924 INTRA-LIGAND FREE ENERGY PREDICTED BY IDOCK:   -0.92 KCAL/MOL
REMARK 927      BINDING AFFINITY PREDICTED BY RF-SCORE:    0.00 PKD
ROOT
HETATM    1  C   UNL     1      -9.342  11.006  67.246  1.00  0.00    -0.156 C  
HETATM    2  O   UNL     1      -9.811  10.409  66.038  1.00  0.00    -0.208 OA 
ENDROOT
BRANCH   2   3
HETATM    3  C   UNL     1      -9.073   9.352  65.563  1.00  0.00    -0.218 A  
HETATM    4  C   UNL     1      -8.972   8.157  66.287  1.00  0.00    -0.215 A  
HETATM    5  C   UNL     1      -8.304   7.051  65.758  1.00  0.00    -0.143 A  
HETATM    6  C   UNL     1      -7.702   7.153  64.509  1.00  0.00    -0.113 A  
HETATM    7  C   UNL     1      -8.423   9.480  64.313  1.00  0.00    -0.184 A  
HETATM    8  C   UNL     1      -7.749   8.357  63.782  1.00  0.00    -0.144 A  
BRANCH   5   9
HETATM    9  C   UNL     1      -8.350   5.779  66.529  1.00  0.00    -0.111 C  
HETATM   10  N   UNL     1      -7.400   5.605  67.505  1.00  0.00    -0.076 N  
HETATM   11  O   UNL     1      -9.225   4.953  66.287  1.00  0.00    -0.131 OA 
HETATM   12  H   UNL     1      -6.689   6.321  67.660  1.00  0.00     0.000 HD 
BRANCH  10  13
HETATM   13  C   UNL     1      -7.408   4.406  68.312  1.00  0.00    -0.064 C  
BRANCH  13  14
HETATM   14  C   UNL     1      -8.161   4.629  69.593  1.00  0.00    -0.072 A  
HETATM   15  C   UNL     1      -9.319   3.893  69.838  1.00  0.00    -0.245 A  
HETATM   16  C   UNL     1     -10.070   4.118  70.987  1.00  0.00    -0.130 A  
HETATM   17  C   UNL     1      -9.689   5.091  71.920  1.00  0.00    -0.160 A  
HETATM   18  C   UNL     1      -8.521   5.819  71.690  1.00  0.00    -0.128 A  
HETATM   19  C   UNL     1      -7.762   5.596  70.532  1.00  0.00    -0.094 A  
BRANCH  17  20
HETATM   20  O   UNL     1     -10.396   5.398  73.063  1.00  0.00    -0.178 OA 
BRANCH  20  21
HETATM   21  C   UNL     1     -10.209   6.750  73.497  1.00  0.00    -0.293 C  
BRANCH  21  22
HETATM   22  C   UNL     1     -11.285   7.719  72.992  1.00  0.00    -0.321 C  
BRANCH  22  23
HETATM   23  N   UNL     1     -11.766   7.342  71.642  1.00  0.00    -0.271 NA 
HETATM   24  C   UNL     1     -13.227   7.246  71.572  1.00  0.00    -0.379 C  
HETATM   25  C   UNL     1     -11.287   8.289  70.637  1.00  0.00    -0.244 C  
ENDBRANCH  22  23
ENDBRANCH  21  22
ENDBRANCH  20  21
ENDBRANCH  17  20
ENDBRANCH  13  14
ENDBRANCH  10  13
ENDBRANCH   5   9
BRANCH   8  26
HETATM   26  O   UNL     1      -7.099   8.237  62.578  1.00  0.00    -0.089 OA 
HETATM   27  C   UNL     1      -5.994   7.356  62.461  1.00  0.00    -0.051 C  
ENDBRANCH   8  26
BRANCH   7  28
HETATM   28  O   UNL     1      -8.480  10.604  63.525  1.00  0.00    -0.159 OA 
HETATM   29  C   UNL     1      -9.615  10.802  62.694  1.00  0.00    -0.261 C  
ENDBRANCH   7  28
ENDBRANCH   2   3
TORSDOF 10
ENDMDL
MODEL      222
REMARK 921   NORMALIZED FREE ENERGY PREDICTED BY IDOCK:   -3.08 KCAL/MOL
REMARK 922        TOTAL FREE ENERGY PREDICTED BY IDOCK:   -5.75 KCAL/MOL
REMARK 923 INTER-LIGAND FREE ENERGY PREDICTED BY IDOCK:   -5.03 KCAL/MOL
REMARK 924 INTRA-LIGAND FREE ENERGY PREDICTED BY IDOCK:   -0.72 KCAL/MOL
REMARK 927      BINDING AFFINITY PREDICTED BY RF-SCORE:    0.00 PKD
ROOT
HETATM    1  C   UNL     1     -10.215   4.313  65.374  1.00  0.00    -0.220 C  
HETATM    2  O   UNL     1      -8.905   4.558  65.883  1.00  0.00    -0.117 OA 
ENDROOT
BRANCH   2   3
HETATM    3  C   UNL     1      -8.787   5.605  66.765  1.00  0.00    -0.115 A  
HETATM    4  C   UNL     1      -9.382   6.846  66.499  1.00  0.00    -0.197 A  
HETATM    5  C   UNL     1      -9.345   7.876  67.439  1.00  0.00    -0.169 A  
HETATM    6  C   UNL     1      -8.677   7.676  68.642  1.00  0.00    -0.128 A  
HETATM    7  C   UNL     1      -8.065   5.409  67.965  1.00  0.00    -0.096 A  
HETATM    8  C   UNL     1      -8.031   6.456  68.915  1.00  0.00    -0.110 A  
BRANCH   5   9
HETATM    9  C   UNL     1     -10.109   9.118  67.138  1.00  0.00    -0.236 C  
HETATM   10  N   UNL     1     -10.694   9.764  68.199  1.00  0.00    -0.289 N  
HETATM   11  O   UNL     1     -10.174   9.525  65.983  1.00  0.00    -0.272 OA 
HETATM   12  H   UNL     1     -10.615   9.377  69.140  1.00  0.00     0.000 HD 
BRANCH  10  13
HETATM   13  C   UNL     1     -11.423  10.993  67.980  1.00  0.00    -0.290 C  
BRANCH  13  14
HETATM   14  C   UNL     1     -10.523  12.185  68.146  1.00  0.00    -0.225 A  
HETATM   15  C   UNL     1     -11.082  13.461  68.171  1.00  0.00    -0.284 A  
HETATM   16  C   UNL     1     -10.271  14.587  68.265  1.00  0.00    -0.234 A  
HETATM   17  C   UNL     1      -8.877  14.469  68.329  1.00  0.00    -0.179 A  
HETATM   18  C   UNL     1      -8.311  13.193  68.322  1.00  0.00    -0.152 A  
HETATM   19  C   UNL     1      -9.125  12.056  68.226  1.00  0.00    -0.190 A  
BRANCH  17  20
HETATM   20  O   UNL     1      -8.003  15.534  68.388  1.00  0.00    -0.122 OA 
BRANCH  20  21
HETATM   21  C   UNL     1      -8.421  16.652  67.596  1.00  0.00    -0.192 C  
BRANCH  21  22
HETATM   22  C   UNL     1      -8.169  18.012  68.260  1.00  0.00    -0.292 C  
BRANCH  22  23
HETATM   23  N   UNL     1      -6.798  18.505  67.986  1.00  0.00    -0.218 NA 
HETATM   24  C   UNL     1      -6.787  19.873  67.460  1.00  0.00    -0.231 C  
HETATM   25  C   UNL     1      -5.971  18.434  69.189  1.00  0.00    -0.228 C  
ENDBRANCH  22  23
ENDBRANCH  21  22
ENDBRANCH  20  21
ENDBRANCH  17  20
ENDBRANCH  13  14
ENDBRANCH  10  13
ENDBRANCH   5   9
BRANCH   8  26
HETATM   26  O   UNL     1      -7.442   6.470  70.155  1.00  0.00    -0.089 OA 
HETATM   27  C   UNL     1      -6.328   7.317  70.393  1.00  0.00    -0.035 C  
ENDBRANCH   8  26
BRANCH   7  28
HETATM   28  O   UNL     1      -7.465   4.225  68.320  1.00  0.00    -0.063 OA 
HETATM   29  C   UNL     1      -8.221   3.261  69.037  1.00  0.00    -0.059 C  
ENDBRANCH   7  28
ENDBRANCH   2   3
TORSDOF 10
ENDMDL
MODEL      223
REMARK 921   NORMALIZED FREE ENERGY PREDICTED BY IDOCK:   -3.06 KCAL/MOL
REMARK 922        TOTAL FREE ENERGY PREDICTED BY IDOCK:   -5.72 KCAL/MOL
REMARK 923 INTER-LIGAND FREE ENERGY PREDICTED BY IDOCK:   -4.81 KCAL/MOL
REMARK 924 INTRA-LIGAND FREE ENERGY PREDICTED BY IDOCK:   -0.90 KCAL/MOL
REMARK 927      BINDING AFFINITY PREDICTED BY RF-SCORE:    0.00 PKD
ROOT
HETATM    1  C   UNL     1     -11.036   6.208  68.224  1.00  0.00    -0.308 C  
HETATM    2  O   UNL     1     -10.817   5.432  67.047  1.00  0.00    -0.216 OA 
ENDROOT
BRANCH   2   3
HETATM    3  C   UNL     1      -9.680   5.728  66.335  1.00  0.00    -0.147 A  
HETATM    4  C   UNL     1      -8.954   6.901  66.583  1.00  0.00    -0.157 A  
HETATM    5  C   UNL     1      -7.748   7.150  65.928  1.00  0.00    -0.101 A  
HETATM    6  C   UNL     1      -7.280   6.237  64.989  1.00  0.00    -0.070 A  
HETATM    7  C   UNL     1      -9.237   4.817  65.347  1.00  0.00    -0.155 A  
HETATM    8  C   UNL     1      -8.014   5.075  64.687  1.00  0.00    -0.102 A  
BRANCH   5   9
HETATM    9  C   UNL     1      -6.971   8.352  66.339  1.00  0.00    -0.074 C  
HETATM   10  N   UNL     1      -7.370   9.561  65.823  1.00  0.00    -0.095 N  
HETATM   11  O   UNL     1      -6.033   8.231  67.121  1.00  0.00    -0.050 OA 
HETATM   12  H   UNL     1      -8.153   9.604  65.170  1.00  0.00     0.000 HD 
BRANCH  10  13
HETATM   13  C   UNL     1      -6.680  10.771  66.208  1.00  0.00    -0.134 C  
BRANCH  13  14
HETATM   14  C   UNL     1      -7.630  11.755  66.827  1.00  0.00    -0.072 A  
HETATM   15  C   UNL     1      -7.124  12.781  67.623  1.00  0.00    -0.145 A  
HETATM   16  C   UNL     1      -7.983  13.673  68.257  1.00  0.00    -0.150 A  
HETATM   17  C   UNL     1      -9.371  13.560  68.120  1.00  0.00    -0.213 A  
HETATM   18  C   UNL     1      -9.885  12.546  67.310  1.00  0.00    -0.204 A  
HETATM   19  C   UNL     1      -9.023  11.644  66.670  1.00  0.00    -0.189 A  
BRANCH  17  20
HETATM   20  O   UNL     1     -10.289  14.381  68.742  1.00  0.00    -0.234 OA 
BRANCH  20  21
HETATM   21  C   UNL     1     -10.095  15.769  68.450  1.00  0.00    -0.222 C  
BRANCH  21  22
HETATM   22  C   UNL     1     -10.586  16.185  67.058  1.00  0.00    -0.292 C  
BRANCH  22  23
HETATM   23  N   UNL     1     -10.049  17.510  66.665  1.00  0.00    -0.315 NA 
HETATM   24  C   UNL     1     -10.418  18.569  67.610  1.00  0.00    -0.417 C  
HETATM   25  C   UNL     1      -8.595  17.461  66.526  1.00  0.00    -0.261 C  
ENDBRANCH  22  23
ENDBRANCH  21  22
ENDBRANCH  20  21
ENDBRANCH  17  20
ENDBRANCH  13  14
ENDBRANCH  10  13
ENDBRANCH   5   9
BRANCH   8  26
HETATM   26  O   UNL     1      -7.372   4.313  63.742  1.00  0.00    -0.053 OA 
HETATM   27  C   UNL     1      -6.251   3.528  64.117  1.00  0.00    -0.023 C  
ENDBRANCH   8  26
BRANCH   7  28
HETATM   28  O   UNL     1      -9.871   3.636  65.047  1.00  0.00    -0.175 OA 
HETATM   29  C   UNL     1     -10.782   3.602  63.958  1.00  0.00    -0.239 C  
ENDBRANCH   7  28
ENDBRANCH   2   3
TORSDOF 10
ENDMDL
MODEL      224
REMARK 921   NORMALIZED FREE ENERGY PREDICTED BY IDOCK:   -3.05 KCAL/MOL
REMARK 922        TOTAL FREE ENERGY PREDICTED BY IDOCK:   -5.70 KCAL/MOL
REMARK 923 INTER-LIGAND FREE ENERGY PREDICTED BY IDOCK:   -4.95 KCAL/MOL
REMARK 924 INTRA-LIGAND FREE ENERGY PREDICTED BY IDOCK:   -0.75 KCAL/MOL
REMARK 927      BINDING AFFINITY PREDICTED BY RF-SCORE:    0.00 PKD
ROOT
HETATM    1  C   UNL     1      -6.536   5.257  73.377  1.00  0.00    -0.063 C  
HETATM    2  O   UNL     1      -7.756   5.942  73.103  1.00  0.00    -0.101 OA 
ENDROOT
BRANCH   2   3
HETATM    3  C   UNL     1      -8.135   5.993  71.783  1.00  0.00    -0.114 A  
HETATM    4  C   UNL     1      -7.751   7.060  70.960  1.00  0.00    -0.091 A  
HETATM    5  C   UNL     1      -8.053   7.061  69.597  1.00  0.00    -0.130 A  
HETATM    6  C   UNL     1      -8.776   6.002  69.060  1.00  0.00    -0.122 A  
HETATM    7  C   UNL     1      -8.912   4.936  71.255  1.00  0.00    -0.133 A  
HETATM    8  C   UNL     1      -9.215   4.941  69.874  1.00  0.00    -0.124 A  
BRANCH   5   9
HETATM    9  C   UNL     1      -7.500   8.164  68.765  1.00  0.00    -0.090 C  
HETATM   10  N   UNL     1      -8.402   9.026  68.191  1.00  0.00    -0.120 N  
HETATM   11  O   UNL     1      -6.285   8.277  68.636  1.00  0.00    -0.043 OA 
HETATM   12  H   UNL     1      -9.403   8.881  68.324  1.00  0.00     0.000 HD 
BRANCH  10  13
HETATM   13  C   UNL     1      -7.929  10.138  67.397  1.00  0.00    -0.110 C  
BRANCH  13  14
HETATM   14  C   UNL     1      -8.988  11.197  67.278  1.00  0.00    -0.147 A  
HETATM   15  C   UNL     1      -9.371  11.638  66.013  1.00  0.00    -0.241 A  
HETATM   16  C   UNL     1     -10.306  12.658  65.872  1.00  0.00    -0.295 A  
HETATM   17  C   UNL     1     -10.878  13.272  66.992  1.00  0.00    -0.269 A  
HETATM   18  C   UNL     1     -10.512  12.825  68.262  1.00  0.00    -0.250 A  
HETATM   19  C   UNL     1      -9.569  11.798  68.409  1.00  0.00    -0.191 A  
BRANCH  17  20
HETATM   20  O   UNL     1     -11.783  14.311  66.937  1.00  0.00    -0.371 OA 
BRANCH  20  21
HETATM   21  C   UNL     1     -11.275  15.533  67.485  1.00  0.00    -0.272 C  
BRANCH  21  22
HETATM   22  C   UNL     1     -10.529  16.407  66.469  1.00  0.00    -0.282 C  
BRANCH  22  23
HETATM   23  N   UNL     1      -9.772  17.493  67.137  1.00  0.00    -0.270 NA 
HETATM   24  C   UNL     1      -9.502  18.622  66.242  1.00  0.00    -0.260 C  
HETATM   25  C   UNL     1     -10.482  17.965  68.324  1.00  0.00    -0.354 C  
ENDBRANCH  22  23
ENDBRANCH  21  22
ENDBRANCH  20  21
ENDBRANCH  17  20
ENDBRANCH  13  14
ENDBRANCH  10  13
ENDBRANCH   5   9
BRANCH   8  26
HETATM   26  O   UNL     1      -9.902   4.004  69.143  1.00  0.00    -0.153 OA 
HETATM   27  C   UNL     1      -9.702   3.922  67.741  1.00  0.00    -0.086 C  
ENDBRANCH   8  26
BRANCH   7  28
HETATM   28  O   UNL     1      -9.320   3.841  71.978  1.00  0.00    -0.115 OA 
HETATM   29  C   UNL     1     -10.514   3.928  72.742  1.00  0.00    -0.153 C  
ENDBRANCH   7  28
ENDBRANCH   2   3
TORSDOF 10
ENDMDL
MODEL      225
REMARK 921   NORMALIZED FREE ENERGY PREDICTED BY IDOCK:   -3.01 KCAL/MOL
REMARK 922        TOTAL FREE ENERGY PREDICTED BY IDOCK:   -5.63 KCAL/MOL
REMARK 923 INTER-LIGAND FREE ENERGY PREDICTED BY IDOCK:   -5.05 KCAL/MOL
REMARK 924 INTRA-LIGAND FREE ENERGY PREDICTED BY IDOCK:   -0.58 KCAL/MOL
REMARK 927      BINDING AFFINITY PREDICTED BY RF-SCORE:    0.00 PKD
ROOT
HETATM    1  C   UNL     1      -9.855  13.606  66.212  1.00  0.00    -0.301 C  
HETATM    2  O   UNL     1     -10.124  12.513  65.335  1.00  0.00    -0.277 OA 
ENDROOT
BRANCH   2   3
HETATM    3  C   UNL     1      -9.838  11.263  65.826  1.00  0.00    -0.232 A  
HETATM    4  C   UNL     1     -10.309  10.852  67.080  1.00  0.00    -0.262 A  
HETATM    5  C   UNL     1     -10.102   9.549  67.534  1.00  0.00    -0.257 A  
HETATM    6  C   UNL     1      -9.386   8.658  66.742  1.00  0.00    -0.229 A  
HETATM    7  C   UNL     1      -9.068  10.378  65.035  1.00  0.00    -0.203 A  
HETATM    8  C   UNL     1      -8.861   9.059  65.500  1.00  0.00    -0.194 A  
BRANCH   5   9
HETATM    9  C   UNL     1     -10.743   9.151  68.817  1.00  0.00    -0.131 C  
HETATM   10  N   UNL     1     -10.573   9.993  69.888  1.00  0.00    -0.263 N  
HETATM   11  O   UNL     1     -11.403   8.118  68.871  1.00  0.00     0.355 OA 
HETATM   12  H   UNL     1     -10.007  10.836  69.790  1.00  0.00     0.000 HD 
BRANCH  10  13
HETATM   13  C   UNL     1     -11.196   9.682  71.155  1.00  0.00    -0.384 C  
BRANCH  13  14
HETATM   14  C   UNL     1     -10.429   8.614  71.881  1.00  0.00    -0.410 A  
HETATM   15  C   UNL     1      -9.138   8.300  71.463  1.00  0.00    -0.229 A  
HETATM   16  C   UNL     1      -8.424   7.276  72.077  1.00  0.00    -0.116 A  
HETATM   17  C   UNL     1      -8.985   6.532  73.122  1.00  0.00    -0.128 A  
HETATM   18  C   UNL     1     -10.272   6.851  73.558  1.00  0.00    -0.345 A  
HETATM   19  C   UNL     1     -10.995   7.882  72.940  1.00  0.00    -0.452 A  
BRANCH  17  20
HETATM   20  O   UNL     1      -8.358   5.481  73.758  1.00  0.00    -0.111 OA 
BRANCH  20  21
HETATM   21  C   UNL     1      -8.183   4.335  72.917  1.00  0.00    -0.094 C  
BRANCH  21  22
HETATM   22  C   UNL     1      -6.716   3.937  72.708  1.00  0.00    -0.041 C  
BRANCH  22  23
HETATM   23  N   UNL     1      -6.513   3.280  71.394  1.00  0.00    -0.018 NA 
HETATM   24  C   UNL     1      -7.711   3.326  70.551  1.00  0.00    -0.043 C  
HETATM   25  C   UNL     1      -5.387   3.882  70.682  1.00  0.00    -0.004 C  
ENDBRANCH  22  23
ENDBRANCH  21  22
ENDBRANCH  20  21
ENDBRANCH  17  20
ENDBRANCH  13  14
ENDBRANCH  10  13
ENDBRANCH   5   9
BRANCH   8  26
HETATM   26  O   UNL     1      -8.198   8.026  64.883  1.00  0.00    -0.147 OA 
HETATM   27  C   UNL     1      -6.782   8.054  64.796  1.00  0.00    -0.059 C  
ENDBRANCH   8  26
BRANCH   7  28
HETATM   28  O   UNL     1      -8.579  10.684  63.788  1.00  0.00    -0.166 OA 
HETATM   29  C   UNL     1      -9.408  10.470  62.655  1.00  0.00    -0.312 C  
ENDBRANCH   7  28
ENDBRANCH   2   3
TORSDOF 10
ENDMDL
MODEL      226
REMARK 921   NORMALIZED FREE ENERGY PREDICTED BY IDOCK:   -3.00 KCAL/MOL
REMARK 922        TOTAL FREE ENERGY PREDICTED BY IDOCK:   -5.63 KCAL/MOL
REMARK 923 INTER-LIGAND FREE ENERGY PREDICTED BY IDOCK:   -5.10 KCAL/MOL
REMARK 924 INTRA-LIGAND FREE ENERGY PREDICTED BY IDOCK:   -0.53 KCAL/MOL
REMARK 927      BINDING AFFINITY PREDICTED BY RF-SCORE:    0.00 PKD
ROOT
HETATM    1  C   UNL     1     -11.706  12.862  66.704  1.00  0.00    -0.390 C  
HETATM    2  O   UNL     1     -11.533  14.260  66.474  1.00  0.00    -0.335 OA 
ENDROOT
BRANCH   2   3
HETATM    3  C   UNL     1     -10.271  14.754  66.694  1.00  0.00    -0.269 A  
HETATM    4  C   UNL     1      -9.310  14.005  67.387  1.00  0.00    -0.220 A  
HETATM    5  C   UNL     1      -8.000  14.467  67.523  1.00  0.00    -0.208 A  
HETATM    6  C   UNL     1      -7.656  15.705  66.992  1.00  0.00    -0.245 A  
HETATM    7  C   UNL     1      -9.942  16.035  66.193  1.00  0.00    -0.325 A  
HETATM    8  C   UNL     1      -8.613  16.498  66.333  1.00  0.00    -0.312 A  
BRANCH   5   9
HETATM    9  C   UNL     1      -7.007  13.558  68.158  1.00  0.00    -0.118 C  
HETATM   10  N   UNL     1      -7.493  12.608  69.022  1.00  0.00    -0.313 N  
HETATM   11  O   UNL     1      -5.816  13.672  67.883  1.00  0.00    -0.119 OA 
HETATM   12  H   UNL     1      -8.492  12.562  69.222  1.00  0.00     0.000 HD 
BRANCH  10  13
HETATM   13  C   UNL     1      -6.585  11.673  69.648  1.00  0.00    -0.096 C  
BRANCH  13  14
HETATM   14  C   UNL     1      -6.503  10.397  68.859  1.00  0.00    -0.052 A  
HETATM   15  C   UNL     1      -5.909   9.276  69.436  1.00  0.00    -0.034 A  
HETATM   16  C   UNL     1      -5.767   8.098  68.710  1.00  0.00    -0.036 A  
HETATM   17  C   UNL     1      -6.207   8.010  67.384  1.00  0.00    -0.055 A  
HETATM   18  C   UNL     1      -6.819   9.122  66.805  1.00  0.00    -0.080 A  
HETATM   19  C   UNL     1      -6.963  10.312  67.533  1.00  0.00    -0.085 A  
BRANCH  17  20
HETATM   20  O   UNL     1      -6.071   6.892  66.587  1.00  0.00    -0.031 OA 
BRANCH  20  21
HETATM   21  C   UNL     1      -7.266   6.559  65.872  1.00  0.00    -0.074 C  
BRANCH  21  22
HETATM   22  C   UNL     1      -8.241   5.680  66.666  1.00  0.00    -0.105 C  
BRANCH  22  23
HETATM   23  N   UNL     1      -9.642   5.896  66.235  1.00  0.00    -0.147 NA 
HETATM   24  C   UNL     1     -10.198   4.740  65.526  1.00  0.00    -0.135 C  
HETATM   25  C   UNL     1     -10.492   6.226  67.378  1.00  0.00    -0.248 C  
ENDBRANCH  22  23
ENDBRANCH  21  22
ENDBRANCH  20  21
ENDBRANCH  17  20
ENDBRANCH  13  14
ENDBRANCH  10  13
ENDBRANCH   5   9
BRANCH   8  26
HETATM   26  O   UNL     1      -8.062  17.673  65.883  1.00  0.00    -0.535 OA 
HETATM   27  C   UNL     1      -7.379  18.521  66.792  1.00  0.00    -0.215 C  
ENDBRANCH   8  26
BRANCH   7  28
HETATM   28  O   UNL     1     -10.809  16.833  65.486  1.00  0.00    -0.313 OA 
HETATM   29  C   UNL     1     -11.382  16.332  64.288  1.00  0.00    -0.003 C  
ENDBRANCH   7  28
ENDBRANCH   2   3
TORSDOF 10
ENDMDL
MODEL      227
REMARK 921   NORMALIZED FREE ENERGY PREDICTED BY IDOCK:   -3.00 KCAL/MOL
REMARK 922        TOTAL FREE ENERGY PREDICTED BY IDOCK:   -5.62 KCAL/MOL
REMARK 923 INTER-LIGAND FREE ENERGY PREDICTED BY IDOCK:   -4.74 KCAL/MOL
REMARK 924 INTRA-LIGAND FREE ENERGY PREDICTED BY IDOCK:   -0.88 KCAL/MOL
REMARK 927      BINDING AFFINITY PREDICTED BY RF-SCORE:    0.00 PKD
ROOT
HETATM    1  C   UNL     1      -7.523  14.764  67.432  1.00  0.00    -0.194 C  
HETATM    2  O   UNL     1      -8.788  14.195  67.763  1.00  0.00    -0.168 OA 
ENDROOT
BRANCH   2   3
HETATM    3  C   UNL     1      -9.315  13.322  66.842  1.00  0.00    -0.244 A  
HETATM    4  C   UNL     1      -8.678  12.108  66.549  1.00  0.00    -0.114 A  
HETATM    5  C   UNL     1      -9.265  11.179  65.688  1.00  0.00    -0.238 A  
HETATM    6  C   UNL     1     -10.482  11.481  65.087  1.00  0.00    -0.340 A  
HETATM    7  C   UNL     1     -10.529  13.658  66.198  1.00  0.00    -0.297 A  
HETATM    8  C   UNL     1     -11.119  12.713  65.327  1.00  0.00    -0.295 A  
BRANCH   5   9
HETATM    9  C   UNL     1      -8.592   9.861  65.527  1.00  0.00    -0.145 C  
HETATM   10  N   UNL     1      -7.655   9.518  66.471  1.00  0.00    -0.093 N  
HETATM   11  O   UNL     1      -8.901   9.131  64.590  1.00  0.00    -0.192 OA 
HETATM   12  H   UNL     1      -7.431  10.166  67.227  1.00  0.00     0.000 HD 
BRANCH  10  13
HETATM   13  C   UNL     1      -6.989   8.238  66.392  1.00  0.00    -0.067 C  
BRANCH  13  14
HETATM   14  C   UNL     1      -7.580   7.266  67.373  1.00  0.00    -0.105 A  
HETATM   15  C   UNL     1      -6.815   6.183  67.803  1.00  0.00    -0.063 A  
HETATM   16  C   UNL     1      -7.354   5.235  68.666  1.00  0.00    -0.070 A  
HETATM   17  C   UNL     1      -8.676   5.337  69.117  1.00  0.00    -0.100 A  
HETATM   18  C   UNL     1      -9.443   6.428  68.704  1.00  0.00    -0.122 A  
HETATM   19  C   UNL     1      -8.903   7.386  67.833  1.00  0.00    -0.132 A  
BRANCH  17  20
HETATM   20  O   UNL     1      -9.294   4.422  69.942  1.00  0.00    -0.122 OA 
BRANCH  20  21
HETATM   21  C   UNL     1      -9.736   4.987  71.182  1.00  0.00    -0.178 C  
BRANCH  21  22
HETATM   22  C   UNL     1      -8.890   4.570  72.391  1.00  0.00    -0.117 C  
BRANCH  22  23
HETATM   23  N   UNL     1      -8.229   5.738  73.021  1.00  0.00    -0.118 NA 
HETATM   24  C   UNL     1      -8.278   5.690  74.485  1.00  0.00    -0.105 C  
HETATM   25  C   UNL     1      -6.840   5.848  72.579  1.00  0.00    -0.078 C  
ENDBRANCH  22  23
ENDBRANCH  21  22
ENDBRANCH  20  21
ENDBRANCH  17  20
ENDBRANCH  13  14
ENDBRANCH  10  13
ENDBRANCH   5   9
BRANCH   8  26
HETATM   26  O   UNL     1     -12.305  12.802  64.642  1.00  0.00    -0.421 OA 
HETATM   27  C   UNL     1     -12.324  13.367  63.340  1.00  0.00    -0.269 C  
ENDBRANCH   8  26
BRANCH   7  28
HETATM   28  O   UNL     1     -11.233  14.813  66.434  1.00  0.00    -0.336 OA 
HETATM   29  C   UNL     1     -12.066  14.887  67.582  1.00  0.00    -0.020 C  
ENDBRANCH   7  28
ENDBRANCH   2   3
TORSDOF 10
ENDMDL
MODEL      228
REMARK 921   NORMALIZED FREE ENERGY PREDICTED BY IDOCK:   -2.98 KCAL/MOL
REMARK 922        TOTAL FREE ENERGY PREDICTED BY IDOCK:   -5.59 KCAL/MOL
REMARK 923 INTER-LIGAND FREE ENERGY PREDICTED BY IDOCK:   -5.17 KCAL/MOL
REMARK 924 INTRA-LIGAND FREE ENERGY PREDICTED BY IDOCK:   -0.42 KCAL/MOL
REMARK 927      BINDING AFFINITY PREDICTED BY RF-SCORE:    0.00 PKD
ROOT
HETATM    1  C   UNL     1      -9.463   4.591  66.508  1.00  0.00    -0.173 C  
HETATM    2  O   UNL     1      -8.146   5.123  66.648  1.00  0.00    -0.107 OA 
ENDROOT
BRANCH   2   3
HETATM    3  C   UNL     1      -8.059   6.371  67.216  1.00  0.00    -0.113 A  
HETATM    4  C   UNL     1      -8.994   7.371  66.914  1.00  0.00    -0.150 A  
HETATM    5  C   UNL     1      -8.962   8.605  67.565  1.00  0.00    -0.143 A  
HETATM    6  C   UNL     1      -7.965   8.855  68.501  1.00  0.00    -0.104 A  
HETATM    7  C   UNL     1      -7.013   6.635  68.131  1.00  0.00    -0.077 A  
HETATM    8  C   UNL     1      -6.986   7.886  68.788  1.00  0.00    -0.066 A  
BRANCH   5   9
HETATM    9  C   UNL     1     -10.064   9.566  67.285  1.00  0.00    -0.215 C  
HETATM   10  N   UNL     1     -10.506  10.332  68.335  1.00  0.00    -0.189 N  
HETATM   11  O   UNL     1     -10.519   9.654  66.149  1.00  0.00    -0.179 OA 
HETATM   12  H   UNL     1     -10.098  10.213  69.263  1.00  0.00     0.000 HD 
BRANCH  10  13
HETATM   13  C   UNL     1     -11.551  11.308  68.124  1.00  0.00    -0.289 C  
BRANCH  13  14
HETATM   14  C   UNL     1     -10.994  12.566  67.519  1.00  0.00    -0.288 A  
HETATM   15  C   UNL     1     -11.859  13.615  67.213  1.00  0.00    -0.429 A  
HETATM   16  C   UNL     1     -11.382  14.769  66.600  1.00  0.00    -0.347 A  
HETATM   17  C   UNL     1     -10.029  14.903  66.267  1.00  0.00    -0.282 A  
HETATM   18  C   UNL     1      -9.154  13.864  66.586  1.00  0.00    -0.209 A  
HETATM   19  C   UNL     1      -9.631  12.698  67.204  1.00  0.00    -0.207 A  
BRANCH  17  20
HETATM   20  O   UNL     1      -9.485  15.997  65.628  1.00  0.00    -0.387 OA 
BRANCH  20  21
HETATM   21  C   UNL     1      -9.843  17.243  66.236  1.00  0.00    -0.285 C  
BRANCH  21  22
HETATM   22  C   UNL     1      -9.316  17.409  67.667  1.00  0.00    -0.245 C  
BRANCH  22  23
HETATM   23  N   UNL     1     -10.303  18.095  68.534  1.00  0.00    -0.367 NA 
HETATM   24  C   UNL     1     -10.472  17.431  69.830  1.00  0.00     0.268 C  
HETATM   25  C   UNL     1      -9.928  19.493  68.743  1.00  0.00    -0.463 C  
ENDBRANCH  22  23
ENDBRANCH  21  22
ENDBRANCH  20  21
ENDBRANCH  17  20
ENDBRANCH  13  14
ENDBRANCH  10  13
ENDBRANCH   5   9
BRANCH   8  26
HETATM   26  O   UNL     1      -6.105   8.335  69.741  1.00  0.00    -0.029 OA 
HETATM   27  C   UNL     1      -5.152   9.331  69.404  1.00  0.00    -0.036 C  
ENDBRANCH   8  26
BRANCH   7  28
HETATM   28  O   UNL     1      -6.064   5.714  68.502  1.00  0.00    -0.022 OA 
HETATM   29  C   UNL     1      -6.416   4.702  69.434  1.00  0.00    -0.036 C  
ENDBRANCH   7  28
ENDBRANCH   2   3
TORSDOF 10
ENDMDL
MODEL      229
REMARK 921   NORMALIZED FREE ENERGY PREDICTED BY IDOCK:   -2.97 KCAL/MOL
REMARK 922        TOTAL FREE ENERGY PREDICTED BY IDOCK:   -5.57 KCAL/MOL
REMARK 923 INTER-LIGAND FREE ENERGY PREDICTED BY IDOCK:   -4.66 KCAL/MOL
REMARK 924 INTRA-LIGAND FREE ENERGY PREDICTED BY IDOCK:   -0.91 KCAL/MOL
REMARK 927      BINDING AFFINITY PREDICTED BY RF-SCORE:    0.00 PKD
ROOT
HETATM    1  C   UNL     1      -6.961   5.150  70.207  1.00  0.00    -0.052 C  
HETATM    2  O   UNL     1      -7.918   5.192  69.149  1.00  0.00    -0.080 OA 
ENDROOT
BRANCH   2   3
HETATM    3  C   UNL     1      -7.977   6.366  68.438  1.00  0.00    -0.106 A  
HETATM    4  C   UNL     1      -7.739   7.601  69.057  1.00  0.00    -0.117 A  
HETATM    5  C   UNL     1      -7.702   8.781  68.313  1.00  0.00    -0.100 A  
HETATM    6  C   UNL     1      -7.941   8.732  66.944  1.00  0.00    -0.098 A  
HETATM    7  C   UNL     1      -8.268   6.312  67.054  1.00  0.00    -0.109 A  
HETATM    8  C   UNL     1      -8.229   7.511  66.306  1.00  0.00    -0.125 A  
BRANCH   5   9
HETATM    9  C   UNL     1      -7.316  10.033  69.019  1.00  0.00    -0.083 C  
HETATM   10  N   UNL     1      -6.728  11.019  68.266  1.00  0.00    -0.058 N  
HETATM   11  O   UNL     1      -7.547  10.150  70.219  1.00  0.00    -0.187 OA 
HETATM   12  H   UNL     1      -6.552  10.867  67.272  1.00  0.00     0.000 HD 
BRANCH  10  13
HETATM   13  C   UNL     1      -6.358  12.273  68.883  1.00  0.00    -0.084 C  
BRANCH  13  14
HETATM   14  C   UNL     1      -7.198  13.399  68.351  1.00  0.00    -0.110 A  
HETATM   15  C   UNL     1      -6.592  14.403  67.598  1.00  0.00    -0.172 A  
HETATM   16  C   UNL     1      -7.332  15.489  67.140  1.00  0.00    -0.226 A  
HETATM   17  C   UNL     1      -8.697  15.606  67.430  1.00  0.00    -0.179 A  
HETATM   18  C   UNL     1      -9.314  14.596  68.169  1.00  0.00    -0.197 A  
HETATM   19  C   UNL     1      -8.572  13.500  68.632  1.00  0.00    -0.009 A  
BRANCH  17  20
HETATM   20  O   UNL     1      -9.490  16.665  67.044  1.00  0.00    -0.222 OA 
BRANCH  20  21
HETATM   21  C   UNL     1     -10.767  16.261  66.538  1.00  0.00    -0.187 C  
BRANCH  21  22
HETATM   22  C   UNL     1     -10.701  15.559  65.176  1.00  0.00    -0.440 C  
BRANCH  22  23
HETATM   23  N   UNL     1     -11.102  14.136  65.277  1.00  0.00    -0.317 NA 
HETATM   24  C   UNL     1     -12.557  13.958  65.240  1.00  0.00    -0.478 C  
HETATM   25  C   UNL     1     -10.484  13.345  64.215  1.00  0.00    -0.305 C  
ENDBRANCH  22  23
ENDBRANCH  21  22
ENDBRANCH  20  21
ENDBRANCH  17  20
ENDBRANCH  13  14
ENDBRANCH  10  13
ENDBRANCH   5   9
BRANCH   8  26
HETATM   26  O   UNL     1      -8.425   7.688  64.959  1.00  0.00    -0.113 OA 
HETATM   27  C   UNL     1      -8.415   8.998  64.413  1.00  0.00    -0.174 C  
ENDBRANCH   8  26
BRANCH   7  28
HETATM   28  O   UNL     1      -8.496   5.150  66.359  1.00  0.00    -0.112 OA 
HETATM   29  C   UNL     1      -9.836   4.739  66.128  1.00  0.00    -0.219 C  
ENDBRANCH   7  28
ENDBRANCH   2   3
TORSDOF 10
ENDMDL
MODEL      230
REMARK 921   NORMALIZED FREE ENERGY PREDICTED BY IDOCK:   -2.89 KCAL/MOL
REMARK 922        TOTAL FREE ENERGY PREDICTED BY IDOCK:   -5.44 KCAL/MOL
REMARK 923 INTER-LIGAND FREE ENERGY PREDICTED BY IDOCK:   -4.43 KCAL/MOL
REMARK 924 INTRA-LIGAND FREE ENERGY PREDICTED BY IDOCK:   -1.01 KCAL/MOL
REMARK 927      BINDING AFFINITY PREDICTED BY RF-SCORE:    0.00 PKD
ROOT
HETATM    1  C   UNL     1      -7.642  14.812  67.415  1.00  0.00    -0.202 C  
HETATM    2  O   UNL     1      -8.873  14.255  67.873  1.00  0.00    -0.164 OA 
ENDROOT
BRANCH   2   3
HETATM    3  C   UNL     1      -9.383  13.224  67.121  1.00  0.00    -0.240 A  
HETATM    4  C   UNL     1      -8.633  12.066  66.876  1.00  0.00    -0.189 A  
HETATM    5  C   UNL     1      -9.189  10.981  66.197  1.00  0.00    -0.209 A  
HETATM    6  C   UNL     1     -10.495  11.067  65.728  1.00  0.00    -0.290 A  
HETATM    7  C   UNL     1     -10.696  13.339  66.606  1.00  0.00    -0.280 A  
HETATM    8  C   UNL     1     -11.254  12.237  65.919  1.00  0.00    -0.340 A  
BRANCH   5   9
HETATM    9  C   UNL     1      -8.374   9.740  66.089  1.00  0.00    -0.120 C  
HETATM   10  N   UNL     1      -7.182   9.713  66.769  1.00  0.00    -0.089 N  
HETATM   11  O   UNL     1      -8.792   8.795  65.426  1.00  0.00    -0.186 OA 
HETATM   12  H   UNL     1      -6.878  10.530  67.299  1.00  0.00     0.000 HD 
BRANCH  10  13
HETATM   13  C   UNL     1      -6.358   8.526  66.733  1.00  0.00    -0.056 C  
BRANCH  13  14
HETATM   14  C   UNL     1      -6.436   7.781  68.034  1.00  0.00    -0.055 A  
HETATM   15  C   UNL     1      -7.193   8.310  69.078  1.00  0.00    -0.073 A  
HETATM   16  C   UNL     1      -7.237   7.674  70.314  1.00  0.00    -0.067 A  
HETATM   17  C   UNL     1      -6.519   6.494  70.544  1.00  0.00    -0.044 A  
HETATM   18  C   UNL     1      -5.773   5.948  69.499  1.00  0.00    -0.016 A  
HETATM   19  C   UNL     1      -5.724   6.587  68.252  1.00  0.00    -0.012 A  
BRANCH  17  20
HETATM   20  O   UNL     1      -6.483   5.823  71.748  1.00  0.00    -0.049 OA 
BRANCH  20  21
HETATM   21  C   UNL     1      -6.741   4.420  71.622  1.00  0.00    -0.030 C  
BRANCH  21  22
HETATM   22  C   UNL     1      -8.226   4.050  71.724  1.00  0.00    -0.090 C  
BRANCH  22  23
HETATM   23  N   UNL     1      -8.795   3.713  70.397  1.00  0.00    -0.077 NA 
HETATM   24  C   UNL     1      -9.080   2.283  70.254  1.00  0.00    -0.106 C  
HETATM   25  C   UNL     1     -10.011   4.484  70.143  1.00  0.00    -0.208 C  
ENDBRANCH  22  23
ENDBRANCH  21  22
ENDBRANCH  20  21
ENDBRANCH  17  20
ENDBRANCH  13  14
ENDBRANCH  10  13
ENDBRANCH   5   9
BRANCH   8  26
HETATM   26  O   UNL     1     -12.512  12.107  65.385  1.00  0.00    -0.523 OA 
HETATM   27  C   UNL     1     -12.776  12.600  64.081  1.00  0.00    -0.281 C  
ENDBRANCH   8  26
BRANCH   7  28
HETATM   28  O   UNL     1     -11.512  14.425  66.810  1.00  0.00    -0.343 OA 
HETATM   29  C   UNL     1     -12.237  14.520  68.027  1.00  0.00    -0.092 C  
ENDBRANCH   7  28
ENDBRANCH   2   3
TORSDOF 10
ENDMDL
MODEL      231
REMARK 921   NORMALIZED FREE ENERGY PREDICTED BY IDOCK:   -2.79 KCAL/MOL
REMARK 922        TOTAL FREE ENERGY PREDICTED BY IDOCK:   -5.28 KCAL/MOL
REMARK 923 INTER-LIGAND FREE ENERGY PREDICTED BY IDOCK:   -5.03 KCAL/MOL
REMARK 924 INTRA-LIGAND FREE ENERGY PREDICTED BY IDOCK:   -0.25 KCAL/MOL
REMARK 927      BINDING AFFINITY PREDICTED BY RF-SCORE:    0.00 PKD
ROOT
HETATM    1  C   UNL     1     -10.899   5.673  66.712  1.00  0.00    -0.216 C  
HETATM    2  O   UNL     1     -11.103   6.032  68.078  1.00  0.00    -0.304 OA 
ENDROOT
BRANCH   2   3
HETATM    3  C   UNL     1     -10.130   6.817  68.646  1.00  0.00    -0.159 A  
HETATM    4  C   UNL     1      -9.609   7.928  67.968  1.00  0.00    -0.168 A  
HETATM    5  C   UNL     1      -8.693   8.781  68.586  1.00  0.00    -0.134 A  
HETATM    6  C   UNL     1      -8.266   8.501  69.879  1.00  0.00    -0.121 A  
HETATM    7  C   UNL     1      -9.665   6.498  69.943  1.00  0.00    -0.164 A  
HETATM    8  C   UNL     1      -8.737   7.365  70.563  1.00  0.00    -0.147 A  
BRANCH   5   9
HETATM    9  C   UNL     1      -8.286  10.010  67.851  1.00  0.00    -0.113 C  
HETATM   10  N   UNL     1      -9.097  10.420  66.821  1.00  0.00    -0.143 N  
HETATM   11  O   UNL     1      -7.273  10.613  68.191  1.00  0.00    -0.083 OA 
HETATM   12  H   UNL     1      -9.924   9.877  66.575  1.00  0.00     0.000 HD 
BRANCH  10  13
HETATM   13  C   UNL     1      -8.776  11.624  66.088  1.00  0.00    -0.094 C  
BRANCH  13  14
HETATM   14  C   UNL     1      -9.572  12.790  66.600  1.00  0.00    -0.255 A  
HETATM   15  C   UNL     1     -10.174  12.706  67.854  1.00  0.00    -0.220 A  
HETATM   16  C   UNL     1     -10.965  13.746  68.331  1.00  0.00    -0.275 A  
HETATM   17  C   UNL     1     -11.184  14.897  67.564  1.00  0.00    -0.328 A  
HETATM   18  C   UNL     1     -10.570  14.996  66.314  1.00  0.00    -0.309 A  
HETATM   19  C   UNL     1      -9.772  13.949  65.830  1.00  0.00    -0.190 A  
BRANCH  17  20
HETATM   20  O   UNL     1     -11.981  15.954  67.949  1.00  0.00     0.006 OA 
BRANCH  20  21
HETATM   21  C   UNL     1     -11.302  17.214  67.921  1.00  0.00     0.238 C  
BRANCH  21  22
HETATM   22  C   UNL     1     -10.253  17.378  69.028  1.00  0.00    -0.317 C  
BRANCH  22  23
HETATM   23  N   UNL     1      -9.217  18.371  68.654  1.00  0.00    -0.323 NA 
HETATM   24  C   UNL     1      -8.691  18.153  67.304  1.00  0.00    -0.244 C  
HETATM   25  C   UNL     1      -9.740  19.731  68.765  1.00  0.00    -0.340 C  
ENDBRANCH  22  23
ENDBRANCH  21  22
ENDBRANCH  20  21
ENDBRANCH  17  20
ENDBRANCH  13  14
ENDBRANCH  10  13
ENDBRANCH   5   9
BRANCH   8  26
HETATM   26  O   UNL     1      -8.195   7.282  71.822  1.00  0.00    -0.103 OA 
HETATM   27  C   UNL     1      -8.966   6.746  72.885  1.00  0.00    -0.127 C  
ENDBRANCH   8  26
BRANCH   7  28
HETATM   28  O   UNL     1     -10.128   5.442  70.690  1.00  0.00    -0.201 OA 
HETATM   29  C   UNL     1      -9.599   4.146  70.449  1.00  0.00    -0.196 C  
ENDBRANCH   7  28
ENDBRANCH   2   3
TORSDOF 10
ENDMDL
MODEL      232
REMARK 921   NORMALIZED FREE ENERGY PREDICTED BY IDOCK:   -2.76 KCAL/MOL
REMARK 922        TOTAL FREE ENERGY PREDICTED BY IDOCK:   -5.24 KCAL/MOL
REMARK 923 INTER-LIGAND FREE ENERGY PREDICTED BY IDOCK:   -4.55 KCAL/MOL
REMARK 924 INTRA-LIGAND FREE ENERGY PREDICTED BY IDOCK:   -0.68 KCAL/MOL
REMARK 927      BINDING AFFINITY PREDICTED BY RF-SCORE:    0.00 PKD
ROOT
HETATM    1  C   UNL     1     -10.073  15.098  65.432  1.00  0.00    -0.350 C  
HETATM    2  O   UNL     1      -9.545  14.994  66.754  1.00  0.00    -0.225 OA 
ENDROOT
BRANCH   2   3
HETATM    3  C   UNL     1      -9.719  13.782  67.377  1.00  0.00    -0.235 A  
HETATM    4  C   UNL     1      -8.717  12.802  67.346  1.00  0.00    -0.196 A  
HETATM    5  C   UNL     1      -8.855  11.612  68.062  1.00  0.00    -0.162 A  
HETATM    6  C   UNL     1     -10.019  11.383  68.786  1.00  0.00    -0.188 A  
HETATM    7  C   UNL     1     -10.926  13.537  68.071  1.00  0.00    -0.251 A  
HETATM    8  C   UNL     1     -11.060  12.330  68.795  1.00  0.00    -0.251 A  
BRANCH   5   9
HETATM    9  C   UNL     1      -7.696  10.678  68.084  1.00  0.00    -0.101 C  
HETATM   10  N   UNL     1      -7.715   9.636  67.191  1.00  0.00    -0.092 N  
HETATM   11  O   UNL     1      -6.773  10.875  68.869  1.00  0.00    -0.057 OA 
HETATM   12  H   UNL     1      -8.512   9.514  66.565  1.00  0.00     0.000 HD 
BRANCH  10  13
HETATM   13  C   UNL     1      -6.605   8.712  67.138  1.00  0.00    -0.058 C  
BRANCH  13  14
HETATM   14  C   UNL     1      -6.895   7.481  67.949  1.00  0.00    -0.071 A  
HETATM   15  C   UNL     1      -6.498   7.436  69.284  1.00  0.00    -0.036 A  
HETATM   16  C   UNL     1      -6.700   6.289  70.044  1.00  0.00    -0.053 A  
HETATM   17  C   UNL     1      -7.298   5.151  69.489  1.00  0.00    -0.057 A  
HETATM   18  C   UNL     1      -7.714   5.194  68.157  1.00  0.00    -0.084 A  
HETATM   19  C   UNL     1      -7.511   6.348  67.387  1.00  0.00    -0.088 A  
BRANCH  17  20
HETATM   20  O   UNL     1      -7.501   3.965  70.163  1.00  0.00    -0.044 OA 
BRANCH  20  21
HETATM   21  C   UNL     1      -8.014   4.149  71.488  1.00  0.00    -0.077 C  
BRANCH  21  22
HETATM   22  C   UNL     1      -9.515   4.460  71.535  1.00  0.00    -0.152 C  
BRANCH  22  23
HETATM   23  N   UNL     1     -10.065   4.282  72.900  1.00  0.00    -0.151 NA 
HETATM   24  C   UNL     1      -9.156   3.543  73.781  1.00  0.00    -0.090 C  
HETATM   25  C   UNL     1     -10.389   5.575  73.501  1.00  0.00    -0.227 C  
ENDBRANCH  22  23
ENDBRANCH  21  22
ENDBRANCH  20  21
ENDBRANCH  17  20
ENDBRANCH  13  14
ENDBRANCH  10  13
ENDBRANCH   5   9
BRANCH   8  26
HETATM   26  O   UNL     1     -12.110  11.909  69.574  1.00  0.00    -0.282 OA 
HETATM   27  C   UNL     1     -12.325  12.504  70.844  1.00  0.00    -0.255 C  
ENDBRANCH   8  26
BRANCH   7  28
HETATM   28  O   UNL     1     -11.955  14.443  68.172  1.00  0.00    -0.328 OA 
HETATM   29  C   UNL     1     -11.767  15.611  68.958  1.00  0.00    -0.395 C  
ENDBRANCH   7  28
ENDBRANCH   2   3
TORSDOF 10
ENDMDL
MODEL      233
REMARK 921   NORMALIZED FREE ENERGY PREDICTED BY IDOCK:   -2.75 KCAL/MOL
REMARK 922        TOTAL FREE ENERGY PREDICTED BY IDOCK:   -5.22 KCAL/MOL
REMARK 923 INTER-LIGAND FREE ENERGY PREDICTED BY IDOCK:   -5.78 KCAL/MOL
REMARK 924 INTRA-LIGAND FREE ENERGY PREDICTED BY IDOCK:    0.56 KCAL/MOL
REMARK 927      BINDING AFFINITY PREDICTED BY RF-SCORE:    0.00 PKD
ROOT
HETATM    1  C   UNL     1     -11.952  14.361  71.256  1.00  0.00    -0.291 C  
HETATM    2  O   UNL     1     -12.228  13.474  70.173  1.00  0.00    -0.332 OA 
ENDROOT
BRANCH   2   3
HETATM    3  C   UNL     1     -11.603  13.762  68.985  1.00  0.00    -0.313 A  
HETATM    4  C   UNL     1     -11.203  12.741  68.111  1.00  0.00    -0.310 A  
HETATM    5  C   UNL     1     -10.658  13.039  66.861  1.00  0.00    -0.260 A  
HETATM    6  C   UNL     1     -10.477  14.368  66.496  1.00  0.00    -0.289 A  
HETATM    7  C   UNL     1     -11.377  15.116  68.642  1.00  0.00    -0.310 A  
HETATM    8  C   UNL     1     -10.825  15.411  67.374  1.00  0.00    -0.309 A  
BRANCH   5   9
HETATM    9  C   UNL     1     -10.379  11.905  65.938  1.00  0.00    -0.242 C  
HETATM   10  N   UNL     1     -10.218  10.664  66.504  1.00  0.00    -0.226 N  
HETATM   11  O   UNL     1     -10.322  12.106  64.729  1.00  0.00    -0.271 OA 
HETATM   12  H   UNL     1     -10.267  10.554  67.517  1.00  0.00     0.000 HD 
BRANCH  10  13
HETATM   13  C   UNL     1      -9.977   9.514  65.661  1.00  0.00    -0.199 C  
BRANCH  13  14
HETATM   14  C   UNL     1      -9.776   8.277  66.489  1.00  0.00    -0.323 A  
HETATM   15  C   UNL     1      -8.622   7.518  66.309  1.00  0.00    -0.153 A  
HETATM   16  C   UNL     1      -8.434   6.336  67.018  1.00  0.00    -0.108 A  
HETATM   17  C   UNL     1      -9.399   5.876  67.923  1.00  0.00    -0.107 A  
HETATM   18  C   UNL     1     -10.550   6.640  68.121  1.00  0.00    -0.294 A  
HETATM   19  C   UNL     1     -10.744   7.831  67.407  1.00  0.00    -0.300 A  
BRANCH  17  20
HETATM   20  O   UNL     1      -9.305   4.700  68.636  1.00  0.00    -0.121 OA 
BRANCH  20  21
HETATM   21  C   UNL     1      -8.053   4.029  68.457  1.00  0.00    -0.075 C  
BRANCH  21  22
HETATM   22  C   UNL     1      -7.194   3.966  69.726  1.00  0.00    -0.042 C  
BRANCH  22  23
HETATM   23  N   UNL     1      -7.439   2.718  70.488  1.00  0.00    -0.040 NA 
HETATM   24  C   UNL     1      -6.208   1.967  70.749  1.00  0.00    -0.019 C  
HETATM   25  C   UNL     1      -8.117   3.005  71.750  1.00  0.00    -0.058 C  
ENDBRANCH  22  23
ENDBRANCH  21  22
ENDBRANCH  20  21
ENDBRANCH  17  20
ENDBRANCH  13  14
ENDBRANCH  10  13
ENDBRANCH   5   9
BRANCH   8  26
HETATM   26  O   UNL     1     -10.570  16.639  66.815  1.00  0.00    -0.293 OA 
HETATM   27  C   UNL     1      -9.229  17.054  66.612  1.00  0.00    -0.256 C  
ENDBRANCH   8  26
BRANCH   7  28
HETATM   28  O   UNL     1     -11.750  16.182  69.424  1.00  0.00    -0.304 OA 
HETATM   29  C   UNL     1     -10.740  16.961  70.049  1.00  0.00     0.066 C  
ENDBRANCH   7  28
ENDBRANCH   2   3
TORSDOF 10
ENDMDL
MODEL      234
REMARK 921   NORMALIZED FREE ENERGY PREDICTED BY IDOCK:   -2.64 KCAL/MOL
REMARK 922        TOTAL FREE ENERGY PREDICTED BY IDOCK:   -5.04 KCAL/MOL
REMARK 923 INTER-LIGAND FREE ENERGY PREDICTED BY IDOCK:   -4.19 KCAL/MOL
REMARK 924 INTRA-LIGAND FREE ENERGY PREDICTED BY IDOCK:   -0.85 KCAL/MOL
REMARK 927      BINDING AFFINITY PREDICTED BY RF-SCORE:    0.00 PKD
ROOT
HETATM    1  C   UNL     1      -9.219   4.587  68.010  1.00  0.00    -0.132 C  
HETATM    2  O   UNL     1      -8.374   4.890  66.901  1.00  0.00    -0.107 OA 
ENDROOT
BRANCH   2   3
HETATM    3  C   UNL     1      -8.458   6.172  66.413  1.00  0.00    -0.123 A  
HETATM    4  C   UNL     1      -9.068   7.191  67.157  1.00  0.00    -0.141 A  
HETATM    5  C   UNL     1      -9.065   8.511  66.704  1.00  0.00    -0.203 A  
HETATM    6  C   UNL     1      -8.477   8.810  65.480  1.00  0.00    -0.181 A  
HETATM    7  C   UNL     1      -7.900   6.459  65.145  1.00  0.00    -0.111 A  
HETATM    8  C   UNL     1      -7.899   7.798  64.692  1.00  0.00    -0.130 A  
BRANCH   5   9
HETATM    9  C   UNL     1      -9.618   9.556  67.609  1.00  0.00    -0.136 C  
HETATM   10  N   UNL     1      -9.897  10.780  67.052  1.00  0.00    -0.183 N  
HETATM   11  O   UNL     1      -9.819   9.292  68.790  1.00  0.00    -0.158 OA 
HETATM   12  H   UNL     1      -9.704  10.949  66.065  1.00  0.00     0.000 HD 
BRANCH  10  13
HETATM   13  C   UNL     1     -10.467  11.828  67.868  1.00  0.00    -0.196 C  
BRANCH  13  14
HETATM   14  C   UNL     1      -9.703  13.111  67.702  1.00  0.00    -0.213 A  
HETATM   15  C   UNL     1      -9.481  13.610  66.420  1.00  0.00    -0.248 A  
HETATM   16  C   UNL     1      -8.727  14.764  66.231  1.00  0.00     0.062 A  
HETATM   17  C   UNL     1      -8.166  15.446  67.317  1.00  0.00    -0.196 A  
HETATM   18  C   UNL     1      -8.398  14.962  68.605  1.00  0.00    -0.164 A  
HETATM   19  C   UNL     1      -9.157  13.798  68.801  1.00  0.00     0.027 A  
BRANCH  17  20
HETATM   20  O   UNL     1      -7.379  16.573  67.211  1.00  0.00    -0.136 OA 
BRANCH  20  21
HETATM   21  C   UNL     1      -7.745  17.607  68.132  1.00  0.00    -0.244 C  
BRANCH  21  22
HETATM   22  C   UNL     1      -7.516  19.026  67.596  1.00  0.00    -0.229 C  
BRANCH  22  23
HETATM   23  N   UNL     1      -8.243  19.251  66.323  1.00  0.00    -0.317 NA 
HETATM   24  C   UNL     1      -9.661  19.559  66.532  1.00  0.00    -0.378 C  
HETATM   25  C   UNL     1      -7.616  20.320  65.549  1.00  0.00    -0.036 C  
ENDBRANCH  22  23
ENDBRANCH  21  22
ENDBRANCH  20  21
ENDBRANCH  17  20
ENDBRANCH  13  14
ENDBRANCH  10  13
ENDBRANCH   5   9
BRANCH   8  26
HETATM   26  O   UNL     1      -7.372   8.310  63.532  1.00  0.00    -0.098 OA 
HETATM   27  C   UNL     1      -5.992   8.631  63.468  1.00  0.00    -0.077 C  
ENDBRANCH   8  26
BRANCH   7  28
HETATM   28  O   UNL     1      -7.266   5.531  64.354  1.00  0.00    -0.052 OA 
HETATM   29  C   UNL     1      -8.016   4.853  63.357  1.00  0.00    -0.090 C  
ENDBRANCH   7  28
ENDBRANCH   2   3
TORSDOF 10
ENDMDL
MODEL      235
REMARK 921   NORMALIZED FREE ENERGY PREDICTED BY IDOCK:   -2.55 KCAL/MOL
REMARK 922        TOTAL FREE ENERGY PREDICTED BY IDOCK:   -4.91 KCAL/MOL
REMARK 923 INTER-LIGAND FREE ENERGY PREDICTED BY IDOCK:   -3.83 KCAL/MOL
REMARK 924 INTRA-LIGAND FREE ENERGY PREDICTED BY IDOCK:   -1.07 KCAL/MOL
REMARK 927      BINDING AFFINITY PREDICTED BY RF-SCORE:    0.00 PKD
ROOT
HETATM    1  C   UNL     1     -11.098   9.586  67.374  1.00  0.00     0.133 C  
HETATM    2  O   UNL     1     -11.566  10.739  68.072  1.00  0.00    -0.470 OA 
ENDROOT
BRANCH   2   3
HETATM    3  C   UNL     1     -10.708  11.812  68.103  1.00  0.00    -0.214 A  
HETATM    4  C   UNL     1      -9.442  11.711  68.696  1.00  0.00    -0.129 A  
HETATM    5  C   UNL     1      -8.536  12.770  68.640  1.00  0.00     0.054 A  
HETATM    6  C   UNL     1      -8.912  13.955  68.017  1.00  0.00    -0.184 A  
HETATM    7  C   UNL     1     -11.116  13.030  67.510  1.00  0.00    -0.268 A  
HETATM    8  C   UNL     1     -10.194  14.100  67.456  1.00  0.00    -0.241 A  
BRANCH   5   9
HETATM    9  C   UNL     1      -7.167  12.541  69.178  1.00  0.00     0.070 C  
HETATM   10  N   UNL     1      -6.996  11.465  70.014  1.00  0.00    -0.321 N  
HETATM   11  O   UNL     1      -6.253  13.292  68.851  1.00  0.00    -0.077 OA 
HETATM   12  H   UNL     1      -7.793  10.877  70.259  1.00  0.00     0.000 HD 
BRANCH  10  13
HETATM   13  C   UNL     1      -5.685  11.167  70.545  1.00  0.00    -0.140 C  
BRANCH  13  14
HETATM   14  C   UNL     1      -5.618   9.752  71.042  1.00  0.00    -0.071 A  
HETATM   15  C   UNL     1      -5.262   9.512  72.368  1.00  0.00    -0.068 A  
HETATM   16  C   UNL     1      -5.135   8.210  72.842  1.00  0.00    -0.037 A  
HETATM   17  C   UNL     1      -5.353   7.111  72.002  1.00  0.00    -0.036 A  
HETATM   18  C   UNL     1      -5.727   7.343  70.677  1.00  0.00    -0.027 A  
HETATM   19  C   UNL     1      -5.855   8.654  70.195  1.00  0.00    -0.027 A  
BRANCH  17  20
HETATM   20  O   UNL     1      -5.213   5.794  72.384  1.00  0.00    -0.017 OA 
BRANCH  20  21
HETATM   21  C   UNL     1      -5.891   4.878  71.517  1.00  0.00    -0.013 C  
BRANCH  21  22
HETATM   22  C   UNL     1      -6.912   3.985  72.234  1.00  0.00    -0.050 C  
BRANCH  22  23
HETATM   23  N   UNL     1      -8.298   4.470  72.029  1.00  0.00    -0.110 NA 
HETATM   24  C   UNL     1      -8.651   5.565  72.937  1.00  0.00    -0.119 C  
HETATM   25  C   UNL     1      -8.500   4.895  70.645  1.00  0.00    -0.105 C  
ENDBRANCH  22  23
ENDBRANCH  21  22
ENDBRANCH  20  21
ENDBRANCH  17  20
ENDBRANCH  13  14
ENDBRANCH  10  13
ENDBRANCH   5   9
BRANCH   8  26
HETATM   26  O   UNL     1     -10.352  15.341  66.889  1.00  0.00    -0.267 OA 
HETATM   27  C   UNL     1      -9.384  15.822  65.970  1.00  0.00    -0.349 C  
ENDBRANCH   8  26
BRANCH   7  28
HETATM   28  O   UNL     1     -12.327  13.218  66.890  1.00  0.00    -0.311 OA 
HETATM   29  C   UNL     1     -12.419  13.020  65.487  1.00  0.00    -0.438 C  
ENDBRANCH   7  28
ENDBRANCH   2   3
TORSDOF 10
ENDMDL
MODEL      236
REMARK 921   NORMALIZED FREE ENERGY PREDICTED BY IDOCK:   -2.52 KCAL/MOL
REMARK 922        TOTAL FREE ENERGY PREDICTED BY IDOCK:   -4.87 KCAL/MOL
REMARK 923 INTER-LIGAND FREE ENERGY PREDICTED BY IDOCK:   -3.92 KCAL/MOL
REMARK 924 INTRA-LIGAND FREE ENERGY PREDICTED BY IDOCK:   -0.94 KCAL/MOL
REMARK 927      BINDING AFFINITY PREDICTED BY RF-SCORE:    0.00 PKD
ROOT
HETATM    1  C   UNL     1     -11.199  10.936  66.827  1.00  0.00    -0.033 C  
HETATM    2  O   UNL     1     -11.107  12.150  67.571  1.00  0.00    -0.245 OA 
ENDROOT
BRANCH   2   3
HETATM    3  C   UNL     1      -9.886  12.780  67.545  1.00  0.00    -0.211 A  
HETATM    4  C   UNL     1      -8.692  12.046  67.545  1.00  0.00    -0.166 A  
HETATM    5  C   UNL     1      -7.457  12.683  67.419  1.00  0.00    -0.146 A  
HETATM    6  C   UNL     1      -7.413  14.070  67.328  1.00  0.00    -0.054 A  
HETATM    7  C   UNL     1      -9.847  14.193  67.501  1.00  0.00    -0.235 A  
HETATM    8  C   UNL     1      -8.594  14.834  67.373  1.00  0.00    -0.196 A  
BRANCH   5   9
HETATM    9  C   UNL     1      -6.245  11.829  67.296  1.00  0.00    -0.130 C  
HETATM   10  N   UNL     1      -6.306  10.574  67.852  1.00  0.00    -0.059 N  
HETATM   11  O   UNL     1      -5.259  12.254  66.702  1.00  0.00    -0.338 OA 
HETATM   12  H   UNL     1      -7.148  10.273  68.343  1.00  0.00     0.000 HD 
BRANCH  10  13
HETATM   13  C   UNL     1      -5.174   9.681  67.740  1.00  0.00    -0.036 C  
BRANCH  13  14
HETATM   14  C   UNL     1      -5.620   8.298  67.361  1.00  0.00    -0.038 A  
HETATM   15  C   UNL     1      -5.138   7.206  68.081  1.00  0.00    -0.019 A  
HETATM   16  C   UNL     1      -5.487   5.910  67.717  1.00  0.00    -0.005 A  
HETATM   17  C   UNL     1      -6.321   5.667  66.619  1.00  0.00    -0.039 A  
HETATM   18  C   UNL     1      -6.821   6.756  65.903  1.00  0.00    -0.056 A  
HETATM   19  C   UNL     1      -6.471   8.065  66.266  1.00  0.00    -0.047 A  
BRANCH  17  20
HETATM   20  O   UNL     1      -6.683   4.414  66.173  1.00  0.00    -0.047 OA 
BRANCH  20  21
HETATM   21  C   UNL     1      -8.058   4.329  65.781  1.00  0.00    -0.101 C  
BRANCH  21  22
HETATM   22  C   UNL     1      -9.030   4.165  66.957  1.00  0.00    -0.127 C  
BRANCH  22  23
HETATM   23  N   UNL     1     -10.403   4.586  66.590  1.00  0.00    -0.169 NA 
HETATM   24  C   UNL     1     -10.685   5.975  66.967  1.00  0.00    -0.337 C  
HETATM   25  C   UNL     1     -10.636   4.409  65.158  1.00  0.00    -0.137 C  
ENDBRANCH  22  23
ENDBRANCH  21  22
ENDBRANCH  20  21
ENDBRANCH  17  20
ENDBRANCH  13  14
ENDBRANCH  10  13
ENDBRANCH   5   9
BRANCH   8  26
HETATM   26  O   UNL     1      -8.324  16.176  67.261  1.00  0.00    -0.163 OA 
HETATM   27  C   UNL     1      -7.478  16.637  66.219  1.00  0.00    -0.139 C  
ENDBRANCH   8  26
BRANCH   7  28
HETATM   28  O   UNL     1     -10.963  14.995  67.479  1.00  0.00    -0.289 OA 
HETATM   29  C   UNL     1     -11.585  15.341  68.708  1.00  0.00    -0.362 C  
ENDBRANCH   7  28
ENDBRANCH   2   3
TORSDOF 10
ENDMDL
MODEL      237
REMARK 921   NORMALIZED FREE ENERGY PREDICTED BY IDOCK:   -2.39 KCAL/MOL
REMARK 922        TOTAL FREE ENERGY PREDICTED BY IDOCK:   -4.64 KCAL/MOL
REMARK 923 INTER-LIGAND FREE ENERGY PREDICTED BY IDOCK:   -3.86 KCAL/MOL
REMARK 924 INTRA-LIGAND FREE ENERGY PREDICTED BY IDOCK:   -0.78 KCAL/MOL
REMARK 927      BINDING AFFINITY PREDICTED BY RF-SCORE:    0.00 PKD
ROOT
HETATM    1  C   UNL     1      -5.365  13.469  71.380  1.00  0.00    -0.200 C  
HETATM    2  O   UNL     1      -6.111  14.647  71.077  1.00  0.00    -0.130 OA 
ENDROOT
BRANCH   2   3
HETATM    3  C   UNL     1      -6.540  14.770  69.778  1.00  0.00    -0.169 A  
HETATM    4  C   UNL     1      -7.353  13.792  69.189  1.00  0.00     0.019 A  
HETATM    5  C   UNL     1      -7.869  13.966  67.904  1.00  0.00    -0.161 A  
HETATM    6  C   UNL     1      -7.540  15.112  67.187  1.00  0.00    -0.204 A  
HETATM    7  C   UNL     1      -6.162  15.915  69.039  1.00  0.00    -0.125 A  
HETATM    8  C   UNL     1      -6.688  16.086  67.738  1.00  0.00    -0.154 A  
BRANCH   5   9
HETATM    9  C   UNL     1      -8.827  12.946  67.397  1.00  0.00    -0.199 C  
HETATM   10  N   UNL     1      -8.314  11.937  66.620  1.00  0.00    -0.309 N  
HETATM   11  O   UNL     1     -10.015  13.027  67.697  1.00  0.00    -0.208 OA 
HETATM   12  H   UNL     1      -7.319  11.922  66.394  1.00  0.00     0.000 HD 
BRANCH  10  13
HETATM   13  C   UNL     1      -9.185  10.896  66.123  1.00  0.00    -0.184 C  
BRANCH  13  14
HETATM   14  C   UNL     1      -8.767   9.553  66.649  1.00  0.00    -0.146 A  
HETATM   15  C   UNL     1      -7.873   8.780  65.909  1.00  0.00    -0.102 A  
HETATM   16  C   UNL     1      -7.512   7.508  66.341  1.00  0.00    -0.084 A  
HETATM   17  C   UNL     1      -8.041   6.969  67.520  1.00  0.00    -0.113 A  
HETATM   18  C   UNL     1      -8.924   7.742  68.275  1.00  0.00    -0.131 A  
HETATM   19  C   UNL     1      -9.291   9.025  67.843  1.00  0.00    -0.155 A  
BRANCH  17  20
HETATM   20  O   UNL     1      -7.762   5.705  67.996  1.00  0.00    -0.087 OA 
BRANCH  20  21
HETATM   21  C   UNL     1      -6.869   4.968  67.153  1.00  0.00    -0.056 C  
BRANCH  21  22
HETATM   22  C   UNL     1      -7.466   3.666  66.604  1.00  0.00    -0.076 C  
BRANCH  22  23
HETATM   23  N   UNL     1      -6.845   3.284  65.314  1.00  0.00    -0.047 NA 
HETATM   24  C   UNL     1      -6.500   4.446  64.490  1.00  0.00    -0.039 C  
HETATM   25  C   UNL     1      -5.653   2.466  65.533  1.00  0.00    -0.017 C  
ENDBRANCH  22  23
ENDBRANCH  21  22
ENDBRANCH  20  21
ENDBRANCH  17  20
ENDBRANCH  13  14
ENDBRANCH  10  13
ENDBRANCH   5   9
BRANCH   8  26
HETATM   26  O   UNL     1      -6.501  17.133  66.868  1.00  0.00    -0.163 OA 
HETATM   27  C   UNL     1      -7.605  17.647  66.140  1.00  0.00    -0.280 C  
ENDBRANCH   8  26
BRANCH   7  28
HETATM   28  O   UNL     1      -5.385  16.933  69.537  1.00  0.00    -0.140 OA 
HETATM   29  C   UNL     1      -6.006  18.160  69.891  1.00  0.00    -0.202 C  
ENDBRANCH   7  28
ENDBRANCH   2   3
TORSDOF 10
ENDMDL
MODEL      238
REMARK 921   NORMALIZED FREE ENERGY PREDICTED BY IDOCK:   -2.29 KCAL/MOL
REMARK 922        TOTAL FREE ENERGY PREDICTED BY IDOCK:   -4.49 KCAL/MOL
REMARK 923 INTER-LIGAND FREE ENERGY PREDICTED BY IDOCK:   -4.22 KCAL/MOL
REMARK 924 INTRA-LIGAND FREE ENERGY PREDICTED BY IDOCK:   -0.27 KCAL/MOL
REMARK 927      BINDING AFFINITY PREDICTED BY RF-SCORE:    0.00 PKD
ROOT
HETATM    1  C   UNL     1      -8.282  18.344  69.508  1.00  0.00     0.590 C  
HETATM    2  O   UNL     1      -9.449  17.764  68.928  1.00  0.00    -0.262 OA 
ENDROOT
BRANCH   2   3
HETATM    3  C   UNL     1      -9.239  16.680  68.111  1.00  0.00    -0.220 A  
HETATM    4  C   UNL     1      -8.428  15.612  68.518  1.00  0.00    -0.175 A  
HETATM    5  C   UNL     1      -8.296  14.469  67.729  1.00  0.00    -0.173 A  
HETATM    6  C   UNL     1      -8.952  14.407  66.504  1.00  0.00    -0.191 A  
HETATM    7  C   UNL     1      -9.871  16.646  66.845  1.00  0.00    -0.263 A  
HETATM    8  C   UNL     1      -9.734  15.485  66.050  1.00  0.00    -0.345 A  
BRANCH   5   9
HETATM    9  C   UNL     1      -7.523  13.326  68.288  1.00  0.00    -0.126 C  
HETATM   10  N   UNL     1      -7.883  12.066  67.875  1.00  0.00    -0.133 N  
HETATM   11  O   UNL     1      -6.599  13.540  69.066  1.00  0.00    -0.100 OA 
HETATM   12  H   UNL     1      -8.666  11.944  67.232  1.00  0.00     0.000 HD 
BRANCH  10  13
HETATM   13  C   UNL     1      -7.152  10.915  68.354  1.00  0.00    -0.073 C  
BRANCH  13  14
HETATM   14  C   UNL     1      -7.648   9.657  67.701  1.00  0.00    -0.091 A  
HETATM   15  C   UNL     1      -6.725   8.716  67.248  1.00  0.00    -0.063 A  
HETATM   16  C   UNL     1      -7.150   7.568  66.587  1.00  0.00    -0.078 A  
HETATM   17  C   UNL     1      -8.511   7.333  66.353  1.00  0.00    -0.129 A  
HETATM   18  C   UNL     1      -9.442   8.262  66.818  1.00  0.00    -0.256 A  
HETATM   19  C   UNL     1      -9.017   9.421  67.484  1.00  0.00    -0.130 A  
BRANCH  17  20
HETATM   20  O   UNL     1      -9.010   6.240  65.676  1.00  0.00    -0.123 OA 
BRANCH  20  21
HETATM   21  C   UNL     1      -8.691   4.993  66.302  1.00  0.00    -0.117 C  
BRANCH  21  22
HETATM   22  C   UNL     1      -9.127   3.763  65.495  1.00  0.00    -0.146 C  
BRANCH  22  23
HETATM   23  N   UNL     1      -8.134   2.667  65.593  1.00  0.00    -0.083 NA 
HETATM   24  C   UNL     1      -8.385   1.592  64.629  1.00  0.00    -0.079 C  
HETATM   25  C   UNL     1      -6.777   3.180  65.415  1.00  0.00    -0.041 C  
ENDBRANCH  22  23
ENDBRANCH  21  22
ENDBRANCH  20  21
ENDBRANCH  17  20
ENDBRANCH  13  14
ENDBRANCH  10  13
ENDBRANCH   5   9
BRANCH   8  26
HETATM   26  O   UNL     1     -10.293  15.213  64.826  1.00  0.00    -0.331 OA 
HETATM   27  C   UNL     1     -11.446  14.389  64.748  1.00  0.00    -0.402 C  
ENDBRANCH   8  26
BRANCH   7  28
HETATM   28  O   UNL     1     -10.697  17.635  66.368  1.00  0.00    -0.239 OA 
HETATM   29  C   UNL     1     -10.289  18.989  66.495  1.00  0.00    -0.439 C  
ENDBRANCH   7  28
ENDBRANCH   2   3
TORSDOF 10
ENDMDL
MODEL      239
REMARK 921   NORMALIZED FREE ENERGY PREDICTED BY IDOCK:   -2.29 KCAL/MOL
REMARK 922        TOTAL FREE ENERGY PREDICTED BY IDOCK:   -4.49 KCAL/MOL
REMARK 923 INTER-LIGAND FREE ENERGY PREDICTED BY IDOCK:   -4.70 KCAL/MOL
REMARK 924 INTRA-LIGAND FREE ENERGY PREDICTED BY IDOCK:    0.21 KCAL/MOL
REMARK 927      BINDING AFFINITY PREDICTED BY RF-SCORE:    0.00 PKD
ROOT
HETATM    1  C   UNL     1     -10.250  18.220  68.678  1.00  0.00    -0.353 C  
HETATM    2  O   UNL     1      -9.664  18.421  67.393  1.00  0.00    -0.288 OA 
ENDROOT
BRANCH   2   3
HETATM    3  C   UNL     1      -8.408  17.892  67.215  1.00  0.00    -0.225 A  
HETATM    4  C   UNL     1      -8.048  16.670  67.798  1.00  0.00    -0.185 A  
HETATM    5  C   UNL     1      -6.807  16.088  67.535  1.00  0.00    -0.205 A  
HETATM    6  C   UNL     1      -5.904  16.751  66.711  1.00  0.00    -0.138 A  
HETATM    7  C   UNL     1      -7.478  18.596  66.415  1.00  0.00    -0.249 A  
HETATM    8  C   UNL     1      -6.223  18.002  66.152  1.00  0.00    -0.227 A  
BRANCH   5   9
HETATM    9  C   UNL     1      -6.548  14.729  68.086  1.00  0.00    -0.132 C  
HETATM   10  N   UNL     1      -6.342  13.717  67.181  1.00  0.00     0.092 N  
HETATM   11  O   UNL     1      -6.509  14.564  69.301  1.00  0.00    -0.107 OA 
HETATM   12  H   UNL     1      -6.393  13.908  66.180  1.00  0.00     0.000 HD 
BRANCH  10  13
HETATM   13  C   UNL     1      -6.052  12.380  67.649  1.00  0.00    -0.129 C  
BRANCH  13  14
HETATM   14  C   UNL     1      -7.310  11.680  68.078  1.00  0.00    -0.089 A  
HETATM   15  C   UNL     1      -7.329  10.998  69.293  1.00  0.00    -0.113 A  
HETATM   16  C   UNL     1      -8.460  10.292  69.691  1.00  0.00    -0.132 A  
HETATM   17  C   UNL     1      -9.601  10.241  68.881  1.00  0.00    -0.190 A  
HETATM   18  C   UNL     1      -9.596  10.935  67.670  1.00  0.00    -0.177 A  
HETATM   19  C   UNL     1      -8.457  11.648  67.266  1.00  0.00    -0.156 A  
BRANCH  17  20
HETATM   20  O   UNL     1     -10.746   9.535  69.185  1.00  0.00    -0.222 OA 
BRANCH  20  21
HETATM   21  C   UNL     1     -10.552   8.562  70.218  1.00  0.00    -0.226 C  
BRANCH  21  22
HETATM   22  C   UNL     1     -10.242   7.154  69.693  1.00  0.00    -0.208 C  
BRANCH  22  23
HETATM   23  N   UNL     1     -10.941   6.113  70.483  1.00  0.00    -0.296 NA 
HETATM   24  C   UNL     1     -10.086   5.523  71.517  1.00  0.00    -0.205 C  
HETATM   25  C   UNL     1     -12.153   6.653  71.095  1.00  0.00    -0.335 C  
ENDBRANCH  22  23
ENDBRANCH  21  22
ENDBRANCH  20  21
ENDBRANCH  17  20
ENDBRANCH  13  14
ENDBRANCH  10  13
ENDBRANCH   5   9
BRANCH   8  26
HETATM   26  O   UNL     1      -5.197  18.473  65.370  1.00  0.00    -0.139 OA 
HETATM   27  C   UNL     1      -5.306  18.413  63.957  1.00  0.00     0.128 C  
ENDBRANCH   8  26
BRANCH   7  28
HETATM   28  O   UNL     1      -7.746  19.789  65.789  1.00  0.00    -0.334 OA 
HETATM   29  C   UNL     1      -9.091  20.243  65.722  1.00  0.00     0.143 C  
ENDBRANCH   7  28
ENDBRANCH   2   3
TORSDOF 10
ENDMDL
MODEL      240
REMARK 921   NORMALIZED FREE ENERGY PREDICTED BY IDOCK:   -2.28 KCAL/MOL
REMARK 922        TOTAL FREE ENERGY PREDICTED BY IDOCK:   -4.47 KCAL/MOL
REMARK 923 INTER-LIGAND FREE ENERGY PREDICTED BY IDOCK:   -3.69 KCAL/MOL
REMARK 924 INTRA-LIGAND FREE ENERGY PREDICTED BY IDOCK:   -0.78 KCAL/MOL
REMARK 927      BINDING AFFINITY PREDICTED BY RF-SCORE:    0.00 PKD
ROOT
HETATM    1  C   UNL     1     -10.767   9.781  68.483  1.00  0.00    -0.215 C  
HETATM    2  O   UNL     1     -11.780   8.901  68.967  1.00  0.00     0.710 OA 
ENDROOT
BRANCH   2   3
HETATM    3  C   UNL     1     -11.375   7.964  69.886  1.00  0.00     0.042 A  
HETATM    4  C   UNL     1     -10.992   6.676  69.487  1.00  0.00    -0.367 A  
HETATM    5  C   UNL     1     -10.486   5.759  70.410  1.00  0.00    -0.342 A  
HETATM    6  C   UNL     1     -10.397   6.120  71.750  1.00  0.00    -0.250 A  
HETATM    7  C   UNL     1     -11.332   8.323  71.254  1.00  0.00    -0.267 A  
HETATM    8  C   UNL     1     -10.819   7.390  72.184  1.00  0.00    -0.235 A  
BRANCH   5   9
HETATM    9  C   UNL     1      -9.981   4.459  69.890  1.00  0.00    -0.162 C  
HETATM   10  N   UNL     1      -9.967   4.295  68.527  1.00  0.00    -0.031 N  
HETATM   11  O   UNL     1      -9.585   3.604  70.676  1.00  0.00    -0.167 OA 
HETATM   12  H   UNL     1     -10.316   5.036  67.919  1.00  0.00     0.000 HD 
BRANCH  10  13
HETATM   13  C   UNL     1      -9.458   3.068  67.955  1.00  0.00    -0.159 C  
BRANCH  13  14
HETATM   14  C   UNL     1      -8.742   3.338  66.663  1.00  0.00    -0.133 A  
HETATM   15  C   UNL     1      -9.307   2.899  65.467  1.00  0.00    -0.084 A  
HETATM   16  C   UNL     1      -8.640   3.083  64.260  1.00  0.00    -0.093 A  
HETATM   17  C   UNL     1      -7.385   3.703  64.215  1.00  0.00    -0.066 A  
HETATM   18  C   UNL     1      -6.820   4.160  65.407  1.00  0.00    -0.057 A  
HETATM   19  C   UNL     1      -7.489   3.976  66.626  1.00  0.00    -0.084 A  
BRANCH  17  20
HETATM   20  O   UNL     1      -6.645   3.890  63.067  1.00  0.00    -0.031 OA 
BRANCH  20  21
HETATM   21  C   UNL     1      -5.478   4.694  63.271  1.00  0.00    -0.010 C  
BRANCH  21  22
HETATM   22  C   UNL     1      -5.448   5.971  62.422  1.00  0.00    -0.021 C  
BRANCH  22  23
HETATM   23  N   UNL     1      -5.957   7.139  63.180  1.00  0.00    -0.040 NA 
HETATM   24  C   UNL     1      -5.532   8.416  62.598  1.00  0.00    -0.070 C  
HETATM   25  C   UNL     1      -7.416   7.102  63.271  1.00  0.00    -0.092 C  
ENDBRANCH  22  23
ENDBRANCH  21  22
ENDBRANCH  20  21
ENDBRANCH  17  20
ENDBRANCH  13  14
ENDBRANCH  10  13
ENDBRANCH   5   9
BRANCH   8  26
HETATM   26  O   UNL     1     -10.637   7.539  73.537  1.00  0.00    -0.373 OA 
HETATM   27  C   UNL     1      -9.460   7.035  74.148  1.00  0.00    -0.250 C  
ENDBRANCH   8  26
BRANCH   7  28
HETATM   28  O   UNL     1     -11.669   9.564  71.737  1.00  0.00    -0.383 OA 
HETATM   29  C   UNL     1     -13.042   9.884  71.911  1.00  0.00    -0.459 C  
ENDBRANCH   7  28
ENDBRANCH   2   3
TORSDOF 10
ENDMDL
MODEL      241
REMARK 921   NORMALIZED FREE ENERGY PREDICTED BY IDOCK:   -2.27 KCAL/MOL
REMARK 922        TOTAL FREE ENERGY PREDICTED BY IDOCK:   -4.46 KCAL/MOL
REMARK 923 INTER-LIGAND FREE ENERGY PREDICTED BY IDOCK:   -4.42 KCAL/MOL
REMARK 924 INTRA-LIGAND FREE ENERGY PREDICTED BY IDOCK:   -0.04 KCAL/MOL
REMARK 927      BINDING AFFINITY PREDICTED BY RF-SCORE:    0.00 PKD
ROOT
HETATM    1  C   UNL     1     -11.612  14.870  69.185  1.00  0.00    -0.307 C  
HETATM    2  O   UNL     1     -11.854  13.743  68.344  1.00  0.00    -0.341 OA 
ENDROOT
BRANCH   2   3
HETATM    3  C   UNL     1     -10.876  12.778  68.336  1.00  0.00    -0.249 A  
HETATM    4  C   UNL     1     -11.198  11.421  68.480  1.00  0.00    -0.309 A  
HETATM    5  C   UNL     1     -10.216  10.435  68.373  1.00  0.00    -0.186 A  
HETATM    6  C   UNL     1      -8.895  10.811  68.156  1.00  0.00    -0.133 A  
HETATM    7  C   UNL     1      -9.529  13.171  68.163  1.00  0.00    -0.222 A  
HETATM    8  C   UNL     1      -8.538  12.168  68.055  1.00  0.00    -0.175 A  
BRANCH   5   9
HETATM    9  C   UNL     1     -10.654   9.013  68.408  1.00  0.00    -0.154 C  
HETATM   10  N   UNL     1     -10.793   8.372  67.202  1.00  0.00    -0.422 N  
HETATM   11  O   UNL     1     -10.854   8.466  69.488  1.00  0.00    -0.210 OA 
HETATM   12  H   UNL     1     -10.621   8.877  66.332  1.00  0.00     0.000 HD 
BRANCH  10  13
HETATM   13  C   UNL     1     -11.184   6.981  67.167  1.00  0.00    -0.059 C  
BRANCH  13  14
HETATM   14  C   UNL     1     -10.135   6.148  66.487  1.00  0.00    -0.179 A  
HETATM   15  C   UNL     1     -10.452   4.853  66.079  1.00  0.00    -0.327 A  
HETATM   16  C   UNL     1      -9.486   4.037  65.500  1.00  0.00    -0.176 A  
HETATM   17  C   UNL     1      -8.173   4.489  65.320  1.00  0.00    -0.112 A  
HETATM   18  C   UNL     1      -7.851   5.789  65.711  1.00  0.00    -0.102 A  
HETATM   19  C   UNL     1      -8.822   6.615  66.296  1.00  0.00    -0.156 A  
BRANCH  17  20
HETATM   20  O   UNL     1      -7.151   3.731  64.788  1.00  0.00    -0.062 OA 
BRANCH  20  21
HETATM   21  C   UNL     1      -6.760   2.639  65.628  1.00  0.00    -0.039 C  
BRANCH  21  22
HETATM   22  C   UNL     1      -6.097   3.073  66.942  1.00  0.00    -0.024 C  
BRANCH  22  23
HETATM   23  N   UNL     1      -6.533   2.226  68.077  1.00  0.00    -0.029 NA 
HETATM   24  C   UNL     1      -6.737   2.996  69.308  1.00  0.00    -0.034 C  
HETATM   25  C   UNL     1      -7.758   1.500  67.743  1.00  0.00    -0.058 C  
ENDBRANCH  22  23
ENDBRANCH  21  22
ENDBRANCH  20  21
ENDBRANCH  17  20
ENDBRANCH  13  14
ENDBRANCH  10  13
ENDBRANCH   5   9
BRANCH   8  26
HETATM   26  O   UNL     1      -7.190  12.314  67.835  1.00  0.00    -0.087 OA 
HETATM   27  C   UNL     1      -6.622  11.846  66.623  1.00  0.00     0.078 C  
ENDBRANCH   8  26
BRANCH   7  28
HETATM   28  O   UNL     1      -9.120  14.472  67.995  1.00  0.00    -0.174 OA 
HETATM   29  C   UNL     1      -8.171  15.016  68.901  1.00  0.00    -0.178 C  
ENDBRANCH   7  28
ENDBRANCH   2   3
TORSDOF 10
ENDMDL
MODEL      242
REMARK 921   NORMALIZED FREE ENERGY PREDICTED BY IDOCK:   -2.09 KCAL/MOL
REMARK 922        TOTAL FREE ENERGY PREDICTED BY IDOCK:   -4.18 KCAL/MOL
REMARK 923 INTER-LIGAND FREE ENERGY PREDICTED BY IDOCK:   -3.70 KCAL/MOL
REMARK 924 INTRA-LIGAND FREE ENERGY PREDICTED BY IDOCK:   -0.48 KCAL/MOL
REMARK 927      BINDING AFFINITY PREDICTED BY RF-SCORE:    0.00 PKD
ROOT
HETATM    1  C   UNL     1     -10.076  15.099  65.430  1.00  0.00    -0.350 C  
HETATM    2  O   UNL     1      -9.594  15.036  66.771  1.00  0.00    -0.225 OA 
ENDROOT
BRANCH   2   3
HETATM    3  C   UNL     1      -9.740  13.827  67.406  1.00  0.00    -0.235 A  
HETATM    4  C   UNL     1      -8.677  12.916  67.482  1.00  0.00    -0.190 A  
HETATM    5  C   UNL     1      -8.796  11.732  68.212  1.00  0.00    -0.172 A  
HETATM    6  C   UNL     1     -10.000  11.439  68.842  1.00  0.00    -0.146 A  
HETATM    7  C   UNL     1     -10.983  13.514  68.003  1.00  0.00    -0.251 A  
HETATM    8  C   UNL     1     -11.098  12.313  68.742  1.00  0.00    -0.251 A  
BRANCH   5   9
HETATM    9  C   UNL     1      -7.584  10.880  68.353  1.00  0.00    -0.104 C  
HETATM   10  N   UNL     1      -7.460   9.821  67.486  1.00  0.00    -0.091 N  
HETATM   11  O   UNL     1      -6.745  11.153  69.206  1.00  0.00    -0.081 OA 
HETATM   12  H   UNL     1      -8.192   9.634  66.800  1.00  0.00     0.000 HD 
BRANCH  10  13
HETATM   13  C   UNL     1      -6.291   8.973  67.548  1.00  0.00    -0.063 C  
BRANCH  13  14
HETATM   14  C   UNL     1      -6.383   7.862  66.542  1.00  0.00    -0.050 A  
HETATM   15  C   UNL     1      -6.933   6.640  66.925  1.00  0.00    -0.067 A  
HETATM   16  C   UNL     1      -6.978   5.574  66.032  1.00  0.00    -0.066 A  
HETATM   17  C   UNL     1      -6.467   5.697  64.734  1.00  0.00    -0.041 A  
HETATM   18  C   UNL     1      -5.930   6.922  64.338  1.00  0.00    -0.036 A  
HETATM   19  C   UNL     1      -5.882   7.999  65.235  1.00  0.00    -0.041 A  
BRANCH  17  20
HETATM   20  O   UNL     1      -6.442   4.679  63.804  1.00  0.00    -0.029 OA 
BRANCH  20  21
HETATM   21  C   UNL     1      -7.661   3.930  63.753  1.00  0.00    -0.082 C  
BRANCH  21  22
HETATM   22  C   UNL     1      -8.792   4.634  62.992  1.00  0.00    -0.128 C  
BRANCH  22  23
HETATM   23  N   UNL     1      -9.887   3.695  62.653  1.00  0.00    -0.115 NA 
HETATM   24  C   UNL     1      -9.493   2.291  62.808  1.00  0.00    -0.090 C  
HETATM   25  C   UNL     1     -11.072   3.965  63.465  1.00  0.00     0.176 C  
ENDBRANCH  22  23
ENDBRANCH  21  22
ENDBRANCH  20  21
ENDBRANCH  17  20
ENDBRANCH  13  14
ENDBRANCH  10  13
ENDBRANCH   5   9
BRANCH   8  26
HETATM   26  O   UNL     1     -12.180  11.837  69.441  1.00  0.00    -0.256 OA 
HETATM   27  C   UNL     1     -12.553  12.453  70.663  1.00  0.00    -0.153 C  
ENDBRANCH   8  26
BRANCH   7  28
HETATM   28  O   UNL     1     -12.074  14.349  67.997  1.00  0.00    -0.320 OA 
HETATM   29  C   UNL     1     -12.027  15.545  68.761  1.00  0.00    -0.243 C  
ENDBRANCH   7  28
ENDBRANCH   2   3
TORSDOF 10
ENDMDL
MODEL      243
REMARK 921   NORMALIZED FREE ENERGY PREDICTED BY IDOCK:   -2.09 KCAL/MOL
REMARK 922        TOTAL FREE ENERGY PREDICTED BY IDOCK:   -4.17 KCAL/MOL
REMARK 923 INTER-LIGAND FREE ENERGY PREDICTED BY IDOCK:   -5.38 KCAL/MOL
REMARK 924 INTRA-LIGAND FREE ENERGY PREDICTED BY IDOCK:    1.21 KCAL/MOL
REMARK 927      BINDING AFFINITY PREDICTED BY RF-SCORE:    0.00 PKD
ROOT
HETATM    1  C   UNL     1     -12.168  14.896  71.942  1.00  0.00    -0.352 C  
HETATM    2  O   UNL     1     -12.845  13.808  71.313  1.00  0.00    -0.337 OA 
ENDROOT
BRANCH   2   3
HETATM    3  C   UNL     1     -12.210  13.249  70.232  1.00  0.00    -0.321 A  
HETATM    4  C   UNL     1     -11.962  11.870  70.171  1.00  0.00    -0.413 A  
HETATM    5  C   UNL     1     -11.406  11.290  69.029  1.00  0.00    -0.344 A  
HETATM    6  C   UNL     1     -11.061  12.100  67.953  1.00  0.00    -0.295 A  
HETATM    7  C   UNL     1     -11.817  14.086  69.161  1.00  0.00    -0.350 A  
HETATM    8  C   UNL     1     -11.255  13.493  68.007  1.00  0.00    -0.271 A  
BRANCH   5   9
HETATM    9  C   UNL     1     -11.294   9.807  68.990  1.00  0.00     0.035 C  
HETATM   10  N   UNL     1     -11.301   9.147  70.195  1.00  0.00    -0.400 N  
HETATM   11  O   UNL     1     -11.219   9.232  67.908  1.00  0.00     0.004 OA 
HETATM   12  H   UNL     1     -11.357   9.675  71.066  1.00  0.00     0.000 HD 
BRANCH  10  13
HETATM   13  C   UNL     1     -11.228   7.704  70.226  1.00  0.00    -0.216 C  
BRANCH  13  14
HETATM   14  C   UNL     1      -9.991   7.216  69.526  1.00  0.00    -0.165 A  
HETATM   15  C   UNL     1     -10.119   6.340  68.449  1.00  0.00    -0.179 A  
HETATM   16  C   UNL     1      -8.992   5.825  67.818  1.00  0.00    -0.107 A  
HETATM   17  C   UNL     1      -7.704   6.165  68.250  1.00  0.00    -0.103 A  
HETATM   18  C   UNL     1      -7.568   7.054  69.317  1.00  0.00    -0.096 A  
HETATM   19  C   UNL     1      -8.702   7.575  69.957  1.00  0.00    -0.140 A  
BRANCH  17  20
HETATM   20  O   UNL     1      -6.539   5.671  67.702  1.00  0.00    -0.049 OA 
BRANCH  20  21
HETATM   21  C   UNL     1      -6.753   4.920  66.502  1.00  0.00    -0.054 C  
BRANCH  21  22
HETATM   22  C   UNL     1      -6.458   3.422  66.646  1.00  0.00    -0.036 C  
BRANCH  22  23
HETATM   23  N   UNL     1      -6.580   2.976  68.054  1.00  0.00    -0.036 NA 
HETATM   24  C   UNL     1      -7.621   1.960  68.235  1.00  0.00    -0.053 C  
HETATM   25  C   UNL     1      -5.303   2.466  68.550  1.00  0.00    -0.013 C  
ENDBRANCH  22  23
ENDBRANCH  21  22
ENDBRANCH  20  21
ENDBRANCH  17  20
ENDBRANCH  13  14
ENDBRANCH  10  13
ENDBRANCH   5   9
BRANCH   8  26
HETATM   26  O   UNL     1     -10.853  14.097  66.841  1.00  0.00    -0.290 OA 
HETATM   27  C   UNL     1     -11.335  13.614  65.598  1.00  0.00    -0.299 C  
ENDBRANCH   8  26
BRANCH   7  28
HETATM   28  O   UNL     1     -12.034  15.442  69.123  1.00  0.00    -0.335 OA 
HETATM   29  C   UNL     1     -11.499  16.193  68.042  1.00  0.00    -0.163 C  
ENDBRANCH   7  28
ENDBRANCH   2   3
TORSDOF 10
ENDMDL
MODEL      244
REMARK 921   NORMALIZED FREE ENERGY PREDICTED BY IDOCK:   -2.01 KCAL/MOL
REMARK 922        TOTAL FREE ENERGY PREDICTED BY IDOCK:   -4.05 KCAL/MOL
REMARK 923 INTER-LIGAND FREE ENERGY PREDICTED BY IDOCK:   -3.68 KCAL/MOL
REMARK 924 INTRA-LIGAND FREE ENERGY PREDICTED BY IDOCK:   -0.38 KCAL/MOL
REMARK 927      BINDING AFFINITY PREDICTED BY RF-SCORE:    0.00 PKD
ROOT
HETATM    1  C   UNL     1     -10.220   7.345  66.906  1.00  0.00    -0.276 C  
HETATM    2  O   UNL     1      -9.786   7.557  68.248  1.00  0.00    -0.150 OA 
ENDROOT
BRANCH   2   3
HETATM    3  C   UNL     1      -8.452   7.846  68.411  1.00  0.00    -0.128 A  
HETATM    4  C   UNL     1      -7.892   9.009  67.866  1.00  0.00    -0.101 A  
HETATM    5  C   UNL     1      -6.562   9.350  68.116  1.00  0.00    -0.059 A  
HETATM    6  C   UNL     1      -5.774   8.502  68.886  1.00  0.00    -0.040 A  
HETATM    7  C   UNL     1      -7.646   6.953  69.155  1.00  0.00    -0.097 A  
HETATM    8  C   UNL     1      -6.299   7.304  69.405  1.00  0.00    -0.035 A  
BRANCH   5   9
HETATM    9  C   UNL     1      -6.076  10.664  67.613  1.00  0.00    -0.048 C  
HETATM   10  N   UNL     1      -6.590  11.790  68.208  1.00  0.00    -0.054 N  
HETATM   11  O   UNL     1      -5.239  10.699  66.716  1.00  0.00    -0.041 OA 
HETATM   12  H   UNL     1      -7.290  11.704  68.945  1.00  0.00     0.000 HD 
BRANCH  10  13
HETATM   13  C   UNL     1      -6.136  13.097  67.789  1.00  0.00    -0.154 C  
BRANCH  13  14
HETATM   14  C   UNL     1      -7.300  14.013  67.541  1.00  0.00    -0.187 A  
HETATM   15  C   UNL     1      -8.510  13.475  67.107  1.00  0.00    -0.177 A  
HETATM   16  C   UNL     1      -9.589  14.303  66.814  1.00  0.00    -0.290 A  
HETATM   17  C   UNL     1      -9.486  15.694  66.939  1.00  0.00    -0.229 A  
HETATM   18  C   UNL     1      -8.283  16.239  67.390  1.00  0.00    -0.181 A  
HETATM   19  C   UNL     1      -7.193  15.408  67.685  1.00  0.00    -0.206 A  
BRANCH  17  20
HETATM   20  O   UNL     1     -10.494  16.584  66.635  1.00  0.00    -0.297 OA 
BRANCH  20  21
HETATM   21  C   UNL     1     -11.463  16.719  67.681  1.00  0.00     0.329 C  
BRANCH  21  22
HETATM   22  C   UNL     1     -11.986  15.380  68.219  1.00  0.00    -0.086 C  
BRANCH  22  23
HETATM   23  N   UNL     1     -11.459  15.096  69.574  1.00  0.00    -0.276 NA 
HETATM   24  C   UNL     1     -11.131  16.316  70.318  1.00  0.00    -0.332 C  
HETATM   25  C   UNL     1     -12.408  14.292  70.342  1.00  0.00    -0.352 C  
ENDBRANCH  22  23
ENDBRANCH  21  22
ENDBRANCH  20  21
ENDBRANCH  17  20
ENDBRANCH  13  14
ENDBRANCH  10  13
ENDBRANCH   5   9
BRANCH   8  26
HETATM   26  O   UNL     1      -5.358   6.623  70.137  1.00  0.00    -0.014 OA 
HETATM   27  C   UNL     1      -5.286   6.817  71.541  1.00  0.00    -0.027 C  
ENDBRANCH   8  26
BRANCH   7  28
HETATM   28  O   UNL     1      -8.110   5.800  69.740  1.00  0.00    -0.100 OA 
HETATM   29  C   UNL     1      -7.966   4.571  69.044  1.00  0.00    -0.070 C  
ENDBRANCH   7  28
ENDBRANCH   2   3
TORSDOF 10
ENDMDL
MODEL      245
REMARK 921   NORMALIZED FREE ENERGY PREDICTED BY IDOCK:   -1.86 KCAL/MOL
REMARK 922        TOTAL FREE ENERGY PREDICTED BY IDOCK:   -3.82 KCAL/MOL
REMARK 923 INTER-LIGAND FREE ENERGY PREDICTED BY IDOCK:   -2.92 KCAL/MOL
REMARK 924 INTRA-LIGAND FREE ENERGY PREDICTED BY IDOCK:   -0.89 KCAL/MOL
REMARK 927      BINDING AFFINITY PREDICTED BY RF-SCORE:    0.00 PKD
ROOT
HETATM    1  C   UNL     1     -10.988   9.381  66.912  1.00  0.00     0.172 C  
HETATM    2  O   UNL     1     -11.190  10.436  67.851  1.00  0.00    -0.305 OA 
ENDROOT
BRANCH   2   3
HETATM    3  C   UNL     1     -10.106  11.246  68.087  1.00  0.00    -0.182 A  
HETATM    4  C   UNL     1      -8.869  10.709  68.470  1.00  0.00    -0.148 A  
HETATM    5  C   UNL     1      -7.746  11.524  68.613  1.00  0.00    -0.139 A  
HETATM    6  C   UNL     1      -7.867  12.894  68.407  1.00  0.00    -0.133 A  
HETATM    7  C   UNL     1     -10.250  12.644  67.922  1.00  0.00    -0.220 A  
HETATM    8  C   UNL     1      -9.108  13.465  68.068  1.00  0.00    -0.205 A  
BRANCH   5   9
HETATM    9  C   UNL     1      -6.442  10.864  68.895  1.00  0.00    -0.049 C  
HETATM   10  N   UNL     1      -6.483   9.583  69.387  1.00  0.00    -0.043 N  
HETATM   11  O   UNL     1      -5.396  11.464  68.667  1.00  0.00    -0.044 OA 
HETATM   12  H   UNL     1      -7.381   9.133  69.566  1.00  0.00     0.000 HD 
BRANCH  10  13
HETATM   13  C   UNL     1      -5.252   8.873  69.651  1.00  0.00    -0.030 C  
BRANCH  13  14
HETATM   14  C   UNL     1      -5.476   7.388  69.631  1.00  0.00    -0.023 A  
HETATM   15  C   UNL     1      -5.158   6.635  70.760  1.00  0.00    -0.018 A  
HETATM   16  C   UNL     1      -5.300   5.252  70.751  1.00  0.00    -0.005 A  
HETATM   17  C   UNL     1      -5.755   4.580  69.610  1.00  0.00    -0.016 A  
HETATM   18  C   UNL     1      -6.092   5.328  68.481  1.00  0.00    -0.026 A  
HETATM   19  C   UNL     1      -5.950   6.723  68.486  1.00  0.00    -0.025 A  
BRANCH  17  20
HETATM   20  O   UNL     1      -5.889   3.211  69.509  1.00  0.00    -0.021 OA 
BRANCH  20  21
HETATM   21  C   UNL     1      -6.694   2.802  68.398  1.00  0.00    -0.040 C  
BRANCH  21  22
HETATM   22  C   UNL     1      -7.667   1.661  68.722  1.00  0.00    -0.046 C  
BRANCH  22  23
HETATM   23  N   UNL     1      -9.073   2.130  68.728  1.00  0.00    -0.122 NA 
HETATM   24  C   UNL     1      -9.448   2.770  69.992  1.00  0.00    -0.098 C  
HETATM   25  C   UNL     1      -9.317   3.051  67.619  1.00  0.00    -0.195 C  
ENDBRANCH  22  23
ENDBRANCH  21  22
ENDBRANCH  20  21
ENDBRANCH  17  20
ENDBRANCH  13  14
ENDBRANCH  10  13
ENDBRANCH   5   9
BRANCH   8  26
HETATM   26  O   UNL     1      -9.002  14.824  67.905  1.00  0.00    -0.165 OA 
HETATM   27  C   UNL     1      -7.926  15.360  67.152  1.00  0.00    -0.217 C  
ENDBRANCH   8  26
BRANCH   7  28
HETATM   28  O   UNL     1     -11.414  13.259  67.532  1.00  0.00    -0.287 OA 
HETATM   29  C   UNL     1     -12.150  14.007  68.489  1.00  0.00    -0.294 C  
ENDBRANCH   7  28
ENDBRANCH   2   3
TORSDOF 10
ENDMDL
MODEL      246
REMARK 921   NORMALIZED FREE ENERGY PREDICTED BY IDOCK:   -1.86 KCAL/MOL
REMARK 922        TOTAL FREE ENERGY PREDICTED BY IDOCK:   -3.81 KCAL/MOL
REMARK 923 INTER-LIGAND FREE ENERGY PREDICTED BY IDOCK:   -4.51 KCAL/MOL
REMARK 924 INTRA-LIGAND FREE ENERGY PREDICTED BY IDOCK:    0.70 KCAL/MOL
REMARK 927      BINDING AFFINITY PREDICTED BY RF-SCORE:    0.00 PKD
ROOT
HETATM    1  C   UNL     1     -10.229  18.243  69.326  1.00  0.00     0.036 C  
HETATM    2  O   UNL     1      -9.764  18.373  67.984  1.00  0.00    -0.292 OA 
ENDROOT
BRANCH   2   3
HETATM    3  C   UNL     1      -8.564  17.765  67.701  1.00  0.00    -0.230 A  
HETATM    4  C   UNL     1      -8.200  16.560  68.318  1.00  0.00    -0.185 A  
HETATM    5  C   UNL     1      -7.028  15.895  67.957  1.00  0.00    -0.141 A  
HETATM    6  C   UNL     1      -6.193  16.456  66.997  1.00  0.00    -0.155 A  
HETATM    7  C   UNL     1      -7.698  18.367  66.759  1.00  0.00    -0.229 A  
HETATM    8  C   UNL     1      -6.512  17.688  66.397  1.00  0.00    -0.237 A  
BRANCH   5   9
HETATM    9  C   UNL     1      -6.775  14.558  68.562  1.00  0.00    -0.096 C  
HETATM   10  N   UNL     1      -5.623  13.910  68.187  1.00  0.00    -0.109 N  
HETATM   11  O   UNL     1      -7.573  14.097  69.371  1.00  0.00    -0.012 OA 
HETATM   12  H   UNL     1      -4.997  14.336  67.503  1.00  0.00     0.000 HD 
BRANCH  10  13
HETATM   13  C   UNL     1      -5.302  12.623  68.762  1.00  0.00    -0.058 C  
BRANCH  13  14
HETATM   14  C   UNL     1      -6.260  11.570  68.285  1.00  0.00    -0.045 A  
HETATM   15  C   UNL     1      -7.048  10.894  69.215  1.00  0.00    -0.124 A  
HETATM   16  C   UNL     1      -7.902   9.874  68.811  1.00  0.00    -0.091 A  
HETATM   17  C   UNL     1      -7.987   9.494  67.466  1.00  0.00    -0.106 A  
HETATM   18  C   UNL     1      -7.213  10.176  66.526  1.00  0.00    -0.104 A  
HETATM   19  C   UNL     1      -6.350  11.206  66.930  1.00  0.00    -0.114 A  
BRANCH  17  20
HETATM   20  O   UNL     1      -8.780   8.471  66.990  1.00  0.00    -0.122 OA 
BRANCH  20  21
HETATM   21  C   UNL     1     -10.119   8.885  66.694  1.00  0.00    -0.287 C  
BRANCH  21  22
HETATM   22  C   UNL     1     -10.401  10.356  67.026  1.00  0.00    -0.240 C  
BRANCH  22  23
HETATM   23  N   UNL     1     -10.775  11.124  65.815  1.00  0.00    -0.226 NA 
HETATM   24  C   UNL     1     -10.481  12.555  65.943  1.00  0.00    -0.265 C  
HETATM   25  C   UNL     1     -10.103  10.589  64.632  1.00  0.00    -0.338 C  
ENDBRANCH  22  23
ENDBRANCH  21  22
ENDBRANCH  20  21
ENDBRANCH  17  20
ENDBRANCH  13  14
ENDBRANCH  10  13
ENDBRANCH   5   9
BRANCH   8  26
HETATM   26  O   UNL     1      -5.561  18.055  65.477  1.00  0.00    -0.176 OA 
HETATM   27  C   UNL     1      -5.233  19.426  65.314  1.00  0.00    -0.158 C  
ENDBRANCH   8  26
BRANCH   7  28
HETATM   28  O   UNL     1      -7.977  19.535  66.091  1.00  0.00    -0.313 OA 
HETATM   29  C   UNL     1      -7.777  20.772  66.758  1.00  0.00    -0.094 C  
ENDBRANCH   7  28
ENDBRANCH   2   3
TORSDOF 10
ENDMDL
MODEL      247
REMARK 921   NORMALIZED FREE ENERGY PREDICTED BY IDOCK:   -1.37 KCAL/MOL
REMARK 922        TOTAL FREE ENERGY PREDICTED BY IDOCK:   -3.04 KCAL/MOL
REMARK 923 INTER-LIGAND FREE ENERGY PREDICTED BY IDOCK:   -3.28 KCAL/MOL
REMARK 924 INTRA-LIGAND FREE ENERGY PREDICTED BY IDOCK:    0.25 KCAL/MOL
REMARK 927      BINDING AFFINITY PREDICTED BY RF-SCORE:    0.00 PKD
ROOT
HETATM    1  C   UNL     1      -8.461   8.190  62.614  1.00  0.00    -0.037 C  
HETATM    2  O   UNL     1      -8.754   7.928  63.985  1.00  0.00     0.225 OA 
ENDROOT
BRANCH   2   3
HETATM    3  C   UNL     1      -7.730   7.392  64.728  1.00  0.00    -0.114 A  
HETATM    4  C   UNL     1      -7.449   7.862  66.018  1.00  0.00    -0.078 A  
HETATM    5  C   UNL     1      -6.473   7.252  66.808  1.00  0.00    -0.052 A  
HETATM    6  C   UNL     1      -5.748   6.185  66.290  1.00  0.00    -0.017 A  
HETATM    7  C   UNL     1      -6.964   6.339  64.176  1.00  0.00    -0.044 A  
HETATM    8  C   UNL     1      -5.978   5.724  64.981  1.00  0.00    -0.025 A  
BRANCH   5   9
HETATM    9  C   UNL     1      -6.322   7.723  68.211  1.00  0.00    -0.045 C  
HETATM   10  N   UNL     1      -6.754   8.996  68.493  1.00  0.00    -0.059 N  
HETATM   11  O   UNL     1      -5.845   6.972  69.057  1.00  0.00    -0.018 OA 
HETATM   12  H   UNL     1      -7.136   9.582  67.750  1.00  0.00     0.000 HD 
BRANCH  10  13
HETATM   13  C   UNL     1      -6.666   9.504  69.843  1.00  0.00    -0.063 C  
BRANCH  13  14
HETATM   14  C   UNL     1      -7.889   9.136  70.634  1.00  0.00    -0.165 A  
HETATM   15  C   UNL     1      -9.146   9.485  70.145  1.00  0.00    -0.276 A  
HETATM   16  C   UNL     1     -10.293   9.209  70.882  1.00  0.00    -0.349 A  
HETATM   17  C   UNL     1     -10.215   8.584  72.132  1.00  0.00    -0.333 A  
HETATM   18  C   UNL     1      -8.961   8.216  72.621  1.00  0.00    -0.299 A  
HETATM   19  C   UNL     1      -7.802   8.493  71.882  1.00  0.00    -0.157 A  
BRANCH  17  20
HETATM   20  O   UNL     1     -11.299   8.309  72.939  1.00  0.00    -0.342 OA 
BRANCH  20  21
HETATM   21  C   UNL     1     -11.980   7.101  72.578  1.00  0.00    -0.072 C  
BRANCH  21  22
HETATM   22  C   UNL     1     -11.078   6.055  71.911  1.00  0.00    -0.277 C  
BRANCH  22  23
HETATM   23  N   UNL     1     -11.087   4.774  72.656  1.00  0.00    -0.154 NA 
HETATM   24  C   UNL     1     -10.134   3.801  72.114  1.00  0.00    -0.150 C  
HETATM   25  C   UNL     1     -10.810   4.997  74.074  1.00  0.00    -0.220 C  
ENDBRANCH  22  23
ENDBRANCH  21  22
ENDBRANCH  20  21
ENDBRANCH  17  20
ENDBRANCH  13  14
ENDBRANCH  10  13
ENDBRANCH   5   9
BRANCH   8  26
HETATM   26  O   UNL     1      -5.160   4.664  64.675  1.00  0.00    -0.011 OA 
HETATM   27  C   UNL     1      -5.152   3.519  65.513  1.00  0.00    -0.009 C  
ENDBRANCH   8  26
BRANCH   7  28
HETATM   28  O   UNL     1      -7.177   5.801  62.930  1.00  0.00    -0.046 OA 
HETATM   29  C   UNL     1      -8.213   4.844  62.764  1.00  0.00    -0.097 C  
ENDBRANCH   7  28
ENDBRANCH   2   3
TORSDOF 10
ENDMDL
MODEL      248
REMARK 921   NORMALIZED FREE ENERGY PREDICTED BY IDOCK:   -1.35 KCAL/MOL
REMARK 922        TOTAL FREE ENERGY PREDICTED BY IDOCK:   -3.01 KCAL/MOL
REMARK 923 INTER-LIGAND FREE ENERGY PREDICTED BY IDOCK:   -2.95 KCAL/MOL
REMARK 924 INTRA-LIGAND FREE ENERGY PREDICTED BY IDOCK:   -0.05 KCAL/MOL
REMARK 927      BINDING AFFINITY PREDICTED BY RF-SCORE:    0.00 PKD
ROOT
HETATM    1  C   UNL     1     -11.612  14.870  69.185  1.00  0.00    -0.307 C  
HETATM    2  O   UNL     1     -11.854  13.743  68.344  1.00  0.00    -0.341 OA 
ENDROOT
BRANCH   2   3
HETATM    3  C   UNL     1     -10.876  12.778  68.336  1.00  0.00    -0.249 A  
HETATM    4  C   UNL     1     -11.198  11.421  68.480  1.00  0.00    -0.309 A  
HETATM    5  C   UNL     1     -10.216  10.435  68.373  1.00  0.00    -0.186 A  
HETATM    6  C   UNL     1      -8.895  10.811  68.156  1.00  0.00    -0.133 A  
HETATM    7  C   UNL     1      -9.529  13.171  68.163  1.00  0.00    -0.222 A  
HETATM    8  C   UNL     1      -8.538  12.168  68.055  1.00  0.00    -0.175 A  
BRANCH   5   9
HETATM    9  C   UNL     1     -10.654   9.013  68.408  1.00  0.00    -0.154 C  
HETATM   10  N   UNL     1      -9.787   8.079  67.895  1.00  0.00    -0.160 N  
HETATM   11  O   UNL     1     -11.741   8.724  68.899  1.00  0.00     0.855 OA 
HETATM   12  H   UNL     1      -8.898   8.375  67.492  1.00  0.00     0.000 HD 
BRANCH  10  13
HETATM   13  C   UNL     1     -10.138   6.677  67.929  1.00  0.00    -0.150 C  
BRANCH  13  14
HETATM   14  C   UNL     1      -9.126   5.892  68.713  1.00  0.00    -0.116 A  
HETATM   15  C   UNL     1      -9.110   4.502  68.605  1.00  0.00    -0.164 A  
HETATM   16  C   UNL     1      -8.224   3.744  69.363  1.00  0.00    -0.066 A  
HETATM   17  C   UNL     1      -7.334   4.352  70.257  1.00  0.00    -0.049 A  
HETATM   18  C   UNL     1      -7.332   5.744  70.358  1.00  0.00    -0.080 A  
HETATM   19  C   UNL     1      -8.225   6.512  69.596  1.00  0.00    -0.126 A  
BRANCH  17  20
HETATM   20  O   UNL     1      -6.451   3.670  71.068  1.00  0.00    -0.025 OA 
BRANCH  20  21
HETATM   21  C   UNL     1      -7.099   2.903  72.088  1.00  0.00    -0.034 C  
BRANCH  21  22
HETATM   22  C   UNL     1      -7.811   3.754  73.148  1.00  0.00    -0.078 C  
BRANCH  22  23
HETATM   23  N   UNL     1      -9.105   3.153  73.549  1.00  0.00    -0.085 NA 
HETATM   24  C   UNL     1     -10.153   4.158  73.750  1.00  0.00    -0.142 C  
HETATM   25  C   UNL     1      -9.550   2.172  72.561  1.00  0.00    -0.096 C  
ENDBRANCH  22  23
ENDBRANCH  21  22
ENDBRANCH  20  21
ENDBRANCH  17  20
ENDBRANCH  13  14
ENDBRANCH  10  13
ENDBRANCH   5   9
BRANCH   8  26
HETATM   26  O   UNL     1      -7.190  12.314  67.835  1.00  0.00    -0.087 OA 
HETATM   27  C   UNL     1      -6.622  11.846  66.623  1.00  0.00     0.078 C  
ENDBRANCH   8  26
BRANCH   7  28
HETATM   28  O   UNL     1      -9.120  14.472  67.995  1.00  0.00    -0.174 OA 
HETATM   29  C   UNL     1      -8.171  15.016  68.901  1.00  0.00    -0.178 C  
ENDBRANCH   7  28
ENDBRANCH   2   3
TORSDOF 10
ENDMDL
MODEL      249
REMARK 921   NORMALIZED FREE ENERGY PREDICTED BY IDOCK:   -1.27 KCAL/MOL
REMARK 922        TOTAL FREE ENERGY PREDICTED BY IDOCK:   -2.87 KCAL/MOL
REMARK 923 INTER-LIGAND FREE ENERGY PREDICTED BY IDOCK:   -3.69 KCAL/MOL
REMARK 924 INTRA-LIGAND FREE ENERGY PREDICTED BY IDOCK:    0.82 KCAL/MOL
REMARK 927      BINDING AFFINITY PREDICTED BY RF-SCORE:    0.00 PKD
ROOT
HETATM    1  C   UNL     1     -10.451  11.689  63.419  1.00  0.00    -0.426 C  
HETATM    2  O   UNL     1      -9.910  12.486  64.472  1.00  0.00    -0.183 OA 
ENDROOT
BRANCH   2   3
HETATM    3  C   UNL     1     -10.084  12.000  65.745  1.00  0.00    -0.238 A  
HETATM    4  C   UNL     1      -9.978  10.629  66.018  1.00  0.00    -0.295 A  
HETATM    5  C   UNL     1     -10.058  10.149  67.326  1.00  0.00    -0.254 A  
HETATM    6  C   UNL     1     -10.280  11.044  68.367  1.00  0.00    -0.198 A  
HETATM    7  C   UNL     1     -10.359  12.911  66.792  1.00  0.00    -0.245 A  
HETATM    8  C   UNL     1     -10.437  12.419  68.115  1.00  0.00    -0.219 A  
BRANCH   5   9
HETATM    9  C   UNL     1      -9.807   8.699  67.549  1.00  0.00    -0.180 C  
HETATM   10  N   UNL     1      -8.633   8.357  68.175  1.00  0.00    -0.138 N  
HETATM   11  O   UNL     1     -10.644   7.876  67.192  1.00  0.00    -0.320 OA 
HETATM   12  H   UNL     1      -7.967   9.082  68.444  1.00  0.00     0.000 HD 
BRANCH  10  13
HETATM   13  C   UNL     1      -8.343   6.968  68.451  1.00  0.00    -0.124 C  
BRANCH  13  14
HETATM   14  C   UNL     1      -8.328   6.709  69.931  1.00  0.00    -0.132 A  
HETATM   15  C   UNL     1      -8.575   7.763  70.809  1.00  0.00    -0.133 A  
HETATM   16  C   UNL     1      -8.511   7.567  72.184  1.00  0.00    -0.130 A  
HETATM   17  C   UNL     1      -8.189   6.314  72.721  1.00  0.00    -0.112 A  
HETATM   18  C   UNL     1      -7.957   5.250  71.848  1.00  0.00    -0.113 A  
HETATM   19  C   UNL     1      -8.020   5.444  70.461  1.00  0.00    -0.101 A  
BRANCH  17  20
HETATM   20  O   UNL     1      -8.071   6.048  74.069  1.00  0.00    -0.104 OA 
BRANCH  20  21
HETATM   21  C   UNL     1      -8.794   4.882  74.481  1.00  0.00    -0.111 C  
BRANCH  21  22
HETATM   22  C   UNL     1     -10.187   4.761  73.849  1.00  0.00    -0.207 C  
BRANCH  22  23
HETATM   23  N   UNL     1     -10.370   3.449  73.183  1.00  0.00    -0.154 NA 
HETATM   24  C   UNL     1     -10.335   2.329  74.128  1.00  0.00    -0.129 C  
HETATM   25  C   UNL     1     -11.623   3.419  72.431  1.00  0.00     1.414 C  
ENDBRANCH  22  23
ENDBRANCH  21  22
ENDBRANCH  20  21
ENDBRANCH  17  20
ENDBRANCH  13  14
ENDBRANCH  10  13
ENDBRANCH   5   9
BRANCH   8  26
HETATM   26  O   UNL     1     -10.641  13.119  69.279  1.00  0.00    -0.043 OA 
HETATM   27  C   UNL     1     -10.795  14.528  69.233  1.00  0.00    -0.252 C  
ENDBRANCH   8  26
BRANCH   7  28
HETATM   28  O   UNL     1     -10.461  14.270  66.624  1.00  0.00    -0.273 OA 
HETATM   29  C   UNL     1      -9.275  15.034  66.468  1.00  0.00    -0.290 C  
ENDBRANCH   7  28
ENDBRANCH   2   3
TORSDOF 10
ENDMDL
MODEL      250
REMARK 921   NORMALIZED FREE ENERGY PREDICTED BY IDOCK:   -0.28 KCAL/MOL
REMARK 922        TOTAL FREE ENERGY PREDICTED BY IDOCK:   -1.31 KCAL/MOL
REMARK 923 INTER-LIGAND FREE ENERGY PREDICTED BY IDOCK:   -1.30 KCAL/MOL
REMARK 924 INTRA-LIGAND FREE ENERGY PREDICTED BY IDOCK:   -0.00 KCAL/MOL
REMARK 927      BINDING AFFINITY PREDICTED BY RF-SCORE:    0.00 PKD
ROOT
HETATM    1  C   UNL     1      -9.762   7.575  67.278  1.00  0.00    -0.167 C  
HETATM    2  O   UNL     1     -10.203   8.431  68.331  1.00  0.00    -0.197 OA 
ENDROOT
BRANCH   2   3
HETATM    3  C   UNL     1      -9.244   8.817  69.235  1.00  0.00    -0.149 A  
HETATM    4  C   UNL     1      -8.420   9.924  68.989  1.00  0.00    -0.136 A  
HETATM    5  C   UNL     1      -7.515  10.373  69.951  1.00  0.00    -0.134 A  
HETATM    6  C   UNL     1      -7.406   9.689  71.156  1.00  0.00     0.221 A  
HETATM    7  C   UNL     1      -9.106   8.086  70.439  1.00  0.00    -0.150 A  
HETATM    8  C   UNL     1      -8.187   8.546  71.410  1.00  0.00    -0.147 A  
BRANCH   5   9
HETATM    9  C   UNL     1      -6.769  11.630  69.668  1.00  0.00    -0.059 C  
HETATM   10  N   UNL     1      -6.993  12.692  70.508  1.00  0.00     0.905 N  
HETATM   11  O   UNL     1      -5.982  11.670  68.727  1.00  0.00    -0.047 OA 
HETATM   12  H   UNL     1      -7.664  12.607  71.272  1.00  0.00     0.000 HD 
BRANCH  10  13
HETATM   13  C   UNL     1      -6.276  13.932  70.309  1.00  0.00    -0.110 C  
BRANCH  13  14
HETATM   14  C   UNL     1      -7.117  14.920  69.552  1.00  0.00    -0.184 A  
HETATM   15  C   UNL     1      -7.128  14.880  68.159  1.00  0.00    -0.124 A  
HETATM   16  C   UNL     1      -7.851  15.818  67.430  1.00  0.00    -0.203 A  
HETATM   17  C   UNL     1      -8.577  16.829  68.072  1.00  0.00    -0.210 A  
HETATM   18  C   UNL     1      -8.584  16.865  69.467  1.00  0.00     0.472 A  
HETATM   19  C   UNL     1      -7.856  15.922  70.206  1.00  0.00     1.159 A  
BRANCH  17  20
HETATM   20  O   UNL     1      -9.288  17.815  67.422  1.00  0.00    -0.249 OA 
BRANCH  20  21
HETATM   21  C   UNL     1      -8.586  19.060  67.345  1.00  0.00    -0.278 C  
BRANCH  21  22
HETATM   22  C   UNL     1      -7.061  18.920  67.434  1.00  0.00    -0.206 C  
BRANCH  22  23
HETATM   23  N   UNL     1      -6.373  20.147  66.966  1.00  0.00    -0.190 NA 
HETATM   24  C   UNL     1      -5.719  20.876  68.057  1.00  0.00    -0.315 C  
HETATM   25  C   UNL     1      -5.392  19.829  65.930  1.00  0.00    -0.155 C  
ENDBRANCH  22  23
ENDBRANCH  21  22
ENDBRANCH  20  21
ENDBRANCH  17  20
ENDBRANCH  13  14
ENDBRANCH  10  13
ENDBRANCH   5   9
BRANCH   8  26
HETATM   26  O   UNL     1      -7.927   8.032  72.656  1.00  0.00    -0.113 OA 
HETATM   27  C   UNL     1      -6.650   7.482  72.936  1.00  0.00    -0.065 C  
ENDBRANCH   8  26
BRANCH   7  28
HETATM   28  O   UNL     1      -9.879   7.002  70.775  1.00  0.00    -0.185 OA 
HETATM   29  C   UNL     1     -11.291   7.148  70.807  1.00  0.00    -0.289 C  
ENDBRANCH   7  28
ENDBRANCH   2   3
TORSDOF 10
ENDMDL
MODEL      251
REMARK 921   NORMALIZED FREE ENERGY PREDICTED BY IDOCK:   -0.21 KCAL/MOL
REMARK 922        TOTAL FREE ENERGY PREDICTED BY IDOCK:   -1.20 KCAL/MOL
REMARK 923 INTER-LIGAND FREE ENERGY PREDICTED BY IDOCK:   -4.30 KCAL/MOL
REMARK 924 INTRA-LIGAND FREE ENERGY PREDICTED BY IDOCK:    3.10 KCAL/MOL
REMARK 927      BINDING AFFINITY PREDICTED BY RF-SCORE:    0.00 PKD
ROOT
HETATM    1  C   UNL     1     -12.336  11.699  63.762  1.00  0.00    -0.193 C  
HETATM    2  O   UNL     1     -11.030  12.238  63.561  1.00  0.00    -0.425 OA 
ENDROOT
BRANCH   2   3
HETATM    3  C   UNL     1     -10.189  12.198  64.646  1.00  0.00    -0.284 A  
HETATM    4  C   UNL     1      -9.377  11.082  64.893  1.00  0.00    -0.243 A  
HETATM    5  C   UNL     1      -8.453  11.084  65.939  1.00  0.00    -0.140 A  
HETATM    6  C   UNL     1      -8.364  12.197  66.767  1.00  0.00    -0.111 A  
HETATM    7  C   UNL     1     -10.140  13.315  65.513  1.00  0.00    -0.263 A  
HETATM    8  C   UNL     1      -9.201  13.311  66.571  1.00  0.00    -0.172 A  
BRANCH   5   9
HETATM    9  C   UNL     1      -7.538   9.916  66.057  1.00  0.00    -0.106 C  
HETATM   10  N   UNL     1      -6.500   9.842  65.160  1.00  0.00    -0.096 N  
HETATM   11  O   UNL     1      -7.723   9.087  66.942  1.00  0.00    -0.096 OA 
HETATM   12  H   UNL     1      -6.396  10.556  64.439  1.00  0.00     0.000 HD 
BRANCH  10  13
HETATM   13  C   UNL     1      -5.556   8.751  65.241  1.00  0.00    -0.046 C  
BRANCH  13  14
HETATM   14  C   UNL     1      -6.006   7.727  66.245  1.00  0.00    -0.038 A  
HETATM   15  C   UNL     1      -7.004   6.821  65.892  1.00  0.00    -0.064 A  
HETATM   16  C   UNL     1      -7.482   5.900  66.818  1.00  0.00    -0.087 A  
HETATM   17  C   UNL     1      -6.982   5.863  68.125  1.00  0.00    -0.069 A  
HETATM   18  C   UNL     1      -5.970   6.756  68.481  1.00  0.00    -0.025 A  
HETATM   19  C   UNL     1      -5.486   7.687  67.550  1.00  0.00    -0.035 A  
BRANCH  17  20
HETATM   20  O   UNL     1      -7.427   5.007  69.109  1.00  0.00    -0.060 OA 
BRANCH  20  21
HETATM   21  C   UNL     1      -8.385   5.606  69.989  1.00  0.00    -0.121 C  
BRANCH  21  22
HETATM   22  C   UNL     1      -8.600   7.105  69.745  1.00  0.00    -0.141 C  
BRANCH  22  23
HETATM   23  N   UNL     1     -10.037   7.463  69.793  1.00  0.00    -0.189 NA 
HETATM   24  C   UNL     1     -10.536   7.959  68.507  1.00  0.00    -0.106 C  
HETATM   25  C   UNL     1     -10.842   6.322  70.225  1.00  0.00    -0.304 C  
ENDBRANCH  22  23
ENDBRANCH  21  22
ENDBRANCH  20  21
ENDBRANCH  17  20
ENDBRANCH  13  14
ENDBRANCH  10  13
ENDBRANCH   5   9
BRANCH   8  26
HETATM   26  O   UNL     1      -8.944  14.296  67.493  1.00  0.00    -0.179 OA 
HETATM   27  C   UNL     1      -8.071  14.031  68.579  1.00  0.00    -0.139 C  
ENDBRANCH   8  26
BRANCH   7  28
HETATM   28  O   UNL     1     -10.882  14.458  65.342  1.00  0.00    -0.309 OA 
HETATM   29  C   UNL     1     -12.198  14.508  65.874  1.00  0.00    -0.259 C  
ENDBRANCH   7  28
ENDBRANCH   2   3
TORSDOF 10
ENDMDL
MODEL      252
REMARK 921   NORMALIZED FREE ENERGY PREDICTED BY IDOCK:   -0.13 KCAL/MOL
REMARK 922        TOTAL FREE ENERGY PREDICTED BY IDOCK:   -1.07 KCAL/MOL
REMARK 923 INTER-LIGAND FREE ENERGY PREDICTED BY IDOCK:   -0.82 KCAL/MOL
REMARK 924 INTRA-LIGAND FREE ENERGY PREDICTED BY IDOCK:   -0.25 KCAL/MOL
REMARK 927      BINDING AFFINITY PREDICTED BY RF-SCORE:    0.00 PKD
ROOT
HETATM    1  C   UNL     1      -5.921  13.908  72.265  1.00  0.00     0.412 C  
HETATM    2  O   UNL     1      -6.444  15.197  71.948  1.00  0.00     1.004 OA 
ENDROOT
BRANCH   2   3
HETATM    3  C   UNL     1      -6.452  15.531  70.615  1.00  0.00     0.360 A  
HETATM    4  C   UNL     1      -7.097  14.723  69.669  1.00  0.00    -0.158 A  
HETATM    5  C   UNL     1      -7.189  15.114  68.333  1.00  0.00    -0.114 A  
HETATM    6  C   UNL     1      -6.599  16.308  67.931  1.00  0.00    -0.150 A  
HETATM    7  C   UNL     1      -5.808  16.722  70.206  1.00  0.00    -0.118 A  
HETATM    8  C   UNL     1      -5.904  17.114  68.851  1.00  0.00    -0.152 A  
BRANCH   5   9
HETATM    9  C   UNL     1      -8.000  14.268  67.416  1.00  0.00    -0.192 C  
HETATM   10  N   UNL     1      -7.387  13.162  66.881  1.00  0.00    -0.284 N  
HETATM   11  O   UNL     1      -9.168  14.566  67.188  1.00  0.00    -0.204 OA 
HETATM   12  H   UNL     1      -6.410  12.964  67.098  1.00  0.00     0.000 HD 
BRANCH  10  13
HETATM   13  C   UNL     1      -8.128  12.279  66.008  1.00  0.00     0.780 C  
BRANCH  13  14
HETATM   14  C   UNL     1      -8.224  10.901  66.598  1.00  0.00    -0.145 A  
HETATM   15  C   UNL     1      -8.026   9.793  65.775  1.00  0.00    -0.116 A  
HETATM   16  C   UNL     1      -8.165   8.504  66.279  1.00  0.00    -0.109 A  
HETATM   17  C   UNL     1      -8.514   8.286  67.618  1.00  0.00    -0.130 A  
HETATM   18  C   UNL     1      -8.696   9.389  68.452  1.00  0.00    -0.124 A  
HETATM   19  C   UNL     1      -8.558  10.691  67.947  1.00  0.00    -0.124 A  
BRANCH  17  20
HETATM   20  O   UNL     1      -8.705   7.043  68.183  1.00  0.00    -0.127 OA 
BRANCH  20  21
HETATM   21  C   UNL     1      -8.257   6.964  69.541  1.00  0.00    -0.131 C  
BRANCH  21  22
HETATM   22  C   UNL     1      -7.453   5.697  69.857  1.00  0.00    -0.071 C  
BRANCH  22  23
HETATM   23  N   UNL     1      -6.027   6.006  70.113  1.00  0.00    -0.024 NA 
HETATM   24  C   UNL     1      -5.571   7.196  69.388  1.00  0.00    -0.015 C  
HETATM   25  C   UNL     1      -5.781   6.178  71.544  1.00  0.00    -0.027 C  
ENDBRANCH  22  23
ENDBRANCH  21  22
ENDBRANCH  20  21
ENDBRANCH  17  20
ENDBRANCH  13  14
ENDBRANCH  10  13
ENDBRANCH   5   9
BRANCH   8  26
HETATM   26  O   UNL     1      -5.408  18.244  68.248  1.00  0.00    -0.163 OA 
HETATM   27  C   UNL     1      -6.245  19.012  67.398  1.00  0.00    -0.176 C  
ENDBRANCH   8  26
BRANCH   7  28
HETATM   28  O   UNL     1      -5.167  17.586  71.062  1.00  0.00    -0.266 OA 
HETATM   29  C   UNL     1      -5.350  18.984  70.890  1.00  0.00    -0.254 C  
ENDBRANCH   7  28
ENDBRANCH   2   3
TORSDOF 10
ENDMDL
MODEL      253
REMARK 921   NORMALIZED FREE ENERGY PREDICTED BY IDOCK:    2.71 KCAL/MOL
REMARK 922        TOTAL FREE ENERGY PREDICTED BY IDOCK:    3.43 KCAL/MOL
REMARK 923 INTER-LIGAND FREE ENERGY PREDICTED BY IDOCK:    1.84 KCAL/MOL
REMARK 924 INTRA-LIGAND FREE ENERGY PREDICTED BY IDOCK:    1.59 KCAL/MOL
REMARK 927      BINDING AFFINITY PREDICTED BY RF-SCORE:    0.00 PKD
ROOT
HETATM    1  C   UNL     1     -11.593  13.680  62.842  1.00  0.00     1.485 C  
HETATM    2  O   UNL     1     -10.405  13.792  63.622  1.00  0.00     0.507 OA 
ENDROOT
BRANCH   2   3
HETATM    3  C   UNL     1     -10.582  14.113  64.946  1.00  0.00    -0.430 A  
HETATM    4  C   UNL     1     -11.167  13.205  65.839  1.00  0.00    -0.311 A  
HETATM    5  C   UNL     1     -11.256  13.495  67.202  1.00  0.00    -0.324 A  
HETATM    6  C   UNL     1     -10.789  14.718  67.670  1.00  0.00    -0.285 A  
HETATM    7  C   UNL     1     -10.149  15.379  65.406  1.00  0.00    -0.359 A  
HETATM    8  C   UNL     1     -10.241  15.666  66.787  1.00  0.00    -0.276 A  
BRANCH   5   9
HETATM    9  C   UNL     1     -11.770  12.429  68.105  1.00  0.00    -0.353 C  
HETATM   10  N   UNL     1     -10.877  11.874  68.988  1.00  0.00    -0.315 N  
HETATM   11  O   UNL     1     -12.951  12.101  68.046  1.00  0.00     1.624 OA 
HETATM   12  H   UNL     1      -9.903  12.179  68.990  1.00  0.00     0.000 HD 
BRANCH  10  13
HETATM   13  C   UNL     1     -11.319  10.857  69.916  1.00  0.00    -0.305 C  
BRANCH  13  14
HETATM   14  C   UNL     1     -10.658   9.541  69.622  1.00  0.00    -0.245 A  
HETATM   15  C   UNL     1      -9.998   8.867  70.648  1.00  0.00    -0.265 A  
HETATM   16  C   UNL     1      -9.327   7.675  70.394  1.00  0.00    -0.160 A  
HETATM   17  C   UNL     1      -9.290   7.128  69.105  1.00  0.00    -0.141 A  
HETATM   18  C   UNL     1      -9.963   7.788  68.077  1.00  0.00    -0.210 A  
HETATM   19  C   UNL     1     -10.640   8.991  68.328  1.00  0.00    -0.213 A  
BRANCH  17  20
HETATM   20  O   UNL     1      -8.619   5.972  68.765  1.00  0.00    -0.112 OA 
BRANCH  20  21
HETATM   21  C   UNL     1      -7.798   6.117  67.601  1.00  0.00    -0.105 C  
BRANCH  21  22
HETATM   22  C   UNL     1      -7.710   7.557  67.079  1.00  0.00    -0.111 C  
BRANCH  22  23
HETATM   23  N   UNL     1      -6.747   8.364  67.867  1.00  0.00    -0.065 NA 
HETATM   24  C   UNL     1      -5.758   7.537  68.564  1.00  0.00    -0.027 C  
HETATM   25  C   UNL     1      -6.063   9.334  67.014  1.00  0.00    -0.060 C  
ENDBRANCH  22  23
ENDBRANCH  21  22
ENDBRANCH  20  21
ENDBRANCH  17  20
ENDBRANCH  13  14
ENDBRANCH  10  13
ENDBRANCH   5   9
BRANCH   8  26
HETATM   26  O   UNL     1      -9.839  16.796  67.456  1.00  0.00    -0.246 OA 
HETATM   27  C   UNL     1      -8.883  16.692  68.500  1.00  0.00    -0.235 C  
ENDBRANCH   8  26
BRANCH   7  28
HETATM   28  O   UNL     1      -9.549  16.325  64.610  1.00  0.00     0.885 OA 
HETATM   29  C   UNL     1      -9.815  17.698  64.857  1.00  0.00     2.495 C  
ENDBRANCH   7  28
ENDBRANCH   2   3
TORSDOF 10
ENDMDL
MODEL      254
REMARK 921   NORMALIZED FREE ENERGY PREDICTED BY IDOCK:   25.87 KCAL/MOL
REMARK 922        TOTAL FREE ENERGY PREDICTED BY IDOCK:   40.13 KCAL/MOL
REMARK 923 INTER-LIGAND FREE ENERGY PREDICTED BY IDOCK:   35.35 KCAL/MOL
REMARK 924 INTRA-LIGAND FREE ENERGY PREDICTED BY IDOCK:    4.78 KCAL/MOL
REMARK 927      BINDING AFFINITY PREDICTED BY RF-SCORE:    0.00 PKD
ROOT
HETATM    1  C   UNL     1     -12.811  17.673  68.969  1.00  0.00     7.980 C  
HETATM    2  O   UNL     1     -13.150  16.391  68.442  1.00  0.00     2.073 OA 
ENDROOT
BRANCH   2   3
HETATM    3  C   UNL     1     -12.147  15.732  67.773  1.00  0.00     0.569 A  
HETATM    4  C   UNL     1     -11.157  15.024  68.469  1.00  0.00    -0.279 A  
HETATM    5  C   UNL     1     -10.198  14.274  67.786  1.00  0.00    -0.235 A  
HETATM    6  C   UNL     1     -10.207  14.260  66.396  1.00  0.00    -0.295 A  
HETATM    7  C   UNL     1     -12.135  15.762  66.359  1.00  0.00     1.126 A  
HETATM    8  C   UNL     1     -11.161  14.999  65.674  1.00  0.00    -0.327 A  
BRANCH   5   9
HETATM    9  C   UNL     1      -9.261  13.447  68.595  1.00  0.00     0.002 C  
HETATM   10  N   UNL     1      -9.649  13.132  69.874  1.00  0.00     1.524 N  
HETATM   11  O   UNL     1      -8.204  13.066  68.099  1.00  0.00    -0.142 OA 
HETATM   12  H   UNL     1     -10.535  13.482  70.239  1.00  0.00     0.000 HD 
BRANCH  10  13
HETATM   13  C   UNL     1      -8.800  12.305  70.701  1.00  0.00     7.595 C  
BRANCH  13  14
HETATM   14  C   UNL     1      -8.093  11.269  69.874  1.00  0.00     1.095 A  
HETATM   15  C   UNL     1      -6.888  11.597  69.256  1.00  0.00    -0.104 A  
HETATM   16  C   UNL     1      -6.239  10.678  68.437  1.00  0.00    -0.050 A  
HETATM   17  C   UNL     1      -6.782   9.408  68.206  1.00  0.00    -0.059 A  
HETATM   18  C   UNL     1      -7.980   9.067  68.834  1.00  0.00    -0.100 A  
HETATM   19  C   UNL     1      -8.638   9.990  69.660  1.00  0.00    -0.198 A  
BRANCH  17  20
HETATM   20  O   UNL     1      -6.221   8.456  67.381  1.00  0.00    -0.053 OA 
BRANCH  20  21
HETATM   21  C   UNL     1      -6.517   7.114  67.784  1.00  0.00    -0.048 C  
BRANCH  21  22
HETATM   22  C   UNL     1      -7.984   6.714  67.579  1.00  0.00    -0.115 C  
BRANCH  22  23
HETATM   23  N   UNL     1      -8.138   5.243  67.481  1.00  0.00    -0.100 NA 
HETATM   24  C   UNL     1      -7.511   4.536  68.602  1.00  0.00    -0.064 C  
HETATM   25  C   UNL     1      -9.549   4.873  67.395  1.00  0.00    -0.152 C  
ENDBRANCH  22  23
ENDBRANCH  21  22
ENDBRANCH  20  21
ENDBRANCH  17  20
ENDBRANCH  13  14
ENDBRANCH  10  13
ENDBRANCH   5   9
BRANCH   8  26
HETATM   26  O   UNL     1     -10.994  14.840  64.320  1.00  0.00    -0.146 OA 
HETATM   27  C   UNL     1     -12.088  15.067  63.446  1.00  0.00     1.192 C  
ENDBRANCH   8  26
BRANCH   7  28
HETATM   28  O   UNL     1     -13.072  16.411  65.593  1.00  0.00     3.921 OA 
HETATM   29  C   UNL     1     -14.346  16.689  66.156  1.00  0.00    10.736 C  
ENDBRANCH   7  28
ENDBRANCH   2   3
TORSDOF 10
ENDMDL
