MODEL        1
REMARK 921   NORMALIZED FREE ENERGY PREDICTED BY IDOCK:   -7.90 KCAL/MOL
REMARK 922        TOTAL FREE ENERGY PREDICTED BY IDOCK:  -10.48 KCAL/MOL
REMARK 923 INTER-LIGAND FREE ENERGY PREDICTED BY IDOCK:   -9.75 KCAL/MOL
REMARK 924 INTRA-LIGAND FREE ENERGY PREDICTED BY IDOCK:   -0.73 KCAL/MOL
REMARK 927      BINDING AFFINITY PREDICTED BY RF-SCORE:    0.00 PKD
ROOT
HETATM    1  O   UNL     1      -9.106  15.955  68.881  1.00  0.00    -0.203 OA 
HETATM    2  C   UNL     1      -9.783  15.360  68.061  1.00  0.00    -0.207 C  
HETATM    3  N   UNL     1     -10.984  14.667  68.361  1.00  0.00    -0.244 N  
HETATM    4  C   UNL     1     -10.054  12.587  64.165  1.00  0.00    -0.311 C  
HETATM    5  C   UNL     1     -11.340  13.834  67.194  1.00  0.00    -0.324 C  
HETATM    6  C   UNL     1     -12.645  14.108  66.454  1.00  0.00    -0.198 C  
HETATM    7  N   UNL     1      -9.600  15.356  66.654  1.00  0.00    -0.242 N  
HETATM    8  C   UNL     1     -10.167  14.082  66.233  1.00  0.00    -0.296 C  
HETATM    9  S   UNL     1     -12.406  13.917  64.657  1.00  0.00    -0.358 S  
HETATM   10  C   UNL     1     -10.565  13.904  64.765  1.00  0.00    -0.426 C  
HETATM   11  C   UNL     1     -12.385  12.098  64.489  1.00  0.00    -0.307 C  
HETATM   12  C   UNL     1     -11.228  11.866  63.527  1.00  0.00    -0.501 C  
ENDROOT
BRANCH   3  13
HETATM   13  C   UNL     1     -11.896  15.510  69.112  1.00  0.00    -0.354 C  
BRANCH  13  14
HETATM   14  C   UNL     1     -12.149  15.170  70.545  1.00  0.00    -0.390 A  
HETATM   15  C   UNL     1     -13.384  13.883  72.192  1.00  0.00    -0.555 A  
HETATM   16  C   UNL     1     -12.079  15.790  72.889  1.00  0.00    -0.596 A  
HETATM   17  C   UNL     1     -13.008  14.110  70.868  1.00  0.00    -0.374 A  
HETATM   18  C   UNL     1     -11.699  16.017  71.566  1.00  0.00    -0.554 A  
HETATM   19  C   UNL     1     -12.917  14.720  73.201  1.00  0.00    -0.623 A  
ENDBRANCH  13  14
ENDBRANCH   3  13
BRANCH   7  20
HETATM   20  C   UNL     1     -10.083  16.574  65.987  1.00  0.00    -0.348 C  
BRANCH  20  21
HETATM   21  C   UNL     1      -9.570  17.907  66.472  1.00  0.00    -0.318 A  
HETATM   22  C   UNL     1      -8.229  18.290  66.356  1.00  0.00    -0.276 A  
HETATM   23  C   UNL     1      -7.790  19.511  66.868  1.00  0.00    -0.289 A  
HETATM   24  C   UNL     1      -8.701  20.387  67.448  1.00  0.00    -0.415 A  
HETATM   25  C   UNL     1     -10.050  20.050  67.511  1.00  0.00    -0.565 A  
HETATM   26  C   UNL     1     -10.486  18.822  67.017  1.00  0.00    -0.474 A  
ENDBRANCH  20  21
ENDBRANCH   7  20
TORSDOF 4
ENDMDL
MODEL        2
REMARK 921   NORMALIZED FREE ENERGY PREDICTED BY IDOCK:   -7.83 KCAL/MOL
REMARK 922        TOTAL FREE ENERGY PREDICTED BY IDOCK:  -10.40 KCAL/MOL
REMARK 923 INTER-LIGAND FREE ENERGY PREDICTED BY IDOCK:   -9.56 KCAL/MOL
REMARK 924 INTRA-LIGAND FREE ENERGY PREDICTED BY IDOCK:   -0.84 KCAL/MOL
REMARK 927      BINDING AFFINITY PREDICTED BY RF-SCORE:    0.00 PKD
ROOT
HETATM    1  O   UNL     1     -12.177  16.029  69.574  1.00  0.00    -0.238 OA 
HETATM    2  C   UNL     1     -11.780  15.422  68.595  1.00  0.00    -0.354 C  
HETATM    3  N   UNL     1     -10.867  15.945  67.642  1.00  0.00    -0.316 N  
HETATM    4  C   UNL     1     -12.645  12.402  64.979  1.00  0.00    -0.305 C  
HETATM    5  C   UNL     1     -10.869  15.053  66.465  1.00  0.00    -0.320 C  
HETATM    6  C   UNL     1      -9.586  14.323  66.082  1.00  0.00    -0.275 C  
HETATM    7  N   UNL     1     -12.023  14.059  68.286  1.00  0.00    -0.365 N  
HETATM    8  C   UNL     1     -11.937  14.010  66.833  1.00  0.00    -0.447 C  
HETATM    9  S   UNL     1      -9.963  12.630  65.521  1.00  0.00    -0.178 S  
HETATM   10  C   UNL     1     -11.693  12.659  66.156  1.00  0.00    -0.406 C  
HETATM   11  C   UNL     1     -10.600  12.943  63.838  1.00  0.00    -0.336 C  
HETATM   12  C   UNL     1     -11.813  12.026  63.766  1.00  0.00    -0.581 C  
ENDROOT
BRANCH   3  13
HETATM   13  C   UNL     1      -9.690  16.487  68.294  1.00  0.00    -0.231 C  
BRANCH  13  14
HETATM   14  C   UNL     1      -9.362  17.927  68.068  1.00  0.00    -0.274 A  
HETATM   15  C   UNL     1      -9.912  20.047  67.020  1.00  0.00    -0.582 A  
HETATM   16  C   UNL     1      -7.724  19.716  67.984  1.00  0.00    -0.332 A  
HETATM   17  C   UNL     1     -10.269  18.749  67.384  1.00  0.00    -0.444 A  
HETATM   18  C   UNL     1      -8.081  18.418  68.353  1.00  0.00    -0.327 A  
HETATM   19  C   UNL     1      -8.642  20.531  67.323  1.00  0.00    -0.372 A  
ENDBRANCH  13  14
ENDBRANCH   3  13
BRANCH   7  20
HETATM   20  C   UNL     1     -11.192  13.118  69.052  1.00  0.00    -0.258 C  
BRANCH  20  21
HETATM   21  C   UNL     1     -11.868  12.230  70.068  1.00  0.00    -0.372 A  
HETATM   22  C   UNL     1     -12.627  12.734  71.129  1.00  0.00    -0.365 A  
HETATM   23  C   UNL     1     -13.187  11.876  72.075  1.00  0.00    -0.461 A  
HETATM   24  C   UNL     1     -13.045  10.500  71.934  1.00  0.00    -0.567 A  
HETATM   25  C   UNL     1     -12.349   9.979  70.846  1.00  0.00    -0.438 A  
HETATM   26  C   UNL     1     -11.772  10.837  69.912  1.00  0.00    -0.412 A  
ENDBRANCH  20  21
ENDBRANCH   7  20
TORSDOF 4
ENDMDL
MODEL        3
REMARK 921   NORMALIZED FREE ENERGY PREDICTED BY IDOCK:   -7.79 KCAL/MOL
REMARK 922        TOTAL FREE ENERGY PREDICTED BY IDOCK:  -10.34 KCAL/MOL
REMARK 923 INTER-LIGAND FREE ENERGY PREDICTED BY IDOCK:   -9.51 KCAL/MOL
REMARK 924 INTRA-LIGAND FREE ENERGY PREDICTED BY IDOCK:   -0.84 KCAL/MOL
REMARK 927      BINDING AFFINITY PREDICTED BY RF-SCORE:    0.00 PKD
ROOT
HETATM    1  O   UNL     1     -10.570  12.788  68.866  1.00  0.00    -0.212 OA 
HETATM    2  C   UNL     1     -10.331  13.876  68.372  1.00  0.00    -0.249 C  
HETATM    3  N   UNL     1     -10.063  14.093  66.996  1.00  0.00    -0.258 N  
HETATM    4  C   UNL     1      -8.239  18.174  68.673  1.00  0.00    -0.295 C  
HETATM    5  C   UNL     1      -9.528  15.461  66.840  1.00  0.00    -0.230 C  
HETATM    6  C   UNL     1     -10.307  16.474  66.009  1.00  0.00    -0.345 C  
HETATM    7  N   UNL     1     -10.411  15.136  69.020  1.00  0.00    -0.235 N  
HETATM    8  C   UNL     1      -9.459  15.962  68.291  1.00  0.00    -0.201 C  
HETATM    9  S   UNL     1     -10.234  18.122  66.787  1.00  0.00    -0.383 S  
HETATM   10  C   UNL     1      -9.581  17.486  68.389  1.00  0.00    -0.303 C  
HETATM   11  C   UNL     1      -8.546  18.655  66.338  1.00  0.00    -0.271 C  
HETATM   12  C   UNL     1      -8.034  19.264  67.636  1.00  0.00    -0.311 C  
ENDROOT
BRANCH   3  13
HETATM   13  C   UNL     1     -11.085  13.481  66.166  1.00  0.00    -0.291 C  
BRANCH  13  14
HETATM   14  C   UNL     1     -10.679  12.363  65.262  1.00  0.00    -0.322 A  
HETATM   15  C   UNL     1      -9.819  10.108  64.998  1.00  0.00    -0.392 A  
HETATM   16  C   UNL     1      -9.884  11.598  63.100  1.00  0.00    -0.407 A  
HETATM   17  C   UNL     1     -10.356  11.111  65.804  1.00  0.00    -0.316 A  
HETATM   18  C   UNL     1     -10.425  12.602  63.905  1.00  0.00    -0.441 A  
HETATM   19  C   UNL     1      -9.587  10.350  63.646  1.00  0.00    -0.364 A  
ENDBRANCH  13  14
ENDBRANCH   3  13
BRANCH   7  20
HETATM   20  C   UNL     1     -11.783  15.643  69.169  1.00  0.00    -0.390 C  
BRANCH  20  21
HETATM   21  C   UNL     1     -12.377  15.700  70.555  1.00  0.00    -0.443 A  
HETATM   22  C   UNL     1     -13.657  15.217  70.851  1.00  0.00    -0.402 A  
HETATM   23  C   UNL     1     -14.186  15.342  72.135  1.00  0.00    -0.667 A  
HETATM   24  C   UNL     1     -13.417  15.897  73.151  1.00  0.00    -0.650 A  
HETATM   25  C   UNL     1     -12.117  16.321  72.889  1.00  0.00    -0.625 A  
HETATM   26  C   UNL     1     -11.595  16.216  71.602  1.00  0.00    -0.503 A  
ENDBRANCH  20  21
ENDBRANCH   7  20
TORSDOF 4
ENDMDL
MODEL        4
REMARK 921   NORMALIZED FREE ENERGY PREDICTED BY IDOCK:   -7.73 KCAL/MOL
REMARK 922        TOTAL FREE ENERGY PREDICTED BY IDOCK:  -10.27 KCAL/MOL
REMARK 923 INTER-LIGAND FREE ENERGY PREDICTED BY IDOCK:   -9.45 KCAL/MOL
REMARK 924 INTRA-LIGAND FREE ENERGY PREDICTED BY IDOCK:   -0.82 KCAL/MOL
REMARK 927      BINDING AFFINITY PREDICTED BY RF-SCORE:    0.00 PKD
ROOT
HETATM    1  O   UNL     1     -10.408  18.685  68.804  1.00  0.00    -0.334 OA 
HETATM    2  C   UNL     1     -10.338  17.577  68.302  1.00  0.00    -0.379 C  
HETATM    3  N   UNL     1      -9.301  17.152  67.432  1.00  0.00    -0.232 N  
HETATM    4  C   UNL     1     -12.517  13.808  66.304  1.00  0.00    -0.441 C  
HETATM    5  C   UNL     1      -9.719  15.884  66.800  1.00  0.00    -0.238 C  
HETATM    6  C   UNL     1      -8.906  14.620  67.059  1.00  0.00    -0.241 C  
HETATM    7  N   UNL     1     -11.173  16.465  68.585  1.00  0.00    -0.353 N  
HETATM    8  C   UNL     1     -11.137  15.682  67.358  1.00  0.00    -0.260 C  
HETATM    9  S   UNL     1     -10.013  13.182  67.240  1.00  0.00    -0.234 S  
HETATM   10  C   UNL     1     -11.536  14.204  67.417  1.00  0.00    -0.372 C  
HETATM   11  C   UNL     1     -10.462  12.855  65.501  1.00  0.00    -0.289 C  
HETATM   12  C   UNL     1     -11.959  12.591  65.589  1.00  0.00    -0.492 C  
ENDROOT
BRANCH   3  13
HETATM   13  C   UNL     1      -7.997  17.424  68.009  1.00  0.00    -0.224 C  
BRANCH  13  14
HETATM   14  C   UNL     1      -7.260  18.635  67.539  1.00  0.00    -0.218 A  
HETATM   15  C   UNL     1      -6.182  20.748  68.059  1.00  0.00    -0.373 A  
HETATM   16  C   UNL     1      -6.723  20.206  65.769  1.00  0.00    -0.282 A  
HETATM   17  C   UNL     1      -6.727  19.533  68.474  1.00  0.00    -0.323 A  
HETATM   18  C   UNL     1      -7.265  18.989  66.183  1.00  0.00    -0.283 A  
HETATM   19  C   UNL     1      -6.176  21.082  66.707  1.00  0.00    -0.360 A  
ENDBRANCH  13  14
ENDBRANCH   3  13
BRANCH   7  20
HETATM   20  C   UNL     1     -10.845  15.780  69.844  1.00  0.00    -0.327 C  
BRANCH  20  21
HETATM   21  C   UNL     1     -11.894  15.733  70.928  1.00  0.00    -0.451 A  
HETATM   22  C   UNL     1     -11.665  16.209  72.224  1.00  0.00    -0.564 A  
HETATM   23  C   UNL     1     -12.646  16.095  73.208  1.00  0.00    -0.623 A  
HETATM   24  C   UNL     1     -13.889  15.558  72.890  1.00  0.00    -0.536 A  
HETATM   25  C   UNL     1     -14.156  15.142  71.588  1.00  0.00    -0.645 A  
HETATM   26  C   UNL     1     -13.169  15.237  70.609  1.00  0.00    -0.370 A  
ENDBRANCH  20  21
ENDBRANCH   7  20
TORSDOF 4
ENDMDL
MODEL        5
REMARK 921   NORMALIZED FREE ENERGY PREDICTED BY IDOCK:   -7.61 KCAL/MOL
REMARK 922        TOTAL FREE ENERGY PREDICTED BY IDOCK:  -10.12 KCAL/MOL
REMARK 923 INTER-LIGAND FREE ENERGY PREDICTED BY IDOCK:   -9.31 KCAL/MOL
REMARK 924 INTRA-LIGAND FREE ENERGY PREDICTED BY IDOCK:   -0.81 KCAL/MOL
REMARK 927      BINDING AFFINITY PREDICTED BY RF-SCORE:    0.00 PKD
ROOT
HETATM    1  O   UNL     1     -12.273  15.713  69.708  1.00  0.00    -0.360 OA 
HETATM    2  C   UNL     1     -11.911  15.189  68.669  1.00  0.00    -0.302 C  
HETATM    3  N   UNL     1     -11.084  15.814  67.700  1.00  0.00    -0.312 N  
HETATM    4  C   UNL     1     -12.867  12.364  64.921  1.00  0.00    -0.092 C  
HETATM    5  C   UNL     1     -11.120  14.998  66.468  1.00  0.00    -0.329 C  
HETATM    6  C   UNL     1      -9.832  14.357  65.963  1.00  0.00    -0.319 C  
HETATM    7  N   UNL     1     -12.112  13.838  68.286  1.00  0.00    -0.343 N  
HETATM    8  C   UNL     1     -12.116  13.885  66.831  1.00  0.00    -0.430 C  
HETATM    9  S   UNL     1     -10.169  12.686  65.315  1.00  0.00    -0.263 S  
HETATM   10  C   UNL     1     -11.855  12.592  66.053  1.00  0.00    -0.418 C  
HETATM   11  C   UNL     1     -10.923  13.073  63.698  1.00  0.00    -0.185 C  
HETATM   12  C   UNL     1     -12.097  12.105  63.639  1.00  0.00    -0.648 C  
ENDROOT
BRANCH   3  13
HETATM   13  C   UNL     1      -9.893  16.370  68.315  1.00  0.00    -0.229 C  
BRANCH  13  14
HETATM   14  C   UNL     1      -9.487  17.756  67.932  1.00  0.00    -0.270 A  
HETATM   15  C   UNL     1      -7.938  19.611  68.167  1.00  0.00    -0.353 A  
HETATM   16  C   UNL     1     -10.078  19.959  67.104  1.00  0.00    -0.573 A  
HETATM   17  C   UNL     1      -8.260  18.270  68.374  1.00  0.00    -0.326 A  
HETATM   18  C   UNL     1     -10.400  18.617  67.307  1.00  0.00    -0.440 A  
HETATM   19  C   UNL     1      -8.845  20.454  67.529  1.00  0.00    -0.386 A  
ENDBRANCH  13  14
ENDBRANCH   3  13
BRANCH   7  20
HETATM   20  C   UNL     1     -11.195  12.892  68.938  1.00  0.00    -0.279 C  
BRANCH  20  21
HETATM   21  C   UNL     1     -11.772  11.880  69.898  1.00  0.00    -0.383 A  
HETATM   22  C   UNL     1     -11.458  10.518  69.842  1.00  0.00    -0.384 A  
HETATM   23  C   UNL     1     -12.059   9.612  70.715  1.00  0.00    -0.328 A  
HETATM   24  C   UNL     1     -12.935  10.068  71.694  1.00  0.00    -0.554 A  
HETATM   25  C   UNL     1     -13.206  11.429  71.806  1.00  0.00    -0.472 A  
HETATM   26  C   UNL     1     -12.622  12.332  70.921  1.00  0.00    -0.334 A  
ENDBRANCH  20  21
ENDBRANCH   7  20
TORSDOF 4
ENDMDL
MODEL        6
REMARK 921   NORMALIZED FREE ENERGY PREDICTED BY IDOCK:   -7.36 KCAL/MOL
REMARK 922        TOTAL FREE ENERGY PREDICTED BY IDOCK:   -9.81 KCAL/MOL
REMARK 923 INTER-LIGAND FREE ENERGY PREDICTED BY IDOCK:   -9.14 KCAL/MOL
REMARK 924 INTRA-LIGAND FREE ENERGY PREDICTED BY IDOCK:   -0.67 KCAL/MOL
REMARK 927      BINDING AFFINITY PREDICTED BY RF-SCORE:    0.00 PKD
ROOT
HETATM    1  O   UNL     1     -12.653  14.061  66.923  1.00  0.00    -0.262 OA 
HETATM    2  C   UNL     1     -11.864  14.944  67.212  1.00  0.00    -0.219 C  
HETATM    3  N   UNL     1     -11.632  15.414  68.531  1.00  0.00    -0.351 N  
HETATM    4  C   UNL     1      -9.802  19.139  66.171  1.00  0.00    -0.397 C  
HETATM    5  C   UNL     1     -10.856  16.668  68.444  1.00  0.00    -0.361 C  
HETATM    6  C   UNL     1      -9.460  16.723  69.054  1.00  0.00    -0.217 C  
HETATM    7  N   UNL     1     -10.935  15.568  66.341  1.00  0.00    -0.283 N  
HETATM    8  C   UNL     1     -10.740  16.887  66.927  1.00  0.00    -0.130 C  
HETATM    9  S   UNL     1      -8.340  17.688  67.986  1.00  0.00    -0.253 S  
HETATM   10  C   UNL     1      -9.489  17.684  66.545  1.00  0.00    -0.283 C  
HETATM   11  C   UNL     1      -8.862  19.395  68.369  1.00  0.00    -0.352 C  
HETATM   12  C   UNL     1      -8.903  20.046  66.993  1.00  0.00    -0.433 C  
ENDROOT
BRANCH   3  13
HETATM   13  C   UNL     1     -11.363  14.310  69.435  1.00  0.00    -0.282 C  
BRANCH  13  14
HETATM   14  C   UNL     1     -11.912  14.390  70.822  1.00  0.00    -0.391 A  
HETATM   15  C   UNL     1     -13.745  13.984  72.362  1.00  0.00    -0.669 A  
HETATM   16  C   UNL     1     -11.927  15.432  73.014  1.00  0.00    -0.557 A  
HETATM   17  C   UNL     1     -13.139  13.782  71.123  1.00  0.00    -0.324 A  
HETATM   18  C   UNL     1     -11.318  15.229  71.775  1.00  0.00    -0.445 A  
HETATM   19  C   UNL     1     -13.137  14.805  73.308  1.00  0.00    -0.550 A  
ENDBRANCH  13  14
ENDBRANCH   3  13
BRANCH   7  20
HETATM   20  C   UNL     1      -9.738  14.758  66.067  1.00  0.00    -0.321 C  
BRANCH  20  21
HETATM   21  C   UNL     1      -9.926  13.373  65.498  1.00  0.00    -0.226 A  
HETATM   22  C   UNL     1      -9.594  12.212  66.204  1.00  0.00    -0.250 A  
HETATM   23  C   UNL     1      -9.734  10.956  65.616  1.00  0.00    -0.279 A  
HETATM   24  C   UNL     1     -10.265  10.845  64.336  1.00  0.00    -0.423 A  
HETATM   25  C   UNL     1     -10.664  11.986  63.645  1.00  0.00    -0.506 A  
HETATM   26  C   UNL     1     -10.505  13.243  64.224  1.00  0.00    -0.372 A  
ENDBRANCH  20  21
ENDBRANCH   7  20
TORSDOF 4
ENDMDL
MODEL        7
REMARK 921   NORMALIZED FREE ENERGY PREDICTED BY IDOCK:   -7.35 KCAL/MOL
REMARK 922        TOTAL FREE ENERGY PREDICTED BY IDOCK:   -9.80 KCAL/MOL
REMARK 923 INTER-LIGAND FREE ENERGY PREDICTED BY IDOCK:   -9.11 KCAL/MOL
REMARK 924 INTRA-LIGAND FREE ENERGY PREDICTED BY IDOCK:   -0.68 KCAL/MOL
REMARK 927      BINDING AFFINITY PREDICTED BY RF-SCORE:    0.00 PKD
ROOT
HETATM    1  O   UNL     1      -8.560  14.629  68.999  1.00  0.00    -0.164 OA 
HETATM    2  C   UNL     1      -9.365  14.359  68.124  1.00  0.00    -0.203 C  
HETATM    3  N   UNL     1     -10.717  13.999  68.359  1.00  0.00    -0.244 N  
HETATM    4  C   UNL     1     -10.344  12.296  63.914  1.00  0.00    -0.455 C  
HETATM    5  C   UNL     1     -11.274  13.456  67.104  1.00  0.00    -0.302 C  
HETATM    6  C   UNL     1     -12.437  14.178  66.432  1.00  0.00    -0.318 C  
HETATM    7  N   UNL     1      -9.168  14.483  66.725  1.00  0.00    -0.255 N  
HETATM    8  C   UNL     1     -10.063  13.485  66.157  1.00  0.00    -0.304 C  
HETATM    9  S   UNL     1     -12.233  14.159  64.620  1.00  0.00    -0.428 S  
HETATM   10  C   UNL     1     -10.473  13.616  64.688  1.00  0.00    -0.423 C  
HETATM   11  C   UNL     1     -12.723  12.445  64.223  1.00  0.00    -0.342 C  
HETATM   12  C   UNL     1     -11.663  12.023  63.215  1.00  0.00    -0.425 C  
ENDROOT
BRANCH   3  13
HETATM   13  C   UNL     1     -11.366  14.961  69.230  1.00  0.00    -0.296 C  
BRANCH  13  14
HETATM   14  C   UNL     1     -12.366  14.452  70.218  1.00  0.00    -0.410 A  
HETATM   15  C   UNL     1     -14.078  14.919  71.875  1.00  0.00    -0.613 A  
HETATM   16  C   UNL     1     -13.121  12.708  71.725  1.00  0.00    -0.461 A  
HETATM   17  C   UNL     1     -13.252  15.345  70.835  1.00  0.00    -0.512 A  
HETATM   18  C   UNL     1     -12.297  13.132  70.682  1.00  0.00    -0.405 A  
HETATM   19  C   UNL     1     -14.014  13.600  72.317  1.00  0.00    -0.661 A  
ENDBRANCH  13  14
ENDBRANCH   3  13
BRANCH   7  20
HETATM   20  C   UNL     1      -9.278  15.863  66.228  1.00  0.00    -0.337 C  
BRANCH  20  21
HETATM   21  C   UNL     1      -8.431  16.928  66.879  1.00  0.00    -0.243 A  
HETATM   22  C   UNL     1      -8.967  17.927  67.699  1.00  0.00    -0.250 A  
HETATM   23  C   UNL     1      -8.152  18.923  68.235  1.00  0.00    -0.353 A  
HETATM   24  C   UNL     1      -6.781  18.896  68.005  1.00  0.00    -0.244 A  
HETATM   25  C   UNL     1      -6.222  17.871  67.246  1.00  0.00    -0.174 A  
HETATM   26  C   UNL     1      -7.039  16.886  66.694  1.00  0.00    -0.289 A  
ENDBRANCH  20  21
ENDBRANCH   7  20
TORSDOF 4
ENDMDL
MODEL        8
REMARK 921   NORMALIZED FREE ENERGY PREDICTED BY IDOCK:   -7.10 KCAL/MOL
REMARK 922        TOTAL FREE ENERGY PREDICTED BY IDOCK:   -9.50 KCAL/MOL
REMARK 923 INTER-LIGAND FREE ENERGY PREDICTED BY IDOCK:   -8.75 KCAL/MOL
REMARK 924 INTRA-LIGAND FREE ENERGY PREDICTED BY IDOCK:   -0.75 KCAL/MOL
REMARK 927      BINDING AFFINITY PREDICTED BY RF-SCORE:    0.00 PKD
ROOT
HETATM    1  O   UNL     1     -11.954  11.676  70.200  1.00  0.00    -0.327 OA 
HETATM    2  C   UNL     1     -11.825  12.242  69.128  1.00  0.00    -0.301 C  
HETATM    3  N   UNL     1     -12.049  13.627  68.919  1.00  0.00    -0.342 N  
HETATM    4  C   UNL     1     -12.321  12.219  64.365  1.00  0.00    -0.493 C  
HETATM    5  C   UNL     1     -12.092  13.872  67.463  1.00  0.00    -0.331 C  
HETATM    6  C   UNL     1     -11.044  14.780  66.829  1.00  0.00    -0.338 C  
HETATM    7  N   UNL     1     -11.300  11.684  67.934  1.00  0.00    -0.276 N  
HETATM    8  C   UNL     1     -11.939  12.459  66.879  1.00  0.00    -0.196 C  
HETATM    9  S   UNL     1     -10.527  14.117  65.211  1.00  0.00    -0.407 S  
HETATM   10  C   UNL     1     -11.303  12.468  65.486  1.00  0.00    -0.331 C  
HETATM   11  C   UNL     1     -11.947  14.585  64.163  1.00  0.00    -0.321 C  
HETATM   12  C   UNL     1     -12.178  13.327  63.337  1.00  0.00    -0.476 C  
ENDROOT
BRANCH   3  13
HETATM   13  C   UNL     1     -11.325  14.423  69.893  1.00  0.00    -0.222 C  
BRANCH  13  14
HETATM   14  C   UNL     1     -12.096  15.022  71.024  1.00  0.00    -0.381 A  
HETATM   15  C   UNL     1     -12.128  15.897  73.288  1.00  0.00    -0.601 A  
HETATM   16  C   UNL     1     -14.202  15.350  72.182  1.00  0.00    -0.660 A  
HETATM   17  C   UNL     1     -11.419  15.488  72.159  1.00  0.00    -0.512 A  
HETATM   18  C   UNL     1     -13.495  14.944  71.050  1.00  0.00    -0.428 A  
HETATM   19  C   UNL     1     -13.518  15.831  73.298  1.00  0.00    -0.580 A  
ENDBRANCH  13  14
ENDBRANCH   3  13
BRANCH   7  20
HETATM   20  C   UNL     1      -9.834  11.584  67.917  1.00  0.00    -0.185 C  
BRANCH  20  21
HETATM   21  C   UNL     1      -9.206  10.370  67.278  1.00  0.00    -0.157 A  
HETATM   22  C   UNL     1      -7.851  10.311  66.933  1.00  0.00    -0.112 A  
HETATM   23  C   UNL     1      -7.327   9.188  66.295  1.00  0.00    -0.092 A  
HETATM   24  C   UNL     1      -8.141   8.087  66.048  1.00  0.00    -0.110 A  
HETATM   25  C   UNL     1      -9.475   8.104  66.445  1.00  0.00    -0.285 A  
HETATM   26  C   UNL     1     -10.004   9.234  67.066  1.00  0.00    -0.286 A  
ENDBRANCH  20  21
ENDBRANCH   7  20
TORSDOF 4
ENDMDL
MODEL        9
REMARK 921   NORMALIZED FREE ENERGY PREDICTED BY IDOCK:   -6.96 KCAL/MOL
REMARK 922        TOTAL FREE ENERGY PREDICTED BY IDOCK:   -9.32 KCAL/MOL
REMARK 923 INTER-LIGAND FREE ENERGY PREDICTED BY IDOCK:   -8.51 KCAL/MOL
REMARK 924 INTRA-LIGAND FREE ENERGY PREDICTED BY IDOCK:   -0.81 KCAL/MOL
REMARK 927      BINDING AFFINITY PREDICTED BY RF-SCORE:    0.00 PKD
ROOT
HETATM    1  O   UNL     1      -9.793  11.982  68.628  1.00  0.00    -0.194 OA 
HETATM    2  C   UNL     1      -9.744  13.119  68.191  1.00  0.00    -0.228 C  
HETATM    3  N   UNL     1      -9.550  13.447  66.824  1.00  0.00    -0.256 N  
HETATM    4  C   UNL     1      -8.353  17.675  68.692  1.00  0.00    -0.267 C  
HETATM    5  C   UNL     1      -9.243  14.889  66.734  1.00  0.00    -0.259 C  
HETATM    6  C   UNL     1     -10.195  15.806  65.975  1.00  0.00    -0.333 C  
HETATM    7  N   UNL     1     -10.005  14.315  68.908  1.00  0.00    -0.198 N  
HETATM    8  C   UNL     1      -9.216  15.319  68.210  1.00  0.00    -0.189 C  
HETATM    9  S   UNL     1     -10.363  17.402  66.842  1.00  0.00    -0.292 S  
HETATM   10  C   UNL     1      -9.576  16.796  68.394  1.00  0.00    -0.241 C  
HETATM   11  C   UNL     1      -8.794  18.221  66.393  1.00  0.00    -0.240 C  
HETATM   12  C   UNL     1      -8.351  18.835  67.713  1.00  0.00    -0.293 C  
ENDROOT
BRANCH   3  13
HETATM   13  C   UNL     1     -10.483  12.723  65.980  1.00  0.00    -0.274 C  
BRANCH  13  14
HETATM   14  C   UNL     1      -9.928  11.732  65.009  1.00  0.00    -0.287 A  
HETATM   15  C   UNL     1      -9.703  10.966  62.716  1.00  0.00    -0.307 A  
HETATM   16  C   UNL     1      -9.092   9.503  64.537  1.00  0.00    -0.250 A  
HETATM   17  C   UNL     1     -10.065  11.953  63.632  1.00  0.00    -0.450 A  
HETATM   18  C   UNL     1      -9.451  10.492  65.455  1.00  0.00    -0.273 A  
HETATM   19  C   UNL     1      -9.213   9.743  63.169  1.00  0.00    -0.221 A  
ENDBRANCH  13  14
ENDBRANCH   3  13
BRANCH   7  20
HETATM   20  C   UNL     1     -11.436  14.587  69.110  1.00  0.00    -0.294 C  
BRANCH  20  21
HETATM   21  C   UNL     1     -11.952  14.692  70.524  1.00  0.00    -0.376 A  
HETATM   22  C   UNL     1     -12.682  13.672  71.142  1.00  0.00    -0.432 A  
HETATM   23  C   UNL     1     -13.186  13.836  72.432  1.00  0.00    -0.580 A  
HETATM   24  C   UNL     1     -12.913  15.001  73.140  1.00  0.00    -0.631 A  
HETATM   25  C   UNL     1     -12.131  15.999  72.565  1.00  0.00    -0.635 A  
HETATM   26  C   UNL     1     -11.644  15.844  71.268  1.00  0.00    -0.509 A  
ENDBRANCH  20  21
ENDBRANCH   7  20
TORSDOF 4
ENDMDL
MODEL       10
REMARK 921   NORMALIZED FREE ENERGY PREDICTED BY IDOCK:   -6.87 KCAL/MOL
REMARK 922        TOTAL FREE ENERGY PREDICTED BY IDOCK:   -9.21 KCAL/MOL
REMARK 923 INTER-LIGAND FREE ENERGY PREDICTED BY IDOCK:   -8.56 KCAL/MOL
REMARK 924 INTRA-LIGAND FREE ENERGY PREDICTED BY IDOCK:   -0.65 KCAL/MOL
REMARK 927      BINDING AFFINITY PREDICTED BY RF-SCORE:    0.00 PKD
ROOT
HETATM    1  O   UNL     1     -11.697  11.695  70.236  1.00  0.00    -0.325 OA 
HETATM    2  C   UNL     1     -11.617  12.254  69.156  1.00  0.00    -0.318 C  
HETATM    3  N   UNL     1     -11.974  13.608  68.925  1.00  0.00    -0.356 N  
HETATM    4  C   UNL     1     -12.081  12.113  64.391  1.00  0.00    -0.443 C  
HETATM    5  C   UNL     1     -12.033  13.826  67.465  1.00  0.00    -0.376 C  
HETATM    6  C   UNL     1     -11.074  14.822  66.822  1.00  0.00    -0.338 C  
HETATM    7  N   UNL     1     -11.034  11.733  67.972  1.00  0.00    -0.212 N  
HETATM    8  C   UNL     1     -11.739  12.426  66.903  1.00  0.00    -0.362 C  
HETATM    9  S   UNL     1     -10.485  14.190  65.216  1.00  0.00    -0.407 S  
HETATM   10  C   UNL     1     -11.098  12.477  65.513  1.00  0.00    -0.301 C  
HETATM   11  C   UNL     1     -11.938  14.501  64.155  1.00  0.00    -0.321 C  
HETATM   12  C   UNL     1     -12.041  13.214  63.347  1.00  0.00    -0.558 C  
ENDROOT
BRANCH   3  13
HETATM   13  C   UNL     1     -11.337  14.485  69.889  1.00  0.00    -0.241 C  
BRANCH  13  14
HETATM   14  C   UNL     1     -12.111  14.871  71.107  1.00  0.00    -0.384 A  
HETATM   15  C   UNL     1     -14.254  15.326  72.153  1.00  0.00    -0.667 A  
HETATM   16  C   UNL     1     -12.213  15.987  73.259  1.00  0.00    -0.632 A  
HETATM   17  C   UNL     1     -13.512  14.816  71.089  1.00  0.00    -0.450 A  
HETATM   18  C   UNL     1     -11.468  15.474  72.197  1.00  0.00    -0.512 A  
HETATM   19  C   UNL     1     -13.605  15.907  73.239  1.00  0.00    -0.512 A  
ENDBRANCH  13  14
ENDBRANCH   3  13
BRANCH   7  20
HETATM   20  C   UNL     1      -9.565  11.776  67.964  1.00  0.00    -0.187 C  
BRANCH  20  21
HETATM   21  C   UNL     1      -8.810  10.552  68.419  1.00  0.00    -0.140 A  
HETATM   22  C   UNL     1      -9.443   9.435  68.975  1.00  0.00    -0.160 A  
HETATM   23  C   UNL     1      -8.699   8.348  69.432  1.00  0.00    -0.137 A  
HETATM   24  C   UNL     1      -7.316   8.342  69.283  1.00  0.00    -0.076 A  
HETATM   25  C   UNL     1      -6.677   9.416  68.671  1.00  0.00    -0.053 A  
HETATM   26  C   UNL     1      -7.418  10.512  68.232  1.00  0.00    -0.090 A  
ENDBRANCH  20  21
ENDBRANCH   7  20
TORSDOF 4
ENDMDL
MODEL       11
REMARK 921   NORMALIZED FREE ENERGY PREDICTED BY IDOCK:   -6.67 KCAL/MOL
REMARK 922        TOTAL FREE ENERGY PREDICTED BY IDOCK:   -8.96 KCAL/MOL
REMARK 923 INTER-LIGAND FREE ENERGY PREDICTED BY IDOCK:   -8.37 KCAL/MOL
REMARK 924 INTRA-LIGAND FREE ENERGY PREDICTED BY IDOCK:   -0.59 KCAL/MOL
REMARK 927      BINDING AFFINITY PREDICTED BY RF-SCORE:    0.00 PKD
ROOT
HETATM    1  O   UNL     1     -12.268  16.156  68.355  1.00  0.00     0.127 OA 
HETATM    2  C   UNL     1     -11.505  15.235  68.120  1.00  0.00    -0.346 C  
HETATM    3  N   UNL     1     -10.173  15.393  67.658  1.00  0.00    -0.243 N  
HETATM    4  C   UNL     1     -10.767  10.823  66.409  1.00  0.00    -0.228 C  
HETATM    5  C   UNL     1      -9.684  14.075  67.203  1.00  0.00    -0.242 C  
HETATM    6  C   UNL     1      -8.495  13.438  67.914  1.00  0.00    -0.173 C  
HETATM    7  N   UNL     1     -11.730  13.860  68.388  1.00  0.00    -0.336 N  
HETATM    8  C   UNL     1     -10.914  13.174  67.396  1.00  0.00    -0.264 C  
HETATM    9  S   UNL     1      -8.746  11.639  68.079  1.00  0.00    -0.163 S  
HETATM   10  C   UNL     1     -10.535  11.711  67.640  1.00  0.00    -0.191 C  
HETATM   11  C   UNL     1      -8.377  11.069  66.384  1.00  0.00    -0.165 C  
HETATM   12  C   UNL     1      -9.486  10.060  66.124  1.00  0.00    -0.242 C  
ENDROOT
BRANCH   3  13
HETATM   13  C   UNL     1      -9.442  16.329  68.492  1.00  0.00    -0.219 C  
BRANCH  13  14
HETATM   14  C   UNL     1      -9.395  17.760  68.067  1.00  0.00    -0.276 A  
HETATM   15  C   UNL     1     -10.133  20.051  68.385  1.00  0.00    -0.513 A  
HETATM   16  C   UNL     1      -9.014  19.422  66.340  1.00  0.00    -0.395 A  
HETATM   17  C   UNL     1     -10.025  18.740  68.847  1.00  0.00    -0.423 A  
HETATM   18  C   UNL     1      -8.902  18.110  66.803  1.00  0.00    -0.273 A  
HETATM   19  C   UNL     1      -9.625  20.392  67.134  1.00  0.00    -0.587 A  
ENDBRANCH  13  14
ENDBRANCH   3  13
BRANCH   7  20
HETATM   20  C   UNL     1     -11.545  13.491  69.799  1.00  0.00    -0.244 C  
BRANCH  20  21
HETATM   21  C   UNL     1     -12.236  14.320  70.853  1.00  0.00    -0.425 A  
HETATM   22  C   UNL     1     -11.580  15.315  71.585  1.00  0.00    -0.473 A  
HETATM   23  C   UNL     1     -12.245  16.019  72.588  1.00  0.00    -0.619 A  
HETATM   24  C   UNL     1     -13.593  15.776  72.827  1.00  0.00    -0.662 A  
HETATM   25  C   UNL     1     -14.279  14.837  72.062  1.00  0.00    -0.626 A  
HETATM   26  C   UNL     1     -13.609  14.119  71.074  1.00  0.00    -0.171 A  
ENDBRANCH  20  21
ENDBRANCH   7  20
TORSDOF 4
ENDMDL
MODEL       12
REMARK 921   NORMALIZED FREE ENERGY PREDICTED BY IDOCK:   -6.64 KCAL/MOL
REMARK 922        TOTAL FREE ENERGY PREDICTED BY IDOCK:   -8.93 KCAL/MOL
REMARK 923 INTER-LIGAND FREE ENERGY PREDICTED BY IDOCK:   -8.09 KCAL/MOL
REMARK 924 INTRA-LIGAND FREE ENERGY PREDICTED BY IDOCK:   -0.84 KCAL/MOL
REMARK 927      BINDING AFFINITY PREDICTED BY RF-SCORE:    0.00 PKD
ROOT
HETATM    1  O   UNL     1      -9.611  10.838  69.566  1.00  0.00    -0.110 OA 
HETATM    2  C   UNL     1     -10.060  11.494  68.642  1.00  0.00    -0.207 C  
HETATM    3  N   UNL     1     -10.207  11.016  67.314  1.00  0.00    -0.192 N  
HETATM    4  C   UNL     1     -10.438  15.689  66.361  1.00  0.00    -0.309 C  
HETATM    5  C   UNL     1     -10.486  12.171  66.436  1.00  0.00    -0.230 C  
HETATM    6  C   UNL     1     -11.814  12.236  65.691  1.00  0.00    -0.360 C  
HETATM    7  N   UNL     1     -10.645  12.784  68.724  1.00  0.00    -0.223 N  
HETATM    8  C   UNL     1     -10.407  13.359  67.408  1.00  0.00    -0.240 C  
HETATM    9  S   UNL     1     -12.444  13.947  65.668  1.00  0.00    -0.499 S  
HETATM   10  C   UNL     1     -11.268  14.542  66.956  1.00  0.00    -0.337 C  
HETATM   11  C   UNL     1     -11.385  14.701  64.385  1.00  0.00    -0.227 C  
HETATM   12  C   UNL     1     -11.019  16.043  65.004  1.00  0.00    -0.393 C  
ENDROOT
BRANCH   3  13
HETATM   13  C   UNL     1     -10.910   9.746  67.295  1.00  0.00    -0.177 C  
BRANCH  13  14
HETATM   14  C   UNL     1     -10.221   8.570  66.683  1.00  0.00    -0.345 A  
HETATM   15  C   UNL     1      -9.882   6.168  66.599  1.00  0.00    -0.202 A  
HETATM   16  C   UNL     1      -8.321   7.640  65.495  1.00  0.00    -0.139 A  
HETATM   17  C   UNL     1     -10.617   7.272  67.031  1.00  0.00    -0.415 A  
HETATM   18  C   UNL     1      -9.057   8.746  65.922  1.00  0.00    -0.271 A  
HETATM   19  C   UNL     1      -8.737   6.352  65.829  1.00  0.00    -0.135 A  
ENDBRANCH  13  14
ENDBRANCH   3  13
BRANCH   7  20
HETATM   20  C   UNL     1     -12.026  12.779  69.229  1.00  0.00    -0.246 C  
BRANCH  20  21
HETATM   21  C   UNL     1     -12.338  13.580  70.469  1.00  0.00    -0.412 A  
HETATM   22  C   UNL     1     -13.197  13.119  71.473  1.00  0.00    -0.368 A  
HETATM   23  C   UNL     1     -13.498  13.917  72.575  1.00  0.00    -0.676 A  
HETATM   24  C   UNL     1     -12.896  15.163  72.715  1.00  0.00    -0.506 A  
HETATM   25  C   UNL     1     -11.987  15.608  71.759  1.00  0.00    -0.518 A  
HETATM   26  C   UNL     1     -11.701  14.819  70.647  1.00  0.00    -0.353 A  
ENDBRANCH  20  21
ENDBRANCH   7  20
TORSDOF 4
ENDMDL
MODEL       13
REMARK 921   NORMALIZED FREE ENERGY PREDICTED BY IDOCK:   -6.64 KCAL/MOL
REMARK 922        TOTAL FREE ENERGY PREDICTED BY IDOCK:   -8.92 KCAL/MOL
REMARK 923 INTER-LIGAND FREE ENERGY PREDICTED BY IDOCK:   -8.14 KCAL/MOL
REMARK 924 INTRA-LIGAND FREE ENERGY PREDICTED BY IDOCK:   -0.78 KCAL/MOL
REMARK 927      BINDING AFFINITY PREDICTED BY RF-SCORE:    0.00 PKD
ROOT
HETATM    1  O   UNL     1     -12.188  13.569  66.997  1.00  0.00    -0.372 OA 
HETATM    2  C   UNL     1     -11.949  12.649  67.761  1.00  0.00    -0.243 C  
HETATM    3  N   UNL     1     -11.146  11.525  67.439  1.00  0.00    -0.264 N  
HETATM    4  C   UNL     1     -13.417   9.659  71.202  1.00  0.00    -0.292 C  
HETATM    5  C   UNL     1     -11.342  10.503  68.487  1.00  0.00    -0.257 C  
HETATM    6  C   UNL     1     -10.155  10.079  69.345  1.00  0.00    -0.219 C  
HETATM    7  N   UNL     1     -12.293  12.580  69.135  1.00  0.00     0.031 N  
HETATM    8  C   UNL     1     -12.399  11.151  69.395  1.00  0.00    -0.155 C  
HETATM    9  S   UNL     1     -10.679   9.828  71.073  1.00  0.00    -0.172 S  
HETATM   10  C   UNL     1     -12.308  10.658  70.843  1.00  0.00    -0.401 C  
HETATM   11  C   UNL     1     -11.515   8.208  70.962  1.00  0.00    -0.279 C  
HETATM   12  C   UNL     1     -12.768   8.423  71.800  1.00  0.00    -0.373 C  
ENDROOT
BRANCH   3  13
HETATM   13  C   UNL     1      -9.870  11.940  66.886  1.00  0.00    -0.202 C  
BRANCH  13  14
HETATM   14  C   UNL     1      -9.575  11.594  65.463  1.00  0.00    -0.241 A  
HETATM   15  C   UNL     1     -10.175  11.751  63.115  1.00  0.00    -0.376 A  
HETATM   16  C   UNL     1      -8.556  10.111  63.834  1.00  0.00    -0.197 A  
HETATM   17  C   UNL     1     -10.323  12.182  64.433  1.00  0.00    -0.348 A  
HETATM   18  C   UNL     1      -8.700  10.544  65.153  1.00  0.00    -0.197 A  
HETATM   19  C   UNL     1      -9.290  10.719  62.816  1.00  0.00    -0.352 A  
ENDBRANCH  13  14
ENDBRANCH   3  13
BRANCH   7  20
HETATM   20  C   UNL     1     -11.413  13.371  70.009  1.00  0.00    -0.056 C  
BRANCH  20  21
HETATM   21  C   UNL     1     -12.049  14.281  71.031  1.00  0.00    -0.416 A  
HETATM   22  C   UNL     1     -11.360  15.334  71.641  1.00  0.00    -0.440 A  
HETATM   23  C   UNL     1     -11.972  16.115  72.620  1.00  0.00    -0.653 A  
HETATM   24  C   UNL     1     -13.303  15.888  72.956  1.00  0.00    -0.663 A  
HETATM   25  C   UNL     1     -14.023  14.887  72.310  1.00  0.00    -0.602 A  
HETATM   26  C   UNL     1     -13.405  14.093  71.346  1.00  0.00    -0.402 A  
ENDBRANCH  20  21
ENDBRANCH   7  20
TORSDOF 4
ENDMDL
MODEL       14
REMARK 921   NORMALIZED FREE ENERGY PREDICTED BY IDOCK:   -6.56 KCAL/MOL
REMARK 922        TOTAL FREE ENERGY PREDICTED BY IDOCK:   -8.83 KCAL/MOL
REMARK 923 INTER-LIGAND FREE ENERGY PREDICTED BY IDOCK:   -8.04 KCAL/MOL
REMARK 924 INTRA-LIGAND FREE ENERGY PREDICTED BY IDOCK:   -0.79 KCAL/MOL
REMARK 927      BINDING AFFINITY PREDICTED BY RF-SCORE:    0.00 PKD
ROOT
HETATM    1  O   UNL     1      -8.687  14.387  67.291  1.00  0.00    -0.191 OA 
HETATM    2  C   UNL     1      -9.547  14.530  68.143  1.00  0.00    -0.212 C  
HETATM    3  N   UNL     1      -9.543  15.554  69.125  1.00  0.00    -0.235 N  
HETATM    4  C   UNL     1     -12.620  12.598  71.267  1.00  0.00    -0.339 C  
HETATM    5  C   UNL     1     -10.558  15.219  70.144  1.00  0.00    -0.257 C  
HETATM    6  C   UNL     1     -11.744  16.155  70.349  1.00  0.00    -0.220 C  
HETATM    7  N   UNL     1     -10.769  13.815  68.241  1.00  0.00    -0.246 N  
HETATM    8  C   UNL     1     -11.082  13.857  69.663  1.00  0.00    -0.072 C  
HETATM    9  S   UNL     1     -13.265  15.194  70.650  1.00  0.00    -0.247 S  
HETATM   10  C   UNL     1     -12.525  13.596  70.105  1.00  0.00    -0.239 C  
HETATM   11  C   UNL     1     -13.028  14.685  72.387  1.00  0.00    -0.368 C  
HETATM   12  C   UNL     1     -13.459  13.225  72.367  1.00  0.00    -0.670 C  
ENDROOT
BRANCH   3  13
HETATM   13  C   UNL     1      -9.350  16.857  68.515  1.00  0.00    -0.259 C  
BRANCH  13  14
HETATM   14  C   UNL     1      -8.055  17.561  68.758  1.00  0.00    -0.232 A  
HETATM   15  C   UNL     1      -5.764  17.487  69.558  1.00  0.00    -0.222 A  
HETATM   16  C   UNL     1      -6.831  19.616  69.166  1.00  0.00    -0.383 A  
HETATM   17  C   UNL     1      -6.931  16.831  69.169  1.00  0.00    -0.231 A  
HETATM   18  C   UNL     1      -7.999  18.961  68.773  1.00  0.00    -0.352 A  
HETATM   19  C   UNL     1      -5.713  18.878  69.553  1.00  0.00    -0.245 A  
ENDBRANCH  13  14
ENDBRANCH   3  13
BRANCH   7  20
HETATM   20  C   UNL     1     -11.802  14.270  67.299  1.00  0.00    -0.413 C  
BRANCH  20  21
HETATM   21  C   UNL     1     -11.854  13.633  65.932  1.00  0.00    -0.406 A  
HETATM   22  C   UNL     1     -12.268  14.325  64.789  1.00  0.00    -0.456 A  
HETATM   23  C   UNL     1     -12.353  13.680  63.556  1.00  0.00    -0.265 A  
HETATM   24  C   UNL     1     -11.967  12.349  63.443  1.00  0.00    -0.595 A  
HETATM   25  C   UNL     1     -11.489  11.664  64.557  1.00  0.00    -0.272 A  
HETATM   26  C   UNL     1     -11.424  12.303  65.793  1.00  0.00    -0.417 A  
ENDBRANCH  20  21
ENDBRANCH   7  20
TORSDOF 4
ENDMDL
MODEL       15
REMARK 921   NORMALIZED FREE ENERGY PREDICTED BY IDOCK:   -6.40 KCAL/MOL
REMARK 922        TOTAL FREE ENERGY PREDICTED BY IDOCK:   -8.63 KCAL/MOL
REMARK 923 INTER-LIGAND FREE ENERGY PREDICTED BY IDOCK:   -8.41 KCAL/MOL
REMARK 924 INTRA-LIGAND FREE ENERGY PREDICTED BY IDOCK:   -0.22 KCAL/MOL
REMARK 927      BINDING AFFINITY PREDICTED BY RF-SCORE:    0.00 PKD
ROOT
HETATM    1  O   UNL     1     -10.272  16.408  69.446  1.00  0.00    -0.265 OA 
HETATM    2  C   UNL     1     -10.295  15.613  68.523  1.00  0.00    -0.219 C  
HETATM    3  N   UNL     1      -9.145  15.143  67.837  1.00  0.00    -0.178 N  
HETATM    4  C   UNL     1     -12.400  13.971  64.546  1.00  0.00    -0.409 C  
HETATM    5  C   UNL     1      -9.590  14.452  66.610  1.00  0.00    -0.281 C  
HETATM    6  C   UNL     1      -9.293  12.966  66.444  1.00  0.00    -0.187 C  
HETATM    7  N   UNL     1     -11.426  14.901  68.046  1.00  0.00    -0.326 N  
HETATM    8  C   UNL     1     -11.114  14.648  66.647  1.00  0.00    -0.334 C  
HETATM    9  S   UNL     1     -10.707  12.120  65.664  1.00  0.00    -0.286 S  
HETATM   10  C   UNL     1     -11.865  13.532  65.916  1.00  0.00    -0.372 C  
HETATM   11  C   UNL     1     -10.509  12.625  63.920  1.00  0.00    -0.411 C  
HETATM   12  C   UNL     1     -11.935  12.965  63.508  1.00  0.00    -0.629 C  
ENDROOT
BRANCH   3  13
HETATM   13  C   UNL     1      -8.147  14.656  68.772  1.00  0.00    -0.152 C  
BRANCH  13  14
HETATM   14  C   UNL     1      -7.063  15.594  69.194  1.00  0.00    -0.168 A  
HETATM   15  C   UNL     1      -5.127  16.044  70.587  1.00  0.00    -0.186 A  
HETATM   16  C   UNL     1      -6.231  17.860  69.442  1.00  0.00    -0.248 A  
HETATM   17  C   UNL     1      -6.050  15.146  70.053  1.00  0.00    -0.148 A  
HETATM   18  C   UNL     1      -7.154  16.962  68.904  1.00  0.00    -0.220 A  
HETATM   19  C   UNL     1      -5.216  17.399  70.279  1.00  0.00    -0.230 A  
ENDBRANCH  13  14
ENDBRANCH   3  13
BRANCH   7  20
HETATM   20  C   UNL     1     -11.801  13.752  68.883  1.00  0.00    -0.360 C  
BRANCH  20  21
HETATM   21  C   UNL     1     -12.530  14.015  70.177  1.00  0.00    -0.380 A  
HETATM   22  C   UNL     1     -13.128  15.245  70.473  1.00  0.00    -0.334 A  
HETATM   23  C   UNL     1     -13.743  15.460  71.706  1.00  0.00    -0.610 A  
HETATM   24  C   UNL     1     -13.818  14.426  72.633  1.00  0.00    -0.480 A  
HETATM   25  C   UNL     1     -13.287  13.176  72.328  1.00  0.00    -0.621 A  
HETATM   26  C   UNL     1     -12.654  12.967  71.104  1.00  0.00    -0.373 A  
ENDBRANCH  20  21
ENDBRANCH   7  20
TORSDOF 4
ENDMDL
MODEL       16
REMARK 921   NORMALIZED FREE ENERGY PREDICTED BY IDOCK:   -6.39 KCAL/MOL
REMARK 922        TOTAL FREE ENERGY PREDICTED BY IDOCK:   -8.62 KCAL/MOL
REMARK 923 INTER-LIGAND FREE ENERGY PREDICTED BY IDOCK:   -7.84 KCAL/MOL
REMARK 924 INTRA-LIGAND FREE ENERGY PREDICTED BY IDOCK:   -0.78 KCAL/MOL
REMARK 927      BINDING AFFINITY PREDICTED BY RF-SCORE:    0.00 PKD
ROOT
HETATM    1  O   UNL     1     -12.272  12.285  66.786  1.00  0.00    -0.558 OA 
HETATM    2  C   UNL     1     -11.784  11.508  67.589  1.00  0.00    -0.208 C  
HETATM    3  N   UNL     1     -10.752  10.583  67.286  1.00  0.00    -0.269 N  
HETATM    4  C   UNL     1     -12.325   8.526  71.298  1.00  0.00    -0.301 C  
HETATM    5  C   UNL     1     -10.647   9.626  68.406  1.00  0.00    -0.225 C  
HETATM    6  C   UNL     1      -9.352   9.560  69.209  1.00  0.00    -0.169 C  
HETATM    7  N   UNL     1     -12.034  11.464  68.985  1.00  0.00    -0.341 N  
HETATM    8  C   UNL     1     -11.783  10.075  69.339  1.00  0.00     0.053 C  
HETATM    9  S   UNL     1      -9.717   9.324  70.980  1.00  0.00    -0.234 S  
HETATM   10  C   UNL     1     -11.507   9.728  70.805  1.00  0.00    -0.342 C  
HETATM   11  C   UNL     1     -10.146   7.550  71.025  1.00  0.00    -0.186 C  
HETATM   12  C   UNL     1     -11.372   7.527  71.927  1.00  0.00    -0.298 C  
ENDROOT
BRANCH   3  13
HETATM   13  C   UNL     1      -9.641  11.243  66.626  1.00  0.00    -0.195 C  
BRANCH  13  14
HETATM   14  C   UNL     1      -9.384  10.921  65.190  1.00  0.00    -0.252 A  
HETATM   15  C   UNL     1      -7.927   9.964  63.501  1.00  0.00    -0.155 A  
HETATM   16  C   UNL     1      -9.767  11.379  62.838  1.00  0.00    -0.344 A  
HETATM   17  C   UNL     1      -8.275  10.138  64.839  1.00  0.00    -0.157 A  
HETATM   18  C   UNL     1     -10.119  11.551  64.178  1.00  0.00    -0.354 A  
HETATM   19  C   UNL     1      -8.674  10.581  62.501  1.00  0.00    -0.270 A  
ENDBRANCH  13  14
ENDBRANCH   3  13
BRANCH   7  20
HETATM   20  C   UNL     1     -11.328  12.504  69.749  1.00  0.00    -0.040 C  
BRANCH  20  21
HETATM   21  C   UNL     1     -12.147  13.470  70.569  1.00  0.00    -0.409 A  
HETATM   22  C   UNL     1     -12.185  14.843  70.307  1.00  0.00    -0.389 A  
HETATM   23  C   UNL     1     -12.912  15.706  71.126  1.00  0.00    -0.539 A  
HETATM   24  C   UNL     1     -13.659  15.194  72.181  1.00  0.00    -0.558 A  
HETATM   25  C   UNL     1     -13.685  13.822  72.416  1.00  0.00    -0.692 A  
HETATM   26  C   UNL     1     -12.942  12.962  71.610  1.00  0.00    -0.410 A  
ENDBRANCH  20  21
ENDBRANCH   7  20
TORSDOF 4
ENDMDL
MODEL       17
REMARK 921   NORMALIZED FREE ENERGY PREDICTED BY IDOCK:   -6.39 KCAL/MOL
REMARK 922        TOTAL FREE ENERGY PREDICTED BY IDOCK:   -8.61 KCAL/MOL
REMARK 923 INTER-LIGAND FREE ENERGY PREDICTED BY IDOCK:   -8.17 KCAL/MOL
REMARK 924 INTRA-LIGAND FREE ENERGY PREDICTED BY IDOCK:   -0.44 KCAL/MOL
REMARK 927      BINDING AFFINITY PREDICTED BY RF-SCORE:    0.00 PKD
ROOT
HETATM    1  O   UNL     1     -12.764  14.127  66.192  1.00  0.00    -0.442 OA 
HETATM    2  C   UNL     1     -11.864  13.386  66.550  1.00  0.00    -0.396 C  
HETATM    3  N   UNL     1     -10.684  13.138  65.803  1.00  0.00    -0.276 N  
HETATM    4  C   UNL     1     -10.456   9.335  68.681  1.00  0.00    -0.236 C  
HETATM    5  C   UNL     1      -9.995  11.977  66.402  1.00  0.00    -0.219 C  
HETATM    6  C   UNL     1      -8.603  12.162  66.996  1.00  0.00    -0.191 C  
HETATM    7  N   UNL     1     -11.743  12.749  67.811  1.00  0.00    -0.351 N  
HETATM    8  C   UNL     1     -10.958  11.556  67.524  1.00  0.00    -0.255 C  
HETATM    9  S   UNL     1      -8.431  11.182  68.524  1.00  0.00    -0.155 S  
HETATM   10  C   UNL     1     -10.238  10.854  68.679  1.00  0.00    -0.189 C  
HETATM   11  C   UNL     1      -8.207   9.501  67.848  1.00  0.00    -0.114 C  
HETATM   12  C   UNL     1      -9.099   8.659  68.751  1.00  0.00    -0.142 C  
ENDROOT
BRANCH   3  13
HETATM   13  C   UNL     1     -10.055  14.382  65.398  1.00  0.00    -0.359 C  
BRANCH  13  14
HETATM   14  C   UNL     1      -9.823  15.424  66.444  1.00  0.00    -0.301 A  
HETATM   15  C   UNL     1     -10.346  17.615  67.350  1.00  0.00    -0.360 A  
HETATM   16  C   UNL     1      -8.375  16.443  68.103  1.00  0.00    -0.186 A  
HETATM   17  C   UNL     1     -10.647  16.558  66.492  1.00  0.00    -0.217 A  
HETATM   18  C   UNL     1      -8.676  15.382  67.247  1.00  0.00    -0.215 A  
HETATM   19  C   UNL     1      -9.213  17.556  68.157  1.00  0.00    -0.277 A  
ENDBRANCH  13  14
ENDBRANCH   3  13
BRANCH   7  20
HETATM   20  C   UNL     1     -11.271  13.637  68.884  1.00  0.00    -0.270 C  
BRANCH  20  21
HETATM   21  C   UNL     1     -12.162  13.847  70.083  1.00  0.00    -0.425 A  
HETATM   22  C   UNL     1     -12.520  12.810  70.952  1.00  0.00    -0.373 A  
HETATM   23  C   UNL     1     -13.391  13.040  72.016  1.00  0.00    -0.588 A  
HETATM   24  C   UNL     1     -13.865  14.325  72.258  1.00  0.00    -0.622 A  
HETATM   25  C   UNL     1     -13.466  15.380  71.443  1.00  0.00    -0.607 A  
HETATM   26  C   UNL     1     -12.612  15.147  70.367  1.00  0.00    -0.405 A  
ENDBRANCH  20  21
ENDBRANCH   7  20
TORSDOF 4
ENDMDL
MODEL       18
REMARK 921   NORMALIZED FREE ENERGY PREDICTED BY IDOCK:   -6.30 KCAL/MOL
REMARK 922        TOTAL FREE ENERGY PREDICTED BY IDOCK:   -8.50 KCAL/MOL
REMARK 923 INTER-LIGAND FREE ENERGY PREDICTED BY IDOCK:   -7.67 KCAL/MOL
REMARK 924 INTRA-LIGAND FREE ENERGY PREDICTED BY IDOCK:   -0.83 KCAL/MOL
REMARK 927      BINDING AFFINITY PREDICTED BY RF-SCORE:    0.00 PKD
ROOT
HETATM    1  O   UNL     1     -10.104   9.810  68.515  1.00  0.00    -0.156 OA 
HETATM    2  C   UNL     1     -10.189   9.186  69.558  1.00  0.00    -0.203 C  
HETATM    3  N   UNL     1     -10.786   9.683  70.745  1.00  0.00    -0.307 N  
HETATM    4  C   UNL     1      -8.265   6.136  72.711  1.00  0.00    -0.117 C  
HETATM    5  C   UNL     1     -10.429   8.777  71.856  1.00  0.00    -0.353 C  
HETATM    6  C   UNL     1     -11.534   8.024  72.588  1.00  0.00    -0.402 C  
HETATM    7  N   UNL     1      -9.851   7.823  69.760  1.00  0.00    -0.177 N  
HETATM    8  C   UNL     1      -9.505   7.755  71.173  1.00  0.00    -0.154 C  
HETATM    9  S   UNL     1     -10.990   6.330  72.986  1.00  0.00    -0.214 S  
HETATM   10  C   UNL     1      -9.524   6.392  71.871  1.00  0.00    -0.152 C  
HETATM   11  C   UNL     1      -9.890   6.633  74.411  1.00  0.00    -0.322 C  
HETATM   12  C   UNL     1      -8.699   5.733  74.109  1.00  0.00    -0.122 C  
ENDROOT
BRANCH   3  13
HETATM   13  C   UNL     1     -12.109  10.216  70.477  1.00  0.00    -0.291 C  
BRANCH  13  14
HETATM   14  C   UNL     1     -12.385  11.635  70.853  1.00  0.00    -0.436 A  
HETATM   15  C   UNL     1     -13.609  13.227  72.217  1.00  0.00    -0.703 A  
HETATM   16  C   UNL     1     -12.398  13.992  70.274  1.00  0.00    -0.425 A  
HETATM   17  C   UNL     1     -13.209  11.918  71.951  1.00  0.00    -0.467 A  
HETATM   18  C   UNL     1     -11.994  12.683  70.008  1.00  0.00    -0.377 A  
HETATM   19  C   UNL     1     -13.201  14.263  71.382  1.00  0.00    -0.419 A  
ENDBRANCH  13  14
ENDBRANCH   3  13
BRANCH   7  20
HETATM   20  C   UNL     1     -10.860   6.879  69.257  1.00  0.00    -0.237 C  
BRANCH  20  21
HETATM   21  C   UNL     1     -10.436   5.857  68.231  1.00  0.00    -0.293 A  
HETATM   22  C   UNL     1     -10.694   6.006  66.863  1.00  0.00    -0.407 A  
HETATM   23  C   UNL     1     -10.332   5.010  65.958  1.00  0.00    -0.276 A  
HETATM   24  C   UNL     1      -9.653   3.881  66.403  1.00  0.00    -0.204 A  
HETATM   25  C   UNL     1      -9.330   3.749  67.751  1.00  0.00    -0.237 A  
HETATM   26  C   UNL     1      -9.709   4.734  68.659  1.00  0.00    -0.223 A  
ENDBRANCH  20  21
ENDBRANCH   7  20
TORSDOF 4
ENDMDL
MODEL       19
REMARK 921   NORMALIZED FREE ENERGY PREDICTED BY IDOCK:   -6.26 KCAL/MOL
REMARK 922        TOTAL FREE ENERGY PREDICTED BY IDOCK:   -8.46 KCAL/MOL
REMARK 923 INTER-LIGAND FREE ENERGY PREDICTED BY IDOCK:   -7.70 KCAL/MOL
REMARK 924 INTRA-LIGAND FREE ENERGY PREDICTED BY IDOCK:   -0.76 KCAL/MOL
REMARK 927      BINDING AFFINITY PREDICTED BY RF-SCORE:    0.00 PKD
ROOT
HETATM    1  O   UNL     1     -11.640  14.910  70.518  1.00  0.00    -0.262 OA 
HETATM    2  C   UNL     1     -11.338  14.535  69.399  1.00  0.00    -0.279 C  
HETATM    3  N   UNL     1     -10.365  15.161  68.577  1.00  0.00    -0.225 N  
HETATM    4  C   UNL     1     -12.644  12.720  65.163  1.00  0.00    -0.513 C  
HETATM    5  C   UNL     1     -10.500  14.619  67.209  1.00  0.00    -0.266 C  
HETATM    6  C   UNL     1      -9.336  13.849  66.595  1.00  0.00    -0.268 C  
HETATM    7  N   UNL     1     -11.774  13.347  68.757  1.00  0.00    -0.318 N  
HETATM    8  C   UNL     1     -11.703  13.672  67.339  1.00  0.00    -0.381 C  
HETATM    9  S   UNL     1      -9.953  12.430  65.631  1.00  0.00    -0.218 S  
HETATM   10  C   UNL     1     -11.658  12.526  66.324  1.00  0.00    -0.394 C  
HETATM   11  C   UNL     1     -10.548  13.259  64.116  1.00  0.00    -0.309 C  
HETATM   12  C   UNL     1     -11.880  12.567  63.860  1.00  0.00    -0.544 C  
ENDROOT
BRANCH   3  13
HETATM   13  C   UNL     1      -9.119  15.347  69.297  1.00  0.00    -0.260 C  
BRANCH  13  14
HETATM   14  C   UNL     1      -8.227  16.470  68.878  1.00  0.00    -0.241 A  
HETATM   15  C   UNL     1      -7.980  18.781  68.175  1.00  0.00    -0.317 A  
HETATM   16  C   UNL     1      -6.144  17.239  67.899  1.00  0.00    -0.148 A  
HETATM   17  C   UNL     1      -8.756  17.759  68.721  1.00  0.00    -0.201 A  
HETATM   18  C   UNL     1      -6.918  16.216  68.449  1.00  0.00    -0.129 A  
HETATM   19  C   UNL     1      -6.674  18.522  67.768  1.00  0.00    -0.214 A  
ENDBRANCH  13  14
ENDBRANCH   3  13
BRANCH   7  20
HETATM   20  C   UNL     1     -11.081  12.134  69.217  1.00  0.00    -0.167 C  
BRANCH  20  21
HETATM   21  C   UNL     1     -11.776  11.252  70.225  1.00  0.00    -0.415 A  
HETATM   22  C   UNL     1     -11.286   9.995  70.597  1.00  0.00    -0.425 A  
HETATM   23  C   UNL     1     -11.991   9.192  71.492  1.00  0.00    -0.422 A  
HETATM   24  C   UNL     1     -13.164   9.663  72.071  1.00  0.00    -0.546 A  
HETATM   25  C   UNL     1     -13.629  10.938  71.764  1.00  0.00    -0.119 A  
HETATM   26  C   UNL     1     -12.936  11.734  70.854  1.00  0.00    -0.114 A  
ENDBRANCH  20  21
ENDBRANCH   7  20
TORSDOF 4
ENDMDL
MODEL       20
REMARK 921   NORMALIZED FREE ENERGY PREDICTED BY IDOCK:   -6.21 KCAL/MOL
REMARK 922        TOTAL FREE ENERGY PREDICTED BY IDOCK:   -8.39 KCAL/MOL
REMARK 923 INTER-LIGAND FREE ENERGY PREDICTED BY IDOCK:   -7.70 KCAL/MOL
REMARK 924 INTRA-LIGAND FREE ENERGY PREDICTED BY IDOCK:   -0.69 KCAL/MOL
REMARK 927      BINDING AFFINITY PREDICTED BY RF-SCORE:    0.00 PKD
ROOT
HETATM    1  O   UNL     1      -9.072  15.575  69.138  1.00  0.00    -0.212 OA 
HETATM    2  C   UNL     1      -9.411  14.642  68.432  1.00  0.00    -0.201 C  
HETATM    3  N   UNL     1     -10.509  13.786  68.703  1.00  0.00    -0.242 N  
HETATM    4  C   UNL     1      -8.222  10.961  65.607  1.00  0.00    -0.083 C  
HETATM    5  C   UNL     1     -10.414  12.616  67.807  1.00  0.00    -0.221 C  
HETATM    6  C   UNL     1     -11.522  12.366  66.790  1.00  0.00    -0.362 C  
HETATM    7  N   UNL     1      -8.887  14.312  67.155  1.00  0.00    -0.219 N  
HETATM    8  C   UNL     1      -9.101  12.875  67.052  1.00  0.00    -0.228 C  
HETATM    9  S   UNL     1     -10.816  11.772  65.217  1.00  0.00    -0.281 S  
HETATM   10  C   UNL     1      -9.087  12.228  65.664  1.00  0.00     0.204 C  
HETATM   11  C   UNL     1     -10.439  10.033  65.628  1.00  0.00     0.022 C  
HETATM   12  C   UNL     1      -9.058   9.839  65.017  1.00  0.00    -0.280 C  
ENDROOT
BRANCH   3  13
HETATM   13  C   UNL     1     -11.711  14.554  68.973  1.00  0.00    -0.311 C  
BRANCH  13  14
HETATM   14  C   UNL     1     -12.334  14.431  70.326  1.00  0.00    -0.410 A  
HETATM   15  C   UNL     1     -13.465  13.060  71.979  1.00  0.00    -0.584 A  
HETATM   16  C   UNL     1     -13.435  15.461  72.227  1.00  0.00    -0.573 A  
HETATM   17  C   UNL     1     -12.736  13.174  70.796  1.00  0.00    -0.260 A  
HETATM   18  C   UNL     1     -12.702  15.576  71.045  1.00  0.00    -0.526 A  
HETATM   19  C   UNL     1     -13.811  14.203  72.696  1.00  0.00    -0.504 A  
ENDBRANCH  13  14
ENDBRANCH   3  13
BRANCH   7  20
HETATM   20  C   UNL     1      -9.394  15.160  66.066  1.00  0.00    -0.291 C  
BRANCH  20  21
HETATM   21  C   UNL     1      -9.252  16.656  66.198  1.00  0.00    -0.312 A  
HETATM   22  C   UNL     1     -10.350  17.513  66.328  1.00  0.00    -0.335 A  
HETATM   23  C   UNL     1     -10.173  18.894  66.392  1.00  0.00    -0.481 A  
HETATM   24  C   UNL     1      -8.890  19.430  66.386  1.00  0.00    -0.385 A  
HETATM   25  C   UNL     1      -7.783  18.587  66.325  1.00  0.00    -0.283 A  
HETATM   26  C   UNL     1      -7.961  17.207  66.241  1.00  0.00    -0.339 A  
ENDBRANCH  20  21
ENDBRANCH   7  20
TORSDOF 4
ENDMDL
MODEL       21
REMARK 921   NORMALIZED FREE ENERGY PREDICTED BY IDOCK:   -6.19 KCAL/MOL
REMARK 922        TOTAL FREE ENERGY PREDICTED BY IDOCK:   -8.37 KCAL/MOL
REMARK 923 INTER-LIGAND FREE ENERGY PREDICTED BY IDOCK:   -7.56 KCAL/MOL
REMARK 924 INTRA-LIGAND FREE ENERGY PREDICTED BY IDOCK:   -0.82 KCAL/MOL
REMARK 927      BINDING AFFINITY PREDICTED BY RF-SCORE:    0.00 PKD
ROOT
HETATM    1  O   UNL     1     -10.551   8.975  72.197  1.00  0.00    -0.324 OA 
HETATM    2  C   UNL     1     -10.327   9.019  70.999  1.00  0.00    -0.278 C  
HETATM    3  N   UNL     1     -10.163   7.879  70.170  1.00  0.00    -0.199 N  
HETATM    4  C   UNL     1      -8.120  11.092  67.289  1.00  0.00    -0.126 C  
HETATM    5  C   UNL     1      -9.611   8.327  68.875  1.00  0.00    -0.153 C  
HETATM    6  C   UNL     1     -10.430   8.120  67.605  1.00  0.00    -0.231 C  
HETATM    7  N   UNL     1     -10.326  10.177  70.180  1.00  0.00    -0.263 N  
HETATM    8  C   UNL     1      -9.416   9.835  69.096  1.00  0.00    -0.188 C  
HETATM    9  S   UNL     1     -10.257   9.559  66.499  1.00  0.00    -0.206 S  
HETATM   10  C   UNL     1      -9.496  10.632  67.790  1.00  0.00    -0.153 C  
HETATM   11  C   UNL     1      -8.598   9.272  65.793  1.00  0.00    -0.152 C  
HETATM   12  C   UNL     1      -7.972  10.658  65.841  1.00  0.00    -0.157 C  
ENDROOT
BRANCH   3  13
HETATM   13  C   UNL     1     -11.261   6.946  70.348  1.00  0.00    -0.312 C  
BRANCH  13  14
HETATM   14  C   UNL     1     -11.021   5.730  71.183  1.00  0.00    -0.295 A  
HETATM   15  C   UNL     1     -11.180   4.620  73.335  1.00  0.00    -0.423 A  
HETATM   16  C   UNL     1      -9.777   3.690  71.605  1.00  0.00    -0.236 A  
HETATM   17  C   UNL     1     -11.530   5.669  72.487  1.00  0.00    -0.335 A  
HETATM   18  C   UNL     1     -10.129   4.738  70.753  1.00  0.00    -0.286 A  
HETATM   19  C   UNL     1     -10.307   3.629  72.893  1.00  0.00    -0.244 A  
ENDBRANCH  13  14
ENDBRANCH   3  13
BRANCH   7  20
HETATM   20  C   UNL     1     -11.671  10.652  69.820  1.00  0.00    -0.310 C  
BRANCH  20  21
HETATM   21  C   UNL     1     -12.141  11.968  70.391  1.00  0.00    -0.407 A  
HETATM   22  C   UNL     1     -11.806  13.202  69.824  1.00  0.00    -0.386 A  
HETATM   23  C   UNL     1     -12.219  14.395  70.418  1.00  0.00    -0.404 A  
HETATM   24  C   UNL     1     -13.022  14.362  71.553  1.00  0.00    -0.406 A  
HETATM   25  C   UNL     1     -13.419  13.141  72.091  1.00  0.00    -0.653 A  
HETATM   26  C   UNL     1     -12.990  11.950  71.510  1.00  0.00    -0.427 A  
ENDBRANCH  20  21
ENDBRANCH   7  20
TORSDOF 4
ENDMDL
MODEL       22
REMARK 921   NORMALIZED FREE ENERGY PREDICTED BY IDOCK:   -6.19 KCAL/MOL
REMARK 922        TOTAL FREE ENERGY PREDICTED BY IDOCK:   -8.37 KCAL/MOL
REMARK 923 INTER-LIGAND FREE ENERGY PREDICTED BY IDOCK:   -7.80 KCAL/MOL
REMARK 924 INTRA-LIGAND FREE ENERGY PREDICTED BY IDOCK:   -0.56 KCAL/MOL
REMARK 927      BINDING AFFINITY PREDICTED BY RF-SCORE:    0.00 PKD
ROOT
HETATM    1  O   UNL     1      -9.960  17.968  65.701  1.00  0.00    -0.519 OA 
HETATM    2  C   UNL     1     -10.288  17.113  66.507  1.00  0.00    -0.306 C  
HETATM    3  N   UNL     1     -10.951  15.905  66.172  1.00  0.00    -0.198 N  
HETATM    4  C   UNL     1     -11.990  15.957  70.832  1.00  0.00    -0.432 C  
HETATM    5  C   UNL     1     -11.445  15.288  67.420  1.00  0.00    -0.241 C  
HETATM    6  C   UNL     1     -10.909  13.923  67.838  1.00  0.00    -0.244 C  
HETATM    7  N   UNL     1      -9.957  17.079  67.886  1.00  0.00    -0.271 N  
HETATM    8  C   UNL     1     -11.047  16.322  68.486  1.00  0.00    -0.368 C  
HETATM    9  S   UNL     1     -10.667  13.864  69.645  1.00  0.00     0.286 S  
HETATM   10  C   UNL     1     -10.830  15.687  69.863  1.00  0.00    -0.318 C  
HETATM   11  C   UNL     1     -12.385  13.664  70.230  1.00  0.00    -0.322 C  
HETATM   12  C   UNL     1     -12.451  14.629  71.405  1.00  0.00    -0.410 C  
ENDROOT
BRANCH   3  13
HETATM   13  C   UNL     1     -10.259  15.213  65.099  1.00  0.00    -0.351 C  
BRANCH  13  14
HETATM   14  C   UNL     1     -10.845  13.935  64.595  1.00  0.00    -0.420 A  
HETATM   15  C   UNL     1     -10.514  11.665  63.801  1.00  0.00    -0.454 A  
HETATM   16  C   UNL     1     -12.646  12.750  63.482  1.00  0.00    -0.359 A  
HETATM   17  C   UNL     1     -10.023  12.812  64.422  1.00  0.00    -0.177 A  
HETATM   18  C   UNL     1     -12.158  13.898  64.107  1.00  0.00    -0.464 A  
HETATM   19  C   UNL     1     -11.826  11.633  63.335  1.00  0.00    -0.317 A  
ENDBRANCH  13  14
ENDBRANCH   3  13
BRANCH   7  20
HETATM   20  C   UNL     1      -8.583  16.633  68.159  1.00  0.00    -0.200 C  
BRANCH  20  21
HETATM   21  C   UNL     1      -7.607  17.631  68.733  1.00  0.00    -0.253 A  
HETATM   22  C   UNL     1      -6.429  17.249  69.384  1.00  0.00    -0.235 A  
HETATM   23  C   UNL     1      -5.585  18.205  69.947  1.00  0.00    -0.238 A  
HETATM   24  C   UNL     1      -5.880  19.557  69.812  1.00  0.00    -0.298 A  
HETATM   25  C   UNL     1      -7.014  19.956  69.109  1.00  0.00    -0.318 A  
HETATM   26  C   UNL     1      -7.869  19.001  68.564  1.00  0.00    -0.375 A  
ENDBRANCH  20  21
ENDBRANCH   7  20
TORSDOF 4
ENDMDL
MODEL       23
REMARK 921   NORMALIZED FREE ENERGY PREDICTED BY IDOCK:   -6.18 KCAL/MOL
REMARK 922        TOTAL FREE ENERGY PREDICTED BY IDOCK:   -8.36 KCAL/MOL
REMARK 923 INTER-LIGAND FREE ENERGY PREDICTED BY IDOCK:   -7.57 KCAL/MOL
REMARK 924 INTRA-LIGAND FREE ENERGY PREDICTED BY IDOCK:   -0.79 KCAL/MOL
REMARK 927      BINDING AFFINITY PREDICTED BY RF-SCORE:    0.00 PKD
ROOT
HETATM    1  O   UNL     1     -12.408  13.945  68.707  1.00  0.00    -0.288 OA 
HETATM    2  C   UNL     1     -11.510  13.280  68.219  1.00  0.00    -0.316 C  
HETATM    3  N   UNL     1     -10.413  13.817  67.498  1.00  0.00    -0.244 N  
HETATM    4  C   UNL     1     -10.082   9.314  65.945  1.00  0.00    -0.188 C  
HETATM    5  C   UNL     1      -9.721  12.705  66.815  1.00  0.00    -0.240 C  
HETATM    6  C   UNL     1      -8.274  12.392  67.182  1.00  0.00    -0.176 C  
HETATM    7  N   UNL     1     -11.301  11.887  68.387  1.00  0.00    -0.250 N  
HETATM    8  C   UNL     1     -10.595  11.493  67.176  1.00  0.00    -0.237 C  
HETATM    9  S   UNL     1      -8.005  10.588  67.212  1.00  0.00    -0.116 S  
HETATM   10  C   UNL     1      -9.803  10.182  67.180  1.00  0.00    -0.187 C  
HETATM   11  C   UNL     1      -7.912  10.211  65.428  1.00  0.00    -0.144 C  
HETATM   12  C   UNL     1      -8.752   8.946  65.312  1.00  0.00    -0.220 C  
ENDROOT
BRANCH   3  13
HETATM   13  C   UNL     1      -9.773  14.884  68.246  1.00  0.00    -0.215 C  
BRANCH  13  14
HETATM   14  C   UNL     1     -10.116  16.294  67.891  1.00  0.00    -0.247 A  
HETATM   15  C   UNL     1     -10.388  18.006  66.191  1.00  0.00    -0.368 A  
HETATM   16  C   UNL     1     -10.281  18.632  68.519  1.00  0.00    -0.398 A  
HETATM   17  C   UNL     1     -10.232  16.666  66.545  1.00  0.00    -0.314 A  
HETATM   18  C   UNL     1     -10.128  17.292  68.876  1.00  0.00    -0.331 A  
HETATM   19  C   UNL     1     -10.416  18.987  67.178  1.00  0.00    -0.522 A  
ENDBRANCH  13  14
ENDBRANCH   3  13
BRANCH   7  20
HETATM   20  C   UNL     1     -10.699  11.526  69.679  1.00  0.00     0.092 C  
BRANCH  20  21
HETATM   21  C   UNL     1     -11.424  10.536  70.556  1.00  0.00    -0.433 A  
HETATM   22  C   UNL     1     -12.748  10.719  70.971  1.00  0.00    -0.513 A  
HETATM   23  C   UNL     1     -13.360   9.804  71.826  1.00  0.00    -0.506 A  
HETATM   24  C   UNL     1     -12.673   8.663  72.227  1.00  0.00    -0.450 A  
HETATM   25  C   UNL     1     -11.378   8.432  71.770  1.00  0.00    -0.366 A  
HETATM   26  C   UNL     1     -10.759   9.357  70.931  1.00  0.00    -0.393 A  
ENDBRANCH  20  21
ENDBRANCH   7  20
TORSDOF 4
ENDMDL
MODEL       24
REMARK 921   NORMALIZED FREE ENERGY PREDICTED BY IDOCK:   -6.16 KCAL/MOL
REMARK 922        TOTAL FREE ENERGY PREDICTED BY IDOCK:   -8.34 KCAL/MOL
REMARK 923 INTER-LIGAND FREE ENERGY PREDICTED BY IDOCK:   -7.56 KCAL/MOL
REMARK 924 INTRA-LIGAND FREE ENERGY PREDICTED BY IDOCK:   -0.78 KCAL/MOL
REMARK 927      BINDING AFFINITY PREDICTED BY RF-SCORE:    0.00 PKD
ROOT
HETATM    1  O   UNL     1      -9.690  11.679  68.884  1.00  0.00    -0.137 OA 
HETATM    2  C   UNL     1     -10.081  10.684  69.470  1.00  0.00    -0.132 C  
HETATM    3  N   UNL     1     -11.062  10.689  70.495  1.00  0.00    -0.211 N  
HETATM    4  C   UNL     1      -9.140   6.421  71.440  1.00  0.00    -0.145 C  
HETATM    5  C   UNL     1     -11.042   9.369  71.159  1.00  0.00    -0.362 C  
HETATM    6  C   UNL     1     -12.284   8.487  71.099  1.00  0.00    -0.232 C  
HETATM    7  N   UNL     1      -9.755   9.338  69.164  1.00  0.00    -0.160 N  
HETATM    8  C   UNL     1      -9.890   8.648  70.439  1.00  0.00    -0.183 C  
HETATM    9  S   UNL     1     -11.810   6.740  70.883  1.00  0.00    -0.380 S  
HETATM   10  C   UNL     1     -10.064   7.127  70.437  1.00  0.00    -0.191 C  
HETATM   11  C   UNL     1     -11.259   6.306  72.569  1.00  0.00    -0.279 C  
HETATM   12  C   UNL     1      -9.988   5.509  72.308  1.00  0.00    -0.211 C  
ENDROOT
BRANCH   3  13
HETATM   13  C   UNL     1     -12.250  11.409  70.073  1.00  0.00    -0.301 C  
BRANCH  13  14
HETATM   14  C   UNL     1     -12.556  12.710  70.740  1.00  0.00    -0.302 A  
HETATM   15  C   UNL     1     -13.758  13.939  72.454  1.00  0.00    -0.678 A  
HETATM   16  C   UNL     1     -12.690  15.131  70.647  1.00  0.00    -0.451 A  
HETATM   17  C   UNL     1     -13.325  12.730  71.911  1.00  0.00    -0.510 A  
HETATM   18  C   UNL     1     -12.253  13.922  70.104  1.00  0.00    -0.425 A  
HETATM   19  C   UNL     1     -13.438  15.139  71.824  1.00  0.00    -0.529 A  
ENDBRANCH  13  14
ENDBRANCH   3  13
BRANCH   7  20
HETATM   20  C   UNL     1     -10.488   8.796  68.011  1.00  0.00    -0.204 C  
BRANCH  20  21
HETATM   21  C   UNL     1      -9.862   8.914  66.643  1.00  0.00    -0.332 A  
HETATM   22  C   UNL     1      -9.007   7.942  66.115  1.00  0.00    -0.214 A  
HETATM   23  C   UNL     1      -8.407   8.120  64.868  1.00  0.00    -0.133 A  
HETATM   24  C   UNL     1      -8.706   9.248  64.111  1.00  0.00    -0.201 A  
HETATM   25  C   UNL     1      -9.607  10.193  64.593  1.00  0.00    -0.379 A  
HETATM   26  C   UNL     1     -10.190  10.025  65.848  1.00  0.00    -0.275 A  
ENDBRANCH  20  21
ENDBRANCH   7  20
TORSDOF 4
ENDMDL
MODEL       25
REMARK 921   NORMALIZED FREE ENERGY PREDICTED BY IDOCK:   -6.10 KCAL/MOL
REMARK 922        TOTAL FREE ENERGY PREDICTED BY IDOCK:   -8.26 KCAL/MOL
REMARK 923 INTER-LIGAND FREE ENERGY PREDICTED BY IDOCK:   -8.52 KCAL/MOL
REMARK 924 INTRA-LIGAND FREE ENERGY PREDICTED BY IDOCK:    0.25 KCAL/MOL
REMARK 927      BINDING AFFINITY PREDICTED BY RF-SCORE:    0.00 PKD
ROOT
HETATM    1  O   UNL     1      -7.356  14.489  67.128  1.00  0.00    -0.133 OA 
HETATM    2  C   UNL     1      -8.318  14.725  67.837  1.00  0.00    -0.149 C  
HETATM    3  N   UNL     1      -8.349  15.726  68.843  1.00  0.00    -0.196 N  
HETATM    4  C   UNL     1     -12.065  13.146  70.368  1.00  0.00    -0.392 C  
HETATM    5  C   UNL     1      -9.548  15.506  69.677  1.00  0.00    -0.262 C  
HETATM    6  C   UNL     1     -10.629  16.580  69.724  1.00  0.00    -0.265 C  
HETATM    7  N   UNL     1      -9.617  14.168  67.717  1.00  0.00    -0.214 N  
HETATM    8  C   UNL     1     -10.148  14.227  69.071  1.00  0.00    -0.123 C  
HETATM    9  S   UNL     1     -12.283  15.812  69.747  1.00  0.00    -0.094 S  
HETATM   10  C   UNL     1     -11.664  14.142  69.271  1.00  0.00    -0.323 C  
HETATM   11  C   UNL     1     -12.393  15.251  71.481  1.00  0.00    -0.352 C  
HETATM   12  C   UNL     1     -12.988  13.857  71.343  1.00  0.00    -0.430 C  
ENDROOT
BRANCH   3  13
HETATM   13  C   UNL     1      -7.904  17.004  68.316  1.00  0.00    -0.216 C  
BRANCH  13  14
HETATM   14  C   UNL     1      -8.936  17.938  67.774  1.00  0.00    -0.254 A  
HETATM   15  C   UNL     1     -10.390  18.598  65.946  1.00  0.00    -0.358 A  
HETATM   16  C   UNL     1      -9.993  20.122  67.775  1.00  0.00    -0.549 A  
HETATM   17  C   UNL     1      -9.549  17.661  66.545  1.00  0.00    -0.301 A  
HETATM   18  C   UNL     1      -9.154  19.183  68.378  1.00  0.00    -0.405 A  
HETATM   19  C   UNL     1     -10.614  19.826  66.563  1.00  0.00    -0.580 A  
ENDBRANCH  13  14
ENDBRANCH   3  13
BRANCH   7  20
HETATM   20  C   UNL     1     -10.422  14.762  66.640  1.00  0.00    -0.286 C  
BRANCH  20  21
HETATM   21  C   UNL     1     -10.978  13.849  65.575  1.00  0.00    -0.302 A  
HETATM   22  C   UNL     1     -10.182  13.276  64.577  1.00  0.00    -0.332 A  
HETATM   23  C   UNL     1     -10.750  12.482  63.581  1.00  0.00    -0.469 A  
HETATM   24  C   UNL     1     -12.112  12.203  63.608  1.00  0.00    -0.648 A  
HETATM   25  C   UNL     1     -12.907  12.711  64.632  1.00  0.00    -0.361 A  
HETATM   26  C   UNL     1     -12.344  13.521  65.616  1.00  0.00    -0.522 A  
ENDBRANCH  20  21
ENDBRANCH   7  20
TORSDOF 4
ENDMDL
MODEL       26
REMARK 921   NORMALIZED FREE ENERGY PREDICTED BY IDOCK:   -6.10 KCAL/MOL
REMARK 922        TOTAL FREE ENERGY PREDICTED BY IDOCK:   -8.26 KCAL/MOL
REMARK 923 INTER-LIGAND FREE ENERGY PREDICTED BY IDOCK:   -7.43 KCAL/MOL
REMARK 924 INTRA-LIGAND FREE ENERGY PREDICTED BY IDOCK:   -0.83 KCAL/MOL
REMARK 927      BINDING AFFINITY PREDICTED BY RF-SCORE:    0.00 PKD
ROOT
HETATM    1  O   UNL     1     -12.152  11.406  68.255  1.00  0.00    -0.606 OA 
HETATM    2  C   UNL     1     -11.343  10.633  67.772  1.00  0.00    -0.244 C  
HETATM    3  N   UNL     1     -10.580  10.894  66.605  1.00  0.00    -0.254 N  
HETATM    4  C   UNL     1     -10.063   6.148  66.683  1.00  0.00    -0.218 C  
HETATM    5  C   UNL     1      -9.957   9.628  66.168  1.00  0.00    -0.276 C  
HETATM    6  C   UNL     1      -8.437   9.515  66.147  1.00  0.00    -0.120 C  
HETATM    7  N   UNL     1     -10.900   9.409  68.336  1.00  0.00    -0.158 N  
HETATM    8  C   UNL     1     -10.513   8.613  67.179  1.00  0.00    -0.289 C  
HETATM    9  S   UNL     1      -7.917   7.861  66.712  1.00  0.00    -0.108 S  
HETATM   10  C   UNL     1      -9.574   7.421  67.388  1.00  0.00    -0.148 C  
HETATM   11  C   UNL     1      -8.276   6.849  65.235  1.00  0.00    -0.129 C  
HETATM   12  C   UNL     1      -8.926   5.609  65.833  1.00  0.00    -0.160 C  
ENDROOT
BRANCH   3  13
HETATM   13  C   UNL     1      -9.914  12.180  66.697  1.00  0.00    -0.206 C  
BRANCH  13  14
HETATM   14  C   UNL     1     -10.419  13.296  65.841  1.00  0.00    -0.289 A  
HETATM   15  C   UNL     1     -10.477  15.670  65.337  1.00  0.00    -0.435 A  
HETATM   16  C   UNL     1     -12.109  14.192  64.348  1.00  0.00    -0.486 A  
HETATM   17  C   UNL     1      -9.905  14.589  66.008  1.00  0.00    -0.342 A  
HETATM   18  C   UNL     1     -11.536  13.109  65.016  1.00  0.00    -0.335 A  
HETATM   19  C   UNL     1     -11.576  15.471  64.505  1.00  0.00    -0.283 A  
ENDBRANCH  13  14
ENDBRANCH   3  13
BRANCH   7  20
HETATM   20  C   UNL     1      -9.914   9.573  69.414  1.00  0.00    -0.191 C  
BRANCH  20  21
HETATM   21  C   UNL     1     -10.192   8.917  70.744  1.00  0.00    -0.282 A  
HETATM   22  C   UNL     1      -9.185   8.627  71.672  1.00  0.00    -0.326 A  
HETATM   23  C   UNL     1      -9.483   7.970  72.865  1.00  0.00    -0.346 A  
HETATM   24  C   UNL     1     -10.801   7.649  73.170  1.00  0.00    -0.440 A  
HETATM   25  C   UNL     1     -11.823   7.991  72.289  1.00  0.00    -0.424 A  
HETATM   26  C   UNL     1     -11.524   8.629  71.087  1.00  0.00    -0.332 A  
ENDBRANCH  20  21
ENDBRANCH   7  20
TORSDOF 4
ENDMDL
MODEL       27
REMARK 921   NORMALIZED FREE ENERGY PREDICTED BY IDOCK:   -6.09 KCAL/MOL
REMARK 922        TOTAL FREE ENERGY PREDICTED BY IDOCK:   -8.25 KCAL/MOL
REMARK 923 INTER-LIGAND FREE ENERGY PREDICTED BY IDOCK:   -7.52 KCAL/MOL
REMARK 924 INTRA-LIGAND FREE ENERGY PREDICTED BY IDOCK:   -0.73 KCAL/MOL
REMARK 927      BINDING AFFINITY PREDICTED BY RF-SCORE:    0.00 PKD
ROOT
HETATM    1  O   UNL     1      -9.894  11.260  68.721  1.00  0.00    -0.205 OA 
HETATM    2  C   UNL     1     -10.189  10.310  69.425  1.00  0.00    -0.235 C  
HETATM    3  N   UNL     1     -11.038  10.384  70.559  1.00  0.00    -0.308 N  
HETATM    4  C   UNL     1      -8.925   6.226  71.585  1.00  0.00    -0.144 C  
HETATM    5  C   UNL     1     -10.909   9.121  71.315  1.00  0.00    -0.332 C  
HETATM    6  C   UNL     1     -12.130   8.223  71.477  1.00  0.00    -0.299 C  
HETATM    7  N   UNL     1      -9.874   8.948  69.185  1.00  0.00    -0.175 N  
HETATM    8  C   UNL     1      -9.839   8.359  70.516  1.00  0.00    -0.184 C  
HETATM    9  S   UNL     1     -11.649   6.469  71.338  1.00  0.00    -0.323 S  
HETATM   10  C   UNL     1      -9.979   6.840  70.652  1.00  0.00    -0.187 C  
HETATM   11  C   UNL     1     -10.888   6.176  72.971  1.00  0.00    -0.257 C  
HETATM   12  C   UNL     1      -9.642   5.376  72.619  1.00  0.00    -0.169 C  
ENDROOT
BRANCH   3  13
HETATM   13  C   UNL     1     -12.283  11.054  70.233  1.00  0.00    -0.363 C  
BRANCH  13  14
HETATM   14  C   UNL     1     -12.539  12.395  70.841  1.00  0.00    -0.337 A  
HETATM   15  C   UNL     1     -13.632  13.732  72.547  1.00  0.00    -0.680 A  
HETATM   16  C   UNL     1     -12.658  14.808  70.619  1.00  0.00    -0.414 A  
HETATM   17  C   UNL     1     -13.241  12.489  72.050  1.00  0.00    -0.524 A  
HETATM   18  C   UNL     1     -12.263  13.566  70.122  1.00  0.00    -0.400 A  
HETATM   19  C   UNL     1     -13.337  14.890  71.834  1.00  0.00    -0.458 A  
ENDBRANCH  13  14
ENDBRANCH   3  13
BRANCH   7  20
HETATM   20  C   UNL     1     -10.730   8.308  68.176  1.00  0.00    -0.033 C  
BRANCH  20  21
HETATM   21  C   UNL     1     -10.122   7.251  67.287  1.00  0.00    -0.291 A  
HETATM   22  C   UNL     1      -8.867   7.396  66.688  1.00  0.00    -0.157 A  
HETATM   23  C   UNL     1      -8.369   6.417  65.829  1.00  0.00    -0.146 A  
HETATM   24  C   UNL     1      -9.097   5.253  65.609  1.00  0.00    -0.158 A  
HETATM   25  C   UNL     1     -10.318   5.063  66.250  1.00  0.00    -0.332 A  
HETATM   26  C   UNL     1     -10.825   6.051  67.092  1.00  0.00    -0.414 A  
ENDBRANCH  20  21
ENDBRANCH   7  20
TORSDOF 4
ENDMDL
MODEL       28
REMARK 921   NORMALIZED FREE ENERGY PREDICTED BY IDOCK:   -6.08 KCAL/MOL
REMARK 922        TOTAL FREE ENERGY PREDICTED BY IDOCK:   -8.24 KCAL/MOL
REMARK 923 INTER-LIGAND FREE ENERGY PREDICTED BY IDOCK:   -7.93 KCAL/MOL
REMARK 924 INTRA-LIGAND FREE ENERGY PREDICTED BY IDOCK:   -0.31 KCAL/MOL
REMARK 927      BINDING AFFINITY PREDICTED BY RF-SCORE:    0.00 PKD
ROOT
HETATM    1  O   UNL     1      -7.602  16.350  66.318  1.00  0.00    -0.234 OA 
HETATM    2  C   UNL     1      -8.511  15.955  67.027  1.00  0.00    -0.217 C  
HETATM    3  N   UNL     1      -8.975  16.626  68.188  1.00  0.00    -0.205 N  
HETATM    4  C   UNL     1     -10.825  12.325  69.128  1.00  0.00    -0.149 C  
HETATM    5  C   UNL     1      -9.856  15.703  68.933  1.00  0.00    -0.219 C  
HETATM    6  C   UNL     1     -11.323  16.069  69.130  1.00  0.00    -0.352 C  
HETATM    7  N   UNL     1      -9.367  14.852  66.771  1.00  0.00    -0.236 N  
HETATM    8  C   UNL     1      -9.777  14.415  68.098  1.00  0.00    -0.223 C  
HETATM    9  S   UNL     1     -12.373  14.587  68.968  1.00  0.00     0.028 S  
HETATM   10  C   UNL     1     -11.036  13.553  68.232  1.00  0.00    -0.261 C  
HETATM   11  C   UNL     1     -12.088  13.770  70.576  1.00  0.00    -0.345 C  
HETATM   12  C   UNL     1     -11.919  12.309  70.181  1.00  0.00    -0.377 C  
ENDROOT
BRANCH   3  13
HETATM   13  C   UNL     1      -9.255  18.021  67.904  1.00  0.00    -0.268 C  
BRANCH  13  14
HETATM   14  C   UNL     1      -8.114  18.986  67.935  1.00  0.00    -0.309 A  
HETATM   15  C   UNL     1      -6.340  20.071  69.188  1.00  0.00    -0.360 A  
HETATM   16  C   UNL     1      -7.007  20.952  67.041  1.00  0.00    -0.393 A  
HETATM   17  C   UNL     1      -7.302  19.068  69.075  1.00  0.00    -0.341 A  
HETATM   18  C   UNL     1      -7.968  19.946  66.925  1.00  0.00    -0.339 A  
HETATM   19  C   UNL     1      -6.191  21.010  68.170  1.00  0.00    -0.356 A  
ENDBRANCH  13  14
ENDBRANCH   3  13
BRANCH   7  20
HETATM   20  C   UNL     1     -10.422  15.133  65.787  1.00  0.00    -0.339 C  
BRANCH  20  21
HETATM   21  C   UNL     1     -10.982  13.982  64.989  1.00  0.00    -0.379 A  
HETATM   22  C   UNL     1     -10.200  13.208  64.125  1.00  0.00    -0.189 A  
HETATM   23  C   UNL     1     -10.772  12.188  63.365  1.00  0.00    -0.461 A  
HETATM   24  C   UNL     1     -12.123  11.893  63.508  1.00  0.00    -0.575 A  
HETATM   25  C   UNL     1     -12.902  12.609  64.413  1.00  0.00    -0.344 A  
HETATM   26  C   UNL     1     -12.335  13.641  65.157  1.00  0.00    -0.486 A  
ENDBRANCH  20  21
ENDBRANCH   7  20
TORSDOF 4
ENDMDL
MODEL       29
REMARK 921   NORMALIZED FREE ENERGY PREDICTED BY IDOCK:   -6.08 KCAL/MOL
REMARK 922        TOTAL FREE ENERGY PREDICTED BY IDOCK:   -8.23 KCAL/MOL
REMARK 923 INTER-LIGAND FREE ENERGY PREDICTED BY IDOCK:   -7.54 KCAL/MOL
REMARK 924 INTRA-LIGAND FREE ENERGY PREDICTED BY IDOCK:   -0.70 KCAL/MOL
REMARK 927      BINDING AFFINITY PREDICTED BY RF-SCORE:    0.00 PKD
ROOT
HETATM    1  O   UNL     1     -12.697  13.521  66.465  1.00  0.00    -0.217 OA 
HETATM    2  C   UNL     1     -11.797  12.700  66.437  1.00  0.00    -0.402 C  
HETATM    3  N   UNL     1     -10.724  12.714  65.509  1.00  0.00    -0.269 N  
HETATM    4  C   UNL     1     -10.339   8.160  66.891  1.00  0.00    -0.401 C  
HETATM    5  C   UNL     1     -10.024  11.416  65.592  1.00  0.00    -0.240 C  
HETATM    6  C   UNL     1      -8.566  11.383  66.034  1.00  0.00    -0.094 C  
HETATM    7  N   UNL     1     -11.559  11.672  67.386  1.00  0.00    -0.288 N  
HETATM    8  C   UNL     1     -10.868  10.644  66.619  1.00  0.00    -0.131 C  
HETATM    9  S   UNL     1      -8.262   9.943  67.111  1.00  0.00    -0.121 S  
HETATM   10  C   UNL     1     -10.052   9.589  67.372  1.00  0.00    -0.208 C  
HETATM   11  C   UNL     1      -8.197   8.588  65.887  1.00  0.00    -0.125 C  
HETATM   12  C   UNL     1      -9.015   7.494  66.559  1.00  0.00    -0.189 C  
ENDROOT
BRANCH   3  13
HETATM   13  C   UNL     1     -10.089  14.019  65.470  1.00  0.00    -0.320 C  
BRANCH  13  14
HETATM   14  C   UNL     1      -9.848  14.722  66.766  1.00  0.00    -0.263 A  
HETATM   15  C   UNL     1     -10.286  16.617  68.219  1.00  0.00    -0.304 A  
HETATM   16  C   UNL     1      -8.425  15.152  68.684  1.00  0.00    -0.170 A  
HETATM   17  C   UNL     1     -10.606  15.854  67.096  1.00  0.00    -0.316 A  
HETATM   18  C   UNL     1      -8.745  14.385  67.563  1.00  0.00    -0.203 A  
HETATM   19  C   UNL     1      -9.199  16.264  69.014  1.00  0.00    -0.253 A  
ENDBRANCH  13  14
ENDBRANCH   3  13
BRANCH   7  20
HETATM   20  C   UNL     1     -10.924  12.142  68.626  1.00  0.00    -0.245 C  
BRANCH  20  21
HETATM   21  C   UNL     1     -11.808  12.445  69.811  1.00  0.00    -0.387 A  
HETATM   22  C   UNL     1     -12.303  11.450  70.662  1.00  0.00    -0.466 A  
HETATM   23  C   UNL     1     -13.161  11.773  71.712  1.00  0.00    -0.480 A  
HETATM   24  C   UNL     1     -13.484  13.102  71.960  1.00  0.00    -0.598 A  
HETATM   25  C   UNL     1     -12.946  14.110  71.165  1.00  0.00    -0.419 A  
HETATM   26  C   UNL     1     -12.105  13.787  70.102  1.00  0.00    -0.429 A  
ENDBRANCH  20  21
ENDBRANCH   7  20
TORSDOF 4
ENDMDL
MODEL       30
REMARK 921   NORMALIZED FREE ENERGY PREDICTED BY IDOCK:   -6.08 KCAL/MOL
REMARK 922        TOTAL FREE ENERGY PREDICTED BY IDOCK:   -8.23 KCAL/MOL
REMARK 923 INTER-LIGAND FREE ENERGY PREDICTED BY IDOCK:   -7.88 KCAL/MOL
REMARK 924 INTRA-LIGAND FREE ENERGY PREDICTED BY IDOCK:   -0.35 KCAL/MOL
REMARK 927      BINDING AFFINITY PREDICTED BY RF-SCORE:    0.00 PKD
ROOT
HETATM    1  O   UNL     1      -8.535  13.960  69.549  1.00  0.00     0.513 OA 
HETATM    2  C   UNL     1      -8.762  14.938  68.858  1.00  0.00    -0.180 C  
HETATM    3  N   UNL     1      -8.200  15.163  67.575  1.00  0.00    -0.164 N  
HETATM    4  C   UNL     1      -9.541  19.650  68.507  1.00  0.00    -0.467 C  
HETATM    5  C   UNL     1      -8.463  16.567  67.197  1.00  0.00    -0.181 C  
HETATM    6  C   UNL     1      -9.322  16.859  65.972  1.00  0.00    -0.179 C  
HETATM    7  N   UNL     1      -9.718  15.954  69.117  1.00  0.00    -0.234 N  
HETATM    8  C   UNL     1      -9.173  17.123  68.441  1.00  0.00    -0.266 C  
HETATM    9  S   UNL     1     -10.411  18.288  66.287  1.00  0.00    -0.366 S  
HETATM   10  C   UNL     1     -10.115  18.284  68.107  1.00  0.00    -0.379 C  
HETATM   11  C   UNL     1      -9.236  19.676  66.123  1.00  0.00    -0.340 C  
HETATM   12  C   UNL     1      -9.609  20.568  67.299  1.00  0.00    -0.580 C  
ENDROOT
BRANCH   3  13
HETATM   13  C   UNL     1      -8.380  14.005  66.719  1.00  0.00     0.105 C  
BRANCH  13  14
HETATM   14  C   UNL     1      -9.774  13.611  66.354  1.00  0.00    -0.300 A  
HETATM   15  C   UNL     1     -11.576  11.988  66.469  1.00  0.00    -0.384 A  
HETATM   16  C   UNL     1     -11.676  13.782  64.857  1.00  0.00    -0.378 A  
HETATM   17  C   UNL     1     -10.344  12.462  66.919  1.00  0.00    -0.240 A  
HETATM   18  C   UNL     1     -10.445  14.260  65.308  1.00  0.00    -0.408 A  
HETATM   19  C   UNL     1     -12.243  12.650  65.441  1.00  0.00    -0.517 A  
ENDBRANCH  13  14
ENDBRANCH   3  13
BRANCH   7  20
HETATM   20  C   UNL     1     -11.101  15.565  68.804  1.00  0.00    -0.291 C  
BRANCH  20  21
HETATM   21  C   UNL     1     -11.954  14.999  69.912  1.00  0.00    -0.374 A  
HETATM   22  C   UNL     1     -12.764  15.797  70.727  1.00  0.00    -0.388 A  
HETATM   23  C   UNL     1     -13.493  15.237  71.775  1.00  0.00    -0.558 A  
HETATM   24  C   UNL     1     -13.466  13.862  71.981  1.00  0.00    -0.543 A  
HETATM   25  C   UNL     1     -12.718  13.045  71.138  1.00  0.00    -0.372 A  
HETATM   26  C   UNL     1     -11.973  13.607  70.103  1.00  0.00    -0.407 A  
ENDBRANCH  20  21
ENDBRANCH   7  20
TORSDOF 4
ENDMDL
MODEL       31
REMARK 921   NORMALIZED FREE ENERGY PREDICTED BY IDOCK:   -6.08 KCAL/MOL
REMARK 922        TOTAL FREE ENERGY PREDICTED BY IDOCK:   -8.23 KCAL/MOL
REMARK 923 INTER-LIGAND FREE ENERGY PREDICTED BY IDOCK:   -7.47 KCAL/MOL
REMARK 924 INTRA-LIGAND FREE ENERGY PREDICTED BY IDOCK:   -0.76 KCAL/MOL
REMARK 927      BINDING AFFINITY PREDICTED BY RF-SCORE:    0.00 PKD
ROOT
HETATM    1  O   UNL     1      -9.845  12.608  68.094  1.00  0.00    -0.215 OA 
HETATM    2  C   UNL     1      -9.937  11.492  68.576  1.00  0.00    -0.204 C  
HETATM    3  N   UNL     1     -10.651  11.186  69.762  1.00  0.00    -0.036 N  
HETATM    4  C   UNL     1      -7.938   7.260  69.595  1.00  0.00    -0.127 C  
HETATM    5  C   UNL     1     -10.281   9.819  70.184  1.00  0.00    -0.275 C  
HETATM    6  C   UNL     1     -11.355   8.738  70.231  1.00  0.00    -0.147 C  
HETATM    7  N   UNL     1      -9.486  10.278  67.995  1.00  0.00    -0.145 N  
HETATM    8  C   UNL     1      -9.225   9.420  69.141  1.00  0.00    -0.155 C  
HETATM    9  S   UNL     1     -10.682   7.149  69.642  1.00  0.00    -0.233 S  
HETATM   10  C   UNL     1      -9.160   7.905  68.926  1.00  0.00    -0.141 C  
HETATM   11  C   UNL     1      -9.706   6.615  71.090  1.00  0.00    -0.174 C  
HETATM   12  C   UNL     1      -8.420   6.105  70.455  1.00  0.00    -0.133 C  
ENDROOT
BRANCH   3  13
HETATM   13  C   UNL     1     -11.999  11.722  69.710  1.00  0.00    -0.322 C  
BRANCH  13  14
HETATM   14  C   UNL     1     -12.326  12.888  70.585  1.00  0.00    -0.385 A  
HETATM   15  C   UNL     1     -13.509  13.779  72.509  1.00  0.00    -0.682 A  
HETATM   16  C   UNL     1     -12.547  15.285  70.887  1.00  0.00    -0.471 A  
HETATM   17  C   UNL     1     -13.055  12.689  71.766  1.00  0.00    -0.461 A  
HETATM   18  C   UNL     1     -12.088  14.196  70.144  1.00  0.00    -0.411 A  
HETATM   19  C   UNL     1     -13.252  15.075  72.071  1.00  0.00    -0.457 A  
ENDBRANCH  13  14
ENDBRANCH   3  13
BRANCH   7  20
HETATM   20  C   UNL     1     -10.369   9.760  66.939  1.00  0.00    -0.234 C  
BRANCH  20  21
HETATM   21  C   UNL     1     -10.107  10.184  65.515  1.00  0.00    -0.338 A  
HETATM   22  C   UNL     1     -10.748  11.276  64.919  1.00  0.00    -0.337 A  
HETATM   23  C   UNL     1     -10.514  11.597  63.582  1.00  0.00    -0.483 A  
HETATM   24  C   UNL     1      -9.591  10.865  62.844  1.00  0.00    -0.371 A  
HETATM   25  C   UNL     1      -8.894   9.817  63.441  1.00  0.00    -0.258 A  
HETATM   26  C   UNL     1      -9.142   9.483  64.771  1.00  0.00    -0.271 A  
ENDBRANCH  20  21
ENDBRANCH   7  20
TORSDOF 4
ENDMDL
MODEL       32
REMARK 921   NORMALIZED FREE ENERGY PREDICTED BY IDOCK:   -6.07 KCAL/MOL
REMARK 922        TOTAL FREE ENERGY PREDICTED BY IDOCK:   -8.22 KCAL/MOL
REMARK 923 INTER-LIGAND FREE ENERGY PREDICTED BY IDOCK:   -7.39 KCAL/MOL
REMARK 924 INTRA-LIGAND FREE ENERGY PREDICTED BY IDOCK:   -0.83 KCAL/MOL
REMARK 927      BINDING AFFINITY PREDICTED BY RF-SCORE:    0.00 PKD
ROOT
HETATM    1  O   UNL     1     -12.275  11.263  68.443  1.00  0.00    -0.604 OA 
HETATM    2  C   UNL     1     -11.360  10.645  67.928  1.00  0.00    -0.268 C  
HETATM    3  N   UNL     1     -10.618  11.094  66.806  1.00  0.00    -0.252 N  
HETATM    4  C   UNL     1      -9.466   6.467  66.549  1.00  0.00    -0.190 C  
HETATM    5  C   UNL     1      -9.822   9.959  66.295  1.00  0.00    -0.245 C  
HETATM    6  C   UNL     1      -8.300  10.052  66.310  1.00  0.00    -0.127 C  
HETATM    7  N   UNL     1     -10.767   9.451  68.413  1.00  0.00    -0.201 N  
HETATM    8  C   UNL     1     -10.254   8.805  67.213  1.00  0.00    -0.263 C  
HETATM    9  S   UNL     1      -7.572   8.444  66.766  1.00  0.00    -0.091 S  
HETATM   10  C   UNL     1      -9.167   7.736  67.360  1.00  0.00    -0.136 C  
HETATM   11  C   UNL     1      -7.764   7.509  65.210  1.00  0.00    -0.112 C  
HETATM   12  C   UNL     1      -8.251   6.151  65.695  1.00  0.00    -0.141 C  
ENDROOT
BRANCH   3  13
HETATM   13  C   UNL     1     -10.134  12.447  67.012  1.00  0.00    -0.214 C  
BRANCH  13  14
HETATM   14  C   UNL     1     -10.731  13.540  66.186  1.00  0.00    -0.289 A  
HETATM   15  C   UNL     1     -12.269  14.224  64.437  1.00  0.00    -0.471 A  
HETATM   16  C   UNL     1     -10.567  15.753  65.205  1.00  0.00    -0.446 A  
HETATM   17  C   UNL     1     -11.807  13.260  65.333  1.00  0.00    -0.392 A  
HETATM   18  C   UNL     1     -10.105  14.791  66.105  1.00  0.00    -0.312 A  
HETATM   19  C   UNL     1     -11.652  15.470  64.376  1.00  0.00    -0.258 A  
ENDBRANCH  13  14
ENDBRANCH   3  13
BRANCH   7  20
HETATM   20  C   UNL     1      -9.832   9.662  69.529  1.00  0.00    -0.206 C  
BRANCH  20  21
HETATM   21  C   UNL     1     -10.126   8.987  70.846  1.00  0.00    -0.329 A  
HETATM   22  C   UNL     1      -9.131   8.685  71.781  1.00  0.00    -0.317 A  
HETATM   23  C   UNL     1      -9.443   8.012  72.962  1.00  0.00    -0.345 A  
HETATM   24  C   UNL     1     -10.765   7.687  73.247  1.00  0.00    -0.409 A  
HETATM   25  C   UNL     1     -11.776   8.040  72.357  1.00  0.00    -0.444 A  
HETATM   26  C   UNL     1     -11.462   8.695  71.168  1.00  0.00    -0.332 A  
ENDBRANCH  20  21
ENDBRANCH   7  20
TORSDOF 4
ENDMDL
MODEL       33
REMARK 921   NORMALIZED FREE ENERGY PREDICTED BY IDOCK:   -6.04 KCAL/MOL
REMARK 922        TOTAL FREE ENERGY PREDICTED BY IDOCK:   -8.19 KCAL/MOL
REMARK 923 INTER-LIGAND FREE ENERGY PREDICTED BY IDOCK:   -7.33 KCAL/MOL
REMARK 924 INTRA-LIGAND FREE ENERGY PREDICTED BY IDOCK:   -0.85 KCAL/MOL
REMARK 927      BINDING AFFINITY PREDICTED BY RF-SCORE:    0.00 PKD
ROOT
HETATM    1  O   UNL     1     -10.798   8.412  67.295  1.00  0.00    -0.225 OA 
HETATM    2  C   UNL     1     -10.761   9.624  67.166  1.00  0.00    -0.188 C  
HETATM    3  N   UNL     1     -11.131  10.551  68.173  1.00  0.00    -0.273 N  
HETATM    4  C   UNL     1     -11.401  13.502  64.429  1.00  0.00    -0.407 C  
HETATM    5  C   UNL     1     -11.244  11.887  67.552  1.00  0.00    -0.296 C  
HETATM    6  C   UNL     1     -10.313  13.003  68.012  1.00  0.00    -0.234 C  
HETATM    7  N   UNL     1     -10.220  10.342  66.068  1.00  0.00    -0.248 N  
HETATM    8  C   UNL     1     -10.966  11.592  66.069  1.00  0.00    -0.286 C  
HETATM    9  S   UNL     1      -9.783  14.012  66.589  1.00  0.00    -0.297 S  
HETATM   10  C   UNL     1     -10.378  12.800  65.334  1.00  0.00    -0.293 C  
HETATM   11  C   UNL     1     -11.276  15.020  66.289  1.00  0.00    -0.309 C  
HETATM   12  C   UNL     1     -11.404  14.981  64.772  1.00  0.00    -0.409 C  
ENDROOT
BRANCH   3  13
HETATM   13  C   UNL     1     -10.461  10.252  69.426  1.00  0.00    -0.236 C  
BRANCH  13  14
HETATM   14  C   UNL     1     -11.303   9.864  70.598  1.00  0.00    -0.413 A  
HETATM   15  C   UNL     1     -12.006   8.166  72.184  1.00  0.00    -0.413 A  
HETATM   16  C   UNL     1     -13.282  10.203  71.960  1.00  0.00    -0.534 A  
HETATM   17  C   UNL     1     -11.124   8.611  71.200  1.00  0.00    -0.324 A  
HETATM   18  C   UNL     1     -12.398  10.651  70.977  1.00  0.00    -0.507 A  
HETATM   19  C   UNL     1     -13.082   8.964  72.566  1.00  0.00    -0.426 A  
ENDBRANCH  13  14
ENDBRANCH   3  13
BRANCH   7  20
HETATM   20  C   UNL     1      -8.752  10.422  66.074  1.00  0.00    -0.152 C  
BRANCH  20  21
HETATM   21  C   UNL     1      -8.009  10.046  64.815  1.00  0.00    -0.144 A  
HETATM   22  C   UNL     1      -6.620  10.160  64.692  1.00  0.00    -0.125 A  
HETATM   23  C   UNL     1      -5.983   9.852  63.491  1.00  0.00    -0.119 A  
HETATM   24  C   UNL     1      -6.724   9.370  62.417  1.00  0.00    -0.094 A  
HETATM   25  C   UNL     1      -8.098   9.187  62.544  1.00  0.00    -0.146 A  
HETATM   26  C   UNL     1      -8.738   9.514  63.738  1.00  0.00    -0.237 A  
ENDBRANCH  20  21
ENDBRANCH   7  20
TORSDOF 4
ENDMDL
MODEL       34
REMARK 921   NORMALIZED FREE ENERGY PREDICTED BY IDOCK:   -6.02 KCAL/MOL
REMARK 922        TOTAL FREE ENERGY PREDICTED BY IDOCK:   -8.16 KCAL/MOL
REMARK 923 INTER-LIGAND FREE ENERGY PREDICTED BY IDOCK:   -7.48 KCAL/MOL
REMARK 924 INTRA-LIGAND FREE ENERGY PREDICTED BY IDOCK:   -0.68 KCAL/MOL
REMARK 927      BINDING AFFINITY PREDICTED BY RF-SCORE:    0.00 PKD
ROOT
HETATM    1  O   UNL     1     -11.239  15.691  65.920  1.00  0.00    -0.214 OA 
HETATM    2  C   UNL     1     -11.500  15.268  67.033  1.00  0.00    -0.167 C  
HETATM    3  N   UNL     1     -11.455  13.899  67.403  1.00  0.00    -0.329 N  
HETATM    4  C   UNL     1     -14.179  15.465  70.998  1.00  0.00    -0.189 C  
HETATM    5  C   UNL     1     -12.121  13.754  68.714  1.00  0.00    -0.309 C  
HETATM    6  C   UNL     1     -11.312  13.260  69.909  1.00  0.00     0.003 C  
HETATM    7  N   UNL     1     -11.755  16.041  68.195  1.00  0.00    -0.188 N  
HETATM    8  C   UNL     1     -12.608  15.182  69.004  1.00  0.00     0.264 C  
HETATM    9  S   UNL     1     -11.800  14.160  71.418  1.00  0.00     0.207 S  
HETATM   10  C   UNL     1     -12.725  15.466  70.505  1.00  0.00    -0.405 C  
HETATM   11  C   UNL     1     -13.386  13.350  71.821  1.00  0.00    -0.394 C  
HETATM   12  C   UNL     1     -14.277  14.529  72.190  1.00  0.00    -0.619 C  
ENDROOT
BRANCH   3  13
HETATM   13  C   UNL     1     -10.188  13.301  67.024  1.00  0.00    -0.244 C  
BRANCH  13  14
HETATM   14  C   UNL     1     -10.182  12.333  65.885  1.00  0.00    -0.274 A  
HETATM   15  C   UNL     1      -9.643  10.125  65.033  1.00  0.00    -0.362 A  
HETATM   16  C   UNL     1     -10.171  11.909  63.496  1.00  0.00    -0.485 A  
HETATM   17  C   UNL     1      -9.814  10.999  66.106  1.00  0.00    -0.268 A  
HETATM   18  C   UNL     1     -10.345  12.785  64.568  1.00  0.00    -0.373 A  
HETATM   19  C   UNL     1      -9.825  10.579  63.730  1.00  0.00    -0.363 A  
ENDBRANCH  13  14
ENDBRANCH   3  13
BRANCH   7  20
HETATM   20  C   UNL     1     -10.544  16.590  68.823  1.00  0.00    -0.322 C  
BRANCH  20  21
HETATM   21  C   UNL     1      -9.959  17.862  68.260  1.00  0.00    -0.360 A  
HETATM   22  C   UNL     1     -10.734  18.831  67.614  1.00  0.00    -0.449 A  
HETATM   23  C   UNL     1     -10.141  19.966  67.061  1.00  0.00    -0.578 A  
HETATM   24  C   UNL     1      -8.773  20.171  67.201  1.00  0.00    -0.427 A  
HETATM   25  C   UNL     1      -7.997  19.249  67.898  1.00  0.00    -0.327 A  
HETATM   26  C   UNL     1      -8.586  18.105  68.434  1.00  0.00    -0.310 A  
ENDBRANCH  20  21
ENDBRANCH   7  20
TORSDOF 4
ENDMDL
MODEL       35
REMARK 921   NORMALIZED FREE ENERGY PREDICTED BY IDOCK:   -5.87 KCAL/MOL
REMARK 922        TOTAL FREE ENERGY PREDICTED BY IDOCK:   -7.98 KCAL/MOL
REMARK 923 INTER-LIGAND FREE ENERGY PREDICTED BY IDOCK:   -7.22 KCAL/MOL
REMARK 924 INTRA-LIGAND FREE ENERGY PREDICTED BY IDOCK:   -0.76 KCAL/MOL
REMARK 927      BINDING AFFINITY PREDICTED BY RF-SCORE:    0.00 PKD
ROOT
HETATM    1  O   UNL     1      -8.206  10.216  69.749  1.00  0.00    -0.172 OA 
HETATM    2  C   UNL     1      -8.707  10.721  68.759  1.00  0.00    -0.163 C  
HETATM    3  N   UNL     1      -8.195  10.588  67.443  1.00  0.00    -0.117 N  
HETATM    4  C   UNL     1     -10.945  14.419  66.697  1.00  0.00    -0.318 C  
HETATM    5  C   UNL     1      -8.880  11.572  66.580  1.00  0.00    -0.187 C  
HETATM    6  C   UNL     1      -9.736  11.076  65.420  1.00  0.00    -0.232 C  
HETATM    7  N   UNL     1      -9.949  11.404  68.693  1.00  0.00    -0.207 N  
HETATM    8  C   UNL     1      -9.782  12.321  67.574  1.00  0.00    -0.190 C  
HETATM    9  S   UNL     1     -11.238  12.098  65.260  1.00  0.00    -0.331 S  
HETATM   10  C   UNL     1     -11.032  12.901  66.906  1.00  0.00    -0.266 C  
HETATM   11  C   UNL     1     -10.567  13.600  64.469  1.00  0.00    -0.411 C  
HETATM   12  C   UNL     1     -11.255  14.718  65.241  1.00  0.00    -0.366 C  
ENDROOT
BRANCH   3  13
HETATM   13  C   UNL     1      -7.957   9.194  67.117  1.00  0.00    -0.106 C  
BRANCH  13  14
HETATM   14  C   UNL     1      -8.988   8.192  67.523  1.00  0.00    -0.143 A  
HETATM   15  C   UNL     1      -9.606   6.272  68.875  1.00  0.00    -0.135 A  
HETATM   16  C   UNL     1     -11.000   6.932  67.018  1.00  0.00    -0.404 A  
HETATM   17  C   UNL     1      -8.729   7.317  68.588  1.00  0.00    -0.127 A  
HETATM   18  C   UNL     1     -10.125   7.981  66.731  1.00  0.00    -0.357 A  
HETATM   19  C   UNL     1     -10.742   6.082  68.093  1.00  0.00    -0.353 A  
ENDBRANCH  13  14
ENDBRANCH   3  13
BRANCH   7  20
HETATM   20  C   UNL     1     -11.119  10.514  68.680  1.00  0.00    -0.267 C  
BRANCH  20  21
HETATM   21  C   UNL     1     -11.718  10.100  70.002  1.00  0.00    -0.294 A  
HETATM   22  C   UNL     1     -11.411   8.887  70.627  1.00  0.00    -0.299 A  
HETATM   23  C   UNL     1     -12.031   8.523  71.821  1.00  0.00    -0.393 A  
HETATM   24  C   UNL     1     -12.922   9.397  72.434  1.00  0.00    -0.427 A  
HETATM   25  C   UNL     1     -13.189  10.636  71.860  1.00  0.00    -0.528 A  
HETATM   26  C   UNL     1     -12.584  10.992  70.656  1.00  0.00    -0.427 A  
ENDBRANCH  20  21
ENDBRANCH   7  20
TORSDOF 4
ENDMDL
MODEL       36
REMARK 921   NORMALIZED FREE ENERGY PREDICTED BY IDOCK:   -5.86 KCAL/MOL
REMARK 922        TOTAL FREE ENERGY PREDICTED BY IDOCK:   -7.97 KCAL/MOL
REMARK 923 INTER-LIGAND FREE ENERGY PREDICTED BY IDOCK:   -7.21 KCAL/MOL
REMARK 924 INTRA-LIGAND FREE ENERGY PREDICTED BY IDOCK:   -0.75 KCAL/MOL
REMARK 927      BINDING AFFINITY PREDICTED BY RF-SCORE:    0.00 PKD
ROOT
HETATM    1  O   UNL     1     -12.233  11.468  70.163  1.00  0.00    -0.317 OA 
HETATM    2  C   UNL     1     -11.180  11.131  69.650  1.00  0.00    -0.264 C  
HETATM    3  N   UNL     1     -10.386  10.040  70.088  1.00  0.00    -0.274 N  
HETATM    4  C   UNL     1      -7.034  12.326  67.570  1.00  0.00    -0.142 C  
HETATM    5  C   UNL     1      -9.066  10.136  69.431  1.00  0.00    -0.203 C  
HETATM    6  C   UNL     1      -8.621   9.023  68.488  1.00  0.00    -0.129 C  
HETATM    7  N   UNL     1     -10.615  11.648  68.456  1.00  0.00    -0.208 N  
HETATM    8  C   UNL     1      -9.184  11.443  68.630  1.00  0.00    -0.146 C  
HETATM    9  S   UNL     1      -7.742   9.723  67.052  1.00  0.00    -0.095 S  
HETATM   10  C   UNL     1      -8.284  11.452  67.391  1.00  0.00    -0.145 C  
HETATM   11  C   UNL     1      -6.116  10.115  67.784  1.00  0.00    -0.056 C  
HETATM   12  C   UNL     1      -5.816  11.493  67.211  1.00  0.00    -0.095 C  
ENDROOT
BRANCH   3  13
HETATM   13  C   UNL     1     -11.184   8.835  70.216  1.00  0.00    -0.195 C  
BRANCH  13  14
HETATM   14  C   UNL     1     -10.843   7.878  71.312  1.00  0.00    -0.263 A  
HETATM   15  C   UNL     1     -11.319   5.812  72.495  1.00  0.00    -0.358 A  
HETATM   16  C   UNL     1      -9.837   7.445  73.477  1.00  0.00    -0.363 A  
HETATM   17  C   UNL     1     -11.504   6.645  71.391  1.00  0.00    -0.349 A  
HETATM   18  C   UNL     1     -10.018   8.278  72.372  1.00  0.00    -0.379 A  
HETATM   19  C   UNL     1     -10.484   6.211  73.535  1.00  0.00    -0.279 A  
ENDBRANCH  13  14
ENDBRANCH   3  13
BRANCH   7  20
HETATM   20  C   UNL     1     -11.237  11.128  67.229  1.00  0.00    -0.277 C  
BRANCH  20  21
HETATM   21  C   UNL     1     -11.535  12.097  66.111  1.00  0.00    -0.429 A  
HETATM   22  C   UNL     1     -12.220  13.299  66.313  1.00  0.00    -0.440 A  
HETATM   23  C   UNL     1     -12.521  14.138  65.240  1.00  0.00    -0.474 A  
HETATM   24  C   UNL     1     -12.085  13.810  63.961  1.00  0.00    -0.448 A  
HETATM   25  C   UNL     1     -11.344  12.650  63.753  1.00  0.00    -0.529 A  
HETATM   26  C   UNL     1     -11.061  11.802  64.822  1.00  0.00    -0.356 A  
ENDBRANCH  20  21
ENDBRANCH   7  20
TORSDOF 4
ENDMDL
MODEL       37
REMARK 921   NORMALIZED FREE ENERGY PREDICTED BY IDOCK:   -5.85 KCAL/MOL
REMARK 922        TOTAL FREE ENERGY PREDICTED BY IDOCK:   -7.95 KCAL/MOL
REMARK 923 INTER-LIGAND FREE ENERGY PREDICTED BY IDOCK:   -7.12 KCAL/MOL
REMARK 924 INTRA-LIGAND FREE ENERGY PREDICTED BY IDOCK:   -0.83 KCAL/MOL
REMARK 927      BINDING AFFINITY PREDICTED BY RF-SCORE:    0.00 PKD
ROOT
HETATM    1  O   UNL     1      -7.716  11.290  68.793  1.00  0.00    -0.127 OA 
HETATM    2  C   UNL     1      -8.675  11.591  68.102  1.00  0.00    -0.157 C  
HETATM    3  N   UNL     1      -9.963  11.010  68.219  1.00  0.00    -0.173 N  
HETATM    4  C   UNL     1     -10.455  12.832  63.833  1.00  0.00    -0.402 C  
HETATM    5  C   UNL     1     -10.754  11.401  67.034  1.00  0.00    -0.261 C  
HETATM    6  C   UNL     1     -12.012  12.241  67.223  1.00  0.00    -0.131 C  
HETATM    7  N   UNL     1      -8.742  12.654  67.165  1.00  0.00    -0.196 N  
HETATM    8  C   UNL     1      -9.742  12.208  66.205  1.00  0.00    -0.240 C  
HETATM    9  S   UNL     1     -12.152  13.480  65.892  1.00  0.00    -0.454 S  
HETATM   10  C   UNL     1     -10.419  13.250  65.310  1.00  0.00    -0.313 C  
HETATM   11  C   UNL     1     -12.732  12.448  64.502  1.00  0.00    -0.314 C  
HETATM   12  C   UNL     1     -11.887  12.951  63.340  1.00  0.00    -0.576 C  
ENDROOT
BRANCH   3  13
HETATM   13  C   UNL     1     -10.424  11.040  69.595  1.00  0.00    -0.023 C  
BRANCH  13  14
HETATM   14  C   UNL     1     -11.083   9.816  70.142  1.00  0.00    -0.335 A  
HETATM   15  C   UNL     1     -12.557   8.803  71.785  1.00  0.00    -0.409 A  
HETATM   16  C   UNL     1     -11.111   7.409  70.446  1.00  0.00    -0.284 A  
HETATM   17  C   UNL     1     -12.051   9.937  71.148  1.00  0.00    -0.466 A  
HETATM   18  C   UNL     1     -10.607   8.542  69.805  1.00  0.00    -0.224 A  
HETATM   19  C   UNL     1     -12.089   7.541  71.431  1.00  0.00    -0.354 A  
ENDBRANCH  13  14
ENDBRANCH   3  13
BRANCH   7  20
HETATM   20  C   UNL     1      -8.924  13.978  67.777  1.00  0.00    -0.186 C  
BRANCH  20  21
HETATM   21  C   UNL     1      -7.963  15.079  67.402  1.00  0.00    -0.218 A  
HETATM   22  C   UNL     1      -6.617  15.072  67.783  1.00  0.00    -0.189 A  
HETATM   23  C   UNL     1      -5.779  16.138  67.459  1.00  0.00    -0.173 A  
HETATM   24  C   UNL     1      -6.265  17.196  66.698  1.00  0.00    -0.250 A  
HETATM   25  C   UNL     1      -7.584  17.186  66.254  1.00  0.00    -0.352 A  
HETATM   26  C   UNL     1      -8.428  16.131  66.594  1.00  0.00    -0.315 A  
ENDBRANCH  20  21
ENDBRANCH   7  20
TORSDOF 4
ENDMDL
MODEL       38
REMARK 921   NORMALIZED FREE ENERGY PREDICTED BY IDOCK:   -5.82 KCAL/MOL
REMARK 922        TOTAL FREE ENERGY PREDICTED BY IDOCK:   -7.92 KCAL/MOL
REMARK 923 INTER-LIGAND FREE ENERGY PREDICTED BY IDOCK:   -7.83 KCAL/MOL
REMARK 924 INTRA-LIGAND FREE ENERGY PREDICTED BY IDOCK:   -0.09 KCAL/MOL
REMARK 927      BINDING AFFINITY PREDICTED BY RF-SCORE:    0.00 PKD
ROOT
HETATM    1  O   UNL     1      -9.797  16.485  67.552  1.00  0.00    -0.241 OA 
HETATM    2  C   UNL     1     -10.115  15.385  67.969  1.00  0.00    -0.226 C  
HETATM    3  N   UNL     1     -10.560  15.124  69.291  1.00  0.00    -0.243 N  
HETATM    4  C   UNL     1      -9.385  10.653  68.096  1.00  0.00    -0.152 C  
HETATM    5  C   UNL     1     -10.552  13.662  69.500  1.00  0.00     0.252 C  
HETATM    6  C   UNL     1     -11.866  12.944  69.790  1.00  0.00    -0.310 C  
HETATM    7  N   UNL     1     -10.242  14.194  67.208  1.00  0.00    -0.254 N  
HETATM    8  C   UNL     1      -9.984  13.135  68.173  1.00  0.00    -0.234 C  
HETATM    9  S   UNL     1     -11.911  11.335  68.932  1.00  0.00    -0.315 S  
HETATM   10  C   UNL     1     -10.465  11.716  67.853  1.00  0.00    -0.192 C  
HETATM   11  C   UNL     1     -10.821  10.330  69.997  1.00  0.00    -0.307 C  
HETATM   12  C   UNL     1      -9.974   9.571  68.985  1.00  0.00    -0.185 C  
ENDROOT
BRANCH   3  13
HETATM   13  C   UNL     1     -11.631  16.029  69.666  1.00  0.00    -0.299 C  
BRANCH  13  14
HETATM   14  C   UNL     1     -12.312  15.807  70.977  1.00  0.00    -0.465 A  
HETATM   15  C   UNL     1     -14.353  15.362  72.214  1.00  0.00    -0.576 A  
HETATM   16  C   UNL     1     -12.384  16.126  73.382  1.00  0.00    -0.652 A  
HETATM   17  C   UNL     1     -13.657  15.415  71.007  1.00  0.00    -0.465 A  
HETATM   18  C   UNL     1     -11.684  16.176  72.175  1.00  0.00    -0.569 A  
HETATM   19  C   UNL     1     -13.716  15.714  73.400  1.00  0.00    -0.152 A  
ENDBRANCH  13  14
ENDBRANCH   3  13
BRANCH   7  20
HETATM   20  C   UNL     1     -11.483  14.119  66.423  1.00  0.00    -0.354 C  
BRANCH  20  21
HETATM   21  C   UNL     1     -11.490  13.273  65.174  1.00  0.00    -0.319 A  
HETATM   22  C   UNL     1     -12.653  12.690  64.660  1.00  0.00    -0.517 A  
HETATM   23  C   UNL     1     -12.602  11.871  63.533  1.00  0.00    -0.579 A  
HETATM   24  C   UNL     1     -11.394  11.676  62.872  1.00  0.00     0.277 A  
HETATM   25  C   UNL     1     -10.239  12.303  63.330  1.00  0.00    -0.360 A  
HETATM   26  C   UNL     1     -10.286  13.105  64.469  1.00  0.00    -0.389 A  
ENDBRANCH  20  21
ENDBRANCH   7  20
TORSDOF 4
ENDMDL
MODEL       39
REMARK 921   NORMALIZED FREE ENERGY PREDICTED BY IDOCK:   -5.75 KCAL/MOL
REMARK 922        TOTAL FREE ENERGY PREDICTED BY IDOCK:   -7.83 KCAL/MOL
REMARK 923 INTER-LIGAND FREE ENERGY PREDICTED BY IDOCK:   -7.12 KCAL/MOL
REMARK 924 INTRA-LIGAND FREE ENERGY PREDICTED BY IDOCK:   -0.71 KCAL/MOL
REMARK 927      BINDING AFFINITY PREDICTED BY RF-SCORE:    0.00 PKD
ROOT
HETATM    1  O   UNL     1     -12.283  13.609  66.640  1.00  0.00    -0.415 OA 
HETATM    2  C   UNL     1     -11.109  13.647  66.967  1.00  0.00    -0.301 C  
HETATM    3  N   UNL     1     -10.320  14.826  66.996  1.00  0.00    -0.253 N  
HETATM    4  C   UNL     1      -6.756  11.649  66.952  1.00  0.00    -0.124 C  
HETATM    5  C   UNL     1      -8.904  14.430  67.140  1.00  0.00    -0.229 C  
HETATM    6  C   UNL     1      -8.133  14.862  68.382  1.00  0.00    -0.137 C  
HETATM    7  N   UNL     1     -10.346  12.580  67.509  1.00  0.00    -0.218 N  
HETATM    8  C   UNL     1      -8.980  12.895  67.116  1.00  0.00    -0.219 C  
HETATM    9  S   UNL     1      -7.030  13.522  68.941  1.00  0.00    -0.090 S  
HETATM   10  C   UNL     1      -7.826  12.241  67.881  1.00  0.00    -0.146 C  
HETATM   11  C   UNL     1      -5.670  13.647  67.729  1.00  0.00    -0.090 C  
HETATM   12  C   UNL     1      -5.403  12.191  67.378  1.00  0.00    -0.119 C  
ENDROOT
BRANCH   3  13
HETATM   13  C   UNL     1     -10.987  15.878  67.741  1.00  0.00    -0.315 C  
BRANCH  13  14
HETATM   14  C   UNL     1     -10.563  17.289  67.495  1.00  0.00    -0.329 A  
HETATM   15  C   UNL     1     -10.027  19.486  68.380  1.00  0.00    -0.540 A  
HETATM   16  C   UNL     1     -10.418  19.206  66.015  1.00  0.00    -0.546 A  
HETATM   17  C   UNL     1     -10.264  18.126  68.579  1.00  0.00    -0.399 A  
HETATM   18  C   UNL     1     -10.651  17.845  66.212  1.00  0.00    -0.241 A  
HETATM   19  C   UNL     1     -10.101  20.024  67.099  1.00  0.00    -0.587 A  
ENDBRANCH  13  14
ENDBRANCH   3  13
BRANCH   7  20
HETATM   20  C   UNL     1     -10.607  12.326  68.934  1.00  0.00    -0.137 C  
BRANCH  20  21
HETATM   21  C   UNL     1     -10.813  10.900  69.380  1.00  0.00    -0.286 A  
HETATM   22  C   UNL     1     -10.248   9.808  68.713  1.00  0.00    -0.210 A  
HETATM   23  C   UNL     1     -10.512   8.503  69.130  1.00  0.00    -0.217 A  
HETATM   24  C   UNL     1     -11.296   8.281  70.256  1.00  0.00    -0.129 A  
HETATM   25  C   UNL     1     -11.811   9.358  70.971  1.00  0.00    -0.396 A  
HETATM   26  C   UNL     1     -11.564  10.661  70.543  1.00  0.00    -0.444 A  
ENDBRANCH  20  21
ENDBRANCH   7  20
TORSDOF 4
ENDMDL
MODEL       40
REMARK 921   NORMALIZED FREE ENERGY PREDICTED BY IDOCK:   -5.68 KCAL/MOL
REMARK 922        TOTAL FREE ENERGY PREDICTED BY IDOCK:   -7.74 KCAL/MOL
REMARK 923 INTER-LIGAND FREE ENERGY PREDICTED BY IDOCK:   -6.98 KCAL/MOL
REMARK 924 INTRA-LIGAND FREE ENERGY PREDICTED BY IDOCK:   -0.76 KCAL/MOL
REMARK 927      BINDING AFFINITY PREDICTED BY RF-SCORE:    0.00 PKD
ROOT
HETATM    1  O   UNL     1     -11.767  10.997  69.658  1.00  0.00    -0.269 OA 
HETATM    2  C   UNL     1     -11.172  10.094  69.097  1.00  0.00    -0.183 C  
HETATM    3  N   UNL     1     -10.975  10.012  67.694  1.00  0.00    -0.282 N  
HETATM    4  C   UNL     1     -10.123   5.434  68.748  1.00  0.00    -0.255 C  
HETATM    5  C   UNL     1     -10.494   8.653  67.374  1.00  0.00    -0.281 C  
HETATM    6  C   UNL     1      -9.111   8.479  66.755  1.00  0.00    -0.151 C  
HETATM    7  N   UNL     1     -10.448   9.043  69.716  1.00  0.00    -0.213 N  
HETATM    8  C   UNL     1     -10.511   7.959  68.746  1.00  0.00    -0.176 C  
HETATM    9  S   UNL     1      -8.285   7.010  67.452  1.00  0.00    -0.120 S  
HETATM   10  C   UNL     1      -9.484   6.827  68.841  1.00  0.00    -0.128 C  
HETATM   11  C   UNL     1      -9.142   5.663  66.566  1.00  0.00    -0.138 C  
HETATM   12  C   UNL     1      -9.398   4.648  67.671  1.00  0.00    -0.170 C  
ENDROOT
BRANCH   3  13
HETATM   13  C   UNL     1     -10.426  11.251  67.174  1.00  0.00    -0.222 C  
BRANCH  13  14
HETATM   14  C   UNL     1     -11.104  11.882  66.001  1.00  0.00    -0.369 A  
HETATM   15  C   UNL     1     -11.190  12.266  63.605  1.00  0.00    -0.539 A  
HETATM   16  C   UNL     1     -12.520  13.629  65.089  1.00  0.00    -0.488 A  
HETATM   17  C   UNL     1     -10.684  11.568  64.701  1.00  0.00    -0.379 A  
HETATM   18  C   UNL     1     -12.017  12.929  66.187  1.00  0.00    -0.491 A  
HETATM   19  C   UNL     1     -12.110  13.293  63.799  1.00  0.00    -0.546 A  
ENDBRANCH  13  14
ENDBRANCH   3  13
BRANCH   7  20
HETATM   20  C   UNL     1      -9.122   9.444  70.209  1.00  0.00    -0.245 C  
BRANCH  20  21
HETATM   21  C   UNL     1      -8.613   8.816  71.483  1.00  0.00    -0.253 A  
HETATM   22  C   UNL     1      -7.250   8.703  71.780  1.00  0.00    -0.103 A  
HETATM   23  C   UNL     1      -6.824   8.066  72.945  1.00  0.00    -0.104 A  
HETATM   24  C   UNL     1      -7.761   7.587  73.855  1.00  0.00    -0.159 A  
HETATM   25  C   UNL     1      -9.121   7.751  73.607  1.00  0.00    -0.345 A  
HETATM   26  C   UNL     1      -9.546   8.370  72.433  1.00  0.00    -0.373 A  
ENDBRANCH  20  21
ENDBRANCH   7  20
TORSDOF 4
ENDMDL
MODEL       41
REMARK 921   NORMALIZED FREE ENERGY PREDICTED BY IDOCK:   -5.65 KCAL/MOL
REMARK 922        TOTAL FREE ENERGY PREDICTED BY IDOCK:   -7.70 KCAL/MOL
REMARK 923 INTER-LIGAND FREE ENERGY PREDICTED BY IDOCK:   -7.51 KCAL/MOL
REMARK 924 INTRA-LIGAND FREE ENERGY PREDICTED BY IDOCK:   -0.19 KCAL/MOL
REMARK 927      BINDING AFFINITY PREDICTED BY RF-SCORE:    0.00 PKD
ROOT
HETATM    1  O   UNL     1      -9.455  15.533  69.617  1.00  0.00    -0.273 OA 
HETATM    2  C   UNL     1      -9.758  14.881  68.632  1.00  0.00    -0.226 C  
HETATM    3  N   UNL     1      -8.841  14.128  67.854  1.00  0.00    -0.173 N  
HETATM    4  C   UNL     1     -12.362  14.403  64.641  1.00  0.00    -0.435 C  
HETATM    5  C   UNL     1      -9.512  13.740  66.597  1.00  0.00    -0.279 C  
HETATM    6  C   UNL     1      -9.726  12.261  66.293  1.00  0.00    -0.244 C  
HETATM    7  N   UNL     1     -11.069  14.627  68.155  1.00  0.00    -0.264 N  
HETATM    8  C   UNL     1     -10.885  14.420  66.725  1.00  0.00    -0.301 C  
HETATM    9  S   UNL     1     -11.355  12.003  65.516  1.00  0.00    -0.299 S  
HETATM   10  C   UNL     1     -11.977  13.685  65.942  1.00  0.00    -0.405 C  
HETATM   11  C   UNL     1     -11.034  12.578  63.813  1.00  0.00    -0.447 C  
HETATM   12  C   UNL     1     -12.275  13.403  63.502  1.00  0.00    -0.468 C  
ENDROOT
BRANCH   3  13
HETATM   13  C   UNL     1      -8.042  13.255  68.694  1.00  0.00    -0.028 C  
BRANCH  13  14
HETATM   14  C   UNL     1      -7.205  12.212  68.028  1.00  0.00    -0.099 A  
HETATM   15  C   UNL     1      -6.394   9.925  67.960  1.00  0.00    -0.055 A  
HETATM   16  C   UNL     1      -5.311  11.623  66.629  1.00  0.00    -0.099 A  
HETATM   17  C   UNL     1      -7.282  10.879  68.455  1.00  0.00    -0.087 A  
HETATM   18  C   UNL     1      -6.202  12.579  67.121  1.00  0.00    -0.042 A  
HETATM   19  C   UNL     1      -5.412  10.296  67.046  1.00  0.00    -0.041 A  
ENDBRANCH  13  14
ENDBRANCH   3  13
BRANCH   7  20
HETATM   20  C   UNL     1     -11.787  13.590  68.909  1.00  0.00    -0.345 C  
BRANCH  20  21
HETATM   21  C   UNL     1     -12.479  13.986  70.190  1.00  0.00    -0.380 A  
HETATM   22  C   UNL     1     -12.818  15.309  70.490  1.00  0.00    -0.421 A  
HETATM   23  C   UNL     1     -13.408  15.635  71.711  1.00  0.00    -0.541 A  
HETATM   24  C   UNL     1     -13.719  14.631  72.621  1.00  0.00    -0.545 A  
HETATM   25  C   UNL     1     -13.450  13.301  72.310  1.00  0.00    -0.679 A  
HETATM   26  C   UNL     1     -12.842  12.977  71.098  1.00  0.00    -0.331 A  
ENDBRANCH  20  21
ENDBRANCH   7  20
TORSDOF 4
ENDMDL
MODEL       42
REMARK 921   NORMALIZED FREE ENERGY PREDICTED BY IDOCK:   -5.63 KCAL/MOL
REMARK 922        TOTAL FREE ENERGY PREDICTED BY IDOCK:   -7.67 KCAL/MOL
REMARK 923 INTER-LIGAND FREE ENERGY PREDICTED BY IDOCK:   -6.93 KCAL/MOL
REMARK 924 INTRA-LIGAND FREE ENERGY PREDICTED BY IDOCK:   -0.74 KCAL/MOL
REMARK 927      BINDING AFFINITY PREDICTED BY RF-SCORE:    0.00 PKD
ROOT
HETATM    1  O   UNL     1      -9.909   8.477  67.982  1.00  0.00    -0.157 OA 
HETATM    2  C   UNL     1     -10.243   9.537  67.482  1.00  0.00    -0.228 C  
HETATM    3  N   UNL     1     -11.077  10.495  68.112  1.00  0.00    -0.273 N  
HETATM    4  C   UNL     1     -11.578  12.038  63.621  1.00  0.00    -0.578 C  
HETATM    5  C   UNL     1     -11.498  11.481  67.095  1.00  0.00    -0.237 C  
HETATM    6  C   UNL     1     -11.084  12.939  67.256  1.00  0.00    -0.274 C  
HETATM    7  N   UNL     1      -9.768  10.085  66.262  1.00  0.00    -0.200 N  
HETATM    8  C   UNL     1     -10.865  10.928  65.809  1.00  0.00    -0.049 C  
HETATM    9  S   UNL     1     -10.651  13.657  65.637  1.00  0.00    -0.301 S  
HETATM   10  C   UNL     1     -10.573  12.026  64.782  1.00  0.00    -0.297 C  
HETATM   11  C   UNL     1     -12.305  13.931  64.912  1.00  0.00    -0.420 C  
HETATM   12  C   UNL     1     -12.124  13.448  63.480  1.00  0.00    -0.497 C  
ENDROOT
BRANCH   3  13
HETATM   13  C   UNL     1     -10.596  10.805  69.446  1.00  0.00    -0.221 C  
BRANCH  13  14
HETATM   14  C   UNL     1     -11.327  10.220  70.610  1.00  0.00    -0.431 A  
HETATM   15  C   UNL     1     -11.477   8.513  72.329  1.00  0.00    -0.445 A  
HETATM   16  C   UNL     1     -13.396   9.890  71.834  1.00  0.00    -0.524 A  
HETATM   17  C   UNL     1     -10.745   9.179  71.347  1.00  0.00    -0.414 A  
HETATM   18  C   UNL     1     -12.664  10.561  70.853  1.00  0.00    -0.495 A  
HETATM   19  C   UNL     1     -12.800   8.870  72.575  1.00  0.00    -0.401 A  
ENDBRANCH  13  14
ENDBRANCH   3  13
BRANCH   7  20
HETATM   20  C   UNL     1      -8.434  10.695  66.364  1.00  0.00    -0.152 C  
BRANCH  20  21
HETATM   21  C   UNL     1      -7.280   9.824  66.798  1.00  0.00    -0.090 A  
HETATM   22  C   UNL     1      -6.790   8.772  66.018  1.00  0.00    -0.073 A  
HETATM   23  C   UNL     1      -5.757   7.959  66.484  1.00  0.00    -0.039 A  
HETATM   24  C   UNL     1      -5.163   8.230  67.712  1.00  0.00    -0.034 A  
HETATM   25  C   UNL     1      -5.593   9.315  68.471  1.00  0.00    -0.041 A  
HETATM   26  C   UNL     1      -6.639  10.114  68.014  1.00  0.00    -0.058 A  
ENDBRANCH  20  21
ENDBRANCH   7  20
TORSDOF 4
ENDMDL
MODEL       43
REMARK 921   NORMALIZED FREE ENERGY PREDICTED BY IDOCK:   -5.59 KCAL/MOL
REMARK 922        TOTAL FREE ENERGY PREDICTED BY IDOCK:   -7.62 KCAL/MOL
REMARK 923 INTER-LIGAND FREE ENERGY PREDICTED BY IDOCK:   -7.20 KCAL/MOL
REMARK 924 INTRA-LIGAND FREE ENERGY PREDICTED BY IDOCK:   -0.42 KCAL/MOL
REMARK 927      BINDING AFFINITY PREDICTED BY RF-SCORE:    0.00 PKD
ROOT
HETATM    1  O   UNL     1      -9.143   9.391  71.554  1.00  0.00    -0.275 OA 
HETATM    2  C   UNL     1      -9.354   8.587  70.663  1.00  0.00    -0.174 C  
HETATM    3  N   UNL     1      -9.490   7.189  70.859  1.00  0.00    -0.160 N  
HETATM    4  C   UNL     1      -8.598   7.115  66.169  1.00  0.00    -0.151 C  
HETATM    5  C   UNL     1      -9.430   6.530  69.538  1.00  0.00    -0.146 C  
HETATM    6  C   UNL     1     -10.642   5.752  69.038  1.00  0.00    -0.281 C  
HETATM    7  N   UNL     1      -9.644   8.883  69.307  1.00  0.00    -0.160 N  
HETATM    8  C   UNL     1      -9.173   7.709  68.586  1.00  0.00    -0.141 C  
HETATM    9  S   UNL     1     -10.873   6.021  67.249  1.00  0.00    -0.265 S  
HETATM   10  C   UNL     1      -9.708   7.448  67.175  1.00  0.00    -0.171 C  
HETATM   11  C   UNL     1      -9.568   4.950  66.555  1.00  0.00    -0.169 C  
HETATM   12  C   UNL     1      -8.967   5.823  65.462  1.00  0.00    -0.088 C  
ENDROOT
BRANCH   3  13
HETATM   13  C   UNL     1     -10.453   6.902  71.907  1.00  0.00    -0.201 C  
BRANCH  13  14
HETATM   14  C   UNL     1     -11.797   7.550  71.822  1.00  0.00    -0.327 A  
HETATM   15  C   UNL     1     -13.299   9.326  72.518  1.00  0.00    -0.463 A  
HETATM   16  C   UNL     1     -14.176   7.389  71.376  1.00  0.00    -0.508 A  
HETATM   17  C   UNL     1     -12.015   8.786  72.446  1.00  0.00    -0.369 A  
HETATM   18  C   UNL     1     -12.892   6.849  71.299  1.00  0.00    -0.336 A  
HETATM   19  C   UNL     1     -14.378   8.629  71.980  1.00  0.00    -0.512 A  
ENDBRANCH  13  14
ENDBRANCH   3  13
BRANCH   7  20
HETATM   20  C   UNL     1     -11.030   9.317  69.075  1.00  0.00    -0.033 C  
BRANCH  20  21
HETATM   21  C   UNL     1     -11.287  10.780  68.808  1.00  0.00    -0.352 A  
HETATM   22  C   UNL     1     -11.191  11.345  67.532  1.00  0.00    -0.356 A  
HETATM   23  C   UNL     1     -11.383  12.713  67.341  1.00  0.00    -0.367 A  
HETATM   24  C   UNL     1     -11.734  13.520  68.418  1.00  0.00    -0.393 A  
HETATM   25  C   UNL     1     -11.899  12.962  69.683  1.00  0.00    -0.387 A  
HETATM   26  C   UNL     1     -11.687  11.599  69.877  1.00  0.00    -0.414 A  
ENDBRANCH  20  21
ENDBRANCH   7  20
TORSDOF 4
ENDMDL
MODEL       44
REMARK 921   NORMALIZED FREE ENERGY PREDICTED BY IDOCK:   -5.54 KCAL/MOL
REMARK 922        TOTAL FREE ENERGY PREDICTED BY IDOCK:   -7.57 KCAL/MOL
REMARK 923 INTER-LIGAND FREE ENERGY PREDICTED BY IDOCK:   -6.87 KCAL/MOL
REMARK 924 INTRA-LIGAND FREE ENERGY PREDICTED BY IDOCK:   -0.69 KCAL/MOL
REMARK 927      BINDING AFFINITY PREDICTED BY RF-SCORE:    0.00 PKD
ROOT
HETATM    1  O   UNL     1      -9.965  13.129  65.061  1.00  0.00    -0.239 OA 
HETATM    2  C   UNL     1      -9.920  14.198  65.645  1.00  0.00    -0.306 C  
HETATM    3  N   UNL     1     -11.034  15.054  65.842  1.00  0.00    -0.337 N  
HETATM    4  C   UNL     1      -7.587  18.262  66.634  1.00  0.00    -0.259 C  
HETATM    5  C   UNL     1     -10.532  16.364  66.306  1.00  0.00    -0.293 C  
HETATM    6  C   UNL     1     -10.936  16.869  67.686  1.00  0.00    -0.165 C  
HETATM    7  N   UNL     1      -8.812  14.728  66.355  1.00  0.00    -0.193 N  
HETATM    8  C   UNL     1      -9.008  16.169  66.279  1.00  0.00    -0.344 C  
HETATM    9  S   UNL     1      -9.530  17.703  68.493  1.00  0.00    -0.298 S  
HETATM   10  C   UNL     1      -8.286  17.064  67.291  1.00  0.00    -0.186 C  
HETATM   11  C   UNL     1      -9.515  19.306  67.619  1.00  0.00    -0.315 C  
HETATM   12  C   UNL     1      -8.033  19.525  67.350  1.00  0.00    -0.305 C  
ENDROOT
BRANCH   3  13
HETATM   13  C   UNL     1     -12.155  14.326  66.407  1.00  0.00    -0.419 C  
BRANCH  13  14
HETATM   14  C   UNL     1     -11.912  13.499  67.627  1.00  0.00    -0.373 A  
HETATM   15  C   UNL     1     -11.698  11.307  68.648  1.00  0.00    -0.391 A  
HETATM   16  C   UNL     1     -11.970  13.259  70.041  1.00  0.00    -0.399 A  
HETATM   17  C   UNL     1     -11.761  12.111  67.510  1.00  0.00    -0.385 A  
HETATM   18  C   UNL     1     -12.029  14.066  68.904  1.00  0.00    -0.387 A  
HETATM   19  C   UNL     1     -11.799  11.881  69.912  1.00  0.00    -0.418 A  
ENDBRANCH  13  14
ENDBRANCH   3  13
BRANCH   7  20
HETATM   20  C   UNL     1      -8.617  14.134  67.686  1.00  0.00    -0.189 C  
BRANCH  20  21
HETATM   21  C   UNL     1      -7.725  12.923  67.805  1.00  0.00    -0.151 A  
HETATM   22  C   UNL     1      -8.200  11.668  68.201  1.00  0.00    -0.151 A  
HETATM   23  C   UNL     1      -7.328  10.591  68.351  1.00  0.00    -0.086 A  
HETATM   24  C   UNL     1      -5.979  10.743  68.047  1.00  0.00    -0.050 A  
HETATM   25  C   UNL     1      -5.502  11.967  67.588  1.00  0.00    -0.082 A  
HETATM   26  C   UNL     1      -6.370  13.050  67.458  1.00  0.00    -0.153 A  
ENDBRANCH  20  21
ENDBRANCH   7  20
TORSDOF 4
ENDMDL
MODEL       45
REMARK 921   NORMALIZED FREE ENERGY PREDICTED BY IDOCK:   -5.51 KCAL/MOL
REMARK 922        TOTAL FREE ENERGY PREDICTED BY IDOCK:   -7.54 KCAL/MOL
REMARK 923 INTER-LIGAND FREE ENERGY PREDICTED BY IDOCK:   -6.87 KCAL/MOL
REMARK 924 INTRA-LIGAND FREE ENERGY PREDICTED BY IDOCK:   -0.66 KCAL/MOL
REMARK 927      BINDING AFFINITY PREDICTED BY RF-SCORE:    0.00 PKD
ROOT
HETATM    1  O   UNL     1      -8.804   9.706  68.640  1.00  0.00    -0.125 OA 
HETATM    2  C   UNL     1      -9.297  10.549  67.911  1.00  0.00    -0.143 C  
HETATM    3  N   UNL     1      -9.243  10.516  66.493  1.00  0.00    -0.159 N  
HETATM    4  C   UNL     1     -10.303  15.143  67.005  1.00  0.00    -0.271 C  
HETATM    5  C   UNL     1      -9.670  11.835  65.985  1.00  0.00    -0.232 C  
HETATM    6  C   UNL     1     -10.922  11.930  65.120  1.00  0.00    -0.312 C  
HETATM    7  N   UNL     1     -10.127  11.630  68.305  1.00  0.00    -0.196 N  
HETATM    8  C   UNL     1      -9.902  12.635  67.276  1.00  0.00    -0.206 C  
HETATM    9  S   UNL     1     -11.870  13.430  65.538  1.00  0.00    -0.387 S  
HETATM   10  C   UNL     1     -10.938  13.749  67.097  1.00  0.00    -0.290 C  
HETATM   11  C   UNL     1     -10.879  14.722  64.710  1.00  0.00    -0.376 C  
HETATM   12  C   UNL     1     -10.832  15.826  65.756  1.00  0.00    -0.286 C  
ENDROOT
BRANCH   3  13
HETATM   13  C   UNL     1      -9.681   9.228  65.987  1.00  0.00    -0.289 C  
BRANCH  13  14
HETATM   14  C   UNL     1      -8.659   8.332  65.367  1.00  0.00    -0.176 A  
HETATM   15  C   UNL     1      -7.440   7.620  63.392  1.00  0.00    -0.108 A  
HETATM   16  C   UNL     1      -7.414   6.249  65.379  1.00  0.00    -0.083 A  
HETATM   17  C   UNL     1      -8.265   8.540  64.038  1.00  0.00    -0.132 A  
HETATM   18  C   UNL     1      -8.238   7.171  66.028  1.00  0.00    -0.129 A  
HETATM   19  C   UNL     1      -7.012   6.478  64.064  1.00  0.00    -0.047 A  
ENDBRANCH  13  14
ENDBRANCH   3  13
BRANCH   7  20
HETATM   20  C   UNL     1     -11.517  11.241  68.588  1.00  0.00    -0.297 C  
BRANCH  20  21
HETATM   21  C   UNL     1     -12.160  11.752  69.854  1.00  0.00    -0.359 A  
HETATM   22  C   UNL     1     -12.281  13.115  70.145  1.00  0.00    -0.360 A  
HETATM   23  C   UNL     1     -12.833  13.540  71.353  1.00  0.00    -0.440 A  
HETATM   24  C   UNL     1     -13.325  12.605  72.257  1.00  0.00    -0.527 A  
HETATM   25  C   UNL     1     -13.273  11.247  71.954  1.00  0.00    -0.491 A  
HETATM   26  C   UNL     1     -12.703  10.821  70.756  1.00  0.00    -0.451 A  
ENDBRANCH  20  21
ENDBRANCH   7  20
TORSDOF 4
ENDMDL
MODEL       46
REMARK 921   NORMALIZED FREE ENERGY PREDICTED BY IDOCK:   -5.49 KCAL/MOL
REMARK 922        TOTAL FREE ENERGY PREDICTED BY IDOCK:   -7.51 KCAL/MOL
REMARK 923 INTER-LIGAND FREE ENERGY PREDICTED BY IDOCK:   -6.83 KCAL/MOL
REMARK 924 INTRA-LIGAND FREE ENERGY PREDICTED BY IDOCK:   -0.67 KCAL/MOL
REMARK 927      BINDING AFFINITY PREDICTED BY RF-SCORE:    0.00 PKD
ROOT
HETATM    1  O   UNL     1     -13.482   7.444  71.099  1.00  0.00    -0.305 OA 
HETATM    2  C   UNL     1     -12.341   7.653  70.723  1.00  0.00    -0.041 C  
HETATM    3  N   UNL     1     -11.803   8.941  70.469  1.00  0.00    -0.126 N  
HETATM    4  C   UNL     1      -8.585   6.387  68.035  1.00  0.00    -0.117 C  
HETATM    5  C   UNL     1     -10.523   8.772  69.750  1.00  0.00    -0.219 C  
HETATM    6  C   UNL     1      -9.233   9.258  70.403  1.00  0.00    -0.247 C  
HETATM    7  N   UNL     1     -11.300   6.697  70.604  1.00  0.00    -0.323 N  
HETATM    8  C   UNL     1     -10.439   7.248  69.567  1.00  0.00    -0.230 C  
HETATM    9  S   UNL     1      -7.876   8.086  70.073  1.00  0.00    -0.106 S  
HETATM   10  C   UNL     1      -8.994   6.750  69.470  1.00  0.00    -0.139 C  
HETATM   11  C   UNL     1      -7.465   8.492  68.341  1.00  0.00    -0.095 C  
HETATM   12  C   UNL     1      -7.294   7.117  67.709  1.00  0.00    -0.097 C  
ENDROOT
BRANCH   3  13
HETATM   13  C   UNL     1     -12.035   9.832  71.591  1.00  0.00    -0.375 C  
BRANCH  13  14
HETATM   14  C   UNL     1     -12.434  11.241  71.298  1.00  0.00    -0.441 A  
HETATM   15  C   UNL     1     -12.065  13.293  70.054  1.00  0.00    -0.385 A  
HETATM   16  C   UNL     1     -13.493  13.309  72.000  1.00  0.00    -0.596 A  
HETATM   17  C   UNL     1     -11.827  11.932  70.240  1.00  0.00    -0.368 A  
HETATM   18  C   UNL     1     -13.259  11.945  72.186  1.00  0.00    -0.366 A  
HETATM   19  C   UNL     1     -12.900  13.980  70.932  1.00  0.00    -0.389 A  
ENDBRANCH  13  14
ENDBRANCH   3  13
BRANCH   7  20
HETATM   20  C   UNL     1     -10.679   6.330  71.886  1.00  0.00    -0.230 C  
BRANCH  20  21
HETATM   21  C   UNL     1     -10.588   4.868  72.244  1.00  0.00    -0.251 A  
HETATM   22  C   UNL     1      -9.904   3.936  71.456  1.00  0.00    -0.247 A  
HETATM   23  C   UNL     1      -9.893   2.584  71.798  1.00  0.00    -0.226 A  
HETATM   24  C   UNL     1     -10.516   2.160  72.967  1.00  0.00    -0.234 A  
HETATM   25  C   UNL     1     -11.144   3.084  73.797  1.00  0.00    -0.295 A  
HETATM   26  C   UNL     1     -11.173   4.432  73.445  1.00  0.00    -0.386 A  
ENDBRANCH  20  21
ENDBRANCH   7  20
TORSDOF 4
ENDMDL
MODEL       47
REMARK 921   NORMALIZED FREE ENERGY PREDICTED BY IDOCK:   -5.48 KCAL/MOL
REMARK 922        TOTAL FREE ENERGY PREDICTED BY IDOCK:   -7.49 KCAL/MOL
REMARK 923 INTER-LIGAND FREE ENERGY PREDICTED BY IDOCK:   -7.48 KCAL/MOL
REMARK 924 INTRA-LIGAND FREE ENERGY PREDICTED BY IDOCK:   -0.01 KCAL/MOL
REMARK 927      BINDING AFFINITY PREDICTED BY RF-SCORE:    0.00 PKD
ROOT
HETATM    1  O   UNL     1     -12.173  14.984  63.778  1.00  0.00    -0.515 OA 
HETATM    2  C   UNL     1     -12.081  14.606  64.933  1.00  0.00    -0.382 C  
HETATM    3  N   UNL     1     -12.757  13.478  65.465  1.00  0.00    -0.483 N  
HETATM    4  C   UNL     1     -11.723  15.637  69.596  1.00  0.00    -0.373 C  
HETATM    5  C   UNL     1     -12.640  13.522  66.937  1.00  0.00     0.087 C  
HETATM    6  C   UNL     1     -11.905  12.399  67.660  1.00  0.00    -0.295 C  
HETATM    7  N   UNL     1     -11.196  15.108  65.921  1.00  0.00    -0.318 N  
HETATM    8  C   UNL     1     -11.885  14.839  67.175  1.00  0.00    -0.286 C  
HETATM    9  S   UNL     1     -10.917  13.072  69.036  1.00  0.00    -0.148 S  
HETATM   10  C   UNL     1     -11.070  14.820  68.472  1.00  0.00    -0.264 C  
HETATM   11  C   UNL     1     -12.211  13.387  70.286  1.00  0.00    -0.335 C  
HETATM   12  C   UNL     1     -11.823  14.755  70.828  1.00  0.00    -0.370 C  
ENDROOT
BRANCH   3  13
HETATM   13  C   UNL     1     -12.549  12.307  64.632  1.00  0.00    -0.289 C  
BRANCH  13  14
HETATM   14  C   UNL     1     -11.149  11.822  64.440  1.00  0.00    -0.396 A  
HETATM   15  C   UNL     1      -9.299  11.342  62.942  1.00  0.00    -0.376 A  
HETATM   16  C   UNL     1      -9.273  10.482  65.198  1.00  0.00    -0.243 A  
HETATM   17  C   UNL     1     -10.538  11.935  63.184  1.00  0.00    -0.322 A  
HETATM   18  C   UNL     1     -10.511  11.077  65.442  1.00  0.00    -0.306 A  
HETATM   19  C   UNL     1      -8.666  10.619  63.950  1.00  0.00    -0.134 A  
ENDBRANCH  13  14
ENDBRANCH   3  13
BRANCH   7  20
HETATM   20  C   UNL     1      -9.813  14.626  65.782  1.00  0.00    -0.328 C  
BRANCH  20  21
HETATM   21  C   UNL     1      -8.694  15.512  66.270  1.00  0.00    -0.283 A  
HETATM   22  C   UNL     1      -8.621  16.877  65.969  1.00  0.00    -0.194 A  
HETATM   23  C   UNL     1      -7.538  17.644  66.396  1.00  0.00    -0.322 A  
HETATM   24  C   UNL     1      -6.546  17.067  67.181  1.00  0.00    -0.217 A  
HETATM   25  C   UNL     1      -6.638  15.727  67.547  1.00  0.00    -0.213 A  
HETATM   26  C   UNL     1      -7.709  14.955  67.103  1.00  0.00    -0.177 A  
ENDBRANCH  20  21
ENDBRANCH   7  20
TORSDOF 4
ENDMDL
MODEL       48
REMARK 921   NORMALIZED FREE ENERGY PREDICTED BY IDOCK:   -5.47 KCAL/MOL
REMARK 922        TOTAL FREE ENERGY PREDICTED BY IDOCK:   -7.48 KCAL/MOL
REMARK 923 INTER-LIGAND FREE ENERGY PREDICTED BY IDOCK:   -6.73 KCAL/MOL
REMARK 924 INTRA-LIGAND FREE ENERGY PREDICTED BY IDOCK:   -0.75 KCAL/MOL
REMARK 927      BINDING AFFINITY PREDICTED BY RF-SCORE:    0.00 PKD
ROOT
HETATM    1  O   UNL     1      -7.418  10.960  68.487  1.00  0.00    -0.090 OA 
HETATM    2  C   UNL     1      -8.428  11.463  68.026  1.00  0.00    -0.145 C  
HETATM    3  N   UNL     1      -9.710  10.855  68.048  1.00  0.00    -0.161 N  
HETATM    4  C   UNL     1     -10.555  14.054  64.605  1.00  0.00    -0.416 C  
HETATM    5  C   UNL     1     -10.595  11.613  67.140  1.00  0.00    -0.232 C  
HETATM    6  C   UNL     1     -11.820  12.317  67.712  1.00  0.00    -0.273 C  
HETATM    7  N   UNL     1      -8.562  12.779  67.515  1.00  0.00    -0.175 N  
HETATM    8  C   UNL     1      -9.648  12.670  66.551  1.00  0.00    -0.248 C  
HETATM    9  S   UNL     1     -12.058  13.933  66.900  1.00  0.00    -0.393 S  
HETATM   10  C   UNL     1     -10.385  13.944  66.127  1.00  0.00    -0.301 C  
HETATM   11  C   UNL     1     -12.770  13.426  65.296  1.00  0.00    -0.422 C  
HETATM   12  C   UNL     1     -12.022  14.309  64.307  1.00  0.00    -0.449 C  
ENDROOT
BRANCH   3  13
HETATM   13  C   UNL     1     -10.049  10.407  69.386  1.00  0.00    -0.229 C  
BRANCH  13  14
HETATM   14  C   UNL     1     -10.360   8.959  69.585  1.00  0.00    -0.214 A  
HETATM   15  C   UNL     1     -10.512   6.718  68.664  1.00  0.00    -0.232 A  
HETATM   16  C   UNL     1     -11.542   7.216  70.790  1.00  0.00    -0.358 A  
HETATM   17  C   UNL     1     -10.080   8.040  68.564  1.00  0.00    -0.218 A  
HETATM   18  C   UNL     1     -11.107   8.539  70.693  1.00  0.00    -0.280 A  
HETATM   19  C   UNL     1     -11.239   6.306  69.778  1.00  0.00    -0.499 A  
ENDBRANCH  13  14
ENDBRANCH   3  13
BRANCH   7  20
HETATM   20  C   UNL     1      -8.672  13.813  68.556  1.00  0.00    -0.118 C  
BRANCH  20  21
HETATM   21  C   UNL     1      -8.077  15.172  68.281  1.00  0.00    -0.138 A  
HETATM   22  C   UNL     1      -6.948  15.355  67.475  1.00  0.00    -0.223 A  
HETATM   23  C   UNL     1      -6.401  16.625  67.293  1.00  0.00    -0.216 A  
HETATM   24  C   UNL     1      -7.013  17.733  67.869  1.00  0.00    -0.194 A  
HETATM   25  C   UNL     1      -8.175  17.575  68.619  1.00  0.00    -0.265 A  
HETATM   26  C   UNL     1      -8.711  16.305  68.817  1.00  0.00    -0.244 A  
ENDBRANCH  20  21
ENDBRANCH   7  20
TORSDOF 4
ENDMDL
MODEL       49
REMARK 921   NORMALIZED FREE ENERGY PREDICTED BY IDOCK:   -5.43 KCAL/MOL
REMARK 922        TOTAL FREE ENERGY PREDICTED BY IDOCK:   -7.43 KCAL/MOL
REMARK 923 INTER-LIGAND FREE ENERGY PREDICTED BY IDOCK:   -6.77 KCAL/MOL
REMARK 924 INTRA-LIGAND FREE ENERGY PREDICTED BY IDOCK:   -0.66 KCAL/MOL
REMARK 927      BINDING AFFINITY PREDICTED BY RF-SCORE:    0.00 PKD
ROOT
HETATM    1  O   UNL     1     -10.682   8.413  66.936  1.00  0.00    -0.279 OA 
HETATM    2  C   UNL     1     -10.619   9.629  66.892  1.00  0.00    -0.171 C  
HETATM    3  N   UNL     1     -11.021  10.492  67.944  1.00  0.00    -0.276 N  
HETATM    4  C   UNL     1     -11.071  13.698  64.406  1.00  0.00    -0.378 C  
HETATM    5  C   UNL     1     -11.084  11.869  67.413  1.00  0.00    -0.279 C  
HETATM    6  C   UNL     1     -10.158  12.933  67.990  1.00  0.00    -0.235 C  
HETATM    7  N   UNL     1     -10.017  10.411  65.873  1.00  0.00    -0.242 N  
HETATM    8  C   UNL     1     -10.743  11.672  65.927  1.00  0.00    -0.278 C  
HETATM    9  S   UNL     1      -9.546  14.028  66.666  1.00  0.00    -0.294 S  
HETATM   10  C   UNL     1     -10.102  12.916  65.305  1.00  0.00    -0.238 C  
HETATM   11  C   UNL     1     -11.007  15.082  66.370  1.00  0.00    -0.336 C  
HETATM   12  C   UNL     1     -11.066  15.150  64.850  1.00  0.00    -0.425 C  
ENDROOT
BRANCH   3  13
HETATM   13  C   UNL     1     -10.414  10.095  69.202  1.00  0.00    -0.222 C  
BRANCH  13  14
HETATM   14  C   UNL     1     -11.315   9.642  70.304  1.00  0.00    -0.311 A  
HETATM   15  C   UNL     1     -13.241  10.058  71.722  1.00  0.00    -0.540 A  
HETATM   16  C   UNL     1     -11.677   8.313  72.302  1.00  0.00    -0.453 A  
HETATM   17  C   UNL     1     -12.477  10.368  70.597  1.00  0.00    -0.437 A  
HETATM   18  C   UNL     1     -10.913   8.619  71.175  1.00  0.00    -0.320 A  
HETATM   19  C   UNL     1     -12.843   9.029  72.571  1.00  0.00    -0.408 A  
ENDBRANCH  13  14
ENDBRANCH   3  13
BRANCH   7  20
HETATM   20  C   UNL     1      -8.550  10.462  65.950  1.00  0.00    -0.158 C  
BRANCH  20  21
HETATM   21  C   UNL     1      -7.790   9.159  65.993  1.00  0.00    -0.102 A  
HETATM   22  C   UNL     1      -7.007   8.775  67.087  1.00  0.00    -0.071 A  
HETATM   23  C   UNL     1      -6.278   7.587  67.060  1.00  0.00    -0.052 A  
HETATM   24  C   UNL     1      -6.373   6.740  65.961  1.00  0.00    -0.049 A  
HETATM   25  C   UNL     1      -7.200   7.075  64.893  1.00  0.00    -0.078 A  
HETATM   26  C   UNL     1      -7.912   8.272  64.911  1.00  0.00    -0.144 A  
ENDBRANCH  20  21
ENDBRANCH   7  20
TORSDOF 4
ENDMDL
MODEL       50
REMARK 921   NORMALIZED FREE ENERGY PREDICTED BY IDOCK:   -5.40 KCAL/MOL
REMARK 922        TOTAL FREE ENERGY PREDICTED BY IDOCK:   -7.40 KCAL/MOL
REMARK 923 INTER-LIGAND FREE ENERGY PREDICTED BY IDOCK:   -7.37 KCAL/MOL
REMARK 924 INTRA-LIGAND FREE ENERGY PREDICTED BY IDOCK:   -0.02 KCAL/MOL
REMARK 927      BINDING AFFINITY PREDICTED BY RF-SCORE:    0.00 PKD
ROOT
HETATM    1  O   UNL     1     -12.146  12.055  66.669  1.00  0.00    -0.615 OA 
HETATM    2  C   UNL     1     -11.644  11.299  67.482  1.00  0.00    -0.175 C  
HETATM    3  N   UNL     1     -10.558  10.428  67.205  1.00  0.00    -0.252 N  
HETATM    4  C   UNL     1     -12.143   8.271  71.159  1.00  0.00    -0.274 C  
HETATM    5  C   UNL     1     -10.438   9.471  68.324  1.00  0.00    -0.223 C  
HETATM    6  C   UNL     1      -9.166   9.464  69.164  1.00  0.00    -0.155 C  
HETATM    7  N   UNL     1     -11.932  11.234  68.869  1.00  0.00    -0.344 N  
HETATM    8  C   UNL     1     -11.622   9.856  69.225  1.00  0.00     0.092 C  
HETATM    9  S   UNL     1      -9.570   9.200  70.923  1.00  0.00    -0.276 S  
HETATM   10  C   UNL     1     -11.372   9.515  70.697  1.00  0.00    -0.301 C  
HETATM   11  C   UNL     1      -9.911   7.406  70.946  1.00  0.00    -0.177 C  
HETATM   12  C   UNL     1     -11.160   7.316  71.812  1.00  0.00    -0.265 C  
ENDROOT
BRANCH   3  13
HETATM   13  C   UNL     1      -9.462  11.147  66.582  1.00  0.00    -0.183 C  
BRANCH  13  14
HETATM   14  C   UNL     1      -9.149  12.520  67.081  1.00  0.00    -0.205 A  
HETATM   15  C   UNL     1      -8.194  13.942  68.801  1.00  0.00    -0.028 A  
HETATM   16  C   UNL     1      -9.630  14.898  67.113  1.00  0.00    -0.229 A  
HETATM   17  C   UNL     1      -8.360  12.682  68.228  1.00  0.00    -0.165 A  
HETATM   18  C   UNL     1      -9.794  13.639  66.536  1.00  0.00    -0.295 A  
HETATM   19  C   UNL     1      -8.825  15.050  68.242  1.00  0.00    -0.172 A  
ENDBRANCH  13  14
ENDBRANCH   3  13
BRANCH   7  20
HETATM   20  C   UNL     1     -11.301  12.303  69.659  1.00  0.00    -0.137 C  
BRANCH  20  21
HETATM   21  C   UNL     1     -12.190  13.213  70.470  1.00  0.00    -0.405 A  
HETATM   22  C   UNL     1     -12.977  12.754  71.531  1.00  0.00    -0.388 A  
HETATM   23  C   UNL     1     -13.825  13.622  72.218  1.00  0.00    -0.689 A  
HETATM   24  C   UNL     1     -13.848  14.973  71.888  1.00  0.00    -0.575 A  
HETATM   25  C   UNL     1     -13.022  15.459  70.878  1.00  0.00    -0.539 A  
HETATM   26  C   UNL     1     -12.189  14.587  70.179  1.00  0.00    -0.399 A  
ENDBRANCH  20  21
ENDBRANCH   7  20
TORSDOF 4
ENDMDL
MODEL       51
REMARK 921   NORMALIZED FREE ENERGY PREDICTED BY IDOCK:   -5.38 KCAL/MOL
REMARK 922        TOTAL FREE ENERGY PREDICTED BY IDOCK:   -7.37 KCAL/MOL
REMARK 923 INTER-LIGAND FREE ENERGY PREDICTED BY IDOCK:   -8.12 KCAL/MOL
REMARK 924 INTRA-LIGAND FREE ENERGY PREDICTED BY IDOCK:    0.75 KCAL/MOL
REMARK 927      BINDING AFFINITY PREDICTED BY RF-SCORE:    0.00 PKD
ROOT
HETATM    1  O   UNL     1     -12.438  12.724  66.462  1.00  0.00    -0.406 OA 
HETATM    2  C   UNL     1     -11.744  11.960  67.110  1.00  0.00    -0.236 C  
HETATM    3  N   UNL     1     -10.588  11.306  66.611  1.00  0.00    -0.252 N  
HETATM    4  C   UNL     1     -11.386   8.463  70.363  1.00  0.00    -0.178 C  
HETATM    5  C   UNL     1     -10.206  10.248  67.569  1.00  0.00    -0.210 C  
HETATM    6  C   UNL     1      -8.856  10.333  68.272  1.00  0.00    -0.126 C  
HETATM    7  N   UNL     1     -11.856  11.682  68.496  1.00  0.00    -0.315 N  
HETATM    8  C   UNL     1     -11.319  10.334  68.626  1.00  0.00    -0.166 C  
HETATM    9  S   UNL     1      -9.012   9.796  70.008  1.00  0.00    -0.179 S  
HETATM   10  C   UNL     1     -10.854   9.858  70.004  1.00  0.00    -0.294 C  
HETATM   11  C   UNL     1      -9.095   7.982  69.816  1.00  0.00    -0.149 C  
HETATM   12  C   UNL     1     -10.210   7.597  70.778  1.00  0.00    -0.201 C  
ENDROOT
BRANCH   3  13
HETATM   13  C   UNL     1      -9.683  12.255  65.989  1.00  0.00    -0.242 C  
BRANCH  13  14
HETATM   14  C   UNL     1     -10.108  13.686  65.915  1.00  0.00    -0.320 A  
HETATM   15  C   UNL     1     -11.058  15.510  64.625  1.00  0.00    -0.373 A  
HETATM   16  C   UNL     1      -9.911  15.974  66.698  1.00  0.00    -0.273 A  
HETATM   17  C   UNL     1     -10.798  14.150  64.787  1.00  0.00    -0.426 A  
HETATM   18  C   UNL     1      -9.653  14.612  66.863  1.00  0.00    -0.253 A  
HETATM   19  C   UNL     1     -10.617  16.421  65.582  1.00  0.00    -0.337 A  
ENDBRANCH  13  14
ENDBRANCH   3  13
BRANCH   7  20
HETATM   20  C   UNL     1     -11.293  12.729  69.361  1.00  0.00    -0.202 C  
BRANCH  20  21
HETATM   21  C   UNL     1     -12.214  13.434  70.325  1.00  0.00    -0.405 A  
HETATM   22  C   UNL     1     -12.466  14.809  70.264  1.00  0.00    -0.393 A  
HETATM   23  C   UNL     1     -13.283  15.426  71.211  1.00  0.00    -0.585 A  
HETATM   24  C   UNL     1     -13.904  14.664  72.194  1.00  0.00    -0.569 A  
HETATM   25  C   UNL     1     -13.717  13.285  72.229  1.00  0.00    -0.686 A  
HETATM   26  C   UNL     1     -12.885  12.670  71.295  1.00  0.00    -0.344 A  
ENDBRANCH  20  21
ENDBRANCH   7  20
TORSDOF 4
ENDMDL
MODEL       52
REMARK 921   NORMALIZED FREE ENERGY PREDICTED BY IDOCK:   -5.38 KCAL/MOL
REMARK 922        TOTAL FREE ENERGY PREDICTED BY IDOCK:   -7.37 KCAL/MOL
REMARK 923 INTER-LIGAND FREE ENERGY PREDICTED BY IDOCK:   -6.60 KCAL/MOL
REMARK 924 INTRA-LIGAND FREE ENERGY PREDICTED BY IDOCK:   -0.77 KCAL/MOL
REMARK 927      BINDING AFFINITY PREDICTED BY RF-SCORE:    0.00 PKD
ROOT
HETATM    1  O   UNL     1     -12.239  12.346  65.919  1.00  0.00    -0.629 OA 
HETATM    2  C   UNL     1     -11.083  12.369  66.305  1.00  0.00    -0.303 C  
HETATM    3  N   UNL     1     -10.342  13.553  66.552  1.00  0.00    -0.277 N  
HETATM    4  C   UNL     1      -6.661  10.532  66.197  1.00  0.00    -0.127 C  
HETATM    5  C   UNL     1      -8.919  13.183  66.702  1.00  0.00    -0.125 C  
HETATM    6  C   UNL     1      -8.219  13.442  68.032  1.00  0.00    -0.161 C  
HETATM    7  N   UNL     1     -10.305  11.256  66.714  1.00  0.00    -0.229 N  
HETATM    8  C   UNL     1      -8.936  11.669  66.440  1.00  0.00    -0.198 C  
HETATM    9  S   UNL     1      -7.092  12.066  68.433  1.00  0.00    -0.091 S  
HETATM   10  C   UNL     1      -7.792  10.940  67.152  1.00  0.00    -0.127 C  
HETATM   11  C   UNL     1      -5.687  12.419  67.322  1.00  0.00    -0.114 C  
HETATM   12  C   UNL     1      -5.349  11.043  66.765  1.00  0.00    -0.081 C  
ENDROOT
BRANCH   3  13
HETATM   13  C   UNL     1     -11.080  14.456  67.416  1.00  0.00    -0.308 C  
BRANCH  13  14
HETATM   14  C   UNL     1     -10.704  15.902  67.404  1.00  0.00    -0.313 A  
HETATM   15  C   UNL     1     -10.532  18.017  68.584  1.00  0.00    -0.236 A  
HETATM   16  C   UNL     1     -10.348  17.966  66.178  1.00  0.00    -0.352 A  
HETATM   17  C   UNL     1     -10.718  16.636  68.599  1.00  0.00    -0.349 A  
HETATM   18  C   UNL     1     -10.531  16.582  66.191  1.00  0.00    -0.301 A  
HETATM   19  C   UNL     1     -10.343  18.681  67.375  1.00  0.00    -0.447 A  
ENDBRANCH  13  14
ENDBRANCH   3  13
BRANCH   7  20
HETATM   20  C   UNL     1     -10.617  10.776  68.068  1.00  0.00    -0.207 C  
BRANCH  20  21
HETATM   21  C   UNL     1     -10.689   9.287  68.302  1.00  0.00    -0.195 A  
HETATM   22  C   UNL     1     -10.840   8.727  69.575  1.00  0.00    -0.151 A  
HETATM   23  C   UNL     1     -10.846   7.343  69.748  1.00  0.00    -0.246 A  
HETATM   24  C   UNL     1     -10.762   6.505  68.641  1.00  0.00    -0.323 A  
HETATM   25  C   UNL     1     -10.678   7.047  67.362  1.00  0.00    -0.383 A  
HETATM   26  C   UNL     1     -10.652   8.429  67.190  1.00  0.00    -0.326 A  
ENDBRANCH  20  21
ENDBRANCH   7  20
TORSDOF 4
ENDMDL
MODEL       53
REMARK 921   NORMALIZED FREE ENERGY PREDICTED BY IDOCK:   -5.37 KCAL/MOL
REMARK 922        TOTAL FREE ENERGY PREDICTED BY IDOCK:   -7.35 KCAL/MOL
REMARK 923 INTER-LIGAND FREE ENERGY PREDICTED BY IDOCK:   -6.58 KCAL/MOL
REMARK 924 INTRA-LIGAND FREE ENERGY PREDICTED BY IDOCK:   -0.77 KCAL/MOL
REMARK 927      BINDING AFFINITY PREDICTED BY RF-SCORE:    0.00 PKD
ROOT
HETATM    1  O   UNL     1      -9.330  10.432  67.547  1.00  0.00    -0.147 OA 
HETATM    2  C   UNL     1      -9.719   9.841  68.539  1.00  0.00    -0.154 C  
HETATM    3  N   UNL     1     -10.510  10.423  69.563  1.00  0.00    -0.236 N  
HETATM    4  C   UNL     1      -8.918   6.652  72.022  1.00  0.00    -0.139 C  
HETATM    5  C   UNL     1     -10.518   9.503  70.719  1.00  0.00    -0.314 C  
HETATM    6  C   UNL     1     -11.839   8.892  71.174  1.00  0.00    -0.298 C  
HETATM    7  N   UNL     1      -9.593   8.452  68.802  1.00  0.00    -0.148 N  
HETATM    8  C   UNL     1      -9.586   8.372  70.256  1.00  0.00    -0.165 C  
HETATM    9  S   UNL     1     -11.595   7.155  71.672  1.00  0.00    -0.292 S  
HETATM   10  C   UNL     1      -9.917   7.033  70.920  1.00  0.00    -0.193 C  
HETATM   11  C   UNL     1     -10.819   7.358  73.313  1.00  0.00    -0.368 C  
HETATM   12  C   UNL     1      -9.701   6.326  73.282  1.00  0.00    -0.168 C  
ENDROOT
BRANCH   3  13
HETATM   13  C   UNL     1     -11.669  11.096  69.005  1.00  0.00    -0.339 C  
BRANCH  13  14
HETATM   14  C   UNL     1     -11.637  12.586  68.911  1.00  0.00    -0.364 A  
HETATM   15  C   UNL     1     -12.067  14.746  69.933  1.00  0.00    -0.381 A  
HETATM   16  C   UNL     1     -11.656  14.601  67.559  1.00  0.00    -0.396 A  
HETATM   17  C   UNL     1     -11.930  13.363  70.040  1.00  0.00    -0.407 A  
HETATM   18  C   UNL     1     -11.515  13.217  67.665  1.00  0.00    -0.366 A  
HETATM   19  C   UNL     1     -11.926  15.365  68.694  1.00  0.00    -0.240 A  
ENDBRANCH  13  14
ENDBRANCH   3  13
BRANCH   7  20
HETATM   20  C   UNL     1     -10.562   7.618  68.075  1.00  0.00    -0.151 C  
BRANCH  20  21
HETATM   21  C   UNL     1     -10.040   6.646  67.046  1.00  0.00    -0.247 A  
HETATM   22  C   UNL     1      -8.833   6.839  66.365  1.00  0.00    -0.153 A  
HETATM   23  C   UNL     1      -8.418   5.941  65.382  1.00  0.00    -0.153 A  
HETATM   24  C   UNL     1      -9.176   4.807  65.114  1.00  0.00    -0.148 A  
HETATM   25  C   UNL     1     -10.345   4.565  65.830  1.00  0.00    -0.289 A  
HETATM   26  C   UNL     1     -10.771   5.473  66.798  1.00  0.00    -0.329 A  
ENDBRANCH  20  21
ENDBRANCH   7  20
TORSDOF 4
ENDMDL
MODEL       54
REMARK 921   NORMALIZED FREE ENERGY PREDICTED BY IDOCK:   -5.29 KCAL/MOL
REMARK 922        TOTAL FREE ENERGY PREDICTED BY IDOCK:   -7.26 KCAL/MOL
REMARK 923 INTER-LIGAND FREE ENERGY PREDICTED BY IDOCK:   -6.46 KCAL/MOL
REMARK 924 INTRA-LIGAND FREE ENERGY PREDICTED BY IDOCK:   -0.80 KCAL/MOL
REMARK 927      BINDING AFFINITY PREDICTED BY RF-SCORE:    0.00 PKD
ROOT
HETATM    1  O   UNL     1     -11.478   6.669  67.558  1.00  0.00    -0.161 OA 
HETATM    2  C   UNL     1     -10.990   6.287  68.607  1.00  0.00    -0.346 C  
HETATM    3  N   UNL     1      -9.952   5.325  68.706  1.00  0.00    -0.165 N  
HETATM    4  C   UNL     1     -11.531   5.060  73.205  1.00  0.00    -0.362 C  
HETATM    5  C   UNL     1      -9.846   4.905  70.119  1.00  0.00    -0.239 C  
HETATM    6  C   UNL     1      -8.555   5.178  70.882  1.00  0.00    -0.123 C  
HETATM    7  N   UNL     1     -11.245   6.811  69.900  1.00  0.00    -0.318 N  
HETATM    8  C   UNL     1     -10.989   5.685  70.788  1.00  0.00    -0.187 C  
HETATM    9  S   UNL     1      -8.925   5.677  72.596  1.00  0.00    -0.131 S  
HETATM   10  C   UNL     1     -10.716   5.964  72.269  1.00  0.00    -0.234 C  
HETATM   11  C   UNL     1      -9.345   4.070  73.354  1.00  0.00    -0.107 C  
HETATM   12  C   UNL     1     -10.575   4.407  74.187  1.00  0.00    -0.329 C  
ENDROOT
BRANCH   3  13
HETATM   13  C   UNL     1      -8.841   5.669  67.838  1.00  0.00    -0.105 C  
BRANCH  13  14
HETATM   14  C   UNL     1      -8.692   4.915  66.556  1.00  0.00    -0.112 A  
HETATM   15  C   UNL     1      -8.443   4.945  64.141  1.00  0.00    -0.137 A  
HETATM   16  C   UNL     1      -9.037   2.891  65.263  1.00  0.00    -0.149 A  
HETATM   17  C   UNL     1      -8.423   5.608  65.368  1.00  0.00    -0.147 A  
HETATM   18  C   UNL     1      -9.013   3.553  66.492  1.00  0.00    -0.154 A  
HETATM   19  C   UNL     1      -8.747   3.587  64.090  1.00  0.00    -0.097 A  
ENDBRANCH  13  14
ENDBRANCH   3  13
BRANCH   7  20
HETATM   20  C   UNL     1     -10.548   8.075  70.179  1.00  0.00    -0.237 C  
BRANCH  20  21
HETATM   21  C   UNL     1     -11.364   9.256  70.642  1.00  0.00    -0.330 A  
HETATM   22  C   UNL     1     -12.266   9.182  71.710  1.00  0.00    -0.442 A  
HETATM   23  C   UNL     1     -13.039  10.286  72.067  1.00  0.00    -0.529 A  
HETATM   24  C   UNL     1     -12.875  11.493  71.398  1.00  0.00    -0.489 A  
HETATM   25  C   UNL     1     -11.934  11.603  70.378  1.00  0.00    -0.448 A  
HETATM   26  C   UNL     1     -11.176  10.495  70.007  1.00  0.00    -0.386 A  
ENDBRANCH  20  21
ENDBRANCH   7  20
TORSDOF 4
ENDMDL
MODEL       55
REMARK 921   NORMALIZED FREE ENERGY PREDICTED BY IDOCK:   -5.28 KCAL/MOL
REMARK 922        TOTAL FREE ENERGY PREDICTED BY IDOCK:   -7.25 KCAL/MOL
REMARK 923 INTER-LIGAND FREE ENERGY PREDICTED BY IDOCK:   -6.71 KCAL/MOL
REMARK 924 INTRA-LIGAND FREE ENERGY PREDICTED BY IDOCK:   -0.54 KCAL/MOL
REMARK 927      BINDING AFFINITY PREDICTED BY RF-SCORE:    0.00 PKD
ROOT
HETATM    1  O   UNL     1     -11.807  11.035  66.856  1.00  0.00    -0.237 OA 
HETATM    2  C   UNL     1     -11.389  12.169  67.020  1.00  0.00    -0.337 C  
HETATM    3  N   UNL     1     -11.415  12.863  68.257  1.00  0.00    -0.288 N  
HETATM    4  C   UNL     1     -10.839  16.639  65.392  1.00  0.00    -0.182 C  
HETATM    5  C   UNL     1     -11.115  14.286  67.993  1.00  0.00    -0.269 C  
HETATM    6  C   UNL     1      -9.864  14.908  68.604  1.00  0.00    -0.225 C  
HETATM    7  N   UNL     1     -10.680  12.955  66.076  1.00  0.00    -0.274 N  
HETATM    8  C   UNL     1     -10.988  14.325  66.462  1.00  0.00    -0.316 C  
HETATM    9  S   UNL     1      -9.081  16.050  67.417  1.00  0.00    -0.201 S  
HETATM   10  C   UNL     1     -10.068  15.450  65.980  1.00  0.00    -0.324 C  
HETATM   11  C   UNL     1     -10.182  17.501  67.537  1.00  0.00    -0.340 C  
HETATM   12  C   UNL     1     -10.360  17.905  66.080  1.00  0.00    -0.352 C  
ENDROOT
BRANCH   3  13
HETATM   13  C   UNL     1     -10.839  12.057  69.317  1.00  0.00    -0.076 C  
BRANCH  13  14
HETATM   14  C   UNL     1     -11.765  11.244  70.163  1.00  0.00    -0.429 A  
HETATM   15  C   UNL     1     -13.501  11.160  71.858  1.00  0.00    -0.284 A  
HETATM   16  C   UNL     1     -12.303   9.150  71.264  1.00  0.00    -0.382 A  
HETATM   17  C   UNL     1     -12.740  11.884  70.941  1.00  0.00    -0.301 A  
HETATM   18  C   UNL     1     -11.543   9.872  70.343  1.00  0.00    -0.356 A  
HETATM   19  C   UNL     1     -13.285   9.793  72.016  1.00  0.00    -0.557 A  
ENDBRANCH  13  14
ENDBRANCH   3  13
BRANCH   7  20
HETATM   20  C   UNL     1      -9.263  12.586  65.938  1.00  0.00     0.054 C  
BRANCH  20  21
HETATM   21  C   UNL     1      -8.920  11.131  65.731  1.00  0.00    -0.207 A  
HETATM   22  C   UNL     1      -8.539  10.286  66.779  1.00  0.00    -0.129 A  
HETATM   23  C   UNL     1      -8.177   8.963  66.533  1.00  0.00    -0.114 A  
HETATM   24  C   UNL     1      -8.251   8.453  65.241  1.00  0.00    -0.151 A  
HETATM   25  C   UNL     1      -8.692   9.261  64.197  1.00  0.00    -0.201 A  
HETATM   26  C   UNL     1      -9.034  10.590  64.440  1.00  0.00    -0.232 A  
ENDBRANCH  20  21
ENDBRANCH   7  20
TORSDOF 4
ENDMDL
MODEL       56
REMARK 921   NORMALIZED FREE ENERGY PREDICTED BY IDOCK:   -5.27 KCAL/MOL
REMARK 922        TOTAL FREE ENERGY PREDICTED BY IDOCK:   -7.24 KCAL/MOL
REMARK 923 INTER-LIGAND FREE ENERGY PREDICTED BY IDOCK:   -6.45 KCAL/MOL
REMARK 924 INTRA-LIGAND FREE ENERGY PREDICTED BY IDOCK:   -0.79 KCAL/MOL
REMARK 927      BINDING AFFINITY PREDICTED BY RF-SCORE:    0.00 PKD
ROOT
HETATM    1  O   UNL     1     -10.101   7.889  67.781  1.00  0.00    -0.170 OA 
HETATM    2  C   UNL     1     -10.365   9.069  67.627  1.00  0.00    -0.257 C  
HETATM    3  N   UNL     1     -10.819   9.931  68.658  1.00  0.00    -0.223 N  
HETATM    4  C   UNL     1     -12.222  12.563  64.929  1.00  0.00    -0.534 C  
HETATM    5  C   UNL     1     -11.316  11.174  68.034  1.00  0.00    -0.312 C  
HETATM    6  C   UNL     1     -10.625  12.496  68.352  1.00  0.00    -0.242 C  
HETATM    7  N   UNL     1     -10.144   9.840  66.458  1.00  0.00    -0.236 N  
HETATM    8  C   UNL     1     -11.158  10.884  66.533  1.00  0.00    -0.048 C  
HETATM    9  S   UNL     1     -10.521  13.533  66.855  1.00  0.00    -0.272 S  
HETATM   10  C   UNL     1     -10.962  12.159  65.708  1.00  0.00    -0.297 C  
HETATM   11  C   UNL     1     -12.234  14.154  66.731  1.00  0.00    -0.394 C  
HETATM   12  C   UNL     1     -12.531  14.016  65.245  1.00  0.00    -0.495 C  
ENDROOT
BRANCH   3  13
HETATM   13  C   UNL     1      -9.952   9.853  69.819  1.00  0.00    -0.243 C  
BRANCH  13  14
HETATM   14  C   UNL     1     -10.389   9.001  70.966  1.00  0.00    -0.348 A  
HETATM   15  C   UNL     1     -12.162   8.254  72.447  1.00  0.00    -0.412 A  
HETATM   16  C   UNL     1      -9.858   7.803  73.008  1.00  0.00    -0.344 A  
HETATM   17  C   UNL     1     -11.750   8.909  71.286  1.00  0.00    -0.370 A  
HETATM   18  C   UNL     1      -9.445   8.454  71.845  1.00  0.00    -0.323 A  
HETATM   19  C   UNL     1     -11.217   7.699  73.305  1.00  0.00    -0.167 A  
ENDBRANCH  13  14
ENDBRANCH   3  13
BRANCH   7  20
HETATM   20  C   UNL     1      -8.746  10.257  66.274  1.00  0.00    -0.146 C  
BRANCH  20  21
HETATM   21  C   UNL     1      -8.020   9.799  65.034  1.00  0.00    -0.131 A  
HETATM   22  C   UNL     1      -6.836  10.395  64.585  1.00  0.00    -0.013 A  
HETATM   23  C   UNL     1      -6.230   9.974  63.402  1.00  0.00    -0.133 A  
HETATM   24  C   UNL     1      -6.768   8.910  62.687  1.00  0.00    -0.094 A  
HETATM   25  C   UNL     1      -7.908   8.262  63.156  1.00  0.00    -0.148 A  
HETATM   26  C   UNL     1      -8.526   8.695  64.326  1.00  0.00    -0.101 A  
ENDBRANCH  20  21
ENDBRANCH   7  20
TORSDOF 4
ENDMDL
MODEL       57
REMARK 921   NORMALIZED FREE ENERGY PREDICTED BY IDOCK:   -5.25 KCAL/MOL
REMARK 922        TOTAL FREE ENERGY PREDICTED BY IDOCK:   -7.21 KCAL/MOL
REMARK 923 INTER-LIGAND FREE ENERGY PREDICTED BY IDOCK:   -6.73 KCAL/MOL
REMARK 924 INTRA-LIGAND FREE ENERGY PREDICTED BY IDOCK:   -0.48 KCAL/MOL
REMARK 927      BINDING AFFINITY PREDICTED BY RF-SCORE:    0.00 PKD
ROOT
HETATM    1  O   UNL     1      -8.933   9.544  68.479  1.00  0.00    -0.127 OA 
HETATM    2  C   UNL     1      -9.421  10.573  68.045  1.00  0.00    -0.148 C  
HETATM    3  N   UNL     1      -9.396  10.961  66.680  1.00  0.00    -0.168 N  
HETATM    4  C   UNL     1     -10.340  15.244  68.568  1.00  0.00    -0.231 C  
HETATM    5  C   UNL     1      -9.804  12.378  66.597  1.00  0.00    -0.223 C  
HETATM    6  C   UNL     1     -11.071  12.745  65.832  1.00  0.00    -0.287 C  
HETATM    7  N   UNL     1     -10.219  11.501  68.763  1.00  0.00    -0.211 N  
HETATM    8  C   UNL     1      -9.991  12.762  68.073  1.00  0.00    -0.225 C  
HETATM    9  S   UNL     1     -11.975  14.068  66.701  1.00  0.00    -0.452 S  
HETATM   10  C   UNL     1     -11.005  13.895  68.258  1.00  0.00    -0.255 C  
HETATM   11  C   UNL     1     -10.973  15.532  66.267  1.00  0.00    -0.242 C  
HETATM   12  C   UNL     1     -10.879  16.275  67.592  1.00  0.00    -0.293 C  
ENDROOT
BRANCH   3  13
HETATM   13  C   UNL     1      -9.874   9.889  65.827  1.00  0.00    -0.287 C  
BRANCH  13  14
HETATM   14  C   UNL     1      -9.112   9.594  64.576  1.00  0.00    -0.287 A  
HETATM   15  C   UNL     1      -7.595   8.143  63.356  1.00  0.00    -0.132 A  
HETATM   16  C   UNL     1      -8.041  10.371  62.542  1.00  0.00    -0.186 A  
HETATM   17  C   UNL     1      -8.443   8.370  64.440  1.00  0.00    -0.056 A  
HETATM   18  C   UNL     1      -8.893  10.598  63.624  1.00  0.00    -0.183 A  
HETATM   19  C   UNL     1      -7.398   9.142  62.407  1.00  0.00    -0.099 A  
ENDBRANCH  13  14
ENDBRANCH   3  13
BRANCH   7  20
HETATM   20  C   UNL     1     -11.610  11.067  68.954  1.00  0.00    -0.314 C  
BRANCH  20  21
HETATM   21  C   UNL     1     -11.957  10.304  70.210  1.00  0.00    -0.348 A  
HETATM   22  C   UNL     1     -11.239   9.181  70.636  1.00  0.00    -0.322 A  
HETATM   23  C   UNL     1     -11.630   8.476  71.774  1.00  0.00    -0.380 A  
HETATM   24  C   UNL     1     -12.707   8.923  72.531  1.00  0.00    -0.382 A  
HETATM   25  C   UNL     1     -13.390  10.077  72.158  1.00  0.00    -0.469 A  
HETATM   26  C   UNL     1     -13.013  10.771  71.010  1.00  0.00    -0.425 A  
ENDBRANCH  20  21
ENDBRANCH   7  20
TORSDOF 4
ENDMDL
MODEL       58
REMARK 921   NORMALIZED FREE ENERGY PREDICTED BY IDOCK:   -5.23 KCAL/MOL
REMARK 922        TOTAL FREE ENERGY PREDICTED BY IDOCK:   -7.19 KCAL/MOL
REMARK 923 INTER-LIGAND FREE ENERGY PREDICTED BY IDOCK:   -7.41 KCAL/MOL
REMARK 924 INTRA-LIGAND FREE ENERGY PREDICTED BY IDOCK:    0.23 KCAL/MOL
REMARK 927      BINDING AFFINITY PREDICTED BY RF-SCORE:    0.00 PKD
ROOT
HETATM    1  O   UNL     1      -8.898  13.677  67.964  1.00  0.00    -0.171 OA 
HETATM    2  C   UNL     1      -9.081  12.472  67.943  1.00  0.00    -0.199 C  
HETATM    3  N   UNL     1      -9.997  11.784  68.781  1.00  0.00    -0.163 N  
HETATM    4  C   UNL     1      -7.322   8.038  67.510  1.00  0.00    -0.089 C  
HETATM    5  C   UNL     1      -9.716  10.337  68.680  1.00  0.00    -0.167 C  
HETATM    6  C   UNL     1     -10.788   9.408  68.123  1.00  0.00    -0.119 C  
HETATM    7  N   UNL     1      -8.542  11.549  67.010  1.00  0.00    -0.155 N  
HETATM    8  C   UNL     1      -8.494  10.295  67.749  1.00  0.00    -0.114 C  
HETATM    9  S   UNL     1     -10.031   8.127  67.069  1.00  0.00    -0.287 S  
HETATM   10  C   UNL     1      -8.402   8.983  66.965  1.00  0.00    -0.116 C  
HETATM   11  C   UNL     1      -9.331   6.999  68.323  1.00  0.00    -0.126 C  
HETATM   12  C   UNL     1      -7.956   6.680  67.753  1.00  0.00    -0.112 C  
ENDROOT
BRANCH   3  13
HETATM   13  C   UNL     1     -11.310  12.399  68.729  1.00  0.00    -0.293 C  
BRANCH  13  14
HETATM   14  C   UNL     1     -12.007  12.676  70.021  1.00  0.00    -0.377 A  
HETATM   15  C   UNL     1     -13.169  11.837  71.980  1.00  0.00    -0.460 A  
HETATM   16  C   UNL     1     -13.270  14.187  71.439  1.00  0.00    -0.418 A  
HETATM   17  C   UNL     1     -12.376  11.612  70.856  1.00  0.00    -0.436 A  
HETATM   18  C   UNL     1     -12.473  13.965  70.315  1.00  0.00    -0.380 A  
HETATM   19  C   UNL     1     -13.612  13.124  72.274  1.00  0.00    -0.677 A  
ENDBRANCH  13  14
ENDBRANCH   3  13
BRANCH   7  20
HETATM   20  C   UNL     1      -9.226  11.551  65.708  1.00  0.00    -0.196 C  
BRANCH  20  21
HETATM   21  C   UNL     1     -10.303  12.580  65.467  1.00  0.00    -0.303 A  
HETATM   22  C   UNL     1     -11.665  12.304  65.627  1.00  0.00    -0.440 A  
HETATM   23  C   UNL     1     -12.627  13.271  65.339  1.00  0.00    -0.526 A  
HETATM   24  C   UNL     1     -12.233  14.545  64.945  1.00  0.00    -0.409 A  
HETATM   25  C   UNL     1     -10.880  14.856  64.845  1.00  0.00    -0.431 A  
HETATM   26  C   UNL     1      -9.919  13.884  65.113  1.00  0.00    -0.249 A  
ENDBRANCH  20  21
ENDBRANCH   7  20
TORSDOF 4
ENDMDL
MODEL       59
REMARK 921   NORMALIZED FREE ENERGY PREDICTED BY IDOCK:   -5.21 KCAL/MOL
REMARK 922        TOTAL FREE ENERGY PREDICTED BY IDOCK:   -7.15 KCAL/MOL
REMARK 923 INTER-LIGAND FREE ENERGY PREDICTED BY IDOCK:   -6.31 KCAL/MOL
REMARK 924 INTRA-LIGAND FREE ENERGY PREDICTED BY IDOCK:   -0.84 KCAL/MOL
REMARK 927      BINDING AFFINITY PREDICTED BY RF-SCORE:    0.00 PKD
ROOT
HETATM    1  O   UNL     1     -11.393   6.629  67.751  1.00  0.00    -0.227 OA 
HETATM    2  C   UNL     1     -10.894   6.216  68.784  1.00  0.00    -0.336 C  
HETATM    3  N   UNL     1      -9.824   5.287  68.843  1.00  0.00    -0.151 N  
HETATM    4  C   UNL     1     -11.402   4.763  73.319  1.00  0.00    -0.408 C  
HETATM    5  C   UNL     1      -9.707   4.807  70.235  1.00  0.00    -0.225 C  
HETATM    6  C   UNL     1      -8.427   5.089  71.015  1.00  0.00    -0.118 C  
HETATM    7  N   UNL     1     -11.170   6.671  70.099  1.00  0.00    -0.331 N  
HETATM    8  C   UNL     1     -10.877   5.516  70.936  1.00  0.00    -0.176 C  
HETATM    9  S   UNL     1      -8.818   5.497  72.749  1.00  0.00    -0.121 S  
HETATM   10  C   UNL     1     -10.618   5.737  72.429  1.00  0.00    -0.220 C  
HETATM   11  C   UNL     1      -9.184   3.843  73.432  1.00  0.00    -0.104 C  
HETATM   12  C   UNL     1     -10.426   4.099  74.274  1.00  0.00    -0.295 C  
ENDROOT
BRANCH   3  13
HETATM   13  C   UNL     1      -8.723   5.708  67.995  1.00  0.00    -0.099 C  
BRANCH  13  14
HETATM   14  C   UNL     1      -8.384   4.860  66.813  1.00  0.00    -0.107 A  
HETATM   15  C   UNL     1      -7.480   4.688  64.566  1.00  0.00    -0.072 A  
HETATM   16  C   UNL     1      -8.765   2.864  65.487  1.00  0.00    -0.125 A  
HETATM   17  C   UNL     1      -7.663   5.411  65.745  1.00  0.00    -0.087 A  
HETATM   18  C   UNL     1      -8.946   3.584  66.668  1.00  0.00    -0.158 A  
HETATM   19  C   UNL     1      -8.027   3.414  64.439  1.00  0.00    -0.086 A  
ENDBRANCH  13  14
ENDBRANCH   3  13
BRANCH   7  20
HETATM   20  C   UNL     1     -10.517   7.945  70.437  1.00  0.00    -0.218 C  
BRANCH  20  21
HETATM   21  C   UNL     1     -11.388   9.119  70.809  1.00  0.00    -0.337 A  
HETATM   22  C   UNL     1     -11.275  10.371  70.193  1.00  0.00    -0.393 A  
HETATM   23  C   UNL     1     -12.064  11.443  70.607  1.00  0.00    -0.469 A  
HETATM   24  C   UNL     1     -13.019  11.258  71.602  1.00  0.00    -0.537 A  
HETATM   25  C   UNL     1     -13.191  10.002  72.178  1.00  0.00    -0.489 A  
HETATM   26  C   UNL     1     -12.388   8.936  71.778  1.00  0.00    -0.424 A  
ENDBRANCH  20  21
ENDBRANCH   7  20
TORSDOF 4
ENDMDL
MODEL       60
REMARK 921   NORMALIZED FREE ENERGY PREDICTED BY IDOCK:   -5.19 KCAL/MOL
REMARK 922        TOTAL FREE ENERGY PREDICTED BY IDOCK:   -7.13 KCAL/MOL
REMARK 923 INTER-LIGAND FREE ENERGY PREDICTED BY IDOCK:   -7.01 KCAL/MOL
REMARK 924 INTRA-LIGAND FREE ENERGY PREDICTED BY IDOCK:   -0.12 KCAL/MOL
REMARK 927      BINDING AFFINITY PREDICTED BY RF-SCORE:    0.00 PKD
ROOT
HETATM    1  O   UNL     1      -6.972  18.226  65.111  1.00  0.00    -0.463 OA 
HETATM    2  C   UNL     1      -6.803  17.593  66.138  1.00  0.00    -0.293 C  
HETATM    3  N   UNL     1      -6.109  18.079  67.276  1.00  0.00    -0.149 N  
HETATM    4  C   UNL     1      -5.897  13.423  68.314  1.00  0.00    -0.097 C  
HETATM    5  C   UNL     1      -5.849  16.939  68.180  1.00  0.00    -0.119 C  
HETATM    6  C   UNL     1      -6.469  16.938  69.573  1.00  0.00    -0.223 C  
HETATM    7  N   UNL     1      -7.369  16.332  66.459  1.00  0.00    -0.170 N  
HETATM    8  C   UNL     1      -6.412  15.748  67.389  1.00  0.00    -0.158 C  
HETATM    9  S   UNL     1      -7.023  15.258  70.018  1.00  0.00     0.031 S  
HETATM   10  C   UNL     1      -6.874  14.607  68.300  1.00  0.00    -0.116 C  
HETATM   11  C   UNL     1      -5.437  14.457  70.434  1.00  0.00    -0.118 C  
HETATM   12  C   UNL     1      -5.563  13.098  69.759  1.00  0.00    -0.107 C  
ENDROOT
BRANCH   3  13
HETATM   13  C   UNL     1      -6.614  19.380  67.675  1.00  0.00    -0.217 C  
BRANCH  13  14
HETATM   14  C   UNL     1      -8.090  19.604  67.634  1.00  0.00    -0.325 A  
HETATM   15  C   UNL     1     -10.279  19.237  68.619  1.00  0.00    -0.438 A  
HETATM   16  C   UNL     1     -10.102  20.087  66.367  1.00  0.00    -0.609 A  
HETATM   17  C   UNL     1      -8.888  19.187  68.708  1.00  0.00    -0.372 A  
HETATM   18  C   UNL     1      -8.710  20.042  66.456  1.00  0.00    -0.384 A  
HETATM   19  C   UNL     1     -10.885  19.690  67.450  1.00  0.00    -0.497 A  
ENDBRANCH  13  14
ENDBRANCH   3  13
BRANCH   7  20
HETATM   20  C   UNL     1      -8.776  16.401  66.880  1.00  0.00    -0.204 C  
BRANCH  20  21
HETATM   21  C   UNL     1      -9.815  15.734  66.014  1.00  0.00    -0.366 A  
HETATM   22  C   UNL     1     -10.746  16.453  65.256  1.00  0.00    -0.312 A  
HETATM   23  C   UNL     1     -11.724  15.793  64.513  1.00  0.00    -0.191 A  
HETATM   24  C   UNL     1     -11.743  14.403  64.472  1.00  0.00    -0.430 A  
HETATM   25  C   UNL     1     -10.783  13.672  65.166  1.00  0.00    -0.359 A  
HETATM   26  C   UNL     1      -9.818  14.332  65.926  1.00  0.00    -0.322 A  
ENDBRANCH  20  21
ENDBRANCH   7  20
TORSDOF 4
ENDMDL
MODEL       61
REMARK 921   NORMALIZED FREE ENERGY PREDICTED BY IDOCK:   -5.18 KCAL/MOL
REMARK 922        TOTAL FREE ENERGY PREDICTED BY IDOCK:   -7.13 KCAL/MOL
REMARK 923 INTER-LIGAND FREE ENERGY PREDICTED BY IDOCK:   -6.50 KCAL/MOL
REMARK 924 INTRA-LIGAND FREE ENERGY PREDICTED BY IDOCK:   -0.62 KCAL/MOL
REMARK 927      BINDING AFFINITY PREDICTED BY RF-SCORE:    0.00 PKD
ROOT
HETATM    1  O   UNL     1      -6.868  13.005  68.403  1.00  0.00    -0.080 OA 
HETATM    2  C   UNL     1      -7.989  13.120  67.940  1.00  0.00    -0.158 C  
HETATM    3  N   UNL     1      -8.914  12.054  67.800  1.00  0.00    -0.169 N  
HETATM    4  C   UNL     1     -10.944  15.094  64.728  1.00  0.00    -0.394 C  
HETATM    5  C   UNL     1     -10.020  12.512  66.934  1.00  0.00    -0.224 C  
HETATM    6  C   UNL     1     -11.432  12.580  67.504  1.00  0.00    -0.336 C  
HETATM    7  N   UNL     1      -8.640  14.331  67.587  1.00  0.00    -0.171 N  
HETATM    8  C   UNL     1      -9.576  13.932  66.546  1.00  0.00    -0.287 C  
HETATM    9  S   UNL     1     -12.296  14.061  66.883  1.00  0.00    -0.150 S  
HETATM   10  C   UNL     1     -10.762  14.849  66.232  1.00  0.00    -0.320 C  
HETATM   11  C   UNL     1     -12.721  13.542  65.185  1.00  0.00    -0.399 C  
HETATM   12  C   UNL     1     -12.384  14.779  64.365  1.00  0.00    -0.389 C  
ENDROOT
BRANCH   3  13
HETATM   13  C   UNL     1      -9.058  11.325  69.047  1.00  0.00     0.029 C  
BRANCH  13  14
HETATM   14  C   UNL     1      -9.699   9.976  69.002  1.00  0.00    -0.204 A  
HETATM   15  C   UNL     1     -10.801   8.156  70.171  1.00  0.00    -0.241 A  
HETATM   16  C   UNL     1      -9.950   7.810  67.939  1.00  0.00    -0.212 A  
HETATM   17  C   UNL     1     -10.343   9.472  70.141  1.00  0.00    -0.300 A  
HETATM   18  C   UNL     1      -9.494   9.128  67.905  1.00  0.00    -0.158 A  
HETATM   19  C   UNL     1     -10.608   7.326  69.069  1.00  0.00    -0.214 A  
ENDBRANCH  13  14
ENDBRANCH   3  13
BRANCH   7  20
HETATM   20  C   UNL     1      -9.173  15.077  68.737  1.00  0.00    -0.200 C  
BRANCH  20  21
HETATM   21  C   UNL     1      -9.098  16.584  68.710  1.00  0.00    -0.256 A  
HETATM   22  C   UNL     1     -10.205  17.402  68.959  1.00  0.00    -0.317 A  
HETATM   23  C   UNL     1     -10.100  18.789  68.869  1.00  0.00    -0.360 A  
HETATM   24  C   UNL     1      -8.871  19.375  68.587  1.00  0.00    -0.417 A  
HETATM   25  C   UNL     1      -7.745  18.578  68.403  1.00  0.00    -0.319 A  
HETATM   26  C   UNL     1      -7.853  17.191  68.473  1.00  0.00    -0.257 A  
ENDBRANCH  20  21
ENDBRANCH   7  20
TORSDOF 4
ENDMDL
MODEL       62
REMARK 921   NORMALIZED FREE ENERGY PREDICTED BY IDOCK:   -5.18 KCAL/MOL
REMARK 922        TOTAL FREE ENERGY PREDICTED BY IDOCK:   -7.12 KCAL/MOL
REMARK 923 INTER-LIGAND FREE ENERGY PREDICTED BY IDOCK:   -6.28 KCAL/MOL
REMARK 924 INTRA-LIGAND FREE ENERGY PREDICTED BY IDOCK:   -0.85 KCAL/MOL
REMARK 927      BINDING AFFINITY PREDICTED BY RF-SCORE:    0.00 PKD
ROOT
HETATM    1  O   UNL     1     -12.162   6.809  70.779  1.00  0.00    -0.390 OA 
HETATM    2  C   UNL     1     -11.313   6.679  69.914  1.00  0.00    -0.364 C  
HETATM    3  N   UNL     1     -10.712   7.755  69.211  1.00  0.00    -0.190 N  
HETATM    4  C   UNL     1      -9.582   4.260  66.161  1.00  0.00    -0.199 C  
HETATM    5  C   UNL     1      -9.978   7.199  68.056  1.00  0.00    -0.158 C  
HETATM    6  C   UNL     1      -8.466   7.377  67.979  1.00  0.00    -0.123 C  
HETATM    7  N   UNL     1     -10.661   5.476  69.540  1.00  0.00    -0.306 N  
HETATM    8  C   UNL     1     -10.294   5.697  68.149  1.00  0.00    -0.197 C  
HETATM    9  S   UNL     1      -7.683   5.866  67.325  1.00  0.00    -0.102 S  
HETATM   10  C   UNL     1      -9.193   4.829  67.532  1.00  0.00    -0.127 C  
HETATM   11  C   UNL     1      -8.056   6.011  65.543  1.00  0.00    -0.133 C  
HETATM   12  C   UNL     1      -8.477   4.596  65.175  1.00  0.00    -0.130 C  
ENDROOT
BRANCH   3  13
HETATM   13  C   UNL     1     -10.212   8.761  70.130  1.00  0.00    -0.190 C  
BRANCH  13  14
HETATM   14  C   UNL     1     -10.749  10.150  70.012  1.00  0.00    -0.356 A  
HETATM   15  C   UNL     1     -12.432  11.790  70.623  1.00  0.00    -0.364 A  
HETATM   16  C   UNL     1     -10.966  12.213  68.753  1.00  0.00    -0.274 A  
HETATM   17  C   UNL     1     -11.811  10.558  70.830  1.00  0.00    -0.455 A  
HETATM   18  C   UNL     1     -10.341  10.983  68.961  1.00  0.00    -0.229 A  
HETATM   19  C   UNL     1     -12.007  12.617  69.587  1.00  0.00    -0.352 A  
ENDBRANCH  13  14
ENDBRANCH   3  13
BRANCH   7  20
HETATM   20  C   UNL     1      -9.600   5.060  70.470  1.00  0.00    -0.185 C  
BRANCH  20  21
HETATM   21  C   UNL     1      -9.903   3.956  71.453  1.00  0.00    -0.243 A  
HETATM   22  C   UNL     1      -9.628   2.610  71.189  1.00  0.00    -0.220 A  
HETATM   23  C   UNL     1      -9.975   1.618  72.105  1.00  0.00    -0.208 A  
HETATM   24  C   UNL     1     -10.546   1.969  73.323  1.00  0.00    -0.229 A  
HETATM   25  C   UNL     1     -10.765   3.309  73.630  1.00  0.00    -0.301 A  
HETATM   26  C   UNL     1     -10.437   4.299  72.706  1.00  0.00    -0.249 A  
ENDBRANCH  20  21
ENDBRANCH   7  20
TORSDOF 4
ENDMDL
MODEL       63
REMARK 921   NORMALIZED FREE ENERGY PREDICTED BY IDOCK:   -5.17 KCAL/MOL
REMARK 922        TOTAL FREE ENERGY PREDICTED BY IDOCK:   -7.11 KCAL/MOL
REMARK 923 INTER-LIGAND FREE ENERGY PREDICTED BY IDOCK:   -6.30 KCAL/MOL
REMARK 924 INTRA-LIGAND FREE ENERGY PREDICTED BY IDOCK:   -0.81 KCAL/MOL
REMARK 927      BINDING AFFINITY PREDICTED BY RF-SCORE:    0.00 PKD
ROOT
HETATM    1  O   UNL     1     -12.195  11.316  67.791  1.00  0.00    -0.504 OA 
HETATM    2  C   UNL     1     -10.981  11.225  67.733  1.00  0.00    -0.252 C  
HETATM    3  N   UNL     1     -10.113  12.282  67.353  1.00  0.00    -0.199 N  
HETATM    4  C   UNL     1      -7.084   8.657  66.658  1.00  0.00    -0.080 C  
HETATM    5  C   UNL     1      -8.773  11.712  67.108  1.00  0.00    -0.164 C  
HETATM    6  C   UNL     1      -7.603  12.157  67.979  1.00  0.00    -0.123 C  
HETATM    7  N   UNL     1     -10.193  10.124  68.157  1.00  0.00    -0.163 N  
HETATM    8  C   UNL     1      -9.002  10.207  67.322  1.00  0.00    -0.135 C  
HETATM    9  S   UNL     1      -6.517  10.741  68.353  1.00  0.00    -0.054 S  
HETATM   10  C   UNL     1      -7.733   9.481  67.778  1.00  0.00    -0.088 C  
HETATM   11  C   UNL     1      -5.615  10.556  66.776  1.00  0.00    -0.051 C  
HETATM   12  C   UNL     1      -5.619   9.048  66.566  1.00  0.00    -0.049 C  
ENDROOT
BRANCH   3  13
HETATM   13  C   UNL     1     -10.398  13.485  68.113  1.00  0.00    -0.247 C  
BRANCH  13  14
HETATM   14  C   UNL     1     -10.339  14.797  67.399  1.00  0.00    -0.242 A  
HETATM   15  C   UNL     1     -10.508  17.217  67.476  1.00  0.00    -0.356 A  
HETATM   16  C   UNL     1     -10.543  16.078  65.349  1.00  0.00    -0.428 A  
HETATM   17  C   UNL     1     -10.396  15.991  68.131  1.00  0.00    -0.260 A  
HETATM   18  C   UNL     1     -10.427  14.850  66.002  1.00  0.00    -0.326 A  
HETATM   19  C   UNL     1     -10.577  17.260  66.087  1.00  0.00    -0.204 A  
ENDBRANCH  13  14
ENDBRANCH   3  13
BRANCH   7  20
HETATM   20  C   UNL     1     -10.004  10.053  69.613  1.00  0.00    -0.236 C  
BRANCH  20  21
HETATM   21  C   UNL     1     -10.767   9.004  70.384  1.00  0.00    -0.267 A  
HETATM   22  C   UNL     1     -11.300   9.237  71.656  1.00  0.00    -0.467 A  
HETATM   23  C   UNL     1     -11.950   8.219  72.353  1.00  0.00    -0.447 A  
HETATM   24  C   UNL     1     -12.128   6.975  71.759  1.00  0.00    -0.371 A  
HETATM   25  C   UNL     1     -11.663   6.747  70.467  1.00  0.00    -0.430 A  
HETATM   26  C   UNL     1     -10.995   7.757  69.777  1.00  0.00    -0.162 A  
ENDBRANCH  20  21
ENDBRANCH   7  20
TORSDOF 4
ENDMDL
MODEL       64
REMARK 921   NORMALIZED FREE ENERGY PREDICTED BY IDOCK:   -5.17 KCAL/MOL
REMARK 922        TOTAL FREE ENERGY PREDICTED BY IDOCK:   -7.10 KCAL/MOL
REMARK 923 INTER-LIGAND FREE ENERGY PREDICTED BY IDOCK:   -6.34 KCAL/MOL
REMARK 924 INTRA-LIGAND FREE ENERGY PREDICTED BY IDOCK:   -0.77 KCAL/MOL
REMARK 927      BINDING AFFINITY PREDICTED BY RF-SCORE:    0.00 PKD
ROOT
HETATM    1  O   UNL     1      -6.308  14.547  67.535  1.00  0.00    -0.292 OA 
HETATM    2  C   UNL     1      -7.474  14.306  67.278  1.00  0.00    -0.055 C  
HETATM    3  N   UNL     1      -8.085  13.035  67.433  1.00  0.00    -0.178 N  
HETATM    4  C   UNL     1     -11.299  14.956  64.469  1.00  0.00    -0.306 C  
HETATM    5  C   UNL     1      -9.391  13.064  66.742  1.00  0.00    -0.244 C  
HETATM    6  C   UNL     1     -10.667  12.867  67.553  1.00  0.00    -0.226 C  
HETATM    7  N   UNL     1      -8.474  15.246  66.919  1.00  0.00    -0.236 N  
HETATM    8  C   UNL     1      -9.412  14.470  66.121  1.00  0.00    -0.259 C  
HETATM    9  S   UNL     1     -11.982  13.972  66.940  1.00  0.00    -0.440 S  
HETATM   10  C   UNL     1     -10.835  15.003  65.932  1.00  0.00    -0.337 C  
HETATM   11  C   UNL     1     -12.500  13.103  65.420  1.00  0.00    -0.481 C  
HETATM   12  C   UNL     1     -12.638  14.241  64.418  1.00  0.00    -0.197 C  
ENDROOT
BRANCH   3  13
HETATM   13  C   UNL     1      -7.839  12.498  68.759  1.00  0.00     0.031 C  
BRANCH  13  14
HETATM   14  C   UNL     1      -7.196  11.154  68.864  1.00  0.00    -0.106 A  
HETATM   15  C   UNL     1      -6.822   8.947  67.924  1.00  0.00    -0.070 A  
HETATM   16  C   UNL     1      -6.249   9.385  70.228  1.00  0.00    -0.056 A  
HETATM   17  C   UNL     1      -7.270  10.260  67.787  1.00  0.00    -0.086 A  
HETATM   18  C   UNL     1      -6.694  10.700  70.091  1.00  0.00    -0.143 A  
HETATM   19  C   UNL     1      -6.308   8.511  69.143  1.00  0.00    -0.043 A  
ENDBRANCH  13  14
ENDBRANCH   3  13
BRANCH   7  20
HETATM   20  C   UNL     1      -9.011  16.008  68.057  1.00  0.00    -0.187 C  
BRANCH  20  21
HETATM   21  C   UNL     1      -9.270  17.483  67.873  1.00  0.00    -0.265 A  
HETATM   22  C   UNL     1      -9.999  18.245  68.792  1.00  0.00    -0.391 A  
HETATM   23  C   UNL     1     -10.260  19.593  68.553  1.00  0.00    -0.529 A  
HETATM   24  C   UNL     1      -9.742  20.209  67.418  1.00  0.00    -0.563 A  
HETATM   25  C   UNL     1      -8.958  19.482  66.527  1.00  0.00    -0.406 A  
HETATM   26  C   UNL     1      -8.714  18.129  66.755  1.00  0.00    -0.275 A  
ENDBRANCH  20  21
ENDBRANCH   7  20
TORSDOF 4
ENDMDL
MODEL       65
REMARK 921   NORMALIZED FREE ENERGY PREDICTED BY IDOCK:   -5.13 KCAL/MOL
REMARK 922        TOTAL FREE ENERGY PREDICTED BY IDOCK:   -7.07 KCAL/MOL
REMARK 923 INTER-LIGAND FREE ENERGY PREDICTED BY IDOCK:   -6.39 KCAL/MOL
REMARK 924 INTRA-LIGAND FREE ENERGY PREDICTED BY IDOCK:   -0.67 KCAL/MOL
REMARK 927      BINDING AFFINITY PREDICTED BY RF-SCORE:    0.00 PKD
ROOT
HETATM    1  O   UNL     1      -8.522  11.489  68.922  1.00  0.00    -0.101 OA 
HETATM    2  C   UNL     1      -8.812  10.353  68.589  1.00  0.00    -0.142 C  
HETATM    3  N   UNL     1      -8.883   9.248  69.477  1.00  0.00    -0.142 N  
HETATM    4  C   UNL     1      -8.539   6.794  65.395  1.00  0.00    -0.057 C  
HETATM    5  C   UNL     1      -8.957   8.013  68.670  1.00  0.00    -0.134 C  
HETATM    6  C   UNL     1     -10.196   7.130  68.773  1.00  0.00    -0.179 C  
HETATM    7  N   UNL     1      -9.266   9.935  67.312  1.00  0.00    -0.137 N  
HETATM    8  C   UNL     1      -8.847   8.543  67.232  1.00  0.00    -0.130 C  
HETATM    9  S   UNL     1     -10.641   6.469  67.132  1.00  0.00    -0.370 S  
HETATM   10  C   UNL     1      -9.535   7.625  66.217  1.00  0.00    -0.110 C  
HETATM   11  C   UNL     1      -9.394   5.151  66.927  1.00  0.00    -0.128 C  
HETATM   12  C   UNL     1      -8.950   5.335  65.483  1.00  0.00    -0.158 C  
ENDROOT
BRANCH   3  13
HETATM   13  C   UNL     1      -9.709   9.561  70.629  1.00  0.00    -0.245 C  
BRANCH  13  14
HETATM   14  C   UNL     1      -9.696   8.610  71.781  1.00  0.00    -0.361 A  
HETATM   15  C   UNL     1     -10.926   7.256  73.377  1.00  0.00    -0.289 A  
HETATM   16  C   UNL     1      -8.582   7.703  73.737  1.00  0.00    -0.277 A  
HETATM   17  C   UNL     1     -10.891   8.014  72.207  1.00  0.00    -0.369 A  
HETATM   18  C   UNL     1      -8.543   8.459  72.564  1.00  0.00    -0.253 A  
HETATM   19  C   UNL     1      -9.772   7.098  74.139  1.00  0.00    -0.264 A  
ENDBRANCH  13  14
ENDBRANCH   3  13
BRANCH   7  20
HETATM   20  C   UNL     1     -10.682  10.239  67.054  1.00  0.00    -0.216 C  
BRANCH  20  21
HETATM   21  C   UNL     1     -11.010  11.375  66.116  1.00  0.00    -0.294 A  
HETATM   22  C   UNL     1     -10.843  11.285  64.730  1.00  0.00    -0.314 A  
HETATM   23  C   UNL     1     -11.109  12.380  63.908  1.00  0.00    -0.475 A  
HETATM   24  C   UNL     1     -11.602  13.557  64.459  1.00  0.00    -0.410 A  
HETATM   25  C   UNL     1     -11.838  13.641  65.828  1.00  0.00    -0.397 A  
HETATM   26  C   UNL     1     -11.554  12.554  66.653  1.00  0.00    -0.442 A  
ENDBRANCH  20  21
ENDBRANCH   7  20
TORSDOF 4
ENDMDL
MODEL       66
REMARK 921   NORMALIZED FREE ENERGY PREDICTED BY IDOCK:   -5.06 KCAL/MOL
REMARK 922        TOTAL FREE ENERGY PREDICTED BY IDOCK:   -6.97 KCAL/MOL
REMARK 923 INTER-LIGAND FREE ENERGY PREDICTED BY IDOCK:   -6.34 KCAL/MOL
REMARK 924 INTRA-LIGAND FREE ENERGY PREDICTED BY IDOCK:   -0.63 KCAL/MOL
REMARK 927      BINDING AFFINITY PREDICTED BY RF-SCORE:    0.00 PKD
ROOT
HETATM    1  O   UNL     1      -8.645  14.514  66.356  1.00  0.00    -0.062 OA 
HETATM    2  C   UNL     1      -9.266  13.774  67.099  1.00  0.00    -0.243 C  
HETATM    3  N   UNL     1     -10.111  14.216  68.150  1.00  0.00    -0.232 N  
HETATM    4  C   UNL     1      -9.492   9.723  69.643  1.00  0.00    -0.237 C  
HETATM    5  C   UNL     1     -10.434  13.053  69.001  1.00  0.00     0.007 C  
HETATM    6  C   UNL     1     -11.884  12.599  69.124  1.00  0.00    -0.297 C  
HETATM    7  N   UNL     1      -9.388  12.366  66.984  1.00  0.00    -0.198 N  
HETATM    8  C   UNL     1      -9.618  11.923  68.352  1.00  0.00    -0.196 C  
HETATM    9  S   UNL     1     -11.979  10.778  69.151  1.00  0.00    -0.139 S  
HETATM   10  C   UNL     1     -10.241  10.544  68.584  1.00  0.00    -0.183 C  
HETATM   11  C   UNL     1     -11.445  10.418  70.860  1.00  0.00    -0.297 C  
HETATM   12  C   UNL     1     -10.499   9.240  70.671  1.00  0.00    -0.325 C  
ENDROOT
BRANCH   3  13
HETATM   13  C   UNL     1     -11.058  15.207  67.673  1.00  0.00    -0.318 C  
BRANCH  13  14
HETATM   14  C   UNL     1     -10.665  16.647  67.747  1.00  0.00    -0.327 A  
HETATM   15  C   UNL     1      -9.904  18.657  66.620  1.00  0.00    -0.377 A  
HETATM   16  C   UNL     1      -9.810  18.522  69.028  1.00  0.00    -0.313 A  
HETATM   17  C   UNL     1     -10.428  17.366  66.568  1.00  0.00    -0.264 A  
HETATM   18  C   UNL     1     -10.338  17.231  68.978  1.00  0.00    -0.330 A  
HETATM   19  C   UNL     1      -9.598  19.235  67.849  1.00  0.00    -0.409 A  
ENDBRANCH  13  14
ENDBRANCH   3  13
BRANCH   7  20
HETATM   20  C   UNL     1     -10.344  11.932  65.955  1.00  0.00    -0.242 C  
BRANCH  20  21
HETATM   21  C   UNL     1      -9.884  10.928  64.927  1.00  0.00    -0.339 A  
HETATM   22  C   UNL     1      -9.211   9.750  65.267  1.00  0.00    -0.294 A  
HETATM   23  C   UNL     1      -8.756   8.878  64.279  1.00  0.00    -0.095 A  
HETATM   24  C   UNL     1      -9.024   9.147  62.941  1.00  0.00    -0.039 A  
HETATM   25  C   UNL     1      -9.751  10.281  62.589  1.00  0.00    -0.145 A  
HETATM   26  C   UNL     1     -10.188  11.163  63.575  1.00  0.00    -0.446 A  
ENDBRANCH  20  21
ENDBRANCH   7  20
TORSDOF 4
ENDMDL
MODEL       67
REMARK 921   NORMALIZED FREE ENERGY PREDICTED BY IDOCK:   -5.02 KCAL/MOL
REMARK 922        TOTAL FREE ENERGY PREDICTED BY IDOCK:   -6.93 KCAL/MOL
REMARK 923 INTER-LIGAND FREE ENERGY PREDICTED BY IDOCK:   -7.15 KCAL/MOL
REMARK 924 INTRA-LIGAND FREE ENERGY PREDICTED BY IDOCK:    0.22 KCAL/MOL
REMARK 927      BINDING AFFINITY PREDICTED BY RF-SCORE:    0.00 PKD
ROOT
HETATM    1  O   UNL     1      -8.883  13.881  66.902  1.00  0.00    -0.231 OA 
HETATM    2  C   UNL     1      -9.021  15.084  67.039  1.00  0.00    -0.234 C  
HETATM    3  N   UNL     1     -10.054  15.849  66.437  1.00  0.00    -0.276 N  
HETATM    4  C   UNL     1      -7.073  19.442  67.439  1.00  0.00    -0.232 C  
HETATM    5  C   UNL     1      -9.714  17.279  66.582  1.00  0.00    -0.288 C  
HETATM    6  C   UNL     1     -10.634  18.184  67.392  1.00  0.00    -0.388 C  
HETATM    7  N   UNL     1      -8.290  15.926  67.916  1.00  0.00    -0.152 N  
HETATM    8  C   UNL     1      -8.340  17.230  67.269  1.00  0.00    -0.201 C  
HETATM    9  S   UNL     1      -9.655  19.371  68.371  1.00  0.00    -0.411 S  
HETATM   10  C   UNL     1      -8.063  18.479  68.111  1.00  0.00    -0.290 C  
HETATM   11  C   UNL     1      -9.164  20.574  67.088  1.00  0.00    -0.351 C  
HETATM   12  C   UNL     1      -7.698  20.825  67.412  1.00  0.00    -0.323 C  
ENDROOT
BRANCH   3  13
HETATM   13  C   UNL     1     -11.354  15.255  66.691  1.00  0.00    -0.170 C  
BRANCH  13  14
HETATM   14  C   UNL     1     -11.840  14.200  65.751  1.00  0.00    -0.385 A  
HETATM   15  C   UNL     1     -12.207  11.849  65.271  1.00  0.00     0.155 A  
HETATM   16  C   UNL     1     -12.323  13.471  63.487  1.00  0.00    -0.343 A  
HETATM   17  C   UNL     1     -11.915  12.867  66.177  1.00  0.00    -0.491 A  
HETATM   18  C   UNL     1     -12.033  14.492  64.394  1.00  0.00    -0.467 A  
HETATM   19  C   UNL     1     -12.415  12.151  63.928  1.00  0.00    -0.581 A  
ENDBRANCH  13  14
ENDBRANCH   3  13
BRANCH   7  20
HETATM   20  C   UNL     1      -8.722  15.842  69.319  1.00  0.00    -0.250 C  
BRANCH  20  21
HETATM   21  C   UNL     1     -10.077  15.249  69.617  1.00  0.00    -0.246 A  
HETATM   22  C   UNL     1     -10.324  13.872  69.591  1.00  0.00     0.410 A  
HETATM   23  C   UNL     1     -11.606  13.374  69.819  1.00  0.00    -0.305 A  
HETATM   24  C   UNL     1     -12.642  14.245  70.136  1.00  0.00    -0.338 A  
HETATM   25  C   UNL     1     -12.399  15.612  70.233  1.00  0.00    -0.402 A  
HETATM   26  C   UNL     1     -11.122  16.112  69.985  1.00  0.00    -0.363 A  
ENDBRANCH  20  21
ENDBRANCH   7  20
TORSDOF 4
ENDMDL
MODEL       68
REMARK 921   NORMALIZED FREE ENERGY PREDICTED BY IDOCK:   -4.97 KCAL/MOL
REMARK 922        TOTAL FREE ENERGY PREDICTED BY IDOCK:   -6.87 KCAL/MOL
REMARK 923 INTER-LIGAND FREE ENERGY PREDICTED BY IDOCK:   -6.17 KCAL/MOL
REMARK 924 INTRA-LIGAND FREE ENERGY PREDICTED BY IDOCK:   -0.70 KCAL/MOL
REMARK 927      BINDING AFFINITY PREDICTED BY RF-SCORE:    0.00 PKD
ROOT
HETATM    1  O   UNL     1     -10.196  10.378  64.563  1.00  0.00    -0.342 OA 
HETATM    2  C   UNL     1     -10.244  10.136  65.756  1.00  0.00    -0.213 C  
HETATM    3  N   UNL     1      -9.925   8.880  66.334  1.00  0.00    -0.283 N  
HETATM    4  C   UNL     1     -12.412  10.677  69.992  1.00  0.00    -0.294 C  
HETATM    5  C   UNL     1     -10.392   8.885  67.735  1.00  0.00    -0.242 C  
HETATM    6  C   UNL     1      -9.372   8.742  68.860  1.00  0.00    -0.145 C  
HETATM    7  N   UNL     1     -10.481  11.066  66.801  1.00  0.00    -0.241 N  
HETATM    8  C   UNL     1     -11.072  10.258  67.858  1.00  0.00    -0.276 C  
HETATM    9  S   UNL     1      -9.815   9.826  70.258  1.00  0.00    -0.184 S  
HETATM   10  C   UNL     1     -11.051  10.795  69.293  1.00  0.00    -0.256 C  
HETATM   11  C   UNL     1     -11.182   8.886  71.021  1.00  0.00    -0.281 C  
HETATM   12  C   UNL     1     -12.205   9.973  71.322  1.00  0.00    -0.498 C  
ENDROOT
BRANCH   3  13
HETATM   13  C   UNL     1      -8.633   8.409  65.871  1.00  0.00    -0.158 C  
BRANCH  13  14
HETATM   14  C   UNL     1      -8.480   6.952  65.576  1.00  0.00    -0.122 A  
HETATM   15  C   UNL     1      -7.571   5.199  64.164  1.00  0.00    -0.069 A  
HETATM   16  C   UNL     1      -9.313   4.680  65.753  1.00  0.00    -0.158 A  
HETATM   17  C   UNL     1      -7.605   6.534  64.565  1.00  0.00    -0.101 A  
HETATM   18  C   UNL     1      -9.345   6.015  66.157  1.00  0.00    -0.140 A  
HETATM   19  C   UNL     1      -8.422   4.272  64.760  1.00  0.00    -0.119 A  
ENDBRANCH  13  14
ENDBRANCH   3  13
BRANCH   7  20
HETATM   20  C   UNL     1      -9.311  11.889  67.141  1.00  0.00    -0.180 C  
BRANCH  20  21
HETATM   21  C   UNL     1      -9.322  13.346  66.750  1.00  0.00    -0.260 A  
HETATM   22  C   UNL     1     -10.306  13.901  65.923  1.00  0.00    -0.318 A  
HETATM   23  C   UNL     1     -10.245  15.241  65.544  1.00  0.00    -0.417 A  
HETATM   24  C   UNL     1      -9.231  16.056  66.037  1.00  0.00    -0.375 A  
HETATM   25  C   UNL     1      -8.283  15.536  66.914  1.00  0.00    -0.287 A  
HETATM   26  C   UNL     1      -8.332  14.191  67.277  1.00  0.00    -0.212 A  
ENDBRANCH  20  21
ENDBRANCH   7  20
TORSDOF 4
ENDMDL
MODEL       69
REMARK 921   NORMALIZED FREE ENERGY PREDICTED BY IDOCK:   -4.91 KCAL/MOL
REMARK 922        TOTAL FREE ENERGY PREDICTED BY IDOCK:   -6.79 KCAL/MOL
REMARK 923 INTER-LIGAND FREE ENERGY PREDICTED BY IDOCK:   -6.08 KCAL/MOL
REMARK 924 INTRA-LIGAND FREE ENERGY PREDICTED BY IDOCK:   -0.71 KCAL/MOL
REMARK 927      BINDING AFFINITY PREDICTED BY RF-SCORE:    0.00 PKD
ROOT
HETATM    1  O   UNL     1      -8.177   9.765  69.063  1.00  0.00    -0.108 OA 
HETATM    2  C   UNL     1      -8.759  10.503  68.287  1.00  0.00    -0.135 C  
HETATM    3  N   UNL     1      -8.510  10.560  66.892  1.00  0.00    -0.124 N  
HETATM    4  C   UNL     1     -10.730  14.764  67.338  1.00  0.00    -0.281 C  
HETATM    5  C   UNL     1      -9.176  11.764  66.353  1.00  0.00    -0.217 C  
HETATM    6  C   UNL     1     -10.286  11.602  65.321  1.00  0.00    -0.272 C  
HETATM    7  N   UNL     1      -9.874  11.330  68.580  1.00  0.00    -0.203 N  
HETATM    8  C   UNL     1      -9.767  12.414  67.614  1.00  0.00    -0.195 C  
HETATM    9  S   UNL     1     -11.619  12.806  65.630  1.00  0.00    -0.391 S  
HETATM   10  C   UNL     1     -11.010  13.255  67.311  1.00  0.00    -0.268 C  
HETATM   11  C   UNL     1     -10.874  14.340  64.977  1.00  0.00    -0.403 C  
HETATM   12  C   UNL     1     -11.239  15.366  66.041  1.00  0.00    -0.168 C  
ENDROOT
BRANCH   3  13
HETATM   13  C   UNL     1      -8.548   9.234  66.303  1.00  0.00    -0.128 C  
BRANCH  13  14
HETATM   14  C   UNL     1      -7.643   8.952  65.148  1.00  0.00    -0.099 A  
HETATM   15  C   UNL     1      -5.828   9.668  63.703  1.00  0.00    -0.097 A  
HETATM   16  C   UNL     1      -7.208   7.795  63.060  1.00  0.00    -0.091 A  
HETATM   17  C   UNL     1      -6.580   9.822  64.867  1.00  0.00    -0.108 A  
HETATM   18  C   UNL     1      -7.959   7.945  64.226  1.00  0.00    -0.130 A  
HETATM   19  C   UNL     1      -6.140   8.653  62.802  1.00  0.00    -0.087 A  
ENDBRANCH  13  14
ENDBRANCH   3  13
BRANCH   7  20
HETATM   20  C   UNL     1     -11.151  10.604  68.655  1.00  0.00    -0.263 C  
BRANCH  20  21
HETATM   21  C   UNL     1     -11.624  10.125  70.005  1.00  0.00    -0.323 A  
HETATM   22  C   UNL     1     -11.075   9.011  70.649  1.00  0.00    -0.314 A  
HETATM   23  C   UNL     1     -11.582   8.573  71.872  1.00  0.00    -0.410 A  
HETATM   24  C   UNL     1     -12.605   9.281  72.492  1.00  0.00    -0.266 A  
HETATM   25  C   UNL     1     -13.118  10.430  71.897  1.00  0.00    -0.563 A  
HETATM   26  C   UNL     1     -12.625  10.857  70.665  1.00  0.00    -0.435 A  
ENDBRANCH  20  21
ENDBRANCH   7  20
TORSDOF 4
ENDMDL
MODEL       70
REMARK 921   NORMALIZED FREE ENERGY PREDICTED BY IDOCK:   -4.85 KCAL/MOL
REMARK 922        TOTAL FREE ENERGY PREDICTED BY IDOCK:   -6.71 KCAL/MOL
REMARK 923 INTER-LIGAND FREE ENERGY PREDICTED BY IDOCK:   -7.14 KCAL/MOL
REMARK 924 INTRA-LIGAND FREE ENERGY PREDICTED BY IDOCK:    0.42 KCAL/MOL
REMARK 927      BINDING AFFINITY PREDICTED BY RF-SCORE:    0.00 PKD
ROOT
HETATM    1  O   UNL     1     -12.631  12.306  65.323  1.00  0.00    -0.583 OA 
HETATM    2  C   UNL     1     -11.541  12.461  65.845  1.00  0.00    -0.396 C  
HETATM    3  N   UNL     1     -10.972  13.723  66.158  1.00  0.00    -0.291 N  
HETATM    4  C   UNL     1      -6.961  11.135  66.302  1.00  0.00    -0.052 C  
HETATM    5  C   UNL     1      -9.546  13.517  66.485  1.00  0.00    -0.277 C  
HETATM    6  C   UNL     1      -9.046  13.859  67.884  1.00  0.00    -0.194 C  
HETATM    7  N   UNL     1     -10.698  11.445  66.364  1.00  0.00    -0.268 N  
HETATM    8  C   UNL     1      -9.361  12.009  66.250  1.00  0.00    -0.223 C  
HETATM    9  S   UNL     1      -7.830  12.620  68.443  1.00  0.00    -0.115 S  
HETATM   10  C   UNL     1      -8.238  11.418  67.107  1.00  0.00    -0.157 C  
HETATM   11  C   UNL     1      -6.348  13.125  67.503  1.00  0.00    -0.135 C  
HETATM   12  C   UNL     1      -5.794  11.794  67.016  1.00  0.00    -0.145 C  
ENDROOT
BRANCH   3  13
HETATM   13  C   UNL     1     -11.906  14.540  66.910  1.00  0.00    -0.377 C  
BRANCH  13  14
HETATM   14  C   UNL     1     -11.782  14.558  68.399  1.00  0.00    -0.367 A  
HETATM   15  C   UNL     1     -12.219  13.493  70.537  1.00  0.00    -0.433 A  
HETATM   16  C   UNL     1     -11.523  15.803  70.466  1.00  0.00    -0.401 A  
HETATM   17  C   UNL     1     -12.171  13.436  69.144  1.00  0.00    -0.207 A  
HETATM   18  C   UNL     1     -11.472  15.747  69.072  1.00  0.00    -0.394 A  
HETATM   19  C   UNL     1     -11.892  14.674  71.197  1.00  0.00    -0.378 A  
ENDBRANCH  13  14
ENDBRANCH   3  13
BRANCH   7  20
HETATM   20  C   UNL     1     -11.118  10.939  67.680  1.00  0.00    -0.313 C  
BRANCH  20  21
HETATM   21  C   UNL     1     -10.837   9.495  68.014  1.00  0.00    -0.225 A  
HETATM   22  C   UNL     1     -10.804   9.014  69.328  1.00  0.00    -0.131 A  
HETATM   23  C   UNL     1     -10.486   7.682  69.591  1.00  0.00    -0.235 A  
HETATM   24  C   UNL     1     -10.256   6.803  68.539  1.00  0.00    -0.186 A  
HETATM   25  C   UNL     1     -10.350   7.249  67.224  1.00  0.00    -0.349 A  
HETATM   26  C   UNL     1     -10.648   8.585  66.960  1.00  0.00    -0.305 A  
ENDBRANCH  20  21
ENDBRANCH   7  20
TORSDOF 4
ENDMDL
MODEL       71
REMARK 921   NORMALIZED FREE ENERGY PREDICTED BY IDOCK:   -4.82 KCAL/MOL
REMARK 922        TOTAL FREE ENERGY PREDICTED BY IDOCK:   -6.68 KCAL/MOL
REMARK 923 INTER-LIGAND FREE ENERGY PREDICTED BY IDOCK:   -6.71 KCAL/MOL
REMARK 924 INTRA-LIGAND FREE ENERGY PREDICTED BY IDOCK:    0.03 KCAL/MOL
REMARK 927      BINDING AFFINITY PREDICTED BY RF-SCORE:    0.00 PKD
ROOT
HETATM    1  O   UNL     1      -7.264  11.022  66.709  1.00  0.00    -0.123 OA 
HETATM    2  C   UNL     1      -8.277  11.030  67.387  1.00  0.00    -0.122 C  
HETATM    3  N   UNL     1      -8.979  12.202  67.769  1.00  0.00    -0.171 N  
HETATM    4  C   UNL     1     -10.812   9.240  71.035  1.00  0.00    -0.385 C  
HETATM    5  C   UNL     1      -9.951  11.836  68.820  1.00  0.00    -0.115 C  
HETATM    6  C   UNL     1     -11.440  12.015  68.551  1.00  0.00    -0.293 C  
HETATM    7  N   UNL     1      -9.026   9.899  67.804  1.00  0.00    -0.131 N  
HETATM    8  C   UNL     1      -9.665  10.341  69.036  1.00  0.00    -0.205 C  
HETATM    9  S   UNL     1     -12.385  10.626  69.261  1.00  0.00     0.305 S  
HETATM   10  C   UNL     1     -10.894   9.578  69.540  1.00  0.00    -0.222 C  
HETATM   11  C   UNL     1     -12.382  11.061  71.034  1.00  0.00    -0.385 C  
HETATM   12  C   UNL     1     -12.087   9.725  71.703  1.00  0.00    -0.475 C  
ENDROOT
BRANCH   3  13
HETATM   13  C   UNL     1      -9.250  13.043  66.618  1.00  0.00    -0.219 C  
BRANCH  13  14
HETATM   14  C   UNL     1     -10.342  12.626  65.686  1.00  0.00    -0.293 A  
HETATM   15  C   UNL     1     -11.013  11.563  63.610  1.00  0.00    -0.482 A  
HETATM   16  C   UNL     1     -12.590  12.928  64.824  1.00  0.00    -0.493 A  
HETATM   17  C   UNL     1     -10.043  11.824  64.576  1.00  0.00    -0.312 A  
HETATM   18  C   UNL     1     -11.621  13.188  65.794  1.00  0.00    -0.383 A  
HETATM   19  C   UNL     1     -12.286  12.112  63.735  1.00  0.00    -0.635 A  
ENDBRANCH  13  14
ENDBRANCH   3  13
BRANCH   7  20
HETATM   20  C   UNL     1      -9.883   9.332  66.753  1.00  0.00    -0.225 C  
BRANCH  20  21
HETATM   21  C   UNL     1      -9.746   7.864  66.432  1.00  0.00    -0.235 A  
HETATM   22  C   UNL     1     -10.656   6.902  66.885  1.00  0.00    -0.372 A  
HETATM   23  C   UNL     1     -10.459   5.550  66.609  1.00  0.00    -0.355 A  
HETATM   24  C   UNL     1      -9.381   5.152  65.825  1.00  0.00    -0.163 A  
HETATM   25  C   UNL     1      -8.505   6.103  65.311  1.00  0.00    -0.121 A  
HETATM   26  C   UNL     1      -8.689   7.453  65.603  1.00  0.00    -0.099 A  
ENDBRANCH  20  21
ENDBRANCH   7  20
TORSDOF 4
ENDMDL
MODEL       72
REMARK 921   NORMALIZED FREE ENERGY PREDICTED BY IDOCK:   -4.78 KCAL/MOL
REMARK 922        TOTAL FREE ENERGY PREDICTED BY IDOCK:   -6.63 KCAL/MOL
REMARK 923 INTER-LIGAND FREE ENERGY PREDICTED BY IDOCK:   -6.88 KCAL/MOL
REMARK 924 INTRA-LIGAND FREE ENERGY PREDICTED BY IDOCK:    0.25 KCAL/MOL
REMARK 927      BINDING AFFINITY PREDICTED BY RF-SCORE:    0.00 PKD
ROOT
HETATM    1  O   UNL     1      -9.763  11.160  69.431  1.00  0.00    -0.025 OA 
HETATM    2  C   UNL     1     -10.166  11.798  68.474  1.00  0.00    -0.210 C  
HETATM    3  N   UNL     1     -11.094  12.868  68.555  1.00  0.00    -0.252 N  
HETATM    4  C   UNL     1     -11.580  11.924  63.899  1.00  0.00    -0.515 C  
HETATM    5  C   UNL     1     -11.562  13.177  67.188  1.00  0.00    -0.361 C  
HETATM    6  C   UNL     1     -11.273  14.551  66.595  1.00  0.00    -0.346 C  
HETATM    7  N   UNL     1      -9.700  11.705  67.137  1.00  0.00    -0.181 N  
HETATM    8  C   UNL     1     -10.847  12.113  66.339  1.00  0.00    -0.271 C  
HETATM    9  S   UNL     1     -10.850  14.403  64.828  1.00  0.00    -0.369 S  
HETATM   10  C   UNL     1     -10.614  12.576  64.898  1.00  0.00    -0.301 C  
HETATM   11  C   UNL     1     -12.497  14.138  64.086  1.00  0.00    -0.227 C  
HETATM   12  C   UNL     1     -12.235  13.024  63.083  1.00  0.00    -0.305 C  
ENDROOT
BRANCH   3  13
HETATM   13  C   UNL     1     -10.680  13.840  69.550  1.00  0.00     0.116 C  
BRANCH  13  14
HETATM   14  C   UNL     1     -11.645  14.188  70.636  1.00  0.00    -0.169 A  
HETATM   15  C   UNL     1     -12.199  15.542  72.573  1.00  0.00    -0.512 A  
HETATM   16  C   UNL     1     -13.479  13.554  72.092  1.00  0.00    -0.631 A  
HETATM   17  C   UNL     1     -11.401  15.298  71.456  1.00  0.00    -0.432 A  
HETATM   18  C   UNL     1     -12.684  13.309  70.972  1.00  0.00    -0.374 A  
HETATM   19  C   UNL     1     -13.239  14.673  72.889  1.00  0.00    -0.609 A  
ENDBRANCH  13  14
ENDBRANCH   3  13
BRANCH   7  20
HETATM   20  C   UNL     1      -8.423  12.396  66.903  1.00  0.00    -0.147 C  
BRANCH  20  21
HETATM   21  C   UNL     1      -7.739  13.053  68.076  1.00  0.00    -0.145 A  
HETATM   22  C   UNL     1      -7.942  14.395  68.418  1.00  0.00    -0.141 A  
HETATM   23  C   UNL     1      -7.246  14.974  69.478  1.00  0.00    -0.199 A  
HETATM   24  C   UNL     1      -6.383  14.199  70.246  1.00  0.00    -0.121 A  
HETATM   25  C   UNL     1      -6.220  12.847  69.961  1.00  0.00    -0.058 A  
HETATM   26  C   UNL     1      -6.900  12.272  68.889  1.00  0.00    -0.096 A  
ENDBRANCH  20  21
ENDBRANCH   7  20
TORSDOF 4
ENDMDL
MODEL       73
REMARK 921   NORMALIZED FREE ENERGY PREDICTED BY IDOCK:   -4.73 KCAL/MOL
REMARK 922        TOTAL FREE ENERGY PREDICTED BY IDOCK:   -6.57 KCAL/MOL
REMARK 923 INTER-LIGAND FREE ENERGY PREDICTED BY IDOCK:   -6.20 KCAL/MOL
REMARK 924 INTRA-LIGAND FREE ENERGY PREDICTED BY IDOCK:   -0.37 KCAL/MOL
REMARK 927      BINDING AFFINITY PREDICTED BY RF-SCORE:    0.00 PKD
ROOT
HETATM    1  O   UNL     1     -11.410   6.698  67.696  1.00  0.00    -0.246 OA 
HETATM    2  C   UNL     1     -10.921   6.313  68.744  1.00  0.00    -0.352 C  
HETATM    3  N   UNL     1      -9.844   5.394  68.838  1.00  0.00    -0.153 N  
HETATM    4  C   UNL     1     -11.473   4.963  73.305  1.00  0.00    -0.359 C  
HETATM    5  C   UNL     1      -9.740   4.948  70.242  1.00  0.00    -0.217 C  
HETATM    6  C   UNL     1      -8.473   5.258  71.030  1.00  0.00    -0.122 C  
HETATM    7  N   UNL     1     -11.216   6.797  70.044  1.00  0.00    -0.310 N  
HETATM    8  C   UNL     1     -10.924   5.664  70.911  1.00  0.00    -0.187 C  
HETATM    9  S   UNL     1      -8.888   5.703  72.749  1.00  0.00    -0.120 S  
HETATM   10  C   UNL     1     -10.685   5.921  72.402  1.00  0.00    -0.232 C  
HETATM   11  C   UNL     1      -9.250   4.063  73.466  1.00  0.00    -0.101 C  
HETATM   12  C   UNL     1     -10.504   4.329  74.287  1.00  0.00    -0.307 C  
ENDROOT
BRANCH   3  13
HETATM   13  C   UNL     1      -8.736   5.804  67.994  1.00  0.00    -0.103 C  
BRANCH  13  14
HETATM   14  C   UNL     1      -8.345   7.246  67.999  1.00  0.00    -0.123 A  
HETATM   15  C   UNL     1      -8.165   9.358  66.815  1.00  0.00    -0.112 A  
HETATM   16  C   UNL     1      -6.995   9.047  68.903  1.00  0.00    -0.065 A  
HETATM   17  C   UNL     1      -8.663   8.058  66.902  1.00  0.00    -0.136 A  
HETATM   18  C   UNL     1      -7.495   7.748  68.993  1.00  0.00    -0.095 A  
HETATM   19  C   UNL     1      -7.335   9.853  67.817  1.00  0.00    -0.089 A  
ENDBRANCH  13  14
ENDBRANCH   3  13
BRANCH   7  20
HETATM   20  C   UNL     1     -10.577   8.083  70.360  1.00  0.00    -0.224 C  
BRANCH  20  21
HETATM   21  C   UNL     1     -11.458   9.242  70.756  1.00  0.00    -0.351 A  
HETATM   22  C   UNL     1     -11.244  10.547  70.300  1.00  0.00    -0.391 A  
HETATM   23  C   UNL     1     -12.052  11.596  70.736  1.00  0.00    -0.383 A  
HETATM   24  C   UNL     1     -13.120  11.341  71.588  1.00  0.00    -0.513 A  
HETATM   25  C   UNL     1     -13.388  10.038  71.999  1.00  0.00    -0.513 A  
HETATM   26  C   UNL     1     -12.569   8.992  71.579  1.00  0.00    -0.400 A  
ENDBRANCH  20  21
ENDBRANCH   7  20
TORSDOF 4
ENDMDL
MODEL       74
REMARK 921   NORMALIZED FREE ENERGY PREDICTED BY IDOCK:   -4.70 KCAL/MOL
REMARK 922        TOTAL FREE ENERGY PREDICTED BY IDOCK:   -6.54 KCAL/MOL
REMARK 923 INTER-LIGAND FREE ENERGY PREDICTED BY IDOCK:   -6.32 KCAL/MOL
REMARK 924 INTRA-LIGAND FREE ENERGY PREDICTED BY IDOCK:   -0.22 KCAL/MOL
REMARK 927      BINDING AFFINITY PREDICTED BY RF-SCORE:    0.00 PKD
ROOT
HETATM    1  O   UNL     1     -12.075  13.530  66.458  1.00  0.00    -0.402 OA 
HETATM    2  C   UNL     1     -11.784  12.642  67.241  1.00  0.00    -0.370 C  
HETATM    3  N   UNL     1     -11.015  11.498  66.907  1.00  0.00    -0.284 N  
HETATM    4  C   UNL     1     -13.002   9.814  70.909  1.00  0.00    -0.300 C  
HETATM    5  C   UNL     1     -11.136  10.523  68.011  1.00  0.00    -0.300 C  
HETATM    6  C   UNL     1      -9.889  10.125  68.792  1.00  0.00    -0.175 C  
HETATM    7  N   UNL     1     -12.022  12.634  68.639  1.00  0.00    -0.282 N  
HETATM    8  C   UNL     1     -12.117  11.219  68.968  1.00  0.00    -0.257 C  
HETATM    9  S   UNL     1     -10.281   9.952  70.565  1.00  0.00    -0.092 S  
HETATM   10  C   UNL     1     -11.918  10.787  70.424  1.00  0.00    -0.357 C  
HETATM   11  C   UNL     1     -11.132   8.337  70.587  1.00  0.00    -0.253 C  
HETATM   12  C   UNL     1     -12.316   8.598  71.508  1.00  0.00    -0.370 C  
ENDROOT
BRANCH   3  13
HETATM   13  C   UNL     1      -9.782  11.877  66.241  1.00  0.00    -0.229 C  
BRANCH  13  14
HETATM   14  C   UNL     1      -8.846  10.790  65.823  1.00  0.00    -0.201 A  
HETATM   15  C   UNL     1      -8.509   8.610  64.809  1.00  0.00    -0.168 A  
HETATM   16  C   UNL     1      -6.731   9.631  66.084  1.00  0.00    -0.083 A  
HETATM   17  C   UNL     1      -9.325   9.711  65.068  1.00  0.00    -0.319 A  
HETATM   18  C   UNL     1      -7.545  10.735  66.341  1.00  0.00    -0.141 A  
HETATM   19  C   UNL     1      -7.212   8.572  65.314  1.00  0.00    -0.083 A  
ENDBRANCH  13  14
ENDBRANCH   3  13
BRANCH   7  20
HETATM   20  C   UNL     1     -11.074  13.453  69.409  1.00  0.00    -0.103 C  
BRANCH  20  21
HETATM   21  C   UNL     1     -10.633  14.774  68.828  1.00  0.00    -0.251 A  
HETATM   22  C   UNL     1     -11.458  15.904  68.803  1.00  0.00    -0.393 A  
HETATM   23  C   UNL     1     -11.027  17.088  68.206  1.00  0.00    -0.269 A  
HETATM   24  C   UNL     1      -9.742  17.172  67.681  1.00  0.00    -0.263 A  
HETATM   25  C   UNL     1      -8.885  16.078  67.757  1.00  0.00    -0.177 A  
HETATM   26  C   UNL     1      -9.322  14.888  68.336  1.00  0.00    -0.197 A  
ENDBRANCH  20  21
ENDBRANCH   7  20
TORSDOF 4
ENDMDL
MODEL       75
REMARK 921   NORMALIZED FREE ENERGY PREDICTED BY IDOCK:   -4.70 KCAL/MOL
REMARK 922        TOTAL FREE ENERGY PREDICTED BY IDOCK:   -6.52 KCAL/MOL
REMARK 923 INTER-LIGAND FREE ENERGY PREDICTED BY IDOCK:   -6.15 KCAL/MOL
REMARK 924 INTRA-LIGAND FREE ENERGY PREDICTED BY IDOCK:   -0.38 KCAL/MOL
REMARK 927      BINDING AFFINITY PREDICTED BY RF-SCORE:    0.00 PKD
ROOT
HETATM    1  O   UNL     1     -11.033   9.190  66.648  1.00  0.00     0.039 OA 
HETATM    2  C   UNL     1     -10.006   9.671  67.095  1.00  0.00    -0.194 C  
HETATM    3  N   UNL     1      -8.918  10.119  66.304  1.00  0.00    -0.146 N  
HETATM    4  C   UNL     1      -6.593   9.712  70.454  1.00  0.00    -0.096 C  
HETATM    5  C   UNL     1      -7.761  10.342  67.195  1.00  0.00    -0.092 C  
HETATM    6  C   UNL     1      -7.183  11.746  67.327  1.00  0.00    -0.142 C  
HETATM    7  N   UNL     1      -9.748  10.007  68.449  1.00  0.00    -0.144 N  
HETATM    8  C   UNL     1      -8.301   9.900  68.564  1.00  0.00    -0.108 C  
HETATM    9  S   UNL     1      -6.699  12.072  69.055  1.00  0.00    -0.098 S  
HETATM   10  C   UNL     1      -7.601  10.611  69.726  1.00  0.00    -0.043 C  
HETATM   11  C   UNL     1      -5.137  11.132  69.173  1.00  0.00    -0.041 C  
HETATM   12  C   UNL     1      -5.265  10.445  70.525  1.00  0.00    -0.059 C  
ENDROOT
BRANCH   3  13
HETATM   13  C   UNL     1      -9.371  11.020  65.260  1.00  0.00    -0.216 C  
BRANCH  13  14
HETATM   14  C   UNL     1     -10.325  12.107  65.636  1.00  0.00    -0.289 A  
HETATM   15  C   UNL     1     -12.522  13.117  65.413  1.00  0.00    -0.535 A  
HETATM   16  C   UNL     1     -10.723  14.365  66.429  1.00  0.00    -0.306 A  
HETATM   17  C   UNL     1     -11.660  12.039  65.214  1.00  0.00    -0.337 A  
HETATM   18  C   UNL     1      -9.860  13.286  66.234  1.00  0.00    -0.288 A  
HETATM   19  C   UNL     1     -12.054  14.277  66.024  1.00  0.00    -0.423 A  
ENDBRANCH  13  14
ENDBRANCH   3  13
BRANCH   7  20
HETATM   20  C   UNL     1     -10.378  11.263  68.881  1.00  0.00    -0.195 C  
BRANCH  20  21
HETATM   21  C   UNL     1     -11.413  11.205  69.977  1.00  0.00    -0.376 A  
HETATM   22  C   UNL     1     -12.157  12.321  70.377  1.00  0.00    -0.385 A  
HETATM   23  C   UNL     1     -13.064  12.233  71.432  1.00  0.00    -0.285 A  
HETATM   24  C   UNL     1     -13.280  11.011  72.060  1.00  0.00    -0.447 A  
HETATM   25  C   UNL     1     -12.598   9.876  71.630  1.00  0.00    -0.519 A  
HETATM   26  C   UNL     1     -11.677   9.968  70.589  1.00  0.00    -0.421 A  
ENDBRANCH  20  21
ENDBRANCH   7  20
TORSDOF 4
ENDMDL
MODEL       76
REMARK 921   NORMALIZED FREE ENERGY PREDICTED BY IDOCK:   -4.69 KCAL/MOL
REMARK 922        TOTAL FREE ENERGY PREDICTED BY IDOCK:   -6.52 KCAL/MOL
REMARK 923 INTER-LIGAND FREE ENERGY PREDICTED BY IDOCK:   -6.53 KCAL/MOL
REMARK 924 INTRA-LIGAND FREE ENERGY PREDICTED BY IDOCK:    0.01 KCAL/MOL
REMARK 927      BINDING AFFINITY PREDICTED BY RF-SCORE:    0.00 PKD
ROOT
HETATM    1  O   UNL     1     -11.502   6.097  69.331  1.00  0.00    -0.423 OA 
HETATM    2  C   UNL     1     -10.514   6.542  69.890  1.00  0.00    -0.213 C  
HETATM    3  N   UNL     1      -9.827   7.718  69.493  1.00  0.00    -0.176 N  
HETATM    4  C   UNL     1      -6.349   5.783  72.130  1.00  0.00    -0.048 C  
HETATM    5  C   UNL     1      -8.533   7.759  70.203  1.00  0.00    -0.134 C  
HETATM    6  C   UNL     1      -8.251   8.903  71.172  1.00  0.00    -0.173 C  
HETATM    7  N   UNL     1      -9.944   6.075  71.102  1.00  0.00    -0.182 N  
HETATM    8  C   UNL     1      -8.538   6.438  70.989  1.00  0.00    -0.131 C  
HETATM    9  S   UNL     1      -7.359   8.286  72.637  1.00  0.00    -0.079 S  
HETATM   10  C   UNL     1      -7.693   6.512  72.264  1.00  0.00    -0.097 C  
HETATM   11  C   UNL     1      -5.671   8.084  71.970  1.00  0.00    -0.036 C  
HETATM   12  C   UNL     1      -5.245   6.740  72.544  1.00  0.00    -0.036 C  
ENDROOT
BRANCH   3  13
HETATM   13  C   UNL     1     -10.748   8.830  69.342  1.00  0.00    -0.169 C  
BRANCH  13  14
HETATM   14  C   UNL     1     -10.737   9.581  68.050  1.00  0.00    -0.266 A  
HETATM   15  C   UNL     1      -9.804   9.889  65.830  1.00  0.00    -0.356 A  
HETATM   16  C   UNL     1     -11.178  11.617  66.806  1.00  0.00    -0.371 A  
HETATM   17  C   UNL     1      -9.957   9.118  66.982  1.00  0.00    -0.294 A  
HETATM   18  C   UNL     1     -11.335  10.845  67.958  1.00  0.00    -0.382 A  
HETATM   19  C   UNL     1     -10.417  11.136  65.741  1.00  0.00    -0.305 A  
ENDBRANCH  13  14
ENDBRANCH   3  13
BRANCH   7  20
HETATM   20  C   UNL     1     -10.668   6.508  72.306  1.00  0.00    -0.223 C  
BRANCH  20  21
HETATM   21  C   UNL     1     -11.926   7.323  72.130  1.00  0.00    -0.307 A  
HETATM   22  C   UNL     1     -13.158   6.752  71.795  1.00  0.00    -0.244 A  
HETATM   23  C   UNL     1     -14.282   7.551  71.589  1.00  0.00    -0.592 A  
HETATM   24  C   UNL     1     -14.198   8.927  71.776  1.00  0.00    -0.392 A  
HETATM   25  C   UNL     1     -12.996   9.504  72.176  1.00  0.00    -0.497 A  
HETATM   26  C   UNL     1     -11.867   8.708  72.362  1.00  0.00    -0.402 A  
ENDBRANCH  20  21
ENDBRANCH   7  20
TORSDOF 4
ENDMDL
MODEL       77
REMARK 921   NORMALIZED FREE ENERGY PREDICTED BY IDOCK:   -4.67 KCAL/MOL
REMARK 922        TOTAL FREE ENERGY PREDICTED BY IDOCK:   -6.50 KCAL/MOL
REMARK 923 INTER-LIGAND FREE ENERGY PREDICTED BY IDOCK:   -6.13 KCAL/MOL
REMARK 924 INTRA-LIGAND FREE ENERGY PREDICTED BY IDOCK:   -0.36 KCAL/MOL
REMARK 927      BINDING AFFINITY PREDICTED BY RF-SCORE:    0.00 PKD
ROOT
HETATM    1  O   UNL     1      -7.745   9.700  66.957  1.00  0.00    -0.095 OA 
HETATM    2  C   UNL     1      -8.688  10.462  66.829  1.00  0.00    -0.127 C  
HETATM    3  N   UNL     1     -10.047  10.093  67.001  1.00  0.00    -0.213 N  
HETATM    4  C   UNL     1     -10.762  14.111  64.523  1.00  0.00    -0.323 C  
HETATM    5  C   UNL     1     -10.891  11.183  66.470  1.00  0.00    -0.245 C  
HETATM    6  C   UNL     1     -11.824  11.930  67.417  1.00  0.00    -0.168 C  
HETATM    7  N   UNL     1      -8.623  11.865  66.631  1.00  0.00    -0.184 N  
HETATM    8  C   UNL     1      -9.854  12.173  65.917  1.00  0.00    -0.247 C  
HETATM    9  S   UNL     1     -11.847  13.708  67.013  1.00  0.00    -0.412 S  
HETATM   10  C   UNL     1     -10.365  13.617  65.921  1.00  0.00    -0.301 C  
HETATM   11  C   UNL     1     -12.910  13.723  65.529  1.00  0.00    -0.419 C  
HETATM   12  C   UNL     1     -12.170  14.675  64.599  1.00  0.00    -0.447 C  
ENDROOT
BRANCH   3  13
HETATM   13  C   UNL     1     -10.243   9.405  68.264  1.00  0.00    -0.196 C  
BRANCH  13  14
HETATM   14  C   UNL     1     -10.154   7.914  68.273  1.00  0.00    -0.225 A  
HETATM   15  C   UNL     1     -10.617   5.795  67.182  1.00  0.00    -0.365 A  
HETATM   16  C   UNL     1      -9.970   5.833  69.507  1.00  0.00    -0.250 A  
HETATM   17  C   UNL     1     -10.536   7.186  67.138  1.00  0.00    -0.417 A  
HETATM   18  C   UNL     1      -9.885   7.225  69.463  1.00  0.00    -0.163 A  
HETATM   19  C   UNL     1     -10.330   5.119  68.365  1.00  0.00    -0.140 A  
ENDBRANCH  13  14
ENDBRANCH   3  13
BRANCH   7  20
HETATM   20  C   UNL     1      -8.334  12.626  67.856  1.00  0.00    -0.172 C  
BRANCH  20  21
HETATM   21  C   UNL     1      -7.364  13.779  67.770  1.00  0.00    -0.170 A  
HETATM   22  C   UNL     1      -6.045  13.695  68.228  1.00  0.00    -0.108 A  
HETATM   23  C   UNL     1      -5.201  14.804  68.178  1.00  0.00    -0.119 A  
HETATM   24  C   UNL     1      -5.651  15.993  67.613  1.00  0.00    -0.164 A  
HETATM   25  C   UNL     1      -6.939  16.073  67.092  1.00  0.00    -0.242 A  
HETATM   26  C   UNL     1      -7.789  14.971  67.160  1.00  0.00    -0.224 A  
ENDBRANCH  20  21
ENDBRANCH   7  20
TORSDOF 4
ENDMDL
MODEL       78
REMARK 921   NORMALIZED FREE ENERGY PREDICTED BY IDOCK:   -4.66 KCAL/MOL
REMARK 922        TOTAL FREE ENERGY PREDICTED BY IDOCK:   -6.48 KCAL/MOL
REMARK 923 INTER-LIGAND FREE ENERGY PREDICTED BY IDOCK:   -6.29 KCAL/MOL
REMARK 924 INTRA-LIGAND FREE ENERGY PREDICTED BY IDOCK:   -0.20 KCAL/MOL
REMARK 927      BINDING AFFINITY PREDICTED BY RF-SCORE:    0.00 PKD
ROOT
HETATM    1  O   UNL     1      -9.156  12.420  67.517  1.00  0.00    -0.171 OA 
HETATM    2  C   UNL     1      -9.863  11.799  68.292  1.00  0.00    -0.198 C  
HETATM    3  N   UNL     1     -10.999  12.337  68.949  1.00  0.00    -0.227 N  
HETATM    4  C   UNL     1     -10.291   8.585  71.817  1.00  0.00    -0.354 C  
HETATM    5  C   UNL     1     -11.401  11.398  70.017  1.00  0.00    -0.176 C  
HETATM    6  C   UNL     1     -12.772  10.734  69.947  1.00  0.00    -0.032 C  
HETATM    7  N   UNL     1      -9.789  10.412  68.580  1.00  0.00    -0.161 N  
HETATM    8  C   UNL     1     -10.320  10.309  69.932  1.00  0.00    -0.233 C  
HETATM    9  S   UNL     1     -12.663   8.998  70.497  1.00  0.00     0.598 S  
HETATM   10  C   UNL     1     -10.822   8.948  70.423  1.00  0.00    -0.236 C  
HETATM   11  C   UNL     1     -12.562   9.203  72.308  1.00  0.00    -0.355 C  
HETATM   12  C   UNL     1     -11.473   8.211  72.694  1.00  0.00    -0.454 C  
ENDROOT
BRANCH   3  13
HETATM   13  C   UNL     1     -11.893  12.977  68.001  1.00  0.00    -0.347 C  
BRANCH  13  14
HETATM   14  C   UNL     1     -11.459  14.269  67.390  1.00  0.00    -0.368 A  
HETATM   15  C   UNL     1     -10.722  15.503  65.433  1.00  0.00    -0.422 A  
HETATM   16  C   UNL     1     -10.474  16.474  67.629  1.00  0.00    -0.305 A  
HETATM   17  C   UNL     1     -11.282  14.359  66.003  1.00  0.00    -0.333 A  
HETATM   18  C   UNL     1     -11.037  15.332  68.200  1.00  0.00    -0.309 A  
HETATM   19  C   UNL     1     -10.322  16.560  66.245  1.00  0.00    -0.327 A  
ENDBRANCH  13  14
ENDBRANCH   3  13
BRANCH   7  20
HETATM   20  C   UNL     1     -10.385   9.556  67.543  1.00  0.00    -0.248 C  
BRANCH  20  21
HETATM   21  C   UNL     1      -9.973   9.776  66.109  1.00  0.00    -0.338 A  
HETATM   22  C   UNL     1      -8.913   9.085  65.511  1.00  0.00    -0.252 A  
HETATM   23  C   UNL     1      -8.533   9.362  64.198  1.00  0.00    -0.199 A  
HETATM   24  C   UNL     1      -9.249  10.290  63.450  1.00  0.00    -0.321 A  
HETATM   25  C   UNL     1     -10.347  10.937  64.008  1.00  0.00    -0.417 A  
HETATM   26  C   UNL     1     -10.715  10.676  65.326  1.00  0.00    -0.100 A  
ENDBRANCH  20  21
ENDBRANCH   7  20
TORSDOF 4
ENDMDL
MODEL       79
REMARK 921   NORMALIZED FREE ENERGY PREDICTED BY IDOCK:   -4.58 KCAL/MOL
REMARK 922        TOTAL FREE ENERGY PREDICTED BY IDOCK:   -6.38 KCAL/MOL
REMARK 923 INTER-LIGAND FREE ENERGY PREDICTED BY IDOCK:   -5.66 KCAL/MOL
REMARK 924 INTRA-LIGAND FREE ENERGY PREDICTED BY IDOCK:   -0.71 KCAL/MOL
REMARK 927      BINDING AFFINITY PREDICTED BY RF-SCORE:    0.00 PKD
ROOT
HETATM    1  O   UNL     1     -11.256   6.319  68.485  1.00  0.00    -0.352 OA 
HETATM    2  C   UNL     1     -10.396   7.015  67.972  1.00  0.00    -0.193 C  
HETATM    3  N   UNL     1     -10.107   8.349  68.358  1.00  0.00    -0.192 N  
HETATM    4  C   UNL     1      -8.033   8.440  64.058  1.00  0.00    -0.151 C  
HETATM    5  C   UNL     1      -9.238   8.949  67.325  1.00  0.00    -0.138 C  
HETATM    6  C   UNL     1      -7.831   9.400  67.705  1.00  0.00    -0.095 C  
HETATM    7  N   UNL     1      -9.436   6.604  67.012  1.00  0.00    -0.138 N  
HETATM    8  C   UNL     1      -9.130   7.826  66.281  1.00  0.00    -0.178 C  
HETATM    9  S   UNL     1      -6.658   9.012  66.365  1.00  0.00    -0.067 S  
HETATM   10  C   UNL     1      -7.828   7.896  65.479  1.00  0.00    -0.112 C  
HETATM   11  C   UNL     1      -7.040  10.331  65.161  1.00  0.00    -0.121 C  
HETATM   12  C   UNL     1      -7.054   9.579  63.837  1.00  0.00    -0.108 C  
ENDROOT
BRANCH   3  13
HETATM   13  C   UNL     1      -9.909   8.444  69.793  1.00  0.00    -0.187 C  
BRANCH  13  14
HETATM   14  C   UNL     1     -10.930   9.184  70.595  1.00  0.00    -0.319 A  
HETATM   15  C   UNL     1     -12.743   9.136  72.209  1.00  0.00    -0.447 A  
HETATM   16  C   UNL     1     -12.358  11.122  70.892  1.00  0.00    -0.500 A  
HETATM   17  C   UNL     1     -11.677   8.506  71.568  1.00  0.00    -0.354 A  
HETATM   18  C   UNL     1     -11.289  10.494  70.252  1.00  0.00    -0.407 A  
HETATM   19  C   UNL     1     -13.080  10.445  71.874  1.00  0.00    -0.563 A  
ENDBRANCH  13  14
ENDBRANCH   3  13
BRANCH   7  20
HETATM   20  C   UNL     1      -8.310   5.848  67.582  1.00  0.00    -0.104 C  
BRANCH  20  21
HETATM   21  C   UNL     1      -8.611   4.575  68.333  1.00  0.00    -0.104 A  
HETATM   22  C   UNL     1      -8.956   3.380  67.692  1.00  0.00    -0.174 A  
HETATM   23  C   UNL     1      -9.278   2.242  68.431  1.00  0.00    -0.241 A  
HETATM   24  C   UNL     1      -9.201   2.271  69.819  1.00  0.00    -0.185 A  
HETATM   25  C   UNL     1      -8.794   3.433  70.470  1.00  0.00    -0.145 A  
HETATM   26  C   UNL     1      -8.491   4.576  69.733  1.00  0.00    -0.087 A  
ENDBRANCH  20  21
ENDBRANCH   7  20
TORSDOF 4
ENDMDL
MODEL       80
REMARK 921   NORMALIZED FREE ENERGY PREDICTED BY IDOCK:   -4.56 KCAL/MOL
REMARK 922        TOTAL FREE ENERGY PREDICTED BY IDOCK:   -6.35 KCAL/MOL
REMARK 923 INTER-LIGAND FREE ENERGY PREDICTED BY IDOCK:   -5.81 KCAL/MOL
REMARK 924 INTRA-LIGAND FREE ENERGY PREDICTED BY IDOCK:   -0.55 KCAL/MOL
REMARK 927      BINDING AFFINITY PREDICTED BY RF-SCORE:    0.00 PKD
ROOT
HETATM    1  O   UNL     1     -12.289   7.101  71.251  1.00  0.00    -0.344 OA 
HETATM    2  C   UNL     1     -11.521   6.996  70.311  1.00  0.00    -0.287 C  
HETATM    3  N   UNL     1     -10.965   8.091  69.601  1.00  0.00    -0.164 N  
HETATM    4  C   UNL     1     -10.164   4.709  66.327  1.00  0.00    -0.306 C  
HETATM    5  C   UNL     1     -10.344   7.573  68.365  1.00  0.00    -0.195 C  
HETATM    6  C   UNL     1      -8.841   7.733  68.163  1.00  0.00    -0.125 C  
HETATM    7  N   UNL     1     -10.925   5.800  69.834  1.00  0.00    -0.349 N  
HETATM    8  C   UNL     1     -10.676   6.073  68.426  1.00  0.00    -0.280 C  
HETATM    9  S   UNL     1      -8.144   6.240  67.383  1.00  0.00    -0.110 S  
HETATM   10  C   UNL     1      -9.648   5.217  67.681  1.00  0.00    -0.140 C  
HETATM   11  C   UNL     1      -8.668   6.464  65.649  1.00  0.00    -0.099 C  
HETATM   12  C   UNL     1      -9.144   5.070  65.263  1.00  0.00    -0.143 C  
ENDROOT
BRANCH   3  13
HETATM   13  C   UNL     1     -10.369   9.051  70.512  1.00  0.00    -0.218 C  
BRANCH  13  14
HETATM   14  C   UNL     1      -9.334   8.561  71.471  1.00  0.00    -0.289 A  
HETATM   15  C   UNL     1      -8.694   8.027  73.751  1.00  0.00    -0.329 A  
HETATM   16  C   UNL     1      -7.000   8.227  72.044  1.00  0.00    -0.094 A  
HETATM   17  C   UNL     1      -9.678   8.326  72.809  1.00  0.00    -0.336 A  
HETATM   18  C   UNL     1      -7.983   8.523  71.099  1.00  0.00    -0.144 A  
HETATM   19  C   UNL     1      -7.357   7.975  73.368  1.00  0.00    -0.173 A  
ENDBRANCH  13  14
ENDBRANCH   3  13
BRANCH   7  20
HETATM   20  C   UNL     1      -9.795   5.332  70.650  1.00  0.00    -0.198 C  
BRANCH  20  21
HETATM   21  C   UNL     1     -10.055   4.272  71.692  1.00  0.00    -0.216 A  
HETATM   22  C   UNL     1      -9.779   2.917  71.480  1.00  0.00    -0.224 A  
HETATM   23  C   UNL     1     -10.087   1.966  72.452  1.00  0.00    -0.220 A  
HETATM   24  C   UNL     1     -10.619   2.369  73.672  1.00  0.00    -0.245 A  
HETATM   25  C   UNL     1     -10.837   3.720  73.925  1.00  0.00    -0.302 A  
HETATM   26  C   UNL     1     -10.548   4.669  72.946  1.00  0.00    -0.277 A  
ENDBRANCH  20  21
ENDBRANCH   7  20
TORSDOF 4
ENDMDL
MODEL       81
REMARK 921   NORMALIZED FREE ENERGY PREDICTED BY IDOCK:   -4.50 KCAL/MOL
REMARK 922        TOTAL FREE ENERGY PREDICTED BY IDOCK:   -6.29 KCAL/MOL
REMARK 923 INTER-LIGAND FREE ENERGY PREDICTED BY IDOCK:   -5.70 KCAL/MOL
REMARK 924 INTRA-LIGAND FREE ENERGY PREDICTED BY IDOCK:   -0.59 KCAL/MOL
REMARK 927      BINDING AFFINITY PREDICTED BY RF-SCORE:    0.00 PKD
ROOT
HETATM    1  O   UNL     1      -8.422   7.920  66.844  1.00  0.00    -0.123 OA 
HETATM    2  C   UNL     1      -8.989   7.813  67.918  1.00  0.00    -0.125 C  
HETATM    3  N   UNL     1      -9.833   8.804  68.484  1.00  0.00    -0.164 N  
HETATM    4  C   UNL     1      -8.955   6.330  72.472  1.00  0.00    -0.137 C  
HETATM    5  C   UNL     1     -10.078   8.449  69.896  1.00  0.00    -0.195 C  
HETATM    6  C   UNL     1     -11.501   8.144  70.351  1.00  0.00    -0.125 C  
HETATM    7  N   UNL     1      -9.041   6.656  68.737  1.00  0.00    -0.131 N  
HETATM    8  C   UNL     1      -9.219   7.188  70.080  1.00  0.00    -0.155 C  
HETATM    9  S   UNL     1     -11.502   6.762  71.541  1.00  0.00    -0.305 S  
HETATM   10  C   UNL     1      -9.767   6.262  71.171  1.00  0.00    -0.175 C  
HETATM   11  C   UNL     1     -10.914   7.594  73.057  1.00  0.00    -0.400 C  
HETATM   12  C   UNL     1      -9.915   6.593  73.619  1.00  0.00    -0.270 C  
ENDROOT
BRANCH   3  13
HETATM   13  C   UNL     1     -10.838   9.235  67.530  1.00  0.00    -0.112 C  
BRANCH  13  14
HETATM   14  C   UNL     1     -11.251  10.671  67.546  1.00  0.00    -0.326 A  
HETATM   15  C   UNL     1     -11.360  12.818  66.418  1.00  0.00    -0.369 A  
HETATM   16  C   UNL     1     -11.784  12.685  68.790  1.00  0.00    -0.364 A  
HETATM   17  C   UNL     1     -11.136  11.442  66.381  1.00  0.00    -0.301 A  
HETATM   18  C   UNL     1     -11.564  11.307  68.755  1.00  0.00    -0.383 A  
HETATM   19  C   UNL     1     -11.687  13.438  67.621  1.00  0.00    -0.397 A  
ENDBRANCH  13  14
ENDBRANCH   3  13
BRANCH   7  20
HETATM   20  C   UNL     1      -9.997   5.640  68.271  1.00  0.00    -0.155 C  
BRANCH  20  21
HETATM   21  C   UNL     1      -9.606   4.775  67.098  1.00  0.00    -0.185 A  
HETATM   22  C   UNL     1     -10.389   4.667  65.943  1.00  0.00    -0.315 A  
HETATM   23  C   UNL     1     -10.015   3.812  64.906  1.00  0.00    -0.171 A  
HETATM   24  C   UNL     1      -8.823   3.101  64.989  1.00  0.00    -0.126 A  
HETATM   25  C   UNL     1      -8.000   3.248  66.102  1.00  0.00    -0.088 A  
HETATM   26  C   UNL     1      -8.383   4.087  67.147  1.00  0.00    -0.099 A  
ENDBRANCH  20  21
ENDBRANCH   7  20
TORSDOF 4
ENDMDL
MODEL       82
REMARK 921   NORMALIZED FREE ENERGY PREDICTED BY IDOCK:   -4.50 KCAL/MOL
REMARK 922        TOTAL FREE ENERGY PREDICTED BY IDOCK:   -6.28 KCAL/MOL
REMARK 923 INTER-LIGAND FREE ENERGY PREDICTED BY IDOCK:   -6.65 KCAL/MOL
REMARK 924 INTRA-LIGAND FREE ENERGY PREDICTED BY IDOCK:    0.37 KCAL/MOL
REMARK 927      BINDING AFFINITY PREDICTED BY RF-SCORE:    0.00 PKD
ROOT
HETATM    1  O   UNL     1      -8.142  15.255  66.911  1.00  0.00    -0.211 OA 
HETATM    2  C   UNL     1      -8.844  14.446  67.491  1.00  0.00    -0.193 C  
HETATM    3  N   UNL     1      -9.894  14.786  68.383  1.00  0.00    -0.214 N  
HETATM    4  C   UNL     1      -9.294  10.257  69.769  1.00  0.00    -0.116 C  
HETATM    5  C   UNL     1     -10.299  13.564  69.107  1.00  0.00     0.092 C  
HETATM    6  C   UNL     1     -11.717  13.032  68.935  1.00  0.00    -0.328 C  
HETATM    7  N   UNL     1      -8.858  13.041  67.294  1.00  0.00    -0.199 N  
HETATM    8  C   UNL     1      -9.310  12.514  68.574  1.00  0.00    -0.082 C  
HETATM    9  S   UNL     1     -11.706  11.210  68.865  1.00  0.00    -0.336 S  
HETATM   10  C   UNL     1      -9.882  11.095  68.625  1.00  0.00    -0.202 C  
HETATM   11  C   UNL     1     -11.477  10.785  70.626  1.00  0.00    -0.219 C  
HETATM   12  C   UNL     1     -10.444   9.668  70.567  1.00  0.00    -0.367 C  
ENDROOT
BRANCH   3  13
HETATM   13  C   UNL     1     -10.794  15.753  67.780  1.00  0.00    -0.316 C  
BRANCH  13  14
HETATM   14  C   UNL     1     -10.361  17.182  67.733  1.00  0.00    -0.347 A  
HETATM   15  C   UNL     1      -9.850  19.241  68.912  1.00  0.00    -0.512 A  
HETATM   16  C   UNL     1     -10.167  19.274  66.520  1.00  0.00    -0.522 A  
HETATM   17  C   UNL     1     -10.094  17.869  68.925  1.00  0.00    -0.349 A  
HETATM   18  C   UNL     1     -10.409  17.900  66.530  1.00  0.00    -0.362 A  
HETATM   19  C   UNL     1      -9.882  19.942  67.710  1.00  0.00    -0.530 A  
ENDBRANCH  13  14
ENDBRANCH   3  13
BRANCH   7  20
HETATM   20  C   UNL     1      -9.579  12.616  66.086  1.00  0.00    -0.222 C  
BRANCH  20  21
HETATM   21  C   UNL     1     -10.618  13.545  65.509  1.00  0.00    -0.299 A  
HETATM   22  C   UNL     1     -10.293  14.618  64.672  1.00  0.00    -0.128 A  
HETATM   23  C   UNL     1     -11.282  15.484  64.206  1.00  0.00    -0.095 A  
HETATM   24  C   UNL     1     -12.615  15.249  64.524  1.00  0.00     0.136 A  
HETATM   25  C   UNL     1     -12.963  14.147  65.300  1.00  0.00    -0.268 A  
HETATM   26  C   UNL     1     -11.973  13.293  65.783  1.00  0.00    -0.463 A  
ENDBRANCH  20  21
ENDBRANCH   7  20
TORSDOF 4
ENDMDL
MODEL       83
REMARK 921   NORMALIZED FREE ENERGY PREDICTED BY IDOCK:   -4.47 KCAL/MOL
REMARK 922        TOTAL FREE ENERGY PREDICTED BY IDOCK:   -6.25 KCAL/MOL
REMARK 923 INTER-LIGAND FREE ENERGY PREDICTED BY IDOCK:   -6.09 KCAL/MOL
REMARK 924 INTRA-LIGAND FREE ENERGY PREDICTED BY IDOCK:   -0.16 KCAL/MOL
REMARK 927      BINDING AFFINITY PREDICTED BY RF-SCORE:    0.00 PKD
ROOT
HETATM    1  O   UNL     1     -11.541  11.444  69.525  1.00  0.00    -0.272 OA 
HETATM    2  C   UNL     1     -10.960  10.481  69.054  1.00  0.00    -0.243 C  
HETATM    3  N   UNL     1     -10.383  10.446  67.759  1.00  0.00    -0.192 N  
HETATM    4  C   UNL     1     -10.611   5.736  68.507  1.00  0.00    -0.299 C  
HETATM    5  C   UNL     1     -10.053   9.042  67.439  1.00  0.00    -0.230 C  
HETATM    6  C   UNL     1      -8.596   8.654  67.208  1.00  0.00    -0.125 C  
HETATM    7  N   UNL     1     -10.623   9.281  69.731  1.00  0.00    -0.223 N  
HETATM    8  C   UNL     1     -10.575   8.285  68.670  1.00  0.00    -0.108 C  
HETATM    9  S   UNL     1      -8.251   7.021  67.942  1.00  0.00    -0.115 S  
HETATM   10  C   UNL     1      -9.813   6.980  68.920  1.00  0.00    -0.150 C  
HETATM   11  C   UNL     1      -9.019   5.908  66.715  1.00  0.00    -0.120 C  
HETATM   12  C   UNL     1      -9.740   4.894  67.592  1.00  0.00    -0.197 C  
ENDROOT
BRANCH   3  13
HETATM   13  C   UNL     1      -9.517  11.592  67.545  1.00  0.00    -0.169 C  
BRANCH  13  14
HETATM   14  C   UNL     1     -10.132  12.953  67.581  1.00  0.00    -0.221 A  
HETATM   15  C   UNL     1     -11.621  14.590  66.583  1.00  0.00    -0.385 A  
HETATM   16  C   UNL     1     -10.040  15.276  68.274  1.00  0.00    -0.225 A  
HETATM   17  C   UNL     1     -11.151  13.281  66.676  1.00  0.00    -0.311 A  
HETATM   18  C   UNL     1      -9.571  13.966  68.370  1.00  0.00    -0.215 A  
HETATM   19  C   UNL     1     -11.069  15.586  67.384  1.00  0.00    -0.285 A  
ENDBRANCH  13  14
ENDBRANCH   3  13
BRANCH   7  20
HETATM   20  C   UNL     1      -9.450   9.402  70.609  1.00  0.00    -0.262 C  
BRANCH  20  21
HETATM   21  C   UNL     1      -9.416   8.584  71.876  1.00  0.00    -0.350 A  
HETATM   22  C   UNL     1     -10.571   8.074  72.479  1.00  0.00    -0.397 A  
HETATM   23  C   UNL     1     -10.496   7.369  73.680  1.00  0.00    -0.350 A  
HETATM   24  C   UNL     1      -9.258   7.116  74.259  1.00  0.00    -0.250 A  
HETATM   25  C   UNL     1      -8.094   7.559  73.638  1.00  0.00    -0.176 A  
HETATM   26  C   UNL     1      -8.169   8.281  72.448  1.00  0.00    -0.214 A  
ENDBRANCH  20  21
ENDBRANCH   7  20
TORSDOF 4
ENDMDL
MODEL       84
REMARK 921   NORMALIZED FREE ENERGY PREDICTED BY IDOCK:   -4.47 KCAL/MOL
REMARK 922        TOTAL FREE ENERGY PREDICTED BY IDOCK:   -6.24 KCAL/MOL
REMARK 923 INTER-LIGAND FREE ENERGY PREDICTED BY IDOCK:   -5.47 KCAL/MOL
REMARK 924 INTRA-LIGAND FREE ENERGY PREDICTED BY IDOCK:   -0.77 KCAL/MOL
REMARK 927      BINDING AFFINITY PREDICTED BY RF-SCORE:    0.00 PKD
ROOT
HETATM    1  O   UNL     1     -10.304   5.457  68.228  1.00  0.00    -0.180 OA 
HETATM    2  C   UNL     1     -10.141   6.630  67.939  1.00  0.00    -0.150 C  
HETATM    3  N   UNL     1     -10.774   7.715  68.598  1.00  0.00    -0.119 N  
HETATM    4  C   UNL     1      -9.521  10.008  64.601  1.00  0.00    -0.367 C  
HETATM    5  C   UNL     1     -10.572   8.930  67.782  1.00  0.00    -0.202 C  
HETATM    6  C   UNL     1      -9.785  10.097  68.368  1.00  0.00    -0.147 C  
HETATM    7  N   UNL     1      -9.204   7.150  67.009  1.00  0.00    -0.139 N  
HETATM    8  C   UNL     1      -9.816   8.392  66.557  1.00  0.00    -0.268 C  
HETATM    9  S   UNL     1      -8.724  10.851  67.090  1.00  0.00    -0.134 S  
HETATM   10  C   UNL     1      -8.928   9.454  65.904  1.00  0.00    -0.178 C  
HETATM   11  C   UNL     1      -9.946  11.812  66.132  1.00  0.00    -0.226 C  
HETATM   12  C   UNL     1      -9.541  11.523  64.693  1.00  0.00    -0.186 C  
ENDROOT
BRANCH   3  13
HETATM   13  C   UNL     1     -10.604   7.620  70.036  1.00  0.00    -0.238 C  
BRANCH  13  14
HETATM   14  C   UNL     1     -11.762   7.987  70.906  1.00  0.00    -0.265 A  
HETATM   15  C   UNL     1     -13.946   7.429  71.808  1.00  0.00    -0.469 A  
HETATM   16  C   UNL     1     -13.108   9.684  71.998  1.00  0.00    -0.537 A  
HETATM   17  C   UNL     1     -12.782   7.054  71.137  1.00  0.00    -0.361 A  
HETATM   18  C   UNL     1     -11.941   9.310  71.330  1.00  0.00    -0.424 A  
HETATM   19  C   UNL     1     -14.107   8.742  72.241  1.00  0.00    -0.511 A  
ENDBRANCH  13  14
ENDBRANCH   3  13
BRANCH   7  20
HETATM   20  C   UNL     1      -7.828   7.213  67.523  1.00  0.00    -0.112 C  
BRANCH  20  21
HETATM   21  C   UNL     1      -7.119   5.918  67.832  1.00  0.00    -0.071 A  
HETATM   22  C   UNL     1      -6.766   5.538  69.131  1.00  0.00    -0.053 A  
HETATM   23  C   UNL     1      -6.062   4.357  69.362  1.00  0.00    -0.026 A  
HETATM   24  C   UNL     1      -5.757   3.513  68.301  1.00  0.00    -0.022 A  
HETATM   25  C   UNL     1      -6.159   3.843  67.010  1.00  0.00    -0.025 A  
HETATM   26  C   UNL     1      -6.845   5.033  66.775  1.00  0.00    -0.063 A  
ENDBRANCH  20  21
ENDBRANCH   7  20
TORSDOF 4
ENDMDL
MODEL       85
REMARK 921   NORMALIZED FREE ENERGY PREDICTED BY IDOCK:   -4.47 KCAL/MOL
REMARK 922        TOTAL FREE ENERGY PREDICTED BY IDOCK:   -6.24 KCAL/MOL
REMARK 923 INTER-LIGAND FREE ENERGY PREDICTED BY IDOCK:   -5.43 KCAL/MOL
REMARK 924 INTRA-LIGAND FREE ENERGY PREDICTED BY IDOCK:   -0.81 KCAL/MOL
REMARK 927      BINDING AFFINITY PREDICTED BY RF-SCORE:    0.00 PKD
ROOT
HETATM    1  O   UNL     1     -10.490   9.271  66.169  1.00  0.00    -0.150 OA 
HETATM    2  C   UNL     1     -10.205   8.952  67.310  1.00  0.00    -0.258 C  
HETATM    3  N   UNL     1      -9.337   7.883  67.652  1.00  0.00    -0.142 N  
HETATM    4  C   UNL     1     -11.522   8.336  71.874  1.00  0.00    -0.372 C  
HETATM    5  C   UNL     1      -9.481   7.616  69.098  1.00  0.00    -0.154 C  
HETATM    6  C   UNL     1      -8.277   7.807  70.014  1.00  0.00    -0.121 C  
HETATM    7  N   UNL     1     -10.553   9.648  68.497  1.00  0.00    -0.219 N  
HETATM    8  C   UNL     1     -10.579   8.608  69.515  1.00  0.00    -0.213 C  
HETATM    9  S   UNL     1      -8.797   8.542  71.599  1.00  0.00    -0.222 S  
HETATM   10  C   UNL     1     -10.470   9.016  70.987  1.00  0.00    -0.269 C  
HETATM   11  C   UNL     1      -9.539   7.099  72.437  1.00  0.00    -0.146 C  
HETATM   12  C   UNL     1     -10.807   7.682  73.044  1.00  0.00    -0.457 C  
ENDROOT
BRANCH   3  13
HETATM   13  C   UNL     1      -8.083   7.981  66.928  1.00  0.00    -0.108 C  
BRANCH  13  14
HETATM   14  C   UNL     1      -7.915   7.149  65.698  1.00  0.00    -0.126 A  
HETATM   15  C   UNL     1      -7.460   7.022  63.317  1.00  0.00    -0.092 A  
HETATM   16  C   UNL     1      -8.385   5.112  64.466  1.00  0.00    -0.137 A  
HETATM   17  C   UNL     1      -7.466   7.742  64.511  1.00  0.00    -0.097 A  
HETATM   18  C   UNL     1      -8.389   5.830  65.663  1.00  0.00    -0.138 A  
HETATM   19  C   UNL     1      -7.916   5.707  63.296  1.00  0.00    -0.101 A  
ENDBRANCH  13  14
ENDBRANCH   3  13
BRANCH   7  20
HETATM   20  C   UNL     1      -9.725  10.836  68.754  1.00  0.00    -0.192 C  
BRANCH  20  21
HETATM   21  C   UNL     1     -10.212  12.171  68.246  1.00  0.00    -0.209 A  
HETATM   22  C   UNL     1      -9.343  13.213  67.902  1.00  0.00    -0.215 A  
HETATM   23  C   UNL     1      -9.841  14.448  67.489  1.00  0.00    -0.220 A  
HETATM   24  C   UNL     1     -11.212  14.634  67.357  1.00  0.00    -0.351 A  
HETATM   25  C   UNL     1     -12.088  13.587  67.630  1.00  0.00    -0.321 A  
HETATM   26  C   UNL     1     -11.592  12.358  68.063  1.00  0.00    -0.403 A  
ENDBRANCH  20  21
ENDBRANCH   7  20
TORSDOF 4
ENDMDL
MODEL       86
REMARK 921   NORMALIZED FREE ENERGY PREDICTED BY IDOCK:   -4.46 KCAL/MOL
REMARK 922        TOTAL FREE ENERGY PREDICTED BY IDOCK:   -6.23 KCAL/MOL
REMARK 923 INTER-LIGAND FREE ENERGY PREDICTED BY IDOCK:   -5.40 KCAL/MOL
REMARK 924 INTRA-LIGAND FREE ENERGY PREDICTED BY IDOCK:   -0.83 KCAL/MOL
REMARK 927      BINDING AFFINITY PREDICTED BY RF-SCORE:    0.00 PKD
ROOT
HETATM    1  O   UNL     1     -10.032   8.983  65.977  1.00  0.00    -0.283 OA 
HETATM    2  C   UNL     1      -9.941   8.756  67.171  1.00  0.00    -0.230 C  
HETATM    3  N   UNL     1      -9.115   7.750  67.737  1.00  0.00    -0.134 N  
HETATM    4  C   UNL     1     -12.015   8.402  71.473  1.00  0.00    -0.344 C  
HETATM    5  C   UNL     1      -9.501   7.579  69.152  1.00  0.00    -0.150 C  
HETATM    6  C   UNL     1      -8.482   7.883  70.245  1.00  0.00    -0.128 C  
HETATM    7  N   UNL     1     -10.511   9.517  68.224  1.00  0.00    -0.214 N  
HETATM    8  C   UNL     1     -10.684   8.550  69.298  1.00  0.00    -0.133 C  
HETATM    9  S   UNL     1      -9.292   8.704  71.657  1.00  0.00    -0.280 S  
HETATM   10  C   UNL     1     -10.845   9.064  70.732  1.00  0.00    -0.251 C  
HETATM   11  C   UNL     1     -10.126   7.292  72.461  1.00  0.00    -0.187 C  
HETATM   12  C   UNL     1     -11.497   7.862  72.795  1.00  0.00    -0.428 C  
ENDROOT
BRANCH   3  13
HETATM   13  C   UNL     1      -7.757   7.851  67.234  1.00  0.00    -0.105 C  
BRANCH  13  14
HETATM   14  C   UNL     1      -7.099   9.192  67.251  1.00  0.00    -0.079 A  
HETATM   15  C   UNL     1      -6.152  11.061  66.024  1.00  0.00    -0.094 A  
HETATM   16  C   UNL     1      -5.736  10.843  68.392  1.00  0.00    -0.043 A  
HETATM   17  C   UNL     1      -6.907   9.889  66.050  1.00  0.00    -0.099 A  
HETATM   18  C   UNL     1      -6.494   9.672  68.420  1.00  0.00    -0.052 A  
HETATM   19  C   UNL     1      -5.570  11.539  67.195  1.00  0.00    -0.099 A  
ENDBRANCH  13  14
ENDBRANCH   3  13
BRANCH   7  20
HETATM   20  C   UNL     1      -9.776  10.754  68.529  1.00  0.00    -0.182 C  
BRANCH  20  21
HETATM   21  C   UNL     1     -10.100  11.994  67.733  1.00  0.00    -0.199 A  
HETATM   22  C   UNL     1      -9.117  12.873  67.266  1.00  0.00    -0.208 A  
HETATM   23  C   UNL     1      -9.467  14.036  66.581  1.00  0.00    -0.300 A  
HETATM   24  C   UNL     1     -10.804  14.301  66.303  1.00  0.00    -0.310 A  
HETATM   25  C   UNL     1     -11.790  13.402  66.702  1.00  0.00    -0.443 A  
HETATM   26  C   UNL     1     -11.442  12.251  67.404  1.00  0.00    -0.422 A  
ENDBRANCH  20  21
ENDBRANCH   7  20
TORSDOF 4
ENDMDL
MODEL       87
REMARK 921   NORMALIZED FREE ENERGY PREDICTED BY IDOCK:   -4.40 KCAL/MOL
REMARK 922        TOTAL FREE ENERGY PREDICTED BY IDOCK:   -6.16 KCAL/MOL
REMARK 923 INTER-LIGAND FREE ENERGY PREDICTED BY IDOCK:   -5.31 KCAL/MOL
REMARK 924 INTRA-LIGAND FREE ENERGY PREDICTED BY IDOCK:   -0.85 KCAL/MOL
REMARK 927      BINDING AFFINITY PREDICTED BY RF-SCORE:    0.00 PKD
ROOT
HETATM    1  O   UNL     1     -10.088   9.441  65.713  1.00  0.00    -0.288 OA 
HETATM    2  C   UNL     1     -10.101   9.182  66.904  1.00  0.00    -0.258 C  
HETATM    3  N   UNL     1      -9.524   8.020  67.480  1.00  0.00    -0.142 N  
HETATM    4  C   UNL     1     -12.402   9.192  71.104  1.00  0.00    -0.330 C  
HETATM    5  C   UNL     1     -10.002   7.910  68.873  1.00  0.00    -0.190 C  
HETATM    6  C   UNL     1      -8.994   7.983  70.014  1.00  0.00    -0.144 C  
HETATM    7  N   UNL     1     -10.553  10.027  67.950  1.00  0.00    -0.232 N  
HETATM    8  C   UNL     1     -10.969   9.099  68.992  1.00  0.00    -0.008 C  
HETATM    9  S   UNL     1      -9.686   8.929  71.411  1.00  0.00    -0.303 S  
HETATM   10  C   UNL     1     -11.089   9.613  70.429  1.00  0.00    -0.290 C  
HETATM   11  C   UNL     1     -10.826   7.705  72.143  1.00  0.00    -0.247 C  
HETATM   12  C   UNL     1     -12.067   8.538  72.432  1.00  0.00    -0.436 C  
ENDROOT
BRANCH   3  13
HETATM   13  C   UNL     1      -8.152   7.849  67.037  1.00  0.00    -0.116 C  
BRANCH  13  14
HETATM   14  C   UNL     1      -7.798   6.588  66.318  1.00  0.00    -0.105 A  
HETATM   15  C   UNL     1      -8.413   4.344  65.626  1.00  0.00    -0.115 A  
HETATM   16  C   UNL     1      -6.114   5.061  65.471  1.00  0.00    -0.033 A  
HETATM   17  C   UNL     1      -8.766   5.589  66.146  1.00  0.00    -0.133 A  
HETATM   18  C   UNL     1      -6.465   6.308  65.988  1.00  0.00    -0.046 A  
HETATM   19  C   UNL     1      -7.089   4.082  65.285  1.00  0.00    -0.063 A  
ENDBRANCH  13  14
ENDBRANCH   3  13
BRANCH   7  20
HETATM   20  C   UNL     1      -9.598  11.083  68.316  1.00  0.00    -0.171 C  
BRANCH  20  21
HETATM   21  C   UNL     1     -10.037  12.521  68.188  1.00  0.00    -0.225 A  
HETATM   22  C   UNL     1      -9.138  13.593  68.219  1.00  0.00    -0.193 A  
HETATM   23  C   UNL     1      -9.595  14.908  68.153  1.00  0.00    -0.210 A  
HETATM   24  C   UNL     1     -10.953  15.163  67.993  1.00  0.00    -0.295 A  
HETATM   25  C   UNL     1     -11.853  14.106  67.893  1.00  0.00    -0.405 A  
HETATM   26  C   UNL     1     -11.399  12.792  67.981  1.00  0.00    -0.335 A  
ENDBRANCH  20  21
ENDBRANCH   7  20
TORSDOF 4
ENDMDL
MODEL       88
REMARK 921   NORMALIZED FREE ENERGY PREDICTED BY IDOCK:   -4.40 KCAL/MOL
REMARK 922        TOTAL FREE ENERGY PREDICTED BY IDOCK:   -6.16 KCAL/MOL
REMARK 923 INTER-LIGAND FREE ENERGY PREDICTED BY IDOCK:   -5.43 KCAL/MOL
REMARK 924 INTRA-LIGAND FREE ENERGY PREDICTED BY IDOCK:   -0.73 KCAL/MOL
REMARK 927      BINDING AFFINITY PREDICTED BY RF-SCORE:    0.00 PKD
ROOT
HETATM    1  O   UNL     1      -8.178   7.755  69.124  1.00  0.00    -0.126 OA 
HETATM    2  C   UNL     1      -8.673   8.708  68.547  1.00  0.00    -0.139 C  
HETATM    3  N   UNL     1      -8.840   8.797  67.141  1.00  0.00    -0.126 N  
HETATM    4  C   UNL     1      -9.253  13.445  68.153  1.00  0.00    -0.215 C  
HETATM    5  C   UNL     1      -9.180  10.195  66.805  1.00  0.00    -0.151 C  
HETATM    6  C   UNL     1     -10.530  10.499  66.164  1.00  0.00    -0.168 C  
HETATM    7  N   UNL     1      -9.300   9.830  69.148  1.00  0.00    -0.172 N  
HETATM    8  C   UNL     1      -9.116  10.895  68.172  1.00  0.00    -0.155 C  
HETATM    9  S   UNL     1     -11.217  12.047  66.838  1.00  0.00    -0.335 S  
HETATM   10  C   UNL     1     -10.028  12.123  68.244  1.00  0.00    -0.212 C  
HETATM   11  C   UNL     1     -10.219  13.297  65.957  1.00  0.00    -0.291 C  
HETATM   12  C   UNL     1      -9.882  14.291  67.059  1.00  0.00    -0.254 C  
ENDROOT
BRANCH   3  13
HETATM   13  C   UNL     1      -9.500   7.614  66.620  1.00  0.00    -0.198 C  
BRANCH  13  14
HETATM   14  C   UNL     1      -8.668   6.609  65.892  1.00  0.00    -0.147 A  
HETATM   15  C   UNL     1      -7.092   6.107  64.115  1.00  0.00    -0.053 A  
HETATM   16  C   UNL     1      -8.267   4.312  65.221  1.00  0.00    -0.106 A  
HETATM   17  C   UNL     1      -7.755   7.035  64.918  1.00  0.00    -0.114 A  
HETATM   18  C   UNL     1      -8.929   5.239  66.027  1.00  0.00    -0.144 A  
HETATM   19  C   UNL     1      -7.345   4.747  64.270  1.00  0.00    -0.062 A  
ENDBRANCH  13  14
ENDBRANCH   3  13
BRANCH   7  20
HETATM   20  C   UNL     1     -10.666   9.565  69.623  1.00  0.00    -0.238 C  
BRANCH  20  21
HETATM   21  C   UNL     1     -10.863   8.517  70.690  1.00  0.00    -0.255 A  
HETATM   22  C   UNL     1     -11.551   7.321  70.459  1.00  0.00    -0.292 A  
HETATM   23  C   UNL     1     -11.756   6.406  71.491  1.00  0.00    -0.369 A  
HETATM   24  C   UNL     1     -11.220   6.650  72.751  1.00  0.00    -0.263 A  
HETATM   25  C   UNL     1     -10.475   7.803  72.980  1.00  0.00    -0.432 A  
HETATM   26  C   UNL     1     -10.288   8.728  71.955  1.00  0.00    -0.414 A  
ENDBRANCH  20  21
ENDBRANCH   7  20
TORSDOF 4
ENDMDL
MODEL       89
REMARK 921   NORMALIZED FREE ENERGY PREDICTED BY IDOCK:   -4.39 KCAL/MOL
REMARK 922        TOTAL FREE ENERGY PREDICTED BY IDOCK:   -6.15 KCAL/MOL
REMARK 923 INTER-LIGAND FREE ENERGY PREDICTED BY IDOCK:   -5.80 KCAL/MOL
REMARK 924 INTRA-LIGAND FREE ENERGY PREDICTED BY IDOCK:   -0.35 KCAL/MOL
REMARK 927      BINDING AFFINITY PREDICTED BY RF-SCORE:    0.00 PKD
ROOT
HETATM    1  O   UNL     1      -9.847  15.369  69.160  1.00  0.00    -0.217 OA 
HETATM    2  C   UNL     1     -10.022  14.764  68.117  1.00  0.00    -0.221 C  
HETATM    3  N   UNL     1      -9.268  14.971  66.932  1.00  0.00    -0.231 N  
HETATM    4  C   UNL     1     -13.017  12.773  64.954  1.00  0.00    -0.187 C  
HETATM    5  C   UNL     1      -9.963  14.291  65.820  1.00  0.00    -0.323 C  
HETATM    6  C   UNL     1      -9.262  13.150  65.092  1.00  0.00     0.832 C  
HETATM    7  N   UNL     1     -10.889  13.661  67.912  1.00  0.00    -0.246 N  
HETATM    8  C   UNL     1     -11.227  13.741  66.498  1.00  0.00    -0.312 C  
HETATM    9  S   UNL     1     -10.452  11.828  64.690  1.00  0.00    -0.318 S  
HETATM   10  C   UNL     1     -11.768  12.490  65.800  1.00  0.00    -0.426 C  
HETATM   11  C   UNL     1     -11.326  12.556  63.261  1.00  0.00    -0.298 C  
HETATM   12  C   UNL     1     -12.782  12.226  63.558  1.00  0.00    -0.512 C  
ENDROOT
BRANCH   3  13
HETATM   13  C   UNL     1      -7.844  14.913  67.206  1.00  0.00    -0.206 C  
BRANCH  13  14
HETATM   14  C   UNL     1      -7.333  13.773  68.027  1.00  0.00    -0.134 A  
HETATM   15  C   UNL     1      -6.260  12.989  70.058  1.00  0.00    -0.062 A  
HETATM   16  C   UNL     1      -6.472  11.509  68.163  1.00  0.00    -0.053 A  
HETATM   17  C   UNL     1      -6.890  14.002  69.337  1.00  0.00    -0.083 A  
HETATM   18  C   UNL     1      -7.106  12.521  67.441  1.00  0.00    -0.146 A  
HETATM   19  C   UNL     1      -6.054  11.742  69.473  1.00  0.00    -0.106 A  
ENDBRANCH  13  14
ENDBRANCH   3  13
BRANCH   7  20
HETATM   20  C   UNL     1     -10.360  12.386  68.419  1.00  0.00    -0.229 C  
BRANCH  20  21
HETATM   21  C   UNL     1     -11.096  11.702  69.544  1.00  0.00    -0.230 A  
HETATM   22  C   UNL     1     -10.827  10.385  69.935  1.00  0.00    -0.353 A  
HETATM   23  C   UNL     1     -11.570   9.776  70.945  1.00  0.00    -0.441 A  
HETATM   24  C   UNL     1     -12.551  10.498  71.616  1.00  0.00    -0.498 A  
HETATM   25  C   UNL     1     -12.786  11.830  71.285  1.00  0.00    -0.420 A  
HETATM   26  C   UNL     1     -12.057  12.433  70.262  1.00  0.00    -0.377 A  
ENDBRANCH  20  21
ENDBRANCH   7  20
TORSDOF 4
ENDMDL
MODEL       90
REMARK 921   NORMALIZED FREE ENERGY PREDICTED BY IDOCK:   -4.37 KCAL/MOL
REMARK 922        TOTAL FREE ENERGY PREDICTED BY IDOCK:   -6.12 KCAL/MOL
REMARK 923 INTER-LIGAND FREE ENERGY PREDICTED BY IDOCK:   -5.48 KCAL/MOL
REMARK 924 INTRA-LIGAND FREE ENERGY PREDICTED BY IDOCK:   -0.64 KCAL/MOL
REMARK 927      BINDING AFFINITY PREDICTED BY RF-SCORE:    0.00 PKD
ROOT
HETATM    1  O   UNL     1     -11.323   6.578  66.814  1.00  0.00    -0.272 OA 
HETATM    2  C   UNL     1     -10.853   6.540  67.938  1.00  0.00    -0.304 C  
HETATM    3  N   UNL     1     -10.029   5.494  68.429  1.00  0.00    -0.149 N  
HETATM    4  C   UNL     1     -11.321   7.348  72.635  1.00  0.00    -0.360 C  
HETATM    5  C   UNL     1      -9.917   5.646  69.894  1.00  0.00    -0.204 C  
HETATM    6  C   UNL     1      -8.548   5.910  70.512  1.00  0.00    -0.136 C  
HETATM    7  N   UNL     1     -10.908   7.568  68.914  1.00  0.00    -0.103 N  
HETATM    8  C   UNL     1     -10.827   6.851  70.179  1.00  0.00    -0.263 C  
HETATM    9  S   UNL     1      -8.692   7.105  71.882  1.00  0.00    -0.119 S  
HETATM   10  C   UNL     1     -10.404   7.619  71.434  1.00  0.00    -0.196 C  
HETATM   11  C   UNL     1      -9.379   6.052  73.205  1.00  0.00    -0.135 C  
HETATM   12  C   UNL     1     -10.455   6.941  73.813  1.00  0.00    -0.390 C  
ENDROOT
BRANCH   3  13
HETATM   13  C   UNL     1      -8.933   5.225  67.517  1.00  0.00    -0.108 C  
BRANCH  13  14
HETATM   14  C   UNL     1      -8.330   6.379  66.783  1.00  0.00    -0.111 A  
HETATM   15  C   UNL     1      -7.845   7.481  64.675  1.00  0.00    -0.130 A  
HETATM   16  C   UNL     1      -6.718   8.191  66.688  1.00  0.00    -0.063 A  
HETATM   17  C   UNL     1      -8.531   6.509  65.402  1.00  0.00    -0.119 A  
HETATM   18  C   UNL     1      -7.407   7.221  67.418  1.00  0.00    -0.092 A  
HETATM   19  C   UNL     1      -6.943   8.323  65.318  1.00  0.00    -0.066 A  
ENDBRANCH  13  14
ENDBRANCH   3  13
BRANCH   7  20
HETATM   20  C   UNL     1      -9.949   8.659  68.684  1.00  0.00    -0.183 C  
BRANCH  20  21
HETATM   21  C   UNL     1     -10.363   9.797  67.784  1.00  0.00    -0.274 A  
HETATM   22  C   UNL     1     -10.036   9.846  66.425  1.00  0.00    -0.309 A  
HETATM   23  C   UNL     1     -10.392  10.945  65.644  1.00  0.00    -0.305 A  
HETATM   24  C   UNL     1     -11.133  11.980  66.203  1.00  0.00    -0.367 A  
HETATM   25  C   UNL     1     -11.525  11.916  67.538  1.00  0.00    -0.396 A  
HETATM   26  C   UNL     1     -11.151  10.828  68.323  1.00  0.00    -0.327 A  
ENDBRANCH  20  21
ENDBRANCH   7  20
TORSDOF 4
ENDMDL
MODEL       91
REMARK 921   NORMALIZED FREE ENERGY PREDICTED BY IDOCK:   -4.35 KCAL/MOL
REMARK 922        TOTAL FREE ENERGY PREDICTED BY IDOCK:   -6.10 KCAL/MOL
REMARK 923 INTER-LIGAND FREE ENERGY PREDICTED BY IDOCK:   -5.58 KCAL/MOL
REMARK 924 INTRA-LIGAND FREE ENERGY PREDICTED BY IDOCK:   -0.51 KCAL/MOL
REMARK 927      BINDING AFFINITY PREDICTED BY RF-SCORE:    0.00 PKD
ROOT
HETATM    1  O   UNL     1     -10.500  11.311  65.228  1.00  0.00    -0.270 OA 
HETATM    2  C   UNL     1     -10.583  10.836  66.348  1.00  0.00    -0.203 C  
HETATM    3  N   UNL     1     -10.376   9.468  66.658  1.00  0.00    -0.233 N  
HETATM    4  C   UNL     1     -12.751  10.688  70.616  1.00  0.00    -0.445 C  
HETATM    5  C   UNL     1     -10.857   9.228  68.034  1.00  0.00    -0.106 C  
HETATM    6  C   UNL     1      -9.867   8.776  69.101  1.00  0.00    -0.181 C  
HETATM    7  N   UNL     1     -10.755  11.552  67.561  1.00  0.00    -0.212 N  
HETATM    8  C   UNL     1     -11.424  10.599  68.435  1.00  0.00    -0.259 C  
HETATM    9  S   UNL     1     -10.236   9.588  70.692  1.00  0.00    -0.288 S  
HETATM   10  C   UNL     1     -11.376  10.831  69.948  1.00  0.00    -0.311 C  
HETATM   11  C   UNL     1     -11.685   8.630  71.255  1.00  0.00    -0.289 C  
HETATM   12  C   UNL     1     -12.619   9.714  71.774  1.00  0.00    -0.497 C  
ENDROOT
BRANCH   3  13
HETATM   13  C   UNL     1      -9.120   8.994  66.104  1.00  0.00    -0.199 C  
BRANCH  13  14
HETATM   14  C   UNL     1      -7.860   9.667  66.544  1.00  0.00    -0.108 A  
HETATM   15  C   UNL     1      -5.965  11.087  66.013  1.00  0.00    -0.109 A  
HETATM   16  C   UNL     1      -5.945   9.763  68.031  1.00  0.00    -0.043 A  
HETATM   17  C   UNL     1      -7.221  10.577  65.690  1.00  0.00    -0.124 A  
HETATM   18  C   UNL     1      -7.205   9.253  67.711  1.00  0.00    -0.083 A  
HETATM   19  C   UNL     1      -5.329  10.683  67.184  1.00  0.00    -0.042 A  
ENDBRANCH  13  14
ENDBRANCH   3  13
BRANCH   7  20
HETATM   20  C   UNL     1      -9.526  12.190  68.056  1.00  0.00    -0.201 C  
BRANCH  20  21
HETATM   21  C   UNL     1      -9.306  13.652  67.754  1.00  0.00    -0.218 A  
HETATM   22  C   UNL     1      -8.068  14.164  67.353  1.00  0.00    -0.205 A  
HETATM   23  C   UNL     1      -7.898  15.532  67.138  1.00  0.00    -0.256 A  
HETATM   24  C   UNL     1      -8.983  16.393  67.264  1.00  0.00    -0.208 A  
HETATM   25  C   UNL     1     -10.237  15.890  67.598  1.00  0.00    -0.263 A  
HETATM   26  C   UNL     1     -10.403  14.527  67.832  1.00  0.00    -0.231 A  
ENDBRANCH  20  21
ENDBRANCH   7  20
TORSDOF 4
ENDMDL
MODEL       92
REMARK 921   NORMALIZED FREE ENERGY PREDICTED BY IDOCK:   -4.33 KCAL/MOL
REMARK 922        TOTAL FREE ENERGY PREDICTED BY IDOCK:   -6.07 KCAL/MOL
REMARK 923 INTER-LIGAND FREE ENERGY PREDICTED BY IDOCK:   -5.47 KCAL/MOL
REMARK 924 INTRA-LIGAND FREE ENERGY PREDICTED BY IDOCK:   -0.60 KCAL/MOL
REMARK 927      BINDING AFFINITY PREDICTED BY RF-SCORE:    0.00 PKD
ROOT
HETATM    1  O   UNL     1     -11.522   6.284  69.700  1.00  0.00    -0.432 OA 
HETATM    2  C   UNL     1     -10.549   6.019  70.385  1.00  0.00    -0.268 C  
HETATM    3  N   UNL     1      -9.233   5.850  69.881  1.00  0.00    -0.145 N  
HETATM    4  C   UNL     1      -8.623   3.644  74.071  1.00  0.00    -0.089 C  
HETATM    5  C   UNL     1      -8.406   5.245  70.945  1.00  0.00    -0.116 C  
HETATM    6  C   UNL     1      -7.217   6.025  71.497  1.00  0.00    -0.083 C  
HETATM    7  N   UNL     1     -10.500   5.967  71.801  1.00  0.00    -0.219 N  
HETATM    8  C   UNL     1      -9.422   5.027  72.077  1.00  0.00    -0.142 C  
HETATM    9  S   UNL     1      -7.086   5.785  73.300  1.00  0.00    -0.086 S  
HETATM   10  C   UNL     1      -8.766   5.046  73.462  1.00  0.00    -0.110 C  
HETATM   11  C   UNL     1      -6.366   4.109  73.387  1.00  0.00    -0.039 C  
HETATM   12  C   UNL     1      -7.177   3.456  74.497  1.00  0.00    -0.052 C  
ENDROOT
BRANCH   3  13
HETATM   13  C   UNL     1      -8.851   6.972  69.043  1.00  0.00    -0.134 C  
BRANCH  13  14
HETATM   14  C   UNL     1      -8.479   6.694  67.623  1.00  0.00    -0.121 A  
HETATM   15  C   UNL     1      -7.565   7.484  65.517  1.00  0.00    -0.093 A  
HETATM   16  C   UNL     1      -8.784   5.402  65.591  1.00  0.00    -0.152 A  
HETATM   17  C   UNL     1      -7.777   7.656  66.885  1.00  0.00    -0.103 A  
HETATM   18  C   UNL     1      -8.994   5.571  66.961  1.00  0.00    -0.113 A  
HETATM   19  C   UNL     1      -8.066   6.356  64.872  1.00  0.00    -0.120 A  
ENDBRANCH  13  14
ENDBRANCH   3  13
BRANCH   7  20
HETATM   20  C   UNL     1     -10.437   7.288  72.444  1.00  0.00    -0.229 C  
BRANCH  20  21
HETATM   21  C   UNL     1     -11.305   8.393  71.895  1.00  0.00    -0.382 A  
HETATM   22  C   UNL     1     -10.803   9.421  71.089  1.00  0.00    -0.427 A  
HETATM   23  C   UNL     1     -11.633  10.451  70.649  1.00  0.00    -0.440 A  
HETATM   24  C   UNL     1     -12.988  10.432  70.962  1.00  0.00    -0.490 A  
HETATM   25  C   UNL     1     -13.517   9.381  71.706  1.00  0.00    -0.485 A  
HETATM   26  C   UNL     1     -12.684   8.361  72.163  1.00  0.00    -0.399 A  
ENDBRANCH  20  21
ENDBRANCH   7  20
TORSDOF 4
ENDMDL
MODEL       93
REMARK 921   NORMALIZED FREE ENERGY PREDICTED BY IDOCK:   -4.32 KCAL/MOL
REMARK 922        TOTAL FREE ENERGY PREDICTED BY IDOCK:   -6.06 KCAL/MOL
REMARK 923 INTER-LIGAND FREE ENERGY PREDICTED BY IDOCK:   -5.67 KCAL/MOL
REMARK 924 INTRA-LIGAND FREE ENERGY PREDICTED BY IDOCK:   -0.39 KCAL/MOL
REMARK 927      BINDING AFFINITY PREDICTED BY RF-SCORE:    0.00 PKD
ROOT
HETATM    1  O   UNL     1     -10.699  12.551  63.783  1.00  0.00    -0.405 OA 
HETATM    2  C   UNL     1     -10.467  12.026  64.858  1.00  0.00    -0.285 C  
HETATM    3  N   UNL     1      -9.785  10.793  65.020  1.00  0.00    -0.245 N  
HETATM    4  C   UNL     1     -11.857  10.970  69.318  1.00  0.00    -0.411 C  
HETATM    5  C   UNL     1      -9.968  10.344  66.415  1.00  0.00    -0.221 C  
HETATM    6  C   UNL     1      -8.747  10.202  67.317  1.00  0.00    -0.129 C  
HETATM    7  N   UNL     1     -10.694  12.588  66.141  1.00  0.00    -0.257 N  
HETATM    8  C   UNL     1     -10.888  11.428  66.999  1.00  0.00    -0.282 C  
HETATM    9  S   UNL     1      -9.136  10.771  69.005  1.00  0.00    -0.097 S  
HETATM   10  C   UNL     1     -10.710  11.594  68.511  1.00  0.00    -0.218 C  
HETATM   11  C   UNL     1     -10.102   9.360  69.645  1.00  0.00    -0.206 C  
HETATM   12  C   UNL     1     -11.257  10.045  70.362  1.00  0.00    -0.393 C  
ENDROOT
BRANCH   3  13
HETATM   13  C   UNL     1      -8.534  10.792  64.285  1.00  0.00     0.012 C  
BRANCH  13  14
HETATM   14  C   UNL     1      -7.995   9.479  63.818  1.00  0.00    -0.142 A  
HETATM   15  C   UNL     1      -8.231   7.514  62.412  1.00  0.00    -0.089 A  
HETATM   16  C   UNL     1      -6.624   7.516  64.213  1.00  0.00    -0.048 A  
HETATM   17  C   UNL     1      -8.615   8.810  62.753  1.00  0.00    -0.133 A  
HETATM   18  C   UNL     1      -7.004   8.815  64.554  1.00  0.00    -0.084 A  
HETATM   19  C   UNL     1      -7.233   6.869  63.139  1.00  0.00    -0.069 A  
ENDBRANCH  13  14
ENDBRANCH   3  13
BRANCH   7  20
HETATM   20  C   UNL     1      -9.683  13.576  66.545  1.00  0.00    -0.283 C  
BRANCH  20  21
HETATM   21  C   UNL     1     -10.080  14.643  67.536  1.00  0.00    -0.224 A  
HETATM   22  C   UNL     1     -11.399  14.825  67.964  1.00  0.00    -0.332 A  
HETATM   23  C   UNL     1     -11.728  15.860  68.840  1.00  0.00    -0.376 A  
HETATM   24  C   UNL     1     -10.729  16.685  69.343  1.00  0.00    -0.331 A  
HETATM   25  C   UNL     1      -9.401  16.475  68.979  1.00  0.00    -0.239 A  
HETATM   26  C   UNL     1      -9.075  15.455  68.088  1.00  0.00    -0.184 A  
ENDBRANCH  20  21
ENDBRANCH   7  20
TORSDOF 4
ENDMDL
MODEL       94
REMARK 921   NORMALIZED FREE ENERGY PREDICTED BY IDOCK:   -4.31 KCAL/MOL
REMARK 922        TOTAL FREE ENERGY PREDICTED BY IDOCK:   -6.05 KCAL/MOL
REMARK 923 INTER-LIGAND FREE ENERGY PREDICTED BY IDOCK:   -5.81 KCAL/MOL
REMARK 924 INTRA-LIGAND FREE ENERGY PREDICTED BY IDOCK:   -0.25 KCAL/MOL
REMARK 927      BINDING AFFINITY PREDICTED BY RF-SCORE:    0.00 PKD
ROOT
HETATM    1  O   UNL     1      -7.916   9.845  70.589  1.00  0.00    -0.257 OA 
HETATM    2  C   UNL     1      -8.045   8.665  70.315  1.00  0.00    -0.109 C  
HETATM    3  N   UNL     1      -8.081   7.617  71.271  1.00  0.00    -0.094 N  
HETATM    4  C   UNL     1      -7.067   4.968  67.430  1.00  0.00    -0.066 C  
HETATM    5  C   UNL     1      -7.939   6.333  70.554  1.00  0.00    -0.112 C  
HETATM    6  C   UNL     1      -9.077   5.320  70.608  1.00  0.00    -0.142 C  
HETATM    7  N   UNL     1      -8.321   8.117  69.035  1.00  0.00    -0.127 N  
HETATM    8  C   UNL     1      -7.746   6.781  69.097  1.00  0.00    -0.106 C  
HETATM    9  S   UNL     1      -9.281   4.511  68.987  1.00  0.00    -0.147 S  
HETATM   10  C   UNL     1      -8.224   5.728  68.093  1.00  0.00    -0.104 C  
HETATM   11  C   UNL     1      -7.883   3.336  68.994  1.00  0.00    -0.050 C  
HETATM   12  C   UNL     1      -7.322   3.480  67.587  1.00  0.00    -0.059 C  
ENDROOT
BRANCH   3  13
HETATM   13  C   UNL     1      -9.046   7.903  72.317  1.00  0.00    -0.161 C  
BRANCH  13  14
HETATM   14  C   UNL     1     -10.492   7.956  71.943  1.00  0.00    -0.284 A  
HETATM   15  C   UNL     1     -12.528   9.253  71.683  1.00  0.00    -0.448 A  
HETATM   16  C   UNL     1     -12.631   6.841  71.679  1.00  0.00    -0.380 A  
HETATM   17  C   UNL     1     -11.147   9.193  71.868  1.00  0.00    -0.385 A  
HETATM   18  C   UNL     1     -11.248   6.780  71.860  1.00  0.00    -0.294 A  
HETATM   19  C   UNL     1     -13.268   8.078  71.585  1.00  0.00    -0.358 A  
ENDBRANCH  13  14
ENDBRANCH   3  13
BRANCH   7  20
HETATM   20  C   UNL     1      -9.729   8.238  68.628  1.00  0.00    -0.156 C  
BRANCH  20  21
HETATM   21  C   UNL     1     -10.089   9.276  67.594  1.00  0.00    -0.266 A  
HETATM   22  C   UNL     1      -9.678   9.189  66.259  1.00  0.00    -0.344 A  
HETATM   23  C   UNL     1      -9.988  10.200  65.351  1.00  0.00    -0.377 A  
HETATM   24  C   UNL     1     -10.765  11.281  65.755  1.00  0.00    -0.284 A  
HETATM   25  C   UNL     1     -11.238  11.349  67.062  1.00  0.00    -0.350 A  
HETATM   26  C   UNL     1     -10.911  10.349  67.975  1.00  0.00    -0.347 A  
ENDBRANCH  20  21
ENDBRANCH   7  20
TORSDOF 4
ENDMDL
MODEL       95
REMARK 921   NORMALIZED FREE ENERGY PREDICTED BY IDOCK:   -4.31 KCAL/MOL
REMARK 922        TOTAL FREE ENERGY PREDICTED BY IDOCK:   -6.05 KCAL/MOL
REMARK 923 INTER-LIGAND FREE ENERGY PREDICTED BY IDOCK:   -5.34 KCAL/MOL
REMARK 924 INTRA-LIGAND FREE ENERGY PREDICTED BY IDOCK:   -0.71 KCAL/MOL
REMARK 927      BINDING AFFINITY PREDICTED BY RF-SCORE:    0.00 PKD
ROOT
HETATM    1  O   UNL     1     -10.553   8.752  66.876  1.00  0.00    -0.276 OA 
HETATM    2  C   UNL     1     -10.320   8.179  67.926  1.00  0.00    -0.220 C  
HETATM    3  N   UNL     1      -9.292   7.217  68.105  1.00  0.00    -0.132 N  
HETATM    4  C   UNL     1     -11.915   6.102  71.936  1.00  0.00    -0.278 C  
HETATM    5  C   UNL     1      -9.517   6.538  69.397  1.00  0.00    -0.145 C  
HETATM    6  C   UNL     1      -8.468   6.663  70.497  1.00  0.00    -0.138 C  
HETATM    7  N   UNL     1     -10.911   8.448  69.187  1.00  0.00    -0.007 N  
HETATM    8  C   UNL     1     -10.826   7.175  69.890  1.00  0.00    -0.254 C  
HETATM    9  S   UNL     1      -9.274   6.828  72.125  1.00  0.00    -0.135 S  
HETATM   10  C   UNL     1     -10.941   7.169  71.417  1.00  0.00    -0.234 C  
HETATM   11  C   UNL     1      -9.788   5.106  72.446  1.00  0.00    -0.167 C  
HETATM   12  C   UNL     1     -11.199   5.277  72.991  1.00  0.00    -0.387 C  
ENDROOT
BRANCH   3  13
HETATM   13  C   UNL     1      -8.020   7.721  67.622  1.00  0.00    -0.124 C  
BRANCH  13  14
HETATM   14  C   UNL     1      -7.461   7.131  66.368  1.00  0.00    -0.087 A  
HETATM   15  C   UNL     1      -6.077   5.449  65.297  1.00  0.00    -0.026 A  
HETATM   16  C   UNL     1      -6.805   7.380  64.045  1.00  0.00    -0.056 A  
HETATM   17  C   UNL     1      -6.743   5.929  66.424  1.00  0.00    -0.057 A  
HETATM   18  C   UNL     1      -7.475   7.860  65.171  1.00  0.00    -0.082 A  
HETATM   19  C   UNL     1      -6.111   6.172  64.108  1.00  0.00    -0.026 A  
ENDBRANCH  13  14
ENDBRANCH   3  13
BRANCH   7  20
HETATM   20  C   UNL     1     -10.367   9.638  69.858  1.00  0.00    -0.249 C  
BRANCH  20  21
HETATM   21  C   UNL     1     -11.333  10.689  70.347  1.00  0.00    -0.389 A  
HETATM   22  C   UNL     1     -11.379  11.981  69.813  1.00  0.00    -0.201 A  
HETATM   23  C   UNL     1     -12.251  12.936  70.334  1.00  0.00    -0.381 A  
HETATM   24  C   UNL     1     -13.129  12.590  71.355  1.00  0.00    -0.303 A  
HETATM   25  C   UNL     1     -13.143  11.290  71.852  1.00  0.00    -0.510 A  
HETATM   26  C   UNL     1     -12.257  10.340  71.346  1.00  0.00    -0.481 A  
ENDBRANCH  20  21
ENDBRANCH   7  20
TORSDOF 4
ENDMDL
MODEL       96
REMARK 921   NORMALIZED FREE ENERGY PREDICTED BY IDOCK:   -4.29 KCAL/MOL
REMARK 922        TOTAL FREE ENERGY PREDICTED BY IDOCK:   -6.03 KCAL/MOL
REMARK 923 INTER-LIGAND FREE ENERGY PREDICTED BY IDOCK:   -5.78 KCAL/MOL
REMARK 924 INTRA-LIGAND FREE ENERGY PREDICTED BY IDOCK:   -0.25 KCAL/MOL
REMARK 927      BINDING AFFINITY PREDICTED BY RF-SCORE:    0.00 PKD
ROOT
HETATM    1  O   UNL     1     -12.912   6.897  71.213  1.00  0.00    -0.350 OA 
HETATM    2  C   UNL     1     -11.824   7.412  71.025  1.00  0.00    -0.307 C  
HETATM    3  N   UNL     1     -11.092   8.125  72.010  1.00  0.00    -0.284 N  
HETATM    4  C   UNL     1      -8.837   9.819  68.156  1.00  0.00    -0.119 C  
HETATM    5  C   UNL     1      -9.994   8.847  71.335  1.00  0.00    -0.308 C  
HETATM    6  C   UNL     1      -8.551   8.502  71.685  1.00  0.00    -0.187 C  
HETATM    7  N   UNL     1     -11.017   7.290  69.864  1.00  0.00    -0.257 N  
HETATM    8  C   UNL     1     -10.234   8.518  69.853  1.00  0.00    -0.204 C  
HETATM    9  S   UNL     1      -7.512   8.530  70.187  1.00  0.00    -0.063 S  
HETATM   10  C   UNL     1      -8.945   8.560  69.028  1.00  0.00    -0.146 C  
HETATM   11  C   UNL     1      -7.299  10.326  69.932  1.00  0.00    -0.160 C  
HETATM   12  C   UNL     1      -7.495  10.474  68.430  1.00  0.00    -0.092 C  
ENDROOT
BRANCH   3  13
HETATM   13  C   UNL     1     -10.974   7.350  73.231  1.00  0.00    -0.318 C  
BRANCH  13  14
HETATM   14  C   UNL     1     -10.489   5.941  73.124  1.00  0.00    -0.250 A  
HETATM   15  C   UNL     1     -10.938   3.564  73.334  1.00  0.00    -0.308 A  
HETATM   16  C   UNL     1      -8.661   4.345  73.152  1.00  0.00    -0.107 A  
HETATM   17  C   UNL     1     -11.394   4.880  73.267  1.00  0.00    -0.408 A  
HETATM   18  C   UNL     1      -9.116   5.663  73.081  1.00  0.00    -0.126 A  
HETATM   19  C   UNL     1      -9.573   3.297  73.273  1.00  0.00    -0.143 A  
ENDBRANCH  13  14
ENDBRANCH   3  13
BRANCH   7  20
HETATM   20  C   UNL     1     -10.291   6.014  69.776  1.00  0.00    -0.228 C  
BRANCH  20  21
HETATM   21  C   UNL     1     -10.165   5.354  68.426  1.00  0.00    -0.229 A  
HETATM   22  C   UNL     1     -10.756   5.875  67.270  1.00  0.00    -0.380 A  
HETATM   23  C   UNL     1     -10.659   5.200  66.053  1.00  0.00    -0.236 A  
HETATM   24  C   UNL     1      -9.918   4.027  65.969  1.00  0.00    -0.138 A  
HETATM   25  C   UNL     1      -9.268   3.530  67.095  1.00  0.00    -0.217 A  
HETATM   26  C   UNL     1      -9.381   4.193  68.315  1.00  0.00    -0.214 A  
ENDBRANCH  20  21
ENDBRANCH   7  20
TORSDOF 4
ENDMDL
MODEL       97
REMARK 921   NORMALIZED FREE ENERGY PREDICTED BY IDOCK:   -4.28 KCAL/MOL
REMARK 922        TOTAL FREE ENERGY PREDICTED BY IDOCK:   -6.01 KCAL/MOL
REMARK 923 INTER-LIGAND FREE ENERGY PREDICTED BY IDOCK:   -5.82 KCAL/MOL
REMARK 924 INTRA-LIGAND FREE ENERGY PREDICTED BY IDOCK:   -0.19 KCAL/MOL
REMARK 927      BINDING AFFINITY PREDICTED BY RF-SCORE:    0.00 PKD
ROOT
HETATM    1  O   UNL     1      -8.949  16.643  65.775  1.00  0.00    -0.498 OA 
HETATM    2  C   UNL     1      -8.425  15.814  66.499  1.00  0.00    -0.300 C  
HETATM    3  N   UNL     1      -7.802  16.109  67.739  1.00  0.00    -0.139 N  
HETATM    4  C   UNL     1      -5.795  11.841  66.994  1.00  0.00    -0.145 C  
HETATM    5  C   UNL     1      -7.030  14.923  68.162  1.00  0.00    -0.126 C  
HETATM    6  C   UNL     1      -7.411  14.209  69.454  1.00  0.00     0.033 C  
HETATM    7  N   UNL     1      -8.451  14.405  66.332  1.00  0.00     0.214 N  
HETATM    8  C   UNL     1      -7.231  13.954  66.985  1.00  0.00     0.503 C  
HETATM    9  S   UNL     1      -7.259  12.403  69.248  1.00  0.00     0.239 S  
HETATM   10  C   UNL     1      -7.124  12.487  67.412  1.00  0.00    -0.146 C  
HETATM   11  C   UNL     1      -5.450  12.182  69.348  1.00  0.00    -0.069 C  
HETATM   12  C   UNL     1      -5.172  11.198  68.220  1.00  0.00    -0.039 C  
ENDROOT
BRANCH   3  13
HETATM   13  C   UNL     1      -8.680  16.897  68.586  1.00  0.00    -0.267 C  
BRANCH  13  14
HETATM   14  C   UNL     1      -9.043  18.274  68.133  1.00  0.00    -0.310 A  
HETATM   15  C   UNL     1     -10.751  19.857  67.448  1.00  0.00    -0.447 A  
HETATM   16  C   UNL     1      -8.423  20.355  67.052  1.00  0.00    -0.355 A  
HETATM   17  C   UNL     1     -10.391  18.638  68.023  1.00  0.00    -0.421 A  
HETATM   18  C   UNL     1      -8.061  19.138  67.630  1.00  0.00    -0.299 A  
HETATM   19  C   UNL     1      -9.767  20.716  66.967  1.00  0.00    -0.485 A  
ENDBRANCH  13  14
ENDBRANCH   3  13
BRANCH   7  20
HETATM   20  C   UNL     1      -9.718  13.781  66.742  1.00  0.00    -0.275 C  
BRANCH  20  21
HETATM   21  C   UNL     1     -10.601  13.185  65.674  1.00  0.00    -0.289 A  
HETATM   22  C   UNL     1     -10.154  12.206  64.780  1.00  0.00    -0.276 A  
HETATM   23  C   UNL     1     -10.991  11.724  63.774  1.00  0.00    -0.500 A  
HETATM   24  C   UNL     1     -12.304  12.174  63.689  1.00  0.00    -0.673 A  
HETATM   25  C   UNL     1     -12.785  13.099  64.612  1.00  0.00    -0.326 A  
HETATM   26  C   UNL     1     -11.943  13.596  65.605  1.00  0.00    -0.422 A  
ENDBRANCH  20  21
ENDBRANCH   7  20
TORSDOF 4
ENDMDL
MODEL       98
REMARK 921   NORMALIZED FREE ENERGY PREDICTED BY IDOCK:   -4.28 KCAL/MOL
REMARK 922        TOTAL FREE ENERGY PREDICTED BY IDOCK:   -6.01 KCAL/MOL
REMARK 923 INTER-LIGAND FREE ENERGY PREDICTED BY IDOCK:   -5.44 KCAL/MOL
REMARK 924 INTRA-LIGAND FREE ENERGY PREDICTED BY IDOCK:   -0.56 KCAL/MOL
REMARK 927      BINDING AFFINITY PREDICTED BY RF-SCORE:    0.00 PKD
ROOT
HETATM    1  O   UNL     1      -6.876   8.697  67.802  1.00  0.00    -0.065 OA 
HETATM    2  C   UNL     1      -7.895   9.215  68.228  1.00  0.00    -0.102 C  
HETATM    3  N   UNL     1      -8.097  10.614  68.344  1.00  0.00    -0.116 N  
HETATM    4  C   UNL     1     -11.546   9.200  71.328  1.00  0.00    -0.401 C  
HETATM    5  C   UNL     1      -9.301  10.839  69.169  1.00  0.00    -0.125 C  
HETATM    6  C   UNL     1     -10.505  11.541  68.552  1.00  0.00    -0.208 C  
HETATM    7  N   UNL     1      -9.108   8.555  68.550  1.00  0.00    -0.136 N  
HETATM    8  C   UNL     1      -9.711   9.411  69.563  1.00  0.00    -0.183 C  
HETATM    9  S   UNL     1     -12.053  10.773  69.135  1.00  0.00    -0.016 S  
HETATM   10  C   UNL     1     -11.213   9.288  69.831  1.00  0.00    -0.126 C  
HETATM   11  C   UNL     1     -12.182  11.462  70.821  1.00  0.00    -0.376 C  
HETATM   12  C   UNL     1     -12.596  10.250  71.645  1.00  0.00    -0.534 C  
ENDROOT
BRANCH   3  13
HETATM   13  C   UNL     1      -7.784  11.289  67.097  1.00  0.00    -0.147 C  
BRANCH  13  14
HETATM   14  C   UNL     1      -8.419  10.780  65.844  1.00  0.00    -0.166 A  
HETATM   15  C   UNL     1      -8.174   9.827  63.625  1.00  0.00    -0.158 A  
HETATM   16  C   UNL     1     -10.294  10.760  64.304  1.00  0.00    -0.401 A  
HETATM   17  C   UNL     1      -7.631  10.160  64.865  1.00  0.00    -0.138 A  
HETATM   18  C   UNL     1      -9.753  11.090  65.548  1.00  0.00    -0.274 A  
HETATM   19  C   UNL     1      -9.505  10.124  63.346  1.00  0.00    -0.308 A  
ENDBRANCH  13  14
ENDBRANCH   3  13
BRANCH   7  20
HETATM   20  C   UNL     1      -9.924   8.203  67.379  1.00  0.00    -0.209 C  
BRANCH  20  21
HETATM   21  C   UNL     1      -9.652   6.891  66.685  1.00  0.00    -0.218 A  
HETATM   22  C   UNL     1      -8.603   6.718  65.776  1.00  0.00    -0.144 A  
HETATM   23  C   UNL     1      -8.423   5.503  65.118  1.00  0.00    -0.147 A  
HETATM   24  C   UNL     1      -9.256   4.427  65.408  1.00  0.00    -0.153 A  
HETATM   25  C   UNL     1     -10.263   4.563  66.359  1.00  0.00    -0.249 A  
HETATM   26  C   UNL     1     -10.456   5.783  67.002  1.00  0.00    -0.342 A  
ENDBRANCH  20  21
ENDBRANCH   7  20
TORSDOF 4
ENDMDL
MODEL       99
REMARK 921   NORMALIZED FREE ENERGY PREDICTED BY IDOCK:   -4.24 KCAL/MOL
REMARK 922        TOTAL FREE ENERGY PREDICTED BY IDOCK:   -5.96 KCAL/MOL
REMARK 923 INTER-LIGAND FREE ENERGY PREDICTED BY IDOCK:   -5.63 KCAL/MOL
REMARK 924 INTRA-LIGAND FREE ENERGY PREDICTED BY IDOCK:   -0.33 KCAL/MOL
REMARK 927      BINDING AFFINITY PREDICTED BY RF-SCORE:    0.00 PKD
ROOT
HETATM    1  O   UNL     1      -7.510   9.914  70.396  1.00  0.00    -0.162 OA 
HETATM    2  C   UNL     1      -7.770   9.036  69.593  1.00  0.00    -0.075 C  
HETATM    3  N   UNL     1      -7.680   7.646  69.864  1.00  0.00    -0.095 N  
HETATM    4  C   UNL     1      -7.649   7.389  65.097  1.00  0.00    -0.104 C  
HETATM    5  C   UNL     1      -7.772   6.918  68.582  1.00  0.00    -0.113 C  
HETATM    6  C   UNL     1      -8.939   5.966  68.349  1.00  0.00    -0.112 C  
HETATM    7  N   UNL     1      -8.338   9.207  68.304  1.00  0.00    -0.119 N  
HETATM    8  C   UNL     1      -7.852   8.058  67.554  1.00  0.00    -0.118 C  
HETATM    9  S   UNL     1      -9.524   6.091  66.626  1.00  0.00    -0.151 S  
HETATM   10  C   UNL     1      -8.594   7.644  66.280  1.00  0.00    -0.144 C  
HETATM   11  C   UNL     1      -8.235   5.149  65.741  1.00  0.00    -0.117 C  
HETATM   12  C   UNL     1      -7.964   6.019  64.522  1.00  0.00    -0.127 C  
ENDROOT
BRANCH   3  13
HETATM   13  C   UNL     1      -8.390   7.309  71.085  1.00  0.00    -0.112 C  
BRANCH  13  14
HETATM   14  C   UNL     1      -9.843   7.646  71.168  1.00  0.00    -0.184 A  
HETATM   15  C   UNL     1     -11.604   9.059  72.061  1.00  0.00    -0.413 A  
HETATM   16  C   UNL     1     -12.166   6.964  71.002  1.00  0.00    -0.427 A  
HETATM   17  C   UNL     1     -10.251   8.812  71.830  1.00  0.00    -0.415 A  
HETATM   18  C   UNL     1     -10.812   6.717  70.768  1.00  0.00    -0.299 A  
HETATM   19  C   UNL     1     -12.560   8.137  71.644  1.00  0.00    -0.347 A  
ENDBRANCH  13  14
ENDBRANCH   3  13
BRANCH   7  20
HETATM   20  C   UNL     1      -9.788   9.450  68.320  1.00  0.00    -0.160 C  
BRANCH  20  21
HETATM   21  C   UNL     1     -10.312  10.702  67.660  1.00  0.00    -0.246 A  
HETATM   22  C   UNL     1     -11.422  11.404  68.141  1.00  0.00    -0.375 A  
HETATM   23  C   UNL     1     -11.903  12.525  67.466  1.00  0.00    -0.389 A  
HETATM   24  C   UNL     1     -11.241  12.991  66.335  1.00  0.00    -0.332 A  
HETATM   25  C   UNL     1     -10.095  12.343  65.882  1.00  0.00    -0.272 A  
HETATM   26  C   UNL     1      -9.626  11.211  66.544  1.00  0.00    -0.222 A  
ENDBRANCH  20  21
ENDBRANCH   7  20
TORSDOF 4
ENDMDL
MODEL      100
REMARK 921   NORMALIZED FREE ENERGY PREDICTED BY IDOCK:   -4.21 KCAL/MOL
REMARK 922        TOTAL FREE ENERGY PREDICTED BY IDOCK:   -5.93 KCAL/MOL
REMARK 923 INTER-LIGAND FREE ENERGY PREDICTED BY IDOCK:   -6.24 KCAL/MOL
REMARK 924 INTRA-LIGAND FREE ENERGY PREDICTED BY IDOCK:    0.31 KCAL/MOL
REMARK 927      BINDING AFFINITY PREDICTED BY RF-SCORE:    0.00 PKD
ROOT
HETATM    1  O   UNL     1      -8.318  17.153  66.553  1.00  0.00    -0.230 OA 
HETATM    2  C   UNL     1      -9.210  16.649  67.213  1.00  0.00    -0.221 C  
HETATM    3  N   UNL     1     -10.559  16.537  66.787  1.00  0.00    -0.268 N  
HETATM    4  C   UNL     1     -11.291  15.920  71.465  1.00  0.00    -0.384 C  
HETATM    5  C   UNL     1     -11.382  16.162  67.955  1.00  0.00    -0.182 C  
HETATM    6  C   UNL     1     -12.125  14.831  67.946  1.00  0.00    -0.126 C  
HETATM    7  N   UNL     1      -9.068  15.959  68.444  1.00  0.00    -0.185 N  
HETATM    8  C   UNL     1     -10.355  16.146  69.099  1.00  0.00    -0.259 C  
HETATM    9  S   UNL     1     -12.068  14.062  69.598  1.00  0.00    -0.344 S  
HETATM   10  C   UNL     1     -10.752  15.189  70.227  1.00  0.00    -0.204 C  
HETATM   11  C   UNL     1     -13.312  15.051  70.496  1.00  0.00    -0.140 C  
HETATM   12  C   UNL     1     -12.631  15.308  71.833  1.00  0.00    -0.428 C  
ENDROOT
BRANCH   3  13
HETATM   13  C   UNL     1     -10.639  15.941  65.466  1.00  0.00    -0.401 C  
BRANCH  13  14
HETATM   14  C   UNL     1     -11.068  14.513  65.365  1.00  0.00    -0.345 A  
HETATM   15  C   UNL     1     -10.478  12.158  65.357  1.00  0.00    -0.305 A  
HETATM   16  C   UNL     1     -12.658  12.853  64.588  1.00  0.00    -0.459 A  
HETATM   17  C   UNL     1     -10.142  13.488  65.605  1.00  0.00    -0.292 A  
HETATM   18  C   UNL     1     -12.325  14.185  64.840  1.00  0.00    -0.446 A  
HETATM   19  C   UNL     1     -11.737  11.841  64.852  1.00  0.00    -0.187 A  
ENDBRANCH  13  14
ENDBRANCH   3  13
BRANCH   7  20
HETATM   20  C   UNL     1      -8.565  14.585  68.303  1.00  0.00    -0.171 C  
BRANCH  20  21
HETATM   21  C   UNL     1      -7.389  14.162  69.147  1.00  0.00    -0.067 A  
HETATM   22  C   UNL     1      -6.842  12.875  69.095  1.00  0.00    -0.054 A  
HETATM   23  C   UNL     1      -5.789  12.513  69.935  1.00  0.00    -0.134 A  
HETATM   24  C   UNL     1      -5.232  13.455  70.794  1.00  0.00    -0.134 A  
HETATM   25  C   UNL     1      -5.720  14.758  70.810  1.00  0.00    -0.144 A  
HETATM   26  C   UNL     1      -6.786  15.115  69.986  1.00  0.00    -0.129 A  
ENDBRANCH  20  21
ENDBRANCH   7  20
TORSDOF 4
ENDMDL
MODEL      101
REMARK 921   NORMALIZED FREE ENERGY PREDICTED BY IDOCK:   -4.20 KCAL/MOL
REMARK 922        TOTAL FREE ENERGY PREDICTED BY IDOCK:   -5.92 KCAL/MOL
REMARK 923 INTER-LIGAND FREE ENERGY PREDICTED BY IDOCK:   -5.50 KCAL/MOL
REMARK 924 INTRA-LIGAND FREE ENERGY PREDICTED BY IDOCK:   -0.41 KCAL/MOL
REMARK 927      BINDING AFFINITY PREDICTED BY RF-SCORE:    0.00 PKD
ROOT
HETATM    1  O   UNL     1      -9.123   3.878  72.157  1.00  0.00    -0.110 OA 
HETATM    2  C   UNL     1      -9.784   4.902  72.189  1.00  0.00    -0.163 C  
HETATM    3  N   UNL     1      -9.731   5.861  73.233  1.00  0.00    -0.150 N  
HETATM    4  C   UNL     1     -13.916   7.173  71.345  1.00  0.00    -0.384 C  
HETATM    5  C   UNL     1     -10.874   6.782  73.072  1.00  0.00    -0.283 C  
HETATM    6  C   UNL     1     -10.607   8.260  72.807  1.00  0.00    -0.251 C  
HETATM    7  N   UNL     1     -10.612   5.408  71.154  1.00  0.00    -0.230 N  
HETATM    8  C   UNL     1     -11.615   6.191  71.862  1.00  0.00    -0.296 C  
HETATM    9  S   UNL     1     -11.809   8.915  71.602  1.00  0.00    -0.371 S  
HETATM   10  C   UNL     1     -12.405   7.249  71.085  1.00  0.00    -0.345 C  
HETATM   11  C   UNL     1     -13.297   9.099  72.643  1.00  0.00    -0.317 C  
HETATM   12  C   UNL     1     -14.400   8.555  71.746  1.00  0.00    -0.522 C  
ENDROOT
BRANCH   3  13
HETATM   13  C   UNL     1      -8.361   6.249  73.512  1.00  0.00    -0.121 C  
BRANCH  13  14
HETATM   14  C   UNL     1      -7.499   6.660  72.363  1.00  0.00    -0.093 A  
HETATM   15  C   UNL     1      -5.590   6.219  70.931  1.00  0.00    -0.019 A  
HETATM   16  C   UNL     1      -6.615   8.404  70.926  1.00  0.00    -0.041 A  
HETATM   17  C   UNL     1      -6.507   5.791  71.889  1.00  0.00    -0.053 A  
HETATM   18  C   UNL     1      -7.537   7.976  71.883  1.00  0.00    -0.101 A  
HETATM   19  C   UNL     1      -5.646   7.524  70.447  1.00  0.00    -0.023 A  
ENDBRANCH  13  14
ENDBRANCH   3  13
BRANCH   7  20
HETATM   20  C   UNL     1      -9.872   6.066  70.067  1.00  0.00    -0.172 C  
BRANCH  20  21
HETATM   21  C   UNL     1      -9.851   5.404  68.712  1.00  0.00    -0.208 A  
HETATM   22  C   UNL     1      -9.119   4.242  68.447  1.00  0.00    -0.172 A  
HETATM   23  C   UNL     1      -9.085   3.696  67.165  1.00  0.00    -0.189 A  
HETATM   24  C   UNL     1      -9.833   4.275  66.145  1.00  0.00    -0.232 A  
HETATM   25  C   UNL     1     -10.620   5.393  66.407  1.00  0.00    -0.322 A  
HETATM   26  C   UNL     1     -10.638   5.951  67.684  1.00  0.00    -0.335 A  
ENDBRANCH  20  21
ENDBRANCH   7  20
TORSDOF 4
ENDMDL
MODEL      102
REMARK 921   NORMALIZED FREE ENERGY PREDICTED BY IDOCK:   -4.20 KCAL/MOL
REMARK 922        TOTAL FREE ENERGY PREDICTED BY IDOCK:   -5.91 KCAL/MOL
REMARK 923 INTER-LIGAND FREE ENERGY PREDICTED BY IDOCK:   -5.03 KCAL/MOL
REMARK 924 INTRA-LIGAND FREE ENERGY PREDICTED BY IDOCK:   -0.88 KCAL/MOL
REMARK 927      BINDING AFFINITY PREDICTED BY RF-SCORE:    0.00 PKD
ROOT
HETATM    1  O   UNL     1      -9.973   8.134  66.262  1.00  0.00    -0.207 OA 
HETATM    2  C   UNL     1     -10.173   9.336  66.242  1.00  0.00    -0.203 C  
HETATM    3  N   UNL     1     -10.563  10.105  67.369  1.00  0.00    -0.256 N  
HETATM    4  C   UNL     1     -11.869  13.200  63.977  1.00  0.00    -0.514 C  
HETATM    5  C   UNL     1     -10.999  11.433  66.894  1.00  0.00    -0.299 C  
HETATM    6  C   UNL     1     -10.231  12.673  67.339  1.00  0.00    -0.217 C  
HETATM    7  N   UNL     1      -9.925  10.219  65.159  1.00  0.00    -0.319 N  
HETATM    8  C   UNL     1     -10.878  11.300  65.367  1.00  0.00    -0.188 C  
HETATM    9  S   UNL     1     -10.090  13.860  65.962  1.00  0.00    -0.317 S  
HETATM   10  C   UNL     1     -10.623  12.646  64.682  1.00  0.00    -0.333 C  
HETATM   11  C   UNL     1     -11.767  14.583  65.941  1.00  0.00    -0.345 C  
HETATM   12  C   UNL     1     -12.092  14.625  64.454  1.00  0.00    -0.481 C  
ENDROOT
BRANCH   3  13
HETATM   13  C   UNL     1      -9.685   9.853  68.498  1.00  0.00    -0.154 C  
BRANCH  13  14
HETATM   14  C   UNL     1      -8.210   9.920  68.269  1.00  0.00    -0.109 A  
HETATM   15  C   UNL     1      -6.066   8.786  68.170  1.00  0.00    -0.051 A  
HETATM   16  C   UNL     1      -6.147  11.197  68.259  1.00  0.00    -0.045 A  
HETATM   17  C   UNL     1      -7.459   8.738  68.218  1.00  0.00    -0.092 A  
HETATM   18  C   UNL     1      -7.541  11.151  68.303  1.00  0.00    -0.111 A  
HETATM   19  C   UNL     1      -5.411  10.015  68.187  1.00  0.00    -0.038 A  
ENDBRANCH  13  14
ENDBRANCH   3  13
BRANCH   7  20
HETATM   20  C   UNL     1      -8.509  10.576  64.994  1.00  0.00    -0.163 C  
BRANCH  20  21
HETATM   21  C   UNL     1      -7.607   9.611  64.265  1.00  0.00    -0.128 A  
HETATM   22  C   UNL     1      -8.058   8.790  63.226  1.00  0.00    -0.170 A  
HETATM   23  C   UNL     1      -7.201   7.873  62.618  1.00  0.00    -0.093 A  
HETATM   24  C   UNL     1      -5.866   7.811  63.004  1.00  0.00    -0.055 A  
HETATM   25  C   UNL     1      -5.385   8.668  63.990  1.00  0.00    -0.056 A  
HETATM   26  C   UNL     1      -6.246   9.569  64.612  1.00  0.00    -0.082 A  
ENDBRANCH  20  21
ENDBRANCH   7  20
TORSDOF 4
ENDMDL
MODEL      103
REMARK 921   NORMALIZED FREE ENERGY PREDICTED BY IDOCK:   -4.18 KCAL/MOL
REMARK 922        TOTAL FREE ENERGY PREDICTED BY IDOCK:   -5.89 KCAL/MOL
REMARK 923 INTER-LIGAND FREE ENERGY PREDICTED BY IDOCK:   -6.18 KCAL/MOL
REMARK 924 INTRA-LIGAND FREE ENERGY PREDICTED BY IDOCK:    0.29 KCAL/MOL
REMARK 927      BINDING AFFINITY PREDICTED BY RF-SCORE:    0.00 PKD
ROOT
HETATM    1  O   UNL     1      -9.326  13.874  66.546  1.00  0.00    -0.277 OA 
HETATM    2  C   UNL     1      -9.640  12.994  67.329  1.00  0.00    -0.225 C  
HETATM    3  N   UNL     1     -10.715  13.083  68.250  1.00  0.00    -0.237 N  
HETATM    4  C   UNL     1      -8.352   9.499  70.339  1.00  0.00    -0.226 C  
HETATM    5  C   UNL     1     -10.589  11.972  69.215  1.00  0.00     0.054 C  
HETATM    6  C   UNL     1     -11.689  10.919  69.286  1.00  0.00    -0.324 C  
HETATM    7  N   UNL     1      -9.107  11.680  67.384  1.00  0.00    -0.166 N  
HETATM    8  C   UNL     1      -9.283  11.291  68.776  1.00  0.00    -0.126 C  
HETATM    9  S   UNL     1     -10.967   9.264  69.536  1.00  0.00    -0.089 S  
HETATM   10  C   UNL     1      -9.251   9.802  69.133  1.00  0.00    -0.176 C  
HETATM   11  C   UNL     1     -10.543   9.322  71.311  1.00  0.00    -0.347 C  
HETATM   12  C   UNL     1      -9.158   8.692  71.343  1.00  0.00    -0.295 C  
ENDROOT
BRANCH   3  13
HETATM   13  C   UNL     1     -11.937  13.494  67.583  1.00  0.00    -0.336 C  
BRANCH  13  14
HETATM   14  C   UNL     1     -11.979  13.427  66.091  1.00  0.00    -0.460 A  
HETATM   15  C   UNL     1     -12.132  14.580  63.960  1.00  0.00    -0.271 A  
HETATM   16  C   UNL     1     -12.474  12.193  64.062  1.00  0.00    -0.541 A  
HETATM   17  C   UNL     1     -11.929  14.609  65.339  1.00  0.00    -0.275 A  
HETATM   18  C   UNL     1     -12.267  12.219  65.442  1.00  0.00    -0.279 A  
HETATM   19  C   UNL     1     -12.400  13.372  63.322  1.00  0.00    -0.244 A  
ENDBRANCH  13  14
ENDBRANCH   3  13
BRANCH   7  20
HETATM   20  C   UNL     1      -9.636  10.779  66.349  1.00  0.00    -0.189 C  
BRANCH  20  21
HETATM   21  C   UNL     1      -8.798  10.529  65.120  1.00  0.00    -0.206 A  
HETATM   22  C   UNL     1      -7.462  10.116  65.186  1.00  0.00    -0.141 A  
HETATM   23  C   UNL     1      -6.710   9.950  64.024  1.00  0.00    -0.126 A  
HETATM   24  C   UNL     1      -7.304  10.136  62.780  1.00  0.00    -0.141 A  
HETATM   25  C   UNL     1      -8.650  10.482  62.696  1.00  0.00    -0.234 A  
HETATM   26  C   UNL     1      -9.397  10.668  63.857  1.00  0.00    -0.302 A  
ENDBRANCH  20  21
ENDBRANCH   7  20
TORSDOF 4
ENDMDL
MODEL      104
REMARK 921   NORMALIZED FREE ENERGY PREDICTED BY IDOCK:   -4.17 KCAL/MOL
REMARK 922        TOTAL FREE ENERGY PREDICTED BY IDOCK:   -5.88 KCAL/MOL
REMARK 923 INTER-LIGAND FREE ENERGY PREDICTED BY IDOCK:   -5.31 KCAL/MOL
REMARK 924 INTRA-LIGAND FREE ENERGY PREDICTED BY IDOCK:   -0.57 KCAL/MOL
REMARK 927      BINDING AFFINITY PREDICTED BY RF-SCORE:    0.00 PKD
ROOT
HETATM    1  O   UNL     1      -8.700   9.845  70.660  1.00  0.00    -0.105 OA 
HETATM    2  C   UNL     1      -9.155   8.840  71.178  1.00  0.00    -0.225 C  
HETATM    3  N   UNL     1     -10.441   8.752  71.769  1.00  0.00    -0.319 N  
HETATM    4  C   UNL     1      -8.500   4.914  73.842  1.00  0.00    -0.104 C  
HETATM    5  C   UNL     1     -10.508   7.498  72.546  1.00  0.00    -0.249 C  
HETATM    6  C   UNL     1     -11.517   6.427  72.145  1.00  0.00    -0.301 C  
HETATM    7  N   UNL     1      -8.572   7.546  71.171  1.00  0.00    -0.121 N  
HETATM    8  C   UNL     1      -9.090   6.925  72.382  1.00  0.00    -0.133 C  
HETATM    9  S   UNL     1     -10.783   4.767  72.322  1.00  0.00    -0.055 S  
HETATM   10  C   UNL     1      -9.060   5.398  72.497  1.00  0.00    -0.136 C  
HETATM   11  C   UNL     1     -10.856   4.534  74.132  1.00  0.00    -0.206 C  
HETATM   12  C   UNL     1      -9.492   3.935  74.446  1.00  0.00    -0.127 C  
ENDROOT
BRANCH   3  13
HETATM   13  C   UNL     1     -11.463   9.246  70.864  1.00  0.00    -0.303 C  
BRANCH  13  14
HETATM   14  C   UNL     1     -11.816  10.696  70.926  1.00  0.00    -0.433 A  
HETATM   15  C   UNL     1     -13.142  12.475  71.911  1.00  0.00    -0.473 A  
HETATM   16  C   UNL     1     -11.938  12.871  69.857  1.00  0.00    -0.377 A  
HETATM   17  C   UNL     1     -12.672  11.163  71.933  1.00  0.00    -0.293 A  
HETATM   18  C   UNL     1     -11.463  11.559  69.879  1.00  0.00    -0.340 A  
HETATM   19  C   UNL     1     -12.772  13.329  70.875  1.00  0.00    -0.332 A  
ENDBRANCH  13  14
ENDBRANCH   3  13
BRANCH   7  20
HETATM   20  C   UNL     1      -8.745   6.821  69.904  1.00  0.00    -0.141 C  
BRANCH  20  21
HETATM   21  C   UNL     1      -8.062   7.361  68.671  1.00  0.00    -0.125 A  
HETATM   22  C   UNL     1      -6.681   7.264  68.467  1.00  0.00    -0.057 A  
HETATM   23  C   UNL     1      -6.086   7.826  67.339  1.00  0.00    -0.049 A  
HETATM   24  C   UNL     1      -6.875   8.440  66.372  1.00  0.00    -0.070 A  
HETATM   25  C   UNL     1      -8.258   8.486  66.527  1.00  0.00    -0.108 A  
HETATM   26  C   UNL     1      -8.851   7.942  67.665  1.00  0.00    -0.128 A  
ENDBRANCH  20  21
ENDBRANCH   7  20
TORSDOF 4
ENDMDL
MODEL      105
REMARK 921   NORMALIZED FREE ENERGY PREDICTED BY IDOCK:   -4.14 KCAL/MOL
REMARK 922        TOTAL FREE ENERGY PREDICTED BY IDOCK:   -5.84 KCAL/MOL
REMARK 923 INTER-LIGAND FREE ENERGY PREDICTED BY IDOCK:   -5.55 KCAL/MOL
REMARK 924 INTRA-LIGAND FREE ENERGY PREDICTED BY IDOCK:   -0.30 KCAL/MOL
REMARK 927      BINDING AFFINITY PREDICTED BY RF-SCORE:    0.00 PKD
ROOT
HETATM    1  O   UNL     1     -12.521   6.754  70.844  1.00  0.00    -0.364 OA 
HETATM    2  C   UNL     1     -11.692   7.394  70.219  1.00  0.00    -0.072 C  
HETATM    3  N   UNL     1     -11.461   8.785  70.381  1.00  0.00    -0.201 N  
HETATM    4  C   UNL     1      -9.396   8.267  66.107  1.00  0.00    -0.254 C  
HETATM    5  C   UNL     1     -10.620   9.246  69.258  1.00  0.00    -0.222 C  
HETATM    6  C   UNL     1      -9.235   9.813  69.550  1.00  0.00    -0.213 C  
HETATM    7  N   UNL     1     -10.715   6.875  69.331  1.00  0.00    -0.235 N  
HETATM    8  C   UNL     1     -10.464   7.975  68.409  1.00  0.00    -0.163 C  
HETATM    9  S   UNL     1      -8.046   9.264  68.281  1.00  0.00    -0.107 S  
HETATM   10  C   UNL     1      -9.167   7.970  67.596  1.00  0.00    -0.133 C  
HETATM   11  C   UNL     1      -8.487  10.352  66.883  1.00  0.00    -0.124 C  
HETATM   12  C   UNL     1      -8.468   9.396  65.698  1.00  0.00    -0.145 C  
ENDROOT
BRANCH   3  13
HETATM   13  C   UNL     1     -11.267   9.119  71.781  1.00  0.00    -0.381 C  
BRANCH  13  14
HETATM   14  C   UNL     1     -10.262   8.333  72.558  1.00  0.00    -0.386 A  
HETATM   15  C   UNL     1      -7.945   7.716  72.938  1.00  0.00    -0.140 A  
HETATM   16  C   UNL     1      -9.714   6.411  73.935  1.00  0.00    -0.228 A  
HETATM   17  C   UNL     1      -8.894   8.549  72.346  1.00  0.00    -0.268 A  
HETATM   18  C   UNL     1     -10.665   7.247  73.347  1.00  0.00    -0.415 A  
HETATM   19  C   UNL     1      -8.355   6.650  73.734  1.00  0.00    -0.125 A  
ENDBRANCH  13  14
ENDBRANCH   3  13
BRANCH   7  20
HETATM   20  C   UNL     1      -9.558   6.270  70.006  1.00  0.00    -0.158 C  
BRANCH  20  21
HETATM   21  C   UNL     1      -9.471   4.765  70.069  1.00  0.00    -0.240 A  
HETATM   22  C   UNL     1      -9.504   3.956  68.928  1.00  0.00    -0.234 A  
HETATM   23  C   UNL     1      -9.477   2.567  69.038  1.00  0.00    -0.151 A  
HETATM   24  C   UNL     1      -9.355   1.973  70.290  1.00  0.00    -0.180 A  
HETATM   25  C   UNL     1      -9.253   2.765  71.430  1.00  0.00    -0.190 A  
HETATM   26  C   UNL     1      -9.301   4.153  71.322  1.00  0.00    -0.218 A  
ENDBRANCH  20  21
ENDBRANCH   7  20
TORSDOF 4
ENDMDL
MODEL      106
REMARK 921   NORMALIZED FREE ENERGY PREDICTED BY IDOCK:   -4.09 KCAL/MOL
REMARK 922        TOTAL FREE ENERGY PREDICTED BY IDOCK:   -5.78 KCAL/MOL
REMARK 923 INTER-LIGAND FREE ENERGY PREDICTED BY IDOCK:   -5.05 KCAL/MOL
REMARK 924 INTRA-LIGAND FREE ENERGY PREDICTED BY IDOCK:   -0.73 KCAL/MOL
REMARK 927      BINDING AFFINITY PREDICTED BY RF-SCORE:    0.00 PKD
ROOT
HETATM    1  O   UNL     1     -10.365   5.520  67.395  1.00  0.00    -0.197 OA 
HETATM    2  C   UNL     1     -10.294   6.690  67.731  1.00  0.00    -0.196 C  
HETATM    3  N   UNL     1     -10.383   7.148  69.071  1.00  0.00    -0.194 N  
HETATM    4  C   UNL     1     -11.325  11.291  66.893  1.00  0.00    -0.231 C  
HETATM    5  C   UNL     1     -10.562   8.614  69.046  1.00  0.00    -0.160 C  
HETATM    6  C   UNL     1      -9.496   9.505  69.674  1.00  0.00    -0.199 C  
HETATM    7  N   UNL     1      -9.975   7.792  66.898  1.00  0.00    -0.236 N  
HETATM    8  C   UNL     1     -10.636   8.918  67.541  1.00  0.00    -0.237 C  
HETATM    9  S   UNL     1      -9.244  11.000  68.661  1.00  0.00    -0.171 S  
HETATM   10  C   UNL     1     -10.165  10.337  67.208  1.00  0.00    -0.218 C  
HETATM   11  C   UNL     1     -10.711  11.989  69.110  1.00  0.00    -0.075 C  
HETATM   12  C   UNL     1     -11.175  12.527  67.763  1.00  0.00    -0.318 C  
ENDROOT
BRANCH   3  13
HETATM   13  C   UNL     1      -9.468   6.419  69.930  1.00  0.00    -0.154 C  
BRANCH  13  14
HETATM   14  C   UNL     1     -10.023   5.765  71.153  1.00  0.00    -0.244 A  
HETATM   15  C   UNL     1     -10.157   3.813  72.591  1.00  0.00    -0.228 A  
HETATM   16  C   UNL     1     -11.772   5.592  72.827  1.00  0.00    -0.240 A  
HETATM   17  C   UNL     1      -9.541   4.511  71.553  1.00  0.00    -0.227 A  
HETATM   18  C   UNL     1     -11.154   6.293  71.790  1.00  0.00    -0.321 A  
HETATM   19  C   UNL     1     -11.269   4.355  73.229  1.00  0.00    -0.364 A  
ENDBRANCH  13  14
ENDBRANCH   3  13
BRANCH   7  20
HETATM   20  C   UNL     1      -8.540   7.919  66.603  1.00  0.00    -0.135 C  
BRANCH  20  21
HETATM   21  C   UNL     1      -8.115   8.070  65.163  1.00  0.00    -0.143 A  
HETATM   22  C   UNL     1      -8.624   9.067  64.323  1.00  0.00    -0.171 A  
HETATM   23  C   UNL     1      -8.243   9.134  62.984  1.00  0.00    -0.182 A  
HETATM   24  C   UNL     1      -7.303   8.239  62.485  1.00  0.00    -0.098 A  
HETATM   25  C   UNL     1      -6.737   7.283  63.324  1.00  0.00    -0.053 A  
HETATM   26  C   UNL     1      -7.132   7.203  64.657  1.00  0.00    -0.061 A  
ENDBRANCH  20  21
ENDBRANCH   7  20
TORSDOF 4
ENDMDL
MODEL      107
REMARK 921   NORMALIZED FREE ENERGY PREDICTED BY IDOCK:   -4.09 KCAL/MOL
REMARK 922        TOTAL FREE ENERGY PREDICTED BY IDOCK:   -5.77 KCAL/MOL
REMARK 923 INTER-LIGAND FREE ENERGY PREDICTED BY IDOCK:   -5.49 KCAL/MOL
REMARK 924 INTRA-LIGAND FREE ENERGY PREDICTED BY IDOCK:   -0.28 KCAL/MOL
REMARK 927      BINDING AFFINITY PREDICTED BY RF-SCORE:    0.00 PKD
ROOT
HETATM    1  O   UNL     1      -7.851   9.196  66.606  1.00  0.00    -0.099 OA 
HETATM    2  C   UNL     1      -8.724  10.045  66.574  1.00  0.00    -0.132 C  
HETATM    3  N   UNL     1     -10.114   9.771  66.660  1.00  0.00    -0.228 N  
HETATM    4  C   UNL     1     -10.419  14.157  64.795  1.00  0.00    -0.432 C  
HETATM    5  C   UNL     1     -10.849  10.995  66.281  1.00  0.00    -0.170 C  
HETATM    6  C   UNL     1     -11.749  11.671  67.309  1.00  0.00    -0.175 C  
HETATM    7  N   UNL     1      -8.540  11.451  66.589  1.00  0.00    -0.166 N  
HETATM    8  C   UNL     1      -9.717  11.964  65.904  1.00  0.00    -0.238 C  
HETATM    9  S   UNL     1     -11.615  13.485  67.174  1.00  0.00    -0.380 S  
HETATM   10  C   UNL     1     -10.109  13.430  66.112  1.00  0.00    -0.302 C  
HETATM   11  C   UNL     1     -12.624  13.809  65.687  1.00  0.00    -0.509 C  
HETATM   12  C   UNL     1     -11.778  14.820  64.926  1.00  0.00    -0.390 C  
ENDROOT
BRANCH   3  13
HETATM   13  C   UNL     1     -10.406   8.925  67.802  1.00  0.00    -0.242 C  
BRANCH  13  14
HETATM   14  C   UNL     1     -10.099   7.467  67.692  1.00  0.00    -0.240 A  
HETATM   15  C   UNL     1     -10.632   5.292  66.753  1.00  0.00    -0.309 A  
HETATM   16  C   UNL     1      -9.133   5.452  68.638  1.00  0.00    -0.130 A  
HETATM   17  C   UNL     1     -10.785   6.678  66.758  1.00  0.00    -0.329 A  
HETATM   18  C   UNL     1      -9.282   6.839  68.642  1.00  0.00    -0.132 A  
HETATM   19  C   UNL     1      -9.804   4.680  67.690  1.00  0.00    -0.194 A  
ENDBRANCH  13  14
ENDBRANCH   3  13
BRANCH   7  20
HETATM   20  C   UNL     1      -8.231  11.997  67.920  1.00  0.00    -0.153 C  
BRANCH  20  21
HETATM   21  C   UNL     1      -7.429  11.146  68.874  1.00  0.00    -0.125 A  
HETATM   22  C   UNL     1      -8.022  10.264  69.784  1.00  0.00    -0.139 A  
HETATM   23  C   UNL     1      -7.243   9.538  70.684  1.00  0.00    -0.130 A  
HETATM   24  C   UNL     1      -5.857   9.642  70.642  1.00  0.00    -0.066 A  
HETATM   25  C   UNL     1      -5.248  10.464  69.698  1.00  0.00    -0.038 A  
HETATM   26  C   UNL     1      -6.027  11.205  68.812  1.00  0.00    -0.043 A  
ENDBRANCH  20  21
ENDBRANCH   7  20
TORSDOF 4
ENDMDL
MODEL      108
REMARK 921   NORMALIZED FREE ENERGY PREDICTED BY IDOCK:   -4.08 KCAL/MOL
REMARK 922        TOTAL FREE ENERGY PREDICTED BY IDOCK:   -5.77 KCAL/MOL
REMARK 923 INTER-LIGAND FREE ENERGY PREDICTED BY IDOCK:   -5.72 KCAL/MOL
REMARK 924 INTRA-LIGAND FREE ENERGY PREDICTED BY IDOCK:   -0.05 KCAL/MOL
REMARK 927      BINDING AFFINITY PREDICTED BY RF-SCORE:    0.00 PKD
ROOT
HETATM    1  O   UNL     1     -11.858  14.344  69.908  1.00  0.00    -0.285 OA 
HETATM    2  C   UNL     1     -11.735  14.211  68.703  1.00  0.00    -0.350 C  
HETATM    3  N   UNL     1     -11.760  15.281  67.771  1.00  0.00    -0.272 N  
HETATM    4  C   UNL     1     -12.627  11.718  64.712  1.00  0.00     0.451 C  
HETATM    5  C   UNL     1     -11.888  14.708  66.415  1.00  0.00    -0.293 C  
HETATM    6  C   UNL     1     -10.769  14.932  65.404  1.00  0.00    -0.377 C  
HETATM    7  N   UNL     1     -11.404  13.018  68.011  1.00  0.00    -0.271 N  
HETATM    8  C   UNL     1     -12.003  13.201  66.696  1.00  0.00    -0.389 C  
HETATM    9  S   UNL     1     -10.498  13.425  64.413  1.00  0.00    -0.277 S  
HETATM   10  C   UNL     1     -11.492  12.348  65.531  1.00  0.00    -0.361 C  
HETATM   11  C   UNL     1     -11.913  13.495  63.261  1.00  0.00    -0.123 C  
HETATM   12  C   UNL     1     -12.403  12.054  63.249  1.00  0.00    -0.553 C  
ENDROOT
BRANCH   3  13
HETATM   13  C   UNL     1     -10.843  16.334  68.164  1.00  0.00    -0.342 C  
BRANCH  13  14
HETATM   14  C   UNL     1      -9.388  16.004  68.247  1.00  0.00    -0.199 A  
HETATM   15  C   UNL     1      -7.338  15.337  67.131  1.00  0.00    -0.178 A  
HETATM   16  C   UNL     1      -7.487  15.223  69.537  1.00  0.00    -0.214 A  
HETATM   17  C   UNL     1      -8.650  15.805  67.072  1.00  0.00    -0.247 A  
HETATM   18  C   UNL     1      -8.799  15.695  69.481  1.00  0.00    -0.213 A  
HETATM   19  C   UNL     1      -6.756  15.050  68.362  1.00  0.00    -0.111 A  
ENDBRANCH  13  14
ENDBRANCH   3  13
BRANCH   7  20
HETATM   20  C   UNL     1      -9.977  12.670  68.071  1.00  0.00    -0.220 C  
BRANCH  20  21
HETATM   21  C   UNL     1      -9.561  11.498  68.925  1.00  0.00    -0.045 A  
HETATM   22  C   UNL     1      -8.268  10.964  68.900  1.00  0.00    -0.141 A  
HETATM   23  C   UNL     1      -7.944   9.845  69.667  1.00  0.00    -0.166 A  
HETATM   24  C   UNL     1      -8.895   9.286  70.514  1.00  0.00    -0.285 A  
HETATM   25  C   UNL     1     -10.166   9.846  70.601  1.00  0.00    -0.203 A  
HETATM   26  C   UNL     1     -10.497  10.952  69.820  1.00  0.00    -0.056 A  
ENDBRANCH  20  21
ENDBRANCH   7  20
TORSDOF 4
ENDMDL
MODEL      109
REMARK 921   NORMALIZED FREE ENERGY PREDICTED BY IDOCK:   -4.07 KCAL/MOL
REMARK 922        TOTAL FREE ENERGY PREDICTED BY IDOCK:   -5.76 KCAL/MOL
REMARK 923 INTER-LIGAND FREE ENERGY PREDICTED BY IDOCK:   -5.60 KCAL/MOL
REMARK 924 INTRA-LIGAND FREE ENERGY PREDICTED BY IDOCK:   -0.16 KCAL/MOL
REMARK 927      BINDING AFFINITY PREDICTED BY RF-SCORE:    0.00 PKD
ROOT
HETATM    1  O   UNL     1      -8.367   9.457  70.398  1.00  0.00    -0.174 OA 
HETATM    2  C   UNL     1      -8.565   8.258  70.312  1.00  0.00    -0.127 C  
HETATM    3  N   UNL     1      -9.789   7.619  70.640  1.00  0.00    -0.182 N  
HETATM    4  C   UNL     1      -6.970   3.769  70.809  1.00  0.00    -0.033 C  
HETATM    5  C   UNL     1      -9.547   6.163  70.702  1.00  0.00    -0.173 C  
HETATM    6  C   UNL     1     -10.273   5.245  69.725  1.00  0.00    -0.294 C  
HETATM    7  N   UNL     1      -7.690   7.293  69.748  1.00  0.00    -0.105 N  
HETATM    8  C   UNL     1      -8.035   6.061  70.444  1.00  0.00    -0.107 C  
HETATM    9  S   UNL     1      -9.162   3.914  69.161  1.00  0.00    -0.169 S  
HETATM   10  C   UNL     1      -7.639   4.724  69.811  1.00  0.00    -0.055 C  
HETATM   11  C   UNL     1      -9.164   2.807  70.613  1.00  0.00    -0.136 C  
HETATM   12  C   UNL     1      -7.694   2.435  70.750  1.00  0.00    -0.039 C  
ENDROOT
BRANCH   3  13
HETATM   13  C   UNL     1     -10.905   8.266  69.976  1.00  0.00    -0.232 C  
BRANCH  13  14
HETATM   14  C   UNL     1     -11.631   9.344  70.713  1.00  0.00    -0.364 A  
HETATM   15  C   UNL     1     -13.347   9.983  72.308  1.00  0.00    -0.387 A  
HETATM   16  C   UNL     1     -12.373  11.650  70.859  1.00  0.00    -0.436 A  
HETATM   17  C   UNL     1     -12.542   9.006  71.724  1.00  0.00    -0.434 A  
HETATM   18  C   UNL     1     -11.563  10.674  70.276  1.00  0.00    -0.424 A  
HETATM   19  C   UNL     1     -13.260  11.305  71.878  1.00  0.00    -0.491 A  
ENDBRANCH  13  14
ENDBRANCH   3  13
BRANCH   7  20
HETATM   20  C   UNL     1      -7.694   7.274  68.278  1.00  0.00    -0.120 C  
BRANCH  20  21
HETATM   21  C   UNL     1      -8.326   8.433  67.548  1.00  0.00    -0.129 A  
HETATM   22  C   UNL     1      -7.681   9.662  67.375  1.00  0.00    -0.095 A  
HETATM   23  C   UNL     1      -8.327  10.723  66.741  1.00  0.00    -0.136 A  
HETATM   24  C   UNL     1      -9.604  10.546  66.220  1.00  0.00    -0.232 A  
HETATM   25  C   UNL     1     -10.234   9.309  66.325  1.00  0.00    -0.273 A  
HETATM   26  C   UNL     1      -9.597   8.254  66.976  1.00  0.00    -0.249 A  
ENDBRANCH  20  21
ENDBRANCH   7  20
TORSDOF 4
ENDMDL
MODEL      110
REMARK 921   NORMALIZED FREE ENERGY PREDICTED BY IDOCK:   -4.04 KCAL/MOL
REMARK 922        TOTAL FREE ENERGY PREDICTED BY IDOCK:   -5.71 KCAL/MOL
REMARK 923 INTER-LIGAND FREE ENERGY PREDICTED BY IDOCK:   -5.11 KCAL/MOL
REMARK 924 INTRA-LIGAND FREE ENERGY PREDICTED BY IDOCK:   -0.60 KCAL/MOL
REMARK 927      BINDING AFFINITY PREDICTED BY RF-SCORE:    0.00 PKD
ROOT
HETATM    1  O   UNL     1      -8.749  13.520  69.541  1.00  0.00     0.818 OA 
HETATM    2  C   UNL     1      -8.831  12.693  68.650  1.00  0.00     0.052 C  
HETATM    3  N   UNL     1      -9.573  11.487  68.739  1.00  0.00    -0.150 N  
HETATM    4  C   UNL     1      -6.772  10.270  65.068  1.00  0.00    -0.108 C  
HETATM    5  C   UNL     1      -9.185  10.623  67.605  1.00  0.00    -0.146 C  
HETATM    6  C   UNL     1     -10.237  10.236  66.571  1.00  0.00    -0.226 C  
HETATM    7  N   UNL     1      -8.338  12.823  67.326  1.00  0.00    -0.185 N  
HETATM    8  C   UNL     1      -8.092  11.449  66.910  1.00  0.00    -0.158 C  
HETATM    9  S   UNL     1      -9.513  10.243  64.897  1.00  0.00    -0.305 S  
HETATM   10  C   UNL     1      -7.988  11.141  65.414  1.00  0.00     0.252 C  
HETATM   11  C   UNL     1      -8.568   8.680  64.910  1.00  0.00    -0.135 C  
HETATM   12  C   UNL     1      -7.253   9.082  64.255  1.00  0.00    -0.091 C  
ENDROOT
BRANCH   3  13
HETATM   13  C   UNL     1     -10.929  11.743  69.186  1.00  0.00    -0.209 C  
BRANCH  13  14
HETATM   14  C   UNL     1     -11.551  10.774  70.138  1.00  0.00    -0.424 A  
HETATM   15  C   UNL     1     -13.121  10.340  71.938  1.00  0.00    -0.568 A  
HETATM   16  C   UNL     1     -11.426   8.707  71.402  1.00  0.00    -0.352 A  
HETATM   17  C   UNL     1     -12.635  11.173  70.931  1.00  0.00    -0.483 A  
HETATM   18  C   UNL     1     -10.941   9.538  70.392  1.00  0.00    -0.333 A  
HETATM   19  C   UNL     1     -12.519   9.106  72.171  1.00  0.00    -0.436 A  
ENDBRANCH  13  14
ENDBRANCH   3  13
BRANCH   7  20
HETATM   20  C   UNL     1      -9.179  13.660  66.457  1.00  0.00    -0.179 C  
BRANCH  20  21
HETATM   21  C   UNL     1      -9.326  15.123  66.798  1.00  0.00    -0.268 A  
HETATM   22  C   UNL     1      -8.317  16.062  66.559  1.00  0.00    -0.348 A  
HETATM   23  C   UNL     1      -8.477  17.393  66.941  1.00  0.00    -0.264 A  
HETATM   24  C   UNL     1      -9.674  17.811  67.511  1.00  0.00    -0.284 A  
HETATM   25  C   UNL     1     -10.714  16.904  67.695  1.00  0.00    -0.290 A  
HETATM   26  C   UNL     1     -10.546  15.569  67.332  1.00  0.00    -0.292 A  
ENDBRANCH  20  21
ENDBRANCH   7  20
TORSDOF 4
ENDMDL
MODEL      111
REMARK 921   NORMALIZED FREE ENERGY PREDICTED BY IDOCK:   -4.04 KCAL/MOL
REMARK 922        TOTAL FREE ENERGY PREDICTED BY IDOCK:   -5.71 KCAL/MOL
REMARK 923 INTER-LIGAND FREE ENERGY PREDICTED BY IDOCK:   -4.89 KCAL/MOL
REMARK 924 INTRA-LIGAND FREE ENERGY PREDICTED BY IDOCK:   -0.82 KCAL/MOL
REMARK 927      BINDING AFFINITY PREDICTED BY RF-SCORE:    0.00 PKD
ROOT
HETATM    1  O   UNL     1      -7.642   5.977  72.514  1.00  0.00    -0.097 OA 
HETATM    2  C   UNL     1      -8.432   6.827  72.142  1.00  0.00    -0.110 C  
HETATM    3  N   UNL     1      -8.069   8.137  71.734  1.00  0.00    -0.116 N  
HETATM    4  C   UNL     1     -12.697   8.963  72.569  1.00  0.00    -0.382 C  
HETATM    5  C   UNL     1      -9.298   8.952  71.656  1.00  0.00    -0.258 C  
HETATM    6  C   UNL     1      -9.723   9.531  70.311  1.00  0.00    -0.263 C  
HETATM    7  N   UNL     1      -9.820   6.650  71.909  1.00  0.00    -0.167 N  
HETATM    8  C   UNL     1     -10.382   7.974  72.136  1.00  0.00    -0.254 C  
HETATM    9  S   UNL     1     -11.536   9.445  70.128  1.00  0.00    -0.071 S  
HETATM   10  C   UNL     1     -11.761   8.296  71.552  1.00  0.00    -0.292 C  
HETATM   11  C   UNL     1     -12.069  10.831  71.192  1.00  0.00    -0.309 C  
HETATM   12  C   UNL     1     -13.248  10.234  71.947  1.00  0.00    -0.550 C  
ENDROOT
BRANCH   3  13
HETATM   13  C   UNL     1      -7.013   8.096  70.739  1.00  0.00    -0.041 C  
BRANCH  13  14
HETATM   14  C   UNL     1      -7.190   7.191  69.563  1.00  0.00    -0.080 A  
HETATM   15  C   UNL     1      -6.437   5.269  68.284  1.00  0.00    -0.040 A  
HETATM   16  C   UNL     1      -8.016   6.815  67.313  1.00  0.00    -0.114 A  
HETATM   17  C   UNL     1      -6.404   6.036  69.449  1.00  0.00    -0.041 A  
HETATM   18  C   UNL     1      -7.987   7.582  68.479  1.00  0.00    -0.123 A  
HETATM   19  C   UNL     1      -7.246   5.657  67.219  1.00  0.00    -0.075 A  
ENDBRANCH  13  14
ENDBRANCH   3  13
BRANCH   7  20
HETATM   20  C   UNL     1     -10.129   5.983  70.636  1.00  0.00    -0.194 C  
BRANCH  20  21
HETATM   21  C   UNL     1      -9.876   4.500  70.524  1.00  0.00    -0.297 A  
HETATM   22  C   UNL     1      -9.924   3.638  71.625  1.00  0.00    -0.196 A  
HETATM   23  C   UNL     1      -9.630   2.283  71.483  1.00  0.00    -0.214 A  
HETATM   24  C   UNL     1      -9.342   1.764  70.225  1.00  0.00    -0.172 A  
HETATM   25  C   UNL     1      -9.357   2.595  69.109  1.00  0.00    -0.198 A  
HETATM   26  C   UNL     1      -9.631   3.954  69.253  1.00  0.00    -0.232 A  
ENDBRANCH  20  21
ENDBRANCH   7  20
TORSDOF 4
ENDMDL
MODEL      112
REMARK 921   NORMALIZED FREE ENERGY PREDICTED BY IDOCK:   -4.04 KCAL/MOL
REMARK 922        TOTAL FREE ENERGY PREDICTED BY IDOCK:   -5.71 KCAL/MOL
REMARK 923 INTER-LIGAND FREE ENERGY PREDICTED BY IDOCK:   -6.35 KCAL/MOL
REMARK 924 INTRA-LIGAND FREE ENERGY PREDICTED BY IDOCK:    0.64 KCAL/MOL
REMARK 927      BINDING AFFINITY PREDICTED BY RF-SCORE:    0.00 PKD
ROOT
HETATM    1  O   UNL     1      -9.695  16.647  65.726  1.00  0.00    -0.485 OA 
HETATM    2  C   UNL     1     -10.278  16.126  66.661  1.00  0.00    -0.287 C  
HETATM    3  N   UNL     1     -11.443  15.325  66.536  1.00  0.00    -0.176 N  
HETATM    4  C   UNL     1     -11.830  16.333  71.188  1.00  0.00    -0.298 C  
HETATM    5  C   UNL     1     -12.019  15.136  67.883  1.00  0.00    -0.057 C  
HETATM    6  C   UNL     1     -12.106  13.729  68.465  1.00  0.00    -0.292 C  
HETATM    7  N   UNL     1      -9.848  16.089  68.013  1.00  0.00    -0.221 N  
HETATM    8  C   UNL     1     -11.088  15.979  68.769  1.00  0.00    -0.338 C  
HETATM    9  S   UNL     1     -11.718  13.755  70.247  1.00  0.00    -0.140 S  
HETATM   10  C   UNL     1     -11.027  15.463  70.210  1.00  0.00    -0.315 C  
HETATM   11  C   UNL     1     -13.270  14.423  70.941  1.00  0.00    -0.288 C  
HETATM   12  C   UNL     1     -12.768  15.429  71.968  1.00  0.00    -0.455 C  
ENDROOT
BRANCH   3  13
HETATM   13  C   UNL     1     -11.254  14.286  65.540  1.00  0.00    -0.320 C  
BRANCH  13  14
HETATM   14  C   UNL     1     -10.600  13.013  65.968  1.00  0.00    -0.292 A  
HETATM   15  C   UNL     1     -10.812  10.741  66.796  1.00  0.00    -0.256 A  
HETATM   16  C   UNL     1      -8.666  11.845  66.853  1.00  0.00    -0.191 A  
HETATM   17  C   UNL     1     -11.385  11.884  66.240  1.00  0.00    -0.394 A  
HETATM   18  C   UNL     1      -9.237  12.989  66.293  1.00  0.00    -0.077 A  
HETATM   19  C   UNL     1      -9.453  10.720  67.099  1.00  0.00    -0.180 A  
ENDBRANCH  13  14
ENDBRANCH   3  13
BRANCH   7  20
HETATM   20  C   UNL     1      -8.796  15.096  68.276  1.00  0.00    -0.173 C  
BRANCH  20  21
HETATM   21  C   UNL     1      -7.531  15.558  68.958  1.00  0.00    -0.171 A  
HETATM   22  C   UNL     1      -6.604  14.670  69.514  1.00  0.00    -0.149 A  
HETATM   23  C   UNL     1      -5.476  15.144  70.183  1.00  0.00    -0.123 A  
HETATM   24  C   UNL     1      -5.233  16.512  70.249  1.00  0.00    -0.194 A  
HETATM   25  C   UNL     1      -6.111  17.406  69.643  1.00  0.00    -0.249 A  
HETATM   26  C   UNL     1      -7.249  16.933  68.992  1.00  0.00    -0.232 A  
ENDBRANCH  20  21
ENDBRANCH   7  20
TORSDOF 4
ENDMDL
MODEL      113
REMARK 921   NORMALIZED FREE ENERGY PREDICTED BY IDOCK:   -4.02 KCAL/MOL
REMARK 922        TOTAL FREE ENERGY PREDICTED BY IDOCK:   -5.69 KCAL/MOL
REMARK 923 INTER-LIGAND FREE ENERGY PREDICTED BY IDOCK:   -5.51 KCAL/MOL
REMARK 924 INTRA-LIGAND FREE ENERGY PREDICTED BY IDOCK:   -0.18 KCAL/MOL
REMARK 927      BINDING AFFINITY PREDICTED BY RF-SCORE:    0.00 PKD
ROOT
HETATM    1  O   UNL     1     -11.278   6.822  67.059  1.00  0.00    -0.393 OA 
HETATM    2  C   UNL     1     -10.335   6.664  67.815  1.00  0.00    -0.196 C  
HETATM    3  N   UNL     1      -8.994   6.464  67.396  1.00  0.00    -0.110 N  
HETATM    4  C   UNL     1      -8.547   4.807  71.852  1.00  0.00    -0.128 C  
HETATM    5  C   UNL     1      -8.208   6.013  68.563  1.00  0.00    -0.110 C  
HETATM    6  C   UNL     1      -7.060   6.881  69.067  1.00  0.00    -0.088 C  
HETATM    7  N   UNL     1     -10.352   6.789  69.228  1.00  0.00    -0.190 N  
HETATM    8  C   UNL     1      -9.273   5.915  69.667  1.00  0.00    -0.136 C  
HETATM    9  S   UNL     1      -7.010   6.869  70.890  1.00  0.00    -0.067 S  
HETATM   10  C   UNL     1      -8.685   6.119  71.066  1.00  0.00    -0.132 C  
HETATM   11  C   UNL     1      -6.268   5.233  71.217  1.00  0.00    -0.030 C  
HETATM   12  C   UNL     1      -7.121   4.705  72.362  1.00  0.00    -0.074 C  
ENDROOT
BRANCH   3  13
HETATM   13  C   UNL     1      -8.591   7.482  66.443  1.00  0.00    -0.140 C  
BRANCH  13  14
HETATM   14  C   UNL     1      -8.882   8.909  66.774  1.00  0.00    -0.142 A  
HETATM   15  C   UNL     1      -8.409  10.871  68.124  1.00  0.00    -0.123 A  
HETATM   16  C   UNL     1     -10.425  10.782  66.799  1.00  0.00    -0.305 A  
HETATM   17  C   UNL     1      -8.060   9.596  67.678  1.00  0.00    -0.113 A  
HETATM   18  C   UNL     1     -10.075   9.508  66.349  1.00  0.00    -0.328 A  
HETATM   19  C   UNL     1      -9.588  11.464  67.682  1.00  0.00    -0.176 A  
ENDBRANCH  13  14
ENDBRANCH   3  13
BRANCH   7  20
HETATM   20  C   UNL     1     -10.341   8.180  69.704  1.00  0.00    -0.221 C  
BRANCH  20  21
HETATM   21  C   UNL     1     -11.462   8.638  70.604  1.00  0.00    -0.256 A  
HETATM   22  C   UNL     1     -11.727   9.988  70.858  1.00  0.00    -0.462 A  
HETATM   23  C   UNL     1     -12.739  10.362  71.741  1.00  0.00    -0.525 A  
HETATM   24  C   UNL     1     -13.537   9.389  72.333  1.00  0.00    -0.498 A  
HETATM   25  C   UNL     1     -13.330   8.044  72.040  1.00  0.00    -0.276 A  
HETATM   26  C   UNL     1     -12.305   7.669  71.173  1.00  0.00    -0.293 A  
ENDBRANCH  20  21
ENDBRANCH   7  20
TORSDOF 4
ENDMDL
MODEL      114
REMARK 921   NORMALIZED FREE ENERGY PREDICTED BY IDOCK:   -4.01 KCAL/MOL
REMARK 922        TOTAL FREE ENERGY PREDICTED BY IDOCK:   -5.67 KCAL/MOL
REMARK 923 INTER-LIGAND FREE ENERGY PREDICTED BY IDOCK:   -5.30 KCAL/MOL
REMARK 924 INTRA-LIGAND FREE ENERGY PREDICTED BY IDOCK:   -0.37 KCAL/MOL
REMARK 927      BINDING AFFINITY PREDICTED BY RF-SCORE:    0.00 PKD
ROOT
HETATM    1  O   UNL     1      -6.646   8.705  68.040  1.00  0.00    -0.056 OA 
HETATM    2  C   UNL     1      -7.609   8.632  68.783  1.00  0.00    -0.096 C  
HETATM    3  N   UNL     1      -8.034   9.669  69.652  1.00  0.00    -0.120 N  
HETATM    4  C   UNL     1     -10.337   6.057  71.761  1.00  0.00    -0.259 C  
HETATM    5  C   UNL     1      -9.024   9.106  70.593  1.00  0.00    -0.244 C  
HETATM    6  C   UNL     1     -10.451   9.643  70.583  1.00  0.00    -0.312 C  
HETATM    7  N   UNL     1      -8.565   7.584  68.829  1.00  0.00    -0.129 N  
HETATM    8  C   UNL     1      -9.054   7.620  70.201  1.00  0.00    -0.150 C  
HETATM    9  S   UNL     1     -11.641   8.284  70.824  1.00  0.00    -0.185 S  
HETATM   10  C   UNL     1     -10.397   6.958  70.520  1.00  0.00    -0.204 C  
HETATM   11  C   UNL     1     -11.485   7.986  72.619  1.00  0.00    -0.402 C  
HETATM   12  C   UNL     1     -11.455   6.466  72.702  1.00  0.00    -0.234 C  
ENDROOT
BRANCH   3  13
HETATM   13  C   UNL     1      -8.162  10.926  68.937  1.00  0.00    -0.141 C  
BRANCH  13  14
HETATM   14  C   UNL     1      -9.037  10.959  67.726  1.00  0.00    -0.149 A  
HETATM   15  C   UNL     1      -9.242  11.074  65.310  1.00  0.00    -0.229 A  
HETATM   16  C   UNL     1     -11.177  11.463  66.700  1.00  0.00    -0.298 A  
HETATM   17  C   UNL     1      -8.463  10.880  66.450  1.00  0.00    -0.163 A  
HETATM   18  C   UNL     1     -10.399  11.265  67.842  1.00  0.00    -0.205 A  
HETATM   19  C   UNL     1     -10.599  11.361  65.435  1.00  0.00    -0.333 A  
ENDBRANCH  13  14
ENDBRANCH   3  13
BRANCH   7  20
HETATM   20  C   UNL     1      -9.559   7.637  67.747  1.00  0.00    -0.144 C  
BRANCH  20  21
HETATM   21  C   UNL     1      -9.591   6.506  66.748  1.00  0.00    -0.198 A  
HETATM   22  C   UNL     1     -10.626   5.567  66.700  1.00  0.00    -0.365 A  
HETATM   23  C   UNL     1     -10.586   4.507  65.796  1.00  0.00    -0.226 A  
HETATM   24  C   UNL     1      -9.537   4.410  64.888  1.00  0.00    -0.160 A  
HETATM   25  C   UNL     1      -8.533   5.374  64.878  1.00  0.00    -0.148 A  
HETATM   26  C   UNL     1      -8.562   6.422  65.795  1.00  0.00    -0.152 A  
ENDBRANCH  20  21
ENDBRANCH   7  20
TORSDOF 4
ENDMDL
MODEL      115
REMARK 921   NORMALIZED FREE ENERGY PREDICTED BY IDOCK:   -3.97 KCAL/MOL
REMARK 922        TOTAL FREE ENERGY PREDICTED BY IDOCK:   -5.63 KCAL/MOL
REMARK 923 INTER-LIGAND FREE ENERGY PREDICTED BY IDOCK:   -4.93 KCAL/MOL
REMARK 924 INTRA-LIGAND FREE ENERGY PREDICTED BY IDOCK:   -0.70 KCAL/MOL
REMARK 927      BINDING AFFINITY PREDICTED BY RF-SCORE:    0.00 PKD
ROOT
HETATM    1  O   UNL     1     -11.348   6.274  67.946  1.00  0.00    -0.257 OA 
HETATM    2  C   UNL     1     -10.329   6.436  67.296  1.00  0.00    -0.218 C  
HETATM    3  N   UNL     1      -9.924   7.672  66.731  1.00  0.00    -0.243 N  
HETATM    4  C   UNL     1      -7.198   4.803  64.060  1.00  0.00    -0.050 C  
HETATM    5  C   UNL     1      -8.827   7.407  65.778  1.00  0.00    -0.075 C  
HETATM    6  C   UNL     1      -7.451   8.009  66.041  1.00  0.00    -0.077 C  
HETATM    7  N   UNL     1      -9.294   5.487  67.094  1.00  0.00    -0.114 N  
HETATM    8  C   UNL     1      -8.710   5.875  65.818  1.00  0.00    -0.151 C  
HETATM    9  S   UNL     1      -6.143   6.818  65.600  1.00  0.00    -0.036 S  
HETATM   10  C   UNL     1      -7.299   5.387  65.477  1.00  0.00    -0.073 C  
HETATM   11  C   UNL     1      -6.143   6.944  63.778  1.00  0.00    -0.039 C  
HETATM   12  C   UNL     1      -6.048   5.488  63.344  1.00  0.00    -0.021 C  
ENDROOT
BRANCH   3  13
HETATM   13  C   UNL     1      -9.948   8.729  67.726  1.00  0.00    -0.194 C  
BRANCH  13  14
HETATM   14  C   UNL     1     -10.612  10.018  67.365  1.00  0.00    -0.330 A  
HETATM   15  C   UNL     1     -10.837  11.886  65.830  1.00  0.00    -0.342 A  
HETATM   16  C   UNL     1     -11.800  12.024  68.039  1.00  0.00    -0.338 A  
HETATM   17  C   UNL     1     -10.359  10.608  66.119  1.00  0.00    -0.291 A  
HETATM   18  C   UNL     1     -11.326  10.743  68.329  1.00  0.00    -0.376 A  
HETATM   19  C   UNL     1     -11.560  12.591  66.788  1.00  0.00    -0.446 A  
ENDBRANCH  13  14
ENDBRANCH   3  13
BRANCH   7  20
HETATM   20  C   UNL     1      -8.389   5.340  68.244  1.00  0.00    -0.097 C  
BRANCH  20  21
HETATM   21  C   UNL     1      -8.894   4.608  69.463  1.00  0.00    -0.121 A  
HETATM   22  C   UNL     1      -9.254   5.264  70.646  1.00  0.00    -0.187 A  
HETATM   23  C   UNL     1      -9.663   4.541  71.766  1.00  0.00    -0.235 A  
HETATM   24  C   UNL     1      -9.774   3.157  71.695  1.00  0.00    -0.235 A  
HETATM   25  C   UNL     1      -9.484   2.494  70.505  1.00  0.00    -0.189 A  
HETATM   26  C   UNL     1      -9.056   3.214  69.392  1.00  0.00    -0.198 A  
ENDBRANCH  20  21
ENDBRANCH   7  20
TORSDOF 4
ENDMDL
MODEL      116
REMARK 921   NORMALIZED FREE ENERGY PREDICTED BY IDOCK:   -3.97 KCAL/MOL
REMARK 922        TOTAL FREE ENERGY PREDICTED BY IDOCK:   -5.63 KCAL/MOL
REMARK 923 INTER-LIGAND FREE ENERGY PREDICTED BY IDOCK:   -5.41 KCAL/MOL
REMARK 924 INTRA-LIGAND FREE ENERGY PREDICTED BY IDOCK:   -0.22 KCAL/MOL
REMARK 927      BINDING AFFINITY PREDICTED BY RF-SCORE:    0.00 PKD
ROOT
HETATM    1  O   UNL     1      -6.814  13.861  66.956  1.00  0.00    -0.017 OA 
HETATM    2  C   UNL     1      -7.778  14.363  67.509  1.00  0.00    -0.192 C  
HETATM    3  N   UNL     1      -7.731  15.547  68.289  1.00  0.00    -0.114 N  
HETATM    4  C   UNL     1     -11.882  13.844  69.922  1.00  0.00    -0.394 C  
HETATM    5  C   UNL     1      -9.004  15.662  69.029  1.00  0.00    -0.239 C  
HETATM    6  C   UNL     1      -9.918  16.852  68.758  1.00  0.00    -0.276 C  
HETATM    7  N   UNL     1      -9.133  13.965  67.374  1.00  0.00    -0.207 N  
HETATM    8  C   UNL     1      -9.743  14.374  68.632  1.00  0.00    -0.216 C  
HETATM    9  S   UNL     1     -11.664  16.327  68.770  1.00  0.00     0.022 S  
HETATM   10  C   UNL     1     -11.265  14.529  68.695  1.00  0.00    -0.261 C  
HETATM   11  C   UNL     1     -11.975  16.159  70.562  1.00  0.00    -0.112 C  
HETATM   12  C   UNL     1     -12.756  14.855  70.643  1.00  0.00    -0.422 C  
ENDROOT
BRANCH   3  13
HETATM   13  C   UNL     1      -7.069  16.618  67.568  1.00  0.00    -0.144 C  
BRANCH  13  14
HETATM   14  C   UNL     1      -6.607  17.807  68.345  1.00  0.00    -0.202 A  
HETATM   15  C   UNL     1      -5.183  19.767  68.500  1.00  0.00    -0.206 A  
HETATM   16  C   UNL     1      -6.277  18.919  70.477  1.00  0.00     0.127 A  
HETATM   17  C   UNL     1      -5.754  18.744  67.745  1.00  0.00    -0.185 A  
HETATM   18  C   UNL     1      -6.853  17.896  69.722  1.00  0.00     0.212 A  
HETATM   19  C   UNL     1      -5.447  19.857  69.864  1.00  0.00    -0.269 A  
ENDBRANCH  13  14
ENDBRANCH   3  13
BRANCH   7  20
HETATM   20  C   UNL     1      -9.766  14.420  66.127  1.00  0.00    -0.312 C  
BRANCH  20  21
HETATM   21  C   UNL     1     -10.533  13.414  65.305  1.00  0.00    -0.334 A  
HETATM   22  C   UNL     1     -11.931  13.388  65.249  1.00  0.00    -0.409 A  
HETATM   23  C   UNL     1     -12.597  12.405  64.519  1.00  0.00    -0.477 A  
HETATM   24  C   UNL     1     -11.870  11.473  63.787  1.00  0.00    -0.237 A  
HETATM   25  C   UNL     1     -10.479  11.526  63.777  1.00  0.00    -0.459 A  
HETATM   26  C   UNL     1      -9.812  12.495  64.523  1.00  0.00    -0.089 A  
ENDBRANCH  20  21
ENDBRANCH   7  20
TORSDOF 4
ENDMDL
MODEL      117
REMARK 921   NORMALIZED FREE ENERGY PREDICTED BY IDOCK:   -3.95 KCAL/MOL
REMARK 922        TOTAL FREE ENERGY PREDICTED BY IDOCK:   -5.60 KCAL/MOL
REMARK 923 INTER-LIGAND FREE ENERGY PREDICTED BY IDOCK:   -5.04 KCAL/MOL
REMARK 924 INTRA-LIGAND FREE ENERGY PREDICTED BY IDOCK:   -0.57 KCAL/MOL
REMARK 927      BINDING AFFINITY PREDICTED BY RF-SCORE:    0.00 PKD
ROOT
HETATM    1  O   UNL     1      -8.966   9.010  71.830  1.00  0.00    -0.343 OA 
HETATM    2  C   UNL     1      -9.027   8.070  71.057  1.00  0.00    -0.144 C  
HETATM    3  N   UNL     1     -10.182   7.716  70.312  1.00  0.00    -0.202 N  
HETATM    4  C   UNL     1      -7.858   3.561  69.944  1.00  0.00    -0.049 C  
HETATM    5  C   UNL     1      -9.966   6.371  69.739  1.00  0.00    -0.166 C  
HETATM    6  C   UNL     1      -9.938   6.203  68.224  1.00  0.00    -0.143 C  
HETATM    7  N   UNL     1      -7.951   7.245  70.640  1.00  0.00    -0.098 N  
HETATM    8  C   UNL     1      -8.591   5.981  70.305  1.00  0.00    -0.143 C  
HETATM    9  S   UNL     1      -8.657   4.997  67.745  1.00  0.00    -0.103 S  
HETATM   10  C   UNL     1      -7.845   4.996  69.400  1.00  0.00    -0.075 C  
HETATM   11  C   UNL     1      -9.473   3.420  68.169  1.00  0.00    -0.151 C  
HETATM   12  C   UNL     1      -8.354   2.639  68.845  1.00  0.00    -0.087 C  
ENDROOT
BRANCH   3  13
HETATM   13  C   UNL     1     -10.715   8.865  69.603  1.00  0.00    -0.217 C  
BRANCH  13  14
HETATM   14  C   UNL     1     -11.649   9.771  70.338  1.00  0.00    -0.327 A  
HETATM   15  C   UNL     1     -12.327  12.027  70.925  1.00  0.00    -0.384 A  
HETATM   16  C   UNL     1     -13.195  10.150  72.169  1.00  0.00    -0.463 A  
HETATM   17  C   UNL     1     -11.581  11.156  70.131  1.00  0.00    -0.410 A  
HETATM   18  C   UNL     1     -12.452   9.276  71.373  1.00  0.00    -0.418 A  
HETATM   19  C   UNL     1     -13.136  11.524  71.940  1.00  0.00    -0.492 A  
ENDBRANCH  13  14
ENDBRANCH   3  13
BRANCH   7  20
HETATM   20  C   UNL     1      -7.085   7.863  69.626  1.00  0.00    -0.061 C  
BRANCH  20  21
HETATM   21  C   UNL     1      -6.624   9.283  69.847  1.00  0.00    -0.049 A  
HETATM   22  C   UNL     1      -7.145  10.368  69.133  1.00  0.00    -0.080 A  
HETATM   23  C   UNL     1      -6.649  11.656  69.332  1.00  0.00    -0.115 A  
HETATM   24  C   UNL     1      -5.668  11.881  70.292  1.00  0.00    -0.157 A  
HETATM   25  C   UNL     1      -5.187  10.822  71.058  1.00  0.00    -0.103 A  
HETATM   26  C   UNL     1      -5.667   9.532  70.845  1.00  0.00    -0.060 A  
ENDBRANCH  20  21
ENDBRANCH   7  20
TORSDOF 4
ENDMDL
MODEL      118
REMARK 921   NORMALIZED FREE ENERGY PREDICTED BY IDOCK:   -3.91 KCAL/MOL
REMARK 922        TOTAL FREE ENERGY PREDICTED BY IDOCK:   -5.56 KCAL/MOL
REMARK 923 INTER-LIGAND FREE ENERGY PREDICTED BY IDOCK:   -4.87 KCAL/MOL
REMARK 924 INTRA-LIGAND FREE ENERGY PREDICTED BY IDOCK:   -0.69 KCAL/MOL
REMARK 927      BINDING AFFINITY PREDICTED BY RF-SCORE:    0.00 PKD
ROOT
HETATM    1  O   UNL     1      -7.437  10.414  68.206  1.00  0.00    -0.086 OA 
HETATM    2  C   UNL     1      -8.282   9.660  68.657  1.00  0.00    -0.105 C  
HETATM    3  N   UNL     1      -9.435   9.231  67.950  1.00  0.00    -0.136 N  
HETATM    4  C   UNL     1     -10.933   8.176  72.359  1.00  0.00    -0.414 C  
HETATM    5  C   UNL     1     -10.354   8.589  68.913  1.00  0.00    -0.210 C  
HETATM    6  C   UNL     1     -10.700   7.115  68.742  1.00  0.00    -0.169 C  
HETATM    7  N   UNL     1      -8.222   8.961  69.889  1.00  0.00    -0.111 N  
HETATM    8  C   UNL     1      -9.620   8.771  70.251  1.00  0.00    -0.177 C  
HETATM    9  S   UNL     1     -10.787   6.292  70.367  1.00  0.00    -0.327 S  
HETATM   10  C   UNL     1      -9.976   7.681  71.266  1.00  0.00    -0.179 C  
HETATM   11  C   UNL     1     -12.407   6.874  70.977  1.00  0.00    -0.351 C  
HETATM   12  C   UNL     1     -12.110   7.219  72.429  1.00  0.00    -0.155 C  
ENDROOT
BRANCH   3  13
HETATM   13  C   UNL     1      -9.078   8.712  66.642  1.00  0.00    -0.165 C  
BRANCH  13  14
HETATM   14  C   UNL     1      -9.474   9.505  65.440  1.00  0.00    -0.336 A  
HETATM   15  C   UNL     1      -9.091  10.093  63.116  1.00  0.00    -0.296 A  
HETATM   16  C   UNL     1     -10.542  11.460  64.477  1.00  0.00    -0.390 A  
HETATM   17  C   UNL     1      -8.855   9.257  64.207  1.00  0.00    -0.185 A  
HETATM   18  C   UNL     1     -10.310  10.622  65.569  1.00  0.00    -0.297 A  
HETATM   19  C   UNL     1      -9.936  11.191  63.250  1.00  0.00    -0.419 A  
ENDBRANCH  13  14
ENDBRANCH   3  13
BRANCH   7  20
HETATM   20  C   UNL     1      -7.356   7.772  69.858  1.00  0.00    -0.079 C  
BRANCH  20  21
HETATM   21  C   UNL     1      -6.671   7.351  71.134  1.00  0.00    -0.047 A  
HETATM   22  C   UNL     1      -6.259   6.036  71.374  1.00  0.00    -0.043 A  
HETATM   23  C   UNL     1      -5.679   5.682  72.592  1.00  0.00    -0.027 A  
HETATM   24  C   UNL     1      -5.451   6.654  73.560  1.00  0.00    -0.042 A  
HETATM   25  C   UNL     1      -5.793   7.980  73.311  1.00  0.00    -0.059 A  
HETATM   26  C   UNL     1      -6.392   8.330  72.102  1.00  0.00    -0.063 A  
ENDBRANCH  20  21
ENDBRANCH   7  20
TORSDOF 4
ENDMDL
MODEL      119
REMARK 921   NORMALIZED FREE ENERGY PREDICTED BY IDOCK:   -3.91 KCAL/MOL
REMARK 922        TOTAL FREE ENERGY PREDICTED BY IDOCK:   -5.56 KCAL/MOL
REMARK 923 INTER-LIGAND FREE ENERGY PREDICTED BY IDOCK:   -5.02 KCAL/MOL
REMARK 924 INTRA-LIGAND FREE ENERGY PREDICTED BY IDOCK:   -0.54 KCAL/MOL
REMARK 927      BINDING AFFINITY PREDICTED BY RF-SCORE:    0.00 PKD
ROOT
HETATM    1  O   UNL     1      -8.914   8.730  72.350  1.00  0.00    -0.379 OA 
HETATM    2  C   UNL     1      -8.995   7.590  71.927  1.00  0.00    -0.121 C  
HETATM    3  N   UNL     1     -10.176   7.014  71.391  1.00  0.00    -0.197 N  
HETATM    4  C   UNL     1      -7.812   2.963  72.283  1.00  0.00    -0.055 C  
HETATM    5  C   UNL     1      -9.967   5.557  71.275  1.00  0.00    -0.192 C  
HETATM    6  C   UNL     1     -10.001   4.907  69.896  1.00  0.00    -0.247 C  
HETATM    7  N   UNL     1      -7.927   6.674  71.751  1.00  0.00    -0.102 N  
HETATM    8  C   UNL     1      -8.563   5.370  71.873  1.00  0.00    -0.131 C  
HETATM    9  S   UNL     1      -8.725   3.610  69.775  1.00  0.00    -0.083 S  
HETATM   10  C   UNL     1      -7.843   4.144  71.303  1.00  0.00    -0.071 C  
HETATM   11  C   UNL     1      -9.500   2.256  70.724  1.00  0.00    -0.133 C  
HETATM   12  C   UNL     1      -8.342   1.735  71.565  1.00  0.00    -0.062 C  
ENDROOT
BRANCH   3  13
HETATM   13  C   UNL     1     -10.756   7.872  70.373  1.00  0.00    -0.233 C  
BRANCH  13  14
HETATM   14  C   UNL     1     -11.492   9.093  70.820  1.00  0.00    -0.337 A  
HETATM   15  C   UNL     1     -13.365  10.074  72.013  1.00  0.00    -0.513 A  
HETATM   16  C   UNL     1     -12.056  11.432  70.506  1.00  0.00    -0.487 A  
HETATM   17  C   UNL     1     -12.565   8.972  71.713  1.00  0.00    -0.434 A  
HETATM   18  C   UNL     1     -11.252  10.331  70.208  1.00  0.00    -0.395 A  
HETATM   19  C   UNL     1     -13.108  11.304  71.412  1.00  0.00    -0.395 A  
ENDBRANCH  13  14
ENDBRANCH   3  13
BRANCH   7  20
HETATM   20  C   UNL     1      -7.114   6.929  70.553  1.00  0.00    -0.067 C  
BRANCH  20  21
HETATM   21  C   UNL     1      -6.707   8.351  70.254  1.00  0.00    -0.036 A  
HETATM   22  C   UNL     1      -5.733   9.032  70.993  1.00  0.00    -0.043 A  
HETATM   23  C   UNL     1      -5.429  10.364  70.715  1.00  0.00    -0.085 A  
HETATM   24  C   UNL     1      -6.052  11.010  69.654  1.00  0.00    -0.084 A  
HETATM   25  C   UNL     1      -6.974  10.327  68.866  1.00  0.00    -0.065 A  
HETATM   26  C   UNL     1      -7.294   9.002  69.156  1.00  0.00    -0.072 A  
ENDBRANCH  20  21
ENDBRANCH   7  20
TORSDOF 4
ENDMDL
MODEL      120
REMARK 921   NORMALIZED FREE ENERGY PREDICTED BY IDOCK:   -3.88 KCAL/MOL
REMARK 922        TOTAL FREE ENERGY PREDICTED BY IDOCK:   -5.51 KCAL/MOL
REMARK 923 INTER-LIGAND FREE ENERGY PREDICTED BY IDOCK:   -5.59 KCAL/MOL
REMARK 924 INTRA-LIGAND FREE ENERGY PREDICTED BY IDOCK:    0.08 KCAL/MOL
REMARK 927      BINDING AFFINITY PREDICTED BY RF-SCORE:    0.00 PKD
ROOT
HETATM    1  O   UNL     1      -9.061  14.178  65.768  1.00  0.00     0.110 OA 
HETATM    2  C   UNL     1      -9.259  15.320  66.145  1.00  0.00    -0.310 C  
HETATM    3  N   UNL     1     -10.428  16.070  65.856  1.00  0.00    -0.346 N  
HETATM    4  C   UNL     1      -7.585  19.715  67.052  1.00  0.00    -0.274 C  
HETATM    5  C   UNL     1     -10.171  17.481  66.212  1.00  0.00    -0.355 C  
HETATM    6  C   UNL     1     -11.007  18.137  67.305  1.00  0.00    -0.069 C  
HETATM    7  N   UNL     1      -8.455  16.067  67.045  1.00  0.00    -0.195 N  
HETATM    8  C   UNL     1      -8.703  17.451  66.666  1.00  0.00    -0.260 C  
HETATM    9  S   UNL     1      -9.966  19.229  68.330  1.00  0.00    -0.434 S  
HETATM   10  C   UNL     1      -8.380  18.558  67.673  1.00  0.00    -0.255 C  
HETATM   11  C   UNL     1      -9.780  20.678  67.234  1.00  0.00    -0.422 C  
HETATM   12  C   UNL     1      -8.302  21.014  67.376  1.00  0.00    -0.008 C  
ENDROOT
BRANCH   3  13
HETATM   13  C   UNL     1     -11.623  15.316  66.187  1.00  0.00     0.008 C  
BRANCH  13  14
HETATM   14  C   UNL     1     -11.982  14.153  65.320  1.00  0.00    -0.383 A  
HETATM   15  C   UNL     1     -12.162  11.750  65.030  1.00  0.00     0.207 A  
HETATM   16  C   UNL     1     -12.283  13.203  63.107  1.00  0.00    -0.275 A  
HETATM   17  C   UNL     1     -11.992  12.859  65.858  1.00  0.00    -0.504 A  
HETATM   18  C   UNL     1     -12.116  14.315  63.934  1.00  0.00    -0.247 A  
HETATM   19  C   UNL     1     -12.311  11.922  63.657  1.00  0.00    -0.591 A  
ENDBRANCH  13  14
ENDBRANCH   3  13
BRANCH   7  20
HETATM   20  C   UNL     1      -8.642  15.700  68.456  1.00  0.00    -0.180 C  
BRANCH  20  21
HETATM   21  C   UNL     1      -7.423  15.608  69.340  1.00  0.00    -0.221 A  
HETATM   22  C   UNL     1      -6.969  14.400  69.881  1.00  0.00    -0.009 A  
HETATM   23  C   UNL     1      -5.869  14.372  70.737  1.00  0.00    -0.195 A  
HETATM   24  C   UNL     1      -5.175  15.545  71.013  1.00  0.00    -0.127 A  
HETATM   25  C   UNL     1      -5.573  16.744  70.430  1.00  0.00    -0.166 A  
HETATM   26  C   UNL     1      -6.684  16.777  69.590  1.00  0.00    -0.093 A  
ENDBRANCH  20  21
ENDBRANCH   7  20
TORSDOF 4
ENDMDL
MODEL      121
REMARK 921   NORMALIZED FREE ENERGY PREDICTED BY IDOCK:   -3.88 KCAL/MOL
REMARK 922        TOTAL FREE ENERGY PREDICTED BY IDOCK:   -5.51 KCAL/MOL
REMARK 923 INTER-LIGAND FREE ENERGY PREDICTED BY IDOCK:   -5.79 KCAL/MOL
REMARK 924 INTRA-LIGAND FREE ENERGY PREDICTED BY IDOCK:    0.28 KCAL/MOL
REMARK 927      BINDING AFFINITY PREDICTED BY RF-SCORE:    0.00 PKD
ROOT
HETATM    1  O   UNL     1     -10.752  15.070  70.095  1.00  0.00    -0.227 OA 
HETATM    2  C   UNL     1     -10.864  14.791  68.914  1.00  0.00    -0.254 C  
HETATM    3  N   UNL     1     -11.552  15.587  67.963  1.00  0.00    -0.317 N  
HETATM    4  C   UNL     1     -11.509  11.500  65.495  1.00  0.00    -0.074 C  
HETATM    5  C   UNL     1     -11.733  14.786  66.735  1.00  0.00    -0.298 C  
HETATM    6  C   UNL     1     -11.079  15.252  65.439  1.00  0.00    -0.347 C  
HETATM    7  N   UNL     1     -10.229  13.721  68.232  1.00  0.00    -0.239 N  
HETATM    8  C   UNL     1     -11.132  13.427  67.129  1.00  0.00    -0.286 C  
HETATM    9  S   UNL     1     -10.432  13.824  64.507  1.00  0.00    -0.210 S  
HETATM   10  C   UNL     1     -10.592  12.655  65.922  1.00  0.00    -0.273 C  
HETATM   11  C   UNL     1     -11.966  13.136  63.795  1.00  0.00    -0.508 C  
HETATM   12  C   UNL     1     -11.790  11.639  64.010  1.00  0.00    -0.307 C  
ENDROOT
BRANCH   3  13
HETATM   13  C   UNL     1     -11.103  16.966  68.017  1.00  0.00    -0.190 C  
BRANCH  13  14
HETATM   14  C   UNL     1      -9.653  17.242  67.782  1.00  0.00    -0.262 A  
HETATM   15  C   UNL     1      -7.765  17.291  66.257  1.00  0.00    -0.353 A  
HETATM   16  C   UNL     1      -7.391  17.436  68.637  1.00  0.00    -0.244 A  
HETATM   17  C   UNL     1      -9.138  17.199  66.479  1.00  0.00    -0.294 A  
HETATM   18  C   UNL     1      -8.766  17.348  68.861  1.00  0.00    -0.153 A  
HETATM   19  C   UNL     1      -6.892  17.413  67.335  1.00  0.00    -0.183 A  
ENDBRANCH  13  14
ENDBRANCH   3  13
BRANCH   7  20
HETATM   20  C   UNL     1      -8.816  13.975  67.911  1.00  0.00    -0.185 C  
BRANCH  20  21
HETATM   21  C   UNL     1      -7.887  12.793  67.787  1.00  0.00    -0.156 A  
HETATM   22  C   UNL     1      -8.269  11.491  68.125  1.00  0.00    -0.149 A  
HETATM   23  C   UNL     1      -7.358  10.438  68.046  1.00  0.00    -0.085 A  
HETATM   24  C   UNL     1      -6.072  10.668  67.569  1.00  0.00    -0.052 A  
HETATM   25  C   UNL     1      -5.697  11.946  67.165  1.00  0.00    -0.139 A  
HETATM   26  C   UNL     1      -6.600  13.002  67.263  1.00  0.00    -0.004 A  
ENDBRANCH  20  21
ENDBRANCH   7  20
TORSDOF 4
ENDMDL
MODEL      122
REMARK 921   NORMALIZED FREE ENERGY PREDICTED BY IDOCK:   -3.86 KCAL/MOL
REMARK 922        TOTAL FREE ENERGY PREDICTED BY IDOCK:   -5.49 KCAL/MOL
REMARK 923 INTER-LIGAND FREE ENERGY PREDICTED BY IDOCK:   -4.72 KCAL/MOL
REMARK 924 INTRA-LIGAND FREE ENERGY PREDICTED BY IDOCK:   -0.77 KCAL/MOL
REMARK 927      BINDING AFFINITY PREDICTED BY RF-SCORE:    0.00 PKD
ROOT
HETATM    1  O   UNL     1     -10.643   7.633  66.876  1.00  0.00    -0.341 OA 
HETATM    2  C   UNL     1     -10.415   7.017  67.902  1.00  0.00    -0.214 C  
HETATM    3  N   UNL     1      -9.860   5.712  67.950  1.00  0.00    -0.126 N  
HETATM    4  C   UNL     1     -11.686   5.814  72.361  1.00  0.00    -0.281 C  
HETATM    5  C   UNL     1     -10.020   5.193  69.324  1.00  0.00    -0.210 C  
HETATM    6  C   UNL     1      -8.777   4.867  70.145  1.00  0.00    -0.094 C  
HETATM    7  N   UNL     1     -10.517   7.513  69.228  1.00  0.00    -0.213 N  
HETATM    8  C   UNL     1     -10.790   6.324  70.023  1.00  0.00    -0.324 C  
HETATM    9  S   UNL     1      -9.020   5.360  71.884  1.00  0.00    -0.135 S  
HETATM   10  C   UNL     1     -10.521   6.370  71.530  1.00  0.00    -0.219 C  
HETATM   11  C   UNL     1     -10.097   4.015  72.490  1.00  0.00    -0.168 C  
HETATM   12  C   UNL     1     -11.136   4.766  73.311  1.00  0.00    -0.411 C  
ENDROOT
BRANCH   3  13
HETATM   13  C   UNL     1      -8.653   5.632  67.147  1.00  0.00    -0.109 C  
BRANCH  13  14
HETATM   14  C   UNL     1      -8.684   4.787  65.915  1.00  0.00    -0.124 A  
HETATM   15  C   UNL     1      -8.775   2.581  64.906  1.00  0.00    -0.109 A  
HETATM   16  C   UNL     1      -8.167   4.492  63.563  1.00  0.00    -0.103 A  
HETATM   17  C   UNL     1      -8.905   3.407  66.022  1.00  0.00    -0.136 A  
HETATM   18  C   UNL     1      -8.300   5.321  64.678  1.00  0.00    -0.141 A  
HETATM   19  C   UNL     1      -8.409   3.124  63.677  1.00  0.00    -0.086 A  
ENDBRANCH  13  14
ENDBRANCH   3  13
BRANCH   7  20
HETATM   20  C   UNL     1      -9.388   8.363  69.634  1.00  0.00    -0.161 C  
BRANCH  20  21
HETATM   21  C   UNL     1      -9.229   9.708  68.967  1.00  0.00    -0.156 A  
HETATM   22  C   UNL     1      -8.090  10.059  68.235  1.00  0.00    -0.104 A  
HETATM   23  C   UNL     1      -7.963  11.333  67.682  1.00  0.00    -0.118 A  
HETATM   24  C   UNL     1      -9.002  12.249  67.806  1.00  0.00    -0.177 A  
HETATM   25  C   UNL     1     -10.170  11.893  68.475  1.00  0.00    -0.221 A  
HETATM   26  C   UNL     1     -10.289  10.627  69.045  1.00  0.00    -0.237 A  
ENDBRANCH  20  21
ENDBRANCH   7  20
TORSDOF 4
ENDMDL
MODEL      123
REMARK 921   NORMALIZED FREE ENERGY PREDICTED BY IDOCK:   -3.84 KCAL/MOL
REMARK 922        TOTAL FREE ENERGY PREDICTED BY IDOCK:   -5.47 KCAL/MOL
REMARK 923 INTER-LIGAND FREE ENERGY PREDICTED BY IDOCK:   -4.70 KCAL/MOL
REMARK 924 INTRA-LIGAND FREE ENERGY PREDICTED BY IDOCK:   -0.77 KCAL/MOL
REMARK 927      BINDING AFFINITY PREDICTED BY RF-SCORE:    0.00 PKD
ROOT
HETATM    1  O   UNL     1      -7.239   7.130  70.205  1.00  0.00    -0.068 OA 
HETATM    2  C   UNL     1      -8.218   7.856  70.243  1.00  0.00    -0.124 C  
HETATM    3  N   UNL     1      -8.190   9.254  70.002  1.00  0.00    -0.135 N  
HETATM    4  C   UNL     1     -12.390   9.056  72.265  1.00  0.00    -0.402 C  
HETATM    5  C   UNL     1      -9.484   9.822  70.434  1.00  0.00    -0.143 C  
HETATM    6  C   UNL     1     -10.386  10.488  69.401  1.00  0.00    -0.234 C  
HETATM    7  N   UNL     1      -9.569   7.450  70.387  1.00  0.00    -0.166 N  
HETATM    8  C   UNL     1     -10.213   8.598  71.010  1.00  0.00    -0.220 C  
HETATM    9  S   UNL     1     -12.133  10.082  69.731  1.00  0.00     0.220 S  
HETATM   10  C   UNL     1     -11.736   8.727  70.915  1.00  0.00    -0.258 C  
HETATM   11  C   UNL     1     -12.495  11.180  71.144  1.00  0.00    -0.393 C  
HETATM   12  C   UNL     1     -13.282  10.271  72.078  1.00  0.00    -0.516 C  
ENDROOT
BRANCH   3  13
HETATM   13  C   UNL     1      -7.505   9.554  68.758  1.00  0.00    -0.075 C  
BRANCH  13  14
HETATM   14  C   UNL     1      -6.768  10.850  68.656  1.00  0.00    -0.059 A  
HETATM   15  C   UNL     1      -5.595  12.669  69.755  1.00  0.00    -0.101 A  
HETATM   16  C   UNL     1      -6.315  12.914  67.464  1.00  0.00    -0.161 A  
HETATM   17  C   UNL     1      -6.144  11.387  69.790  1.00  0.00    -0.124 A  
HETATM   18  C   UNL     1      -6.861  11.630  67.496  1.00  0.00    -0.104 A  
HETATM   19  C   UNL     1      -5.677  13.430  68.592  1.00  0.00    -0.084 A  
ENDBRANCH  13  14
ENDBRANCH   3  13
BRANCH   7  20
HETATM   20  C   UNL     1     -10.165   6.917  69.152  1.00  0.00    -0.187 C  
BRANCH  20  21
HETATM   21  C   UNL     1      -9.881   5.483  68.781  1.00  0.00    -0.206 A  
HETATM   22  C   UNL     1      -9.832   5.039  67.455  1.00  0.00    -0.207 A  
HETATM   23  C   UNL     1      -9.619   3.693  67.161  1.00  0.00    -0.194 A  
HETATM   24  C   UNL     1      -9.394   2.786  68.191  1.00  0.00    -0.258 A  
HETATM   25  C   UNL     1      -9.373   3.223  69.512  1.00  0.00    -0.235 A  
HETATM   26  C   UNL     1      -9.605   4.564  69.808  1.00  0.00    -0.270 A  
ENDBRANCH  20  21
ENDBRANCH   7  20
TORSDOF 4
ENDMDL
MODEL      124
REMARK 921   NORMALIZED FREE ENERGY PREDICTED BY IDOCK:   -3.84 KCAL/MOL
REMARK 922        TOTAL FREE ENERGY PREDICTED BY IDOCK:   -5.47 KCAL/MOL
REMARK 923 INTER-LIGAND FREE ENERGY PREDICTED BY IDOCK:   -4.78 KCAL/MOL
REMARK 924 INTRA-LIGAND FREE ENERGY PREDICTED BY IDOCK:   -0.69 KCAL/MOL
REMARK 927      BINDING AFFINITY PREDICTED BY RF-SCORE:    0.00 PKD
ROOT
HETATM    1  O   UNL     1      -7.241   6.251  67.309  1.00  0.00    -0.075 OA 
HETATM    2  C   UNL     1      -8.028   6.388  68.229  1.00  0.00    -0.106 C  
HETATM    3  N   UNL     1      -8.963   7.450  68.335  1.00  0.00    -0.134 N  
HETATM    4  C   UNL     1      -8.997   6.082  72.910  1.00  0.00    -0.125 C  
HETATM    5  C   UNL     1      -9.512   7.446  69.706  1.00  0.00    -0.159 C  
HETATM    6  C   UNL     1     -11.003   7.200  69.911  1.00  0.00    -0.253 C  
HETATM    7  N   UNL     1      -8.269   5.468  69.282  1.00  0.00    -0.094 N  
HETATM    8  C   UNL     1      -8.728   6.308  70.379  1.00  0.00    -0.146 C  
HETATM    9  S   UNL     1     -11.277   6.158  71.382  1.00  0.00    -0.267 S  
HETATM   10  C   UNL     1      -9.509   5.658  71.526  1.00  0.00    -0.150 C  
HETATM   11  C   UNL     1     -11.022   7.364  72.728  1.00  0.00    -0.339 C  
HETATM   12  C   UNL     1     -10.179   6.578  73.723  1.00  0.00    -0.326 C  
ENDROOT
BRANCH   3  13
HETATM   13  C   UNL     1      -9.734   7.587  67.113  1.00  0.00    -0.173 C  
BRANCH  13  14
HETATM   14  C   UNL     1      -9.925   8.958  66.552  1.00  0.00    -0.358 A  
HETATM   15  C   UNL     1      -9.563  10.536  64.743  1.00  0.00    -0.342 A  
HETATM   16  C   UNL     1     -10.303  11.330  66.899  1.00  0.00    -0.272 A  
HETATM   17  C   UNL     1      -9.546   9.230  65.230  1.00  0.00    -0.175 A  
HETATM   18  C   UNL     1     -10.290  10.023  67.388  1.00  0.00    -0.292 A  
HETATM   19  C   UNL     1      -9.944  11.585  65.576  1.00  0.00    -0.282 A  
ENDBRANCH  13  14
ENDBRANCH   3  13
BRANCH   7  20
HETATM   20  C   UNL     1      -9.112   4.327  68.895  1.00  0.00    -0.128 C  
BRANCH  20  21
HETATM   21  C   UNL     1      -8.621   3.414  67.799  1.00  0.00    -0.118 A  
HETATM   22  C   UNL     1      -7.447   2.662  67.909  1.00  0.00    -0.056 A  
HETATM   23  C   UNL     1      -7.003   1.873  66.848  1.00  0.00    -0.043 A  
HETATM   24  C   UNL     1      -7.763   1.781  65.687  1.00  0.00    -0.071 A  
HETATM   25  C   UNL     1      -8.969   2.470  65.587  1.00  0.00    -0.131 A  
HETATM   26  C   UNL     1      -9.402   3.275  66.639  1.00  0.00    -0.159 A  
ENDBRANCH  20  21
ENDBRANCH   7  20
TORSDOF 4
ENDMDL
MODEL      125
REMARK 921   NORMALIZED FREE ENERGY PREDICTED BY IDOCK:   -3.80 KCAL/MOL
REMARK 922        TOTAL FREE ENERGY PREDICTED BY IDOCK:   -5.42 KCAL/MOL
REMARK 923 INTER-LIGAND FREE ENERGY PREDICTED BY IDOCK:   -4.56 KCAL/MOL
REMARK 924 INTRA-LIGAND FREE ENERGY PREDICTED BY IDOCK:   -0.86 KCAL/MOL
REMARK 927      BINDING AFFINITY PREDICTED BY RF-SCORE:    0.00 PKD
ROOT
HETATM    1  O   UNL     1     -11.206   9.766  68.203  1.00  0.00    -0.163 OA 
HETATM    2  C   UNL     1     -10.295   9.810  67.394  1.00  0.00    -0.240 C  
HETATM    3  N   UNL     1      -9.626  10.998  67.002  1.00  0.00    -0.176 N  
HETATM    4  C   UNL     1      -8.318   8.257  63.318  1.00  0.00    -0.041 C  
HETATM    5  C   UNL     1      -8.814  10.696  65.805  1.00  0.00    -0.184 C  
HETATM    6  C   UNL     1      -7.297  10.838  65.880  1.00  0.00    -0.094 C  
HETATM    7  N   UNL     1      -9.635   8.704  66.801  1.00  0.00    -0.188 N  
HETATM    8  C   UNL     1      -9.158   9.224  65.527  1.00  0.00    -0.221 C  
HETATM    9  S   UNL     1      -6.489   9.492  64.952  1.00  0.00    -0.091 S  
HETATM   10  C   UNL     1      -8.027   8.485  64.808  1.00  0.00    -0.143 C  
HETATM   11  C   UNL     1      -6.723  10.053  63.230  1.00  0.00    -0.133 C  
HETATM   12  C   UNL     1      -7.136   8.773  62.517  1.00  0.00    -0.096 C  
ENDROOT
BRANCH   3  13
HETATM   13  C   UNL     1      -9.182  11.750  68.161  1.00  0.00    -0.186 C  
BRANCH  13  14
HETATM   14  C   UNL     1      -9.406  13.227  68.168  1.00  0.00    -0.220 A  
HETATM   15  C   UNL     1     -10.900  15.104  68.549  1.00  0.00    -0.247 A  
HETATM   16  C   UNL     1      -8.830  15.439  67.353  1.00  0.00    -0.196 A  
HETATM   17  C   UNL     1     -10.602  13.748  68.683  1.00  0.00    -0.263 A  
HETATM   18  C   UNL     1      -8.528  14.083  67.489  1.00  0.00    -0.201 A  
HETATM   19  C   UNL     1     -10.012  15.949  67.887  1.00  0.00    -0.221 A  
ENDBRANCH  13  14
ENDBRANCH   3  13
BRANCH   7  20
HETATM   20  C   UNL     1      -8.655   8.052  67.683  1.00  0.00    -0.130 C  
BRANCH  20  21
HETATM   21  C   UNL     1      -8.970   6.672  68.207  1.00  0.00    -0.122 A  
HETATM   22  C   UNL     1      -8.397   5.512  67.675  1.00  0.00    -0.100 A  
HETATM   23  C   UNL     1      -8.760   4.254  68.155  1.00  0.00    -0.118 A  
HETATM   24  C   UNL     1      -9.655   4.147  69.214  1.00  0.00    -0.256 A  
HETATM   25  C   UNL     1     -10.183   5.295  69.798  1.00  0.00    -0.364 A  
HETATM   26  C   UNL     1      -9.837   6.551  69.306  1.00  0.00    -0.161 A  
ENDBRANCH  20  21
ENDBRANCH   7  20
TORSDOF 4
ENDMDL
MODEL      126
REMARK 921   NORMALIZED FREE ENERGY PREDICTED BY IDOCK:   -3.78 KCAL/MOL
REMARK 922        TOTAL FREE ENERGY PREDICTED BY IDOCK:   -5.40 KCAL/MOL
REMARK 923 INTER-LIGAND FREE ENERGY PREDICTED BY IDOCK:   -5.58 KCAL/MOL
REMARK 924 INTRA-LIGAND FREE ENERGY PREDICTED BY IDOCK:    0.18 KCAL/MOL
REMARK 927      BINDING AFFINITY PREDICTED BY RF-SCORE:    0.00 PKD
ROOT
HETATM    1  O   UNL     1     -10.698  11.112  69.181  1.00  0.00    -0.213 OA 
HETATM    2  C   UNL     1     -10.371  10.061  68.658  1.00  0.00    -0.190 C  
HETATM    3  N   UNL     1     -10.449   9.798  67.266  1.00  0.00    -0.255 N  
HETATM    4  C   UNL     1     -10.174   5.277  68.779  1.00  0.00    -0.231 C  
HETATM    5  C   UNL     1     -10.262   8.347  67.060  1.00  0.00    -0.307 C  
HETATM    6  C   UNL     1      -9.062   7.859  66.256  1.00  0.00    -0.179 C  
HETATM    7  N   UNL     1      -9.726   8.966  69.289  1.00  0.00    -0.162 N  
HETATM    8  C   UNL     1     -10.140   7.816  68.498  1.00  0.00    -0.199 C  
HETATM    9  S   UNL     1      -8.372   6.345  67.002  1.00  0.00    -0.113 S  
HETATM   10  C   UNL     1      -9.311   6.531  68.578  1.00  0.00    -0.123 C  
HETATM   11  C   UNL     1      -9.584   5.092  66.456  1.00  0.00    -0.158 C  
HETATM   12  C   UNL     1      -9.794   4.263  67.715  1.00  0.00    -0.132 C  
ENDROOT
BRANCH   3  13
HETATM   13  C   UNL     1      -9.811  10.853  66.501  1.00  0.00    -0.204 C  
BRANCH  13  14
HETATM   14  C   UNL     1     -10.615  11.541  65.447  1.00  0.00    -0.336 A  
HETATM   15  C   UNL     1     -12.617  12.765  64.823  1.00  0.00    -0.518 A  
HETATM   16  C   UNL     1     -11.203  11.822  63.109  1.00  0.00    -0.224 A  
HETATM   17  C   UNL     1     -11.766  12.257  65.804  1.00  0.00    -0.445 A  
HETATM   18  C   UNL     1     -10.348  11.316  64.089  1.00  0.00    -0.410 A  
HETATM   19  C   UNL     1     -12.333  12.551  63.477  1.00  0.00    -0.623 A  
ENDBRANCH  13  14
ENDBRANCH   3  13
BRANCH   7  20
HETATM   20  C   UNL     1      -8.285   9.166  69.503  1.00  0.00    -0.120 C  
BRANCH  20  21
HETATM   21  C   UNL     1      -7.591  10.258  68.727  1.00  0.00    -0.093 A  
HETATM   22  C   UNL     1      -7.594  11.597  69.133  1.00  0.00     0.044 A  
HETATM   23  C   UNL     1      -6.986  12.580  68.355  1.00  0.00    -0.096 A  
HETATM   24  C   UNL     1      -6.314  12.225  67.190  1.00  0.00    -0.117 A  
HETATM   25  C   UNL     1      -6.243  10.889  66.806  1.00  0.00    -0.093 A  
HETATM   26  C   UNL     1      -6.869   9.908  67.573  1.00  0.00    -0.081 A  
ENDBRANCH  20  21
ENDBRANCH   7  20
TORSDOF 4
ENDMDL
MODEL      127
REMARK 921   NORMALIZED FREE ENERGY PREDICTED BY IDOCK:   -3.78 KCAL/MOL
REMARK 922        TOTAL FREE ENERGY PREDICTED BY IDOCK:   -5.39 KCAL/MOL
REMARK 923 INTER-LIGAND FREE ENERGY PREDICTED BY IDOCK:   -4.75 KCAL/MOL
REMARK 924 INTRA-LIGAND FREE ENERGY PREDICTED BY IDOCK:   -0.64 KCAL/MOL
REMARK 927      BINDING AFFINITY PREDICTED BY RF-SCORE:    0.00 PKD
ROOT
HETATM    1  O   UNL     1      -8.792   6.614  67.041  1.00  0.00    -0.111 OA 
HETATM    2  C   UNL     1      -9.333   7.041  68.046  1.00  0.00    -0.127 C  
HETATM    3  N   UNL     1      -9.844   6.229  69.091  1.00  0.00    -0.141 N  
HETATM    4  C   UNL     1     -12.244  10.223  70.129  1.00  0.00    -0.251 C  
HETATM    5  C   UNL     1     -10.681   7.074  69.965  1.00  0.00    -0.242 C  
HETATM    6  C   UNL     1     -10.275   7.271  71.422  1.00  0.00    -0.188 C  
HETATM    7  N   UNL     1      -9.435   8.400  68.440  1.00  0.00    -0.139 N  
HETATM    8  C   UNL     1     -10.642   8.437  69.254  1.00  0.00    -0.182 C  
HETATM    9  S   UNL     1     -10.589   8.991  71.941  1.00  0.00    -0.222 S  
HETATM   10  C   UNL     1     -10.841   9.607  70.222  1.00  0.00    -0.285 C  
HETATM   11  C   UNL     1     -12.400   8.969  72.173  1.00  0.00    -0.372 C  
HETATM   12  C   UNL     1     -12.834  10.277  71.527  1.00  0.00    -0.557 C  
ENDROOT
BRANCH   3  13
HETATM   13  C   UNL     1      -8.848   5.271  69.536  1.00  0.00    -0.104 C  
BRANCH  13  14
HETATM   14  C   UNL     1      -9.326   3.966  70.087  1.00  0.00    -0.241 A  
HETATM   15  C   UNL     1     -10.037   2.650  71.999  1.00  0.00    -0.190 A  
HETATM   16  C   UNL     1      -9.463   1.549  69.929  1.00  0.00    -0.138 A  
HETATM   17  C   UNL     1      -9.745   3.885  71.422  1.00  0.00    -0.246 A  
HETATM   18  C   UNL     1      -9.174   2.785  69.349  1.00  0.00    -0.208 A  
HETATM   19  C   UNL     1      -9.900   1.483  71.251  1.00  0.00    -0.183 A  
ENDBRANCH  13  14
ENDBRANCH   3  13
BRANCH   7  20
HETATM   20  C   UNL     1      -8.200   8.945  69.023  1.00  0.00    -0.116 C  
BRANCH  20  21
HETATM   21  C   UNL     1      -7.632  10.215  68.439  1.00  0.00    -0.087 A  
HETATM   22  C   UNL     1      -7.643  10.489  67.067  1.00  0.00    -0.107 A  
HETATM   23  C   UNL     1      -7.057  11.651  66.568  1.00  0.00     0.049 A  
HETATM   24  C   UNL     1      -6.507  12.581  67.442  1.00  0.00    -0.153 A  
HETATM   25  C   UNL     1      -6.547  12.356  68.816  1.00  0.00    -0.088 A  
HETATM   26  C   UNL     1      -7.114  11.185  69.314  1.00  0.00    -0.123 A  
ENDBRANCH  20  21
ENDBRANCH   7  20
TORSDOF 4
ENDMDL
MODEL      128
REMARK 921   NORMALIZED FREE ENERGY PREDICTED BY IDOCK:   -3.77 KCAL/MOL
REMARK 922        TOTAL FREE ENERGY PREDICTED BY IDOCK:   -5.38 KCAL/MOL
REMARK 923 INTER-LIGAND FREE ENERGY PREDICTED BY IDOCK:   -7.52 KCAL/MOL
REMARK 924 INTRA-LIGAND FREE ENERGY PREDICTED BY IDOCK:    2.13 KCAL/MOL
REMARK 927      BINDING AFFINITY PREDICTED BY RF-SCORE:    0.00 PKD
ROOT
HETATM    1  O   UNL     1      -8.080  16.914  67.272  1.00  0.00    -0.175 OA 
HETATM    2  C   UNL     1      -8.838  16.056  67.692  1.00  0.00    -0.185 C  
HETATM    3  N   UNL     1      -9.470  16.094  68.961  1.00  0.00    -0.236 N  
HETATM    4  C   UNL     1     -10.021  11.432  68.087  1.00  0.00    -0.196 C  
HETATM    5  C   UNL     1     -10.050  14.761  69.227  1.00  0.00    -0.157 C  
HETATM    6  C   UNL     1     -11.560  14.626  69.388  1.00  0.00    -0.305 C  
HETATM    7  N   UNL     1      -9.346  14.948  66.967  1.00  0.00    -0.217 N  
HETATM    8  C   UNL     1      -9.611  13.952  67.996  1.00  0.00    -0.219 C  
HETATM    9  S   UNL     1     -12.148  13.094  68.594  1.00  0.00    -0.072 S  
HETATM   10  C   UNL     1     -10.574  12.804  67.678  1.00  0.00    -0.219 C  
HETATM   11  C   UNL     1     -11.638  11.838  69.818  1.00  0.00    -0.299 C  
HETATM   12  C   UNL     1     -11.063  10.734  68.942  1.00  0.00    -0.307 C  
ENDROOT
BRANCH   3  13
HETATM   13  C   UNL     1     -10.134  17.367  69.173  1.00  0.00    -0.242 C  
BRANCH  13  14
HETATM   14  C   UNL     1      -9.887  18.461  68.186  1.00  0.00    -0.365 A  
HETATM   15  C   UNL     1     -10.278  19.404  65.984  1.00  0.00    -0.540 A  
HETATM   16  C   UNL     1      -8.477  20.250  67.350  1.00  0.00    -0.405 A  
HETATM   17  C   UNL     1     -10.608  18.492  66.985  1.00  0.00    -0.421 A  
HETATM   18  C   UNL     1      -8.808  19.339  68.355  1.00  0.00    -0.395 A  
HETATM   19  C   UNL     1      -9.215  20.285  66.168  1.00  0.00    -0.267 A  
ENDBRANCH  13  14
ENDBRANCH   3  13
BRANCH   7  20
HETATM   20  C   UNL     1     -10.440  15.289  66.047  1.00  0.00    -0.317 C  
BRANCH  20  21
HETATM   21  C   UNL     1     -10.901  14.242  65.062  1.00  0.00    -0.414 A  
HETATM   22  C   UNL     1     -12.241  14.087  64.693  1.00  0.00    -0.460 A  
HETATM   23  C   UNL     1     -12.627  13.070  63.821  1.00  0.00    -0.293 A  
HETATM   24  C   UNL     1     -11.666  12.234  63.262  1.00  0.00    -0.451 A  
HETATM   25  C   UNL     1     -10.321  12.418  63.566  1.00  0.00    -0.397 A  
HETATM   26  C   UNL     1      -9.937  13.422  64.453  1.00  0.00     0.038 A  
ENDBRANCH  20  21
ENDBRANCH   7  20
TORSDOF 4
ENDMDL
MODEL      129
REMARK 921   NORMALIZED FREE ENERGY PREDICTED BY IDOCK:   -3.75 KCAL/MOL
REMARK 922        TOTAL FREE ENERGY PREDICTED BY IDOCK:   -5.36 KCAL/MOL
REMARK 923 INTER-LIGAND FREE ENERGY PREDICTED BY IDOCK:   -4.66 KCAL/MOL
REMARK 924 INTRA-LIGAND FREE ENERGY PREDICTED BY IDOCK:   -0.71 KCAL/MOL
REMARK 927      BINDING AFFINITY PREDICTED BY RF-SCORE:    0.00 PKD
ROOT
HETATM    1  O   UNL     1     -11.230   6.211  67.955  1.00  0.00    -0.304 OA 
HETATM    2  C   UNL     1     -10.728   5.783  68.980  1.00  0.00    -0.284 C  
HETATM    3  N   UNL     1      -9.823   4.692  69.037  1.00  0.00    -0.174 N  
HETATM    4  C   UNL     1     -11.126   4.707  73.630  1.00  0.00    -0.379 C  
HETATM    5  C   UNL     1      -9.682   4.283  70.449  1.00  0.00    -0.209 C  
HETATM    6  C   UNL     1      -8.318   4.392  71.123  1.00  0.00    -0.089 C  
HETATM    7  N   UNL     1     -10.827   6.355  70.274  1.00  0.00    -0.266 N  
HETATM    8  C   UNL     1     -10.664   5.219  71.170  1.00  0.00    -0.119 C  
HETATM    9  S   UNL     1      -8.507   4.962  72.845  1.00  0.00    -0.107 S  
HETATM   10  C   UNL     1     -10.262   5.481  72.624  1.00  0.00    -0.187 C  
HETATM   11  C   UNL     1      -9.085   3.437  73.666  1.00  0.00    -0.093 C  
HETATM   12  C   UNL     1     -10.202   3.947  74.566  1.00  0.00    -0.252 C  
ENDROOT
BRANCH   3  13
HETATM   13  C   UNL     1      -8.735   4.871  68.092  1.00  0.00    -0.102 C  
BRANCH  13  14
HETATM   14  C   UNL     1      -8.143   6.236  67.953  1.00  0.00    -0.114 A  
HETATM   15  C   UNL     1      -7.677   8.170  66.562  1.00  0.00    -0.093 A  
HETATM   16  C   UNL     1      -6.543   7.910  68.677  1.00  0.00    -0.057 A  
HETATM   17  C   UNL     1      -8.352   6.970  66.777  1.00  0.00    -0.116 A  
HETATM   18  C   UNL     1      -7.221   6.710  68.896  1.00  0.00    -0.091 A  
HETATM   19  C   UNL     1      -6.775   8.642  67.513  1.00  0.00    -0.066 A  
ENDBRANCH  13  14
ENDBRANCH   3  13
BRANCH   7  20
HETATM   20  C   UNL     1      -9.952   7.518  70.479  1.00  0.00    -0.184 C  
BRANCH  20  21
HETATM   21  C   UNL     1     -10.501   8.890  70.173  1.00  0.00    -0.236 A  
HETATM   22  C   UNL     1     -11.822   9.256  70.450  1.00  0.00    -0.097 A  
HETATM   23  C   UNL     1     -12.301  10.518  70.100  1.00  0.00    -0.339 A  
HETATM   24  C   UNL     1     -11.444  11.449  69.522  1.00  0.00    -0.381 A  
HETATM   25  C   UNL     1     -10.109  11.123  69.301  1.00  0.00    -0.068 A  
HETATM   26  C   UNL     1      -9.635   9.856  69.632  1.00  0.00    -0.249 A  
ENDBRANCH  20  21
ENDBRANCH   7  20
TORSDOF 4
ENDMDL
MODEL      130
REMARK 921   NORMALIZED FREE ENERGY PREDICTED BY IDOCK:   -3.75 KCAL/MOL
REMARK 922        TOTAL FREE ENERGY PREDICTED BY IDOCK:   -5.35 KCAL/MOL
REMARK 923 INTER-LIGAND FREE ENERGY PREDICTED BY IDOCK:   -4.92 KCAL/MOL
REMARK 924 INTRA-LIGAND FREE ENERGY PREDICTED BY IDOCK:   -0.44 KCAL/MOL
REMARK 927      BINDING AFFINITY PREDICTED BY RF-SCORE:    0.00 PKD
ROOT
HETATM    1  O   UNL     1     -10.380  14.447  70.563  1.00  0.00     0.592 OA 
HETATM    2  C   UNL     1     -10.552  14.621  69.369  1.00  0.00    -0.196 C  
HETATM    3  N   UNL     1     -10.519  15.887  68.729  1.00  0.00    -0.227 N  
HETATM    4  C   UNL     1     -12.852  13.485  65.324  1.00  0.00    -0.410 C  
HETATM    5  C   UNL     1     -11.067  15.728  67.366  1.00  0.00    -0.235 C  
HETATM    6  C   UNL     1     -10.171  16.009  66.166  1.00  0.00    -0.324 C  
HETATM    7  N   UNL     1     -10.675  13.616  68.376  1.00  0.00    -0.251 N  
HETATM    8  C   UNL     1     -11.479  14.247  67.339  1.00  0.00    -0.347 C  
HETATM    9  S   UNL     1     -10.489  14.797  64.840  1.00  0.00    -0.291 S  
HETATM   10  C   UNL     1     -11.450  13.659  65.926  1.00  0.00    -0.316 C  
HETATM   11  C   UNL     1     -12.058  15.426  64.150  1.00  0.00    -0.088 C  
HETATM   12  C   UNL     1     -12.871  14.153  63.961  1.00  0.00     0.440 C  
ENDROOT
BRANCH   3  13
HETATM   13  C   UNL     1      -9.313  16.614  69.079  1.00  0.00    -0.227 C  
BRANCH  13  14
HETATM   14  C   UNL     1      -9.163  18.011  68.572  1.00  0.00    -0.296 A  
HETATM   15  C   UNL     1     -10.198  20.066  67.797  1.00  0.00    -0.549 A  
HETATM   16  C   UNL     1      -7.840  19.697  67.432  1.00  0.00    -0.302 A  
HETATM   17  C   UNL     1     -10.296  18.823  68.420  1.00  0.00    -0.360 A  
HETATM   18  C   UNL     1      -7.936  18.453  68.059  1.00  0.00    -0.289 A  
HETATM   19  C   UNL     1      -8.970  20.504  67.307  1.00  0.00    -0.431 A  
ENDBRANCH  13  14
ENDBRANCH   3  13
BRANCH   7  20
HETATM   20  C   UNL     1      -9.394  13.013  67.977  1.00  0.00    -0.213 C  
BRANCH  20  21
HETATM   21  C   UNL     1      -9.097  11.603  68.424  1.00  0.00    -0.180 A  
HETATM   22  C   UNL     1      -9.710  11.015  69.536  1.00  0.00     0.177 A  
HETATM   23  C   UNL     1      -9.363   9.728  69.944  1.00  0.00    -0.262 A  
HETATM   24  C   UNL     1      -8.441   8.992  69.207  1.00  0.00    -0.128 A  
HETATM   25  C   UNL     1      -7.871   9.538  68.060  1.00  0.00    -0.087 A  
HETATM   26  C   UNL     1      -8.202  10.832  67.664  1.00  0.00    -0.115 A  
ENDBRANCH  20  21
ENDBRANCH   7  20
TORSDOF 4
ENDMDL
MODEL      131
REMARK 921   NORMALIZED FREE ENERGY PREDICTED BY IDOCK:   -3.71 KCAL/MOL
REMARK 922        TOTAL FREE ENERGY PREDICTED BY IDOCK:   -5.30 KCAL/MOL
REMARK 923 INTER-LIGAND FREE ENERGY PREDICTED BY IDOCK:   -4.61 KCAL/MOL
REMARK 924 INTRA-LIGAND FREE ENERGY PREDICTED BY IDOCK:   -0.70 KCAL/MOL
REMARK 927      BINDING AFFINITY PREDICTED BY RF-SCORE:    0.00 PKD
ROOT
HETATM    1  O   UNL     1     -10.524   6.968  67.621  1.00  0.00    -0.192 OA 
HETATM    2  C   UNL     1     -10.226   8.146  67.725  1.00  0.00    -0.228 C  
HETATM    3  N   UNL     1     -10.150   8.850  68.954  1.00  0.00    -0.192 N  
HETATM    4  C   UNL     1     -10.471  12.626  66.049  1.00  0.00    -0.288 C  
HETATM    5  C   UNL     1     -10.067  10.294  68.654  1.00  0.00    -0.174 C  
HETATM    6  C   UNL     1      -8.823  11.071  69.071  1.00  0.00    -0.058 C  
HETATM    7  N   UNL     1      -9.767   8.998  66.687  1.00  0.00    -0.208 N  
HETATM    8  C   UNL     1     -10.177  10.326  67.121  1.00  0.00    -0.225 C  
HETATM    9  S   UNL     1      -8.371  12.281  67.784  1.00  0.00    -0.174 S  
HETATM   10  C   UNL     1      -9.482  11.546  66.510  1.00  0.00    -0.204 C  
HETATM   11  C   UNL     1      -9.609  13.592  68.074  1.00  0.00    -0.221 C  
HETATM   12  C   UNL     1     -10.051  13.950  66.662  1.00  0.00    -0.273 C  
ENDROOT
BRANCH   3  13
HETATM   13  C   UNL     1      -9.329   8.134  69.913  1.00  0.00    -0.159 C  
BRANCH  13  14
HETATM   14  C   UNL     1     -10.019   7.343  70.976  1.00  0.00    -0.183 A  
HETATM   15  C   UNL     1     -10.237   5.266  72.214  1.00  0.00    -0.250 A  
HETATM   16  C   UNL     1     -11.987   6.925  72.333  1.00  0.00    -0.170 A  
HETATM   17  C   UNL     1      -9.519   6.087  71.345  1.00  0.00    -0.172 A  
HETATM   18  C   UNL     1     -11.267   7.749  71.467  1.00  0.00    -0.278 A  
HETATM   19  C   UNL     1     -11.469   5.686  72.709  1.00  0.00    -0.328 A  
ENDBRANCH  13  14
ENDBRANCH   3  13
BRANCH   7  20
HETATM   20  C   UNL     1      -8.353   8.799  66.336  1.00  0.00    -0.116 C  
BRANCH  20  21
HETATM   21  C   UNL     1      -7.859   7.389  66.124  1.00  0.00    -0.107 A  
HETATM   22  C   UNL     1      -8.156   6.648  64.975  1.00  0.00    -0.124 A  
HETATM   23  C   UNL     1      -7.724   5.329  64.846  1.00  0.00    -0.087 A  
HETATM   24  C   UNL     1      -6.938   4.757  65.841  1.00  0.00    -0.063 A  
HETATM   25  C   UNL     1      -6.577   5.503  66.960  1.00  0.00    -0.056 A  
HETATM   26  C   UNL     1      -7.026   6.814  67.098  1.00  0.00    -0.074 A  
ENDBRANCH  20  21
ENDBRANCH   7  20
TORSDOF 4
ENDMDL
MODEL      132
REMARK 921   NORMALIZED FREE ENERGY PREDICTED BY IDOCK:   -3.68 KCAL/MOL
REMARK 922        TOTAL FREE ENERGY PREDICTED BY IDOCK:   -5.28 KCAL/MOL
REMARK 923 INTER-LIGAND FREE ENERGY PREDICTED BY IDOCK:   -4.73 KCAL/MOL
REMARK 924 INTRA-LIGAND FREE ENERGY PREDICTED BY IDOCK:   -0.54 KCAL/MOL
REMARK 927      BINDING AFFINITY PREDICTED BY RF-SCORE:    0.00 PKD
ROOT
HETATM    1  O   UNL     1      -7.709   8.450  71.066  1.00  0.00    -0.080 OA 
HETATM    2  C   UNL     1      -8.122   7.781  70.135  1.00  0.00    -0.117 C  
HETATM    3  N   UNL     1      -9.492   7.497  69.895  1.00  0.00    -0.161 N  
HETATM    4  C   UNL     1      -7.616   4.020  67.213  1.00  0.00    -0.073 C  
HETATM    5  C   UNL     1      -9.569   6.427  68.879  1.00  0.00    -0.126 C  
HETATM    6  C   UNL     1     -10.239   6.718  67.541  1.00  0.00    -0.190 C  
HETATM    7  N   UNL     1      -7.361   7.282  69.047  1.00  0.00    -0.089 N  
HETATM    8  C   UNL     1      -8.090   6.093  68.628  1.00  0.00    -0.108 C  
HETATM    9  S   UNL     1      -9.326   5.908  66.186  1.00  0.00    -0.092 S  
HETATM   10  C   UNL     1      -7.847   5.538  67.222  1.00  0.00    -0.101 C  
HETATM   11  C   UNL     1      -9.865   4.174  66.378  1.00  0.00    -0.195 C  
HETATM   12  C   UNL     1      -8.566   3.401  66.203  1.00  0.00    -0.119 C  
ENDROOT
BRANCH   3  13
HETATM   13  C   UNL     1     -10.284   8.712  69.910  1.00  0.00    -0.203 C  
BRANCH  13  14
HETATM   14  C   UNL     1     -11.474   8.764  70.813  1.00  0.00    -0.309 A  
HETATM   15  C   UNL     1     -13.399   7.649  71.785  1.00  0.00    -0.364 A  
HETATM   16  C   UNL     1     -13.199  10.050  71.934  1.00  0.00    -0.557 A  
HETATM   17  C   UNL     1     -12.196   7.594  71.082  1.00  0.00    -0.310 A  
HETATM   18  C   UNL     1     -11.993   9.996  71.233  1.00  0.00    -0.483 A  
HETATM   19  C   UNL     1     -13.897   8.877  72.214  1.00  0.00    -0.536 A  
ENDBRANCH  13  14
ENDBRANCH   3  13
BRANCH   7  20
HETATM   20  C   UNL     1      -7.052   8.291  68.023  1.00  0.00    -0.086 C  
BRANCH  20  21
HETATM   21  C   UNL     1      -6.724   9.693  68.475  1.00  0.00    -0.052 A  
HETATM   22  C   UNL     1      -5.488  10.040  69.031  1.00  0.00    -0.035 A  
HETATM   23  C   UNL     1      -5.250  11.336  69.485  1.00  0.00    -0.045 A  
HETATM   24  C   UNL     1      -6.226  12.315  69.333  1.00  0.00    -0.110 A  
HETATM   25  C   UNL     1      -7.436  12.002  68.721  1.00  0.00    -0.086 A  
HETATM   26  C   UNL     1      -7.683  10.702  68.285  1.00  0.00    -0.107 A  
ENDBRANCH  20  21
ENDBRANCH   7  20
TORSDOF 4
ENDMDL
MODEL      133
REMARK 921   NORMALIZED FREE ENERGY PREDICTED BY IDOCK:   -3.67 KCAL/MOL
REMARK 922        TOTAL FREE ENERGY PREDICTED BY IDOCK:   -5.26 KCAL/MOL
REMARK 923 INTER-LIGAND FREE ENERGY PREDICTED BY IDOCK:   -4.92 KCAL/MOL
REMARK 924 INTRA-LIGAND FREE ENERGY PREDICTED BY IDOCK:   -0.33 KCAL/MOL
REMARK 927      BINDING AFFINITY PREDICTED BY RF-SCORE:    0.00 PKD
ROOT
HETATM    1  O   UNL     1     -10.389  15.355  65.528  1.00  0.00    -0.327 OA 
HETATM    2  C   UNL     1      -9.568  14.794  66.233  1.00  0.00    -0.312 C  
HETATM    3  N   UNL     1      -8.684  15.458  67.122  1.00  0.00    -0.204 N  
HETATM    4  C   UNL     1      -6.332  11.314  66.825  1.00  0.00    -0.139 C  
HETATM    5  C   UNL     1      -7.655  14.491  67.557  1.00  0.00    -0.190 C  
HETATM    6  C   UNL     1      -7.557  14.123  69.033  1.00  0.00    -0.058 C  
HETATM    7  N   UNL     1      -9.425  13.395  66.416  1.00  0.00    -0.250 N  
HETATM    8  C   UNL     1      -8.019  13.230  66.757  1.00  0.00     0.327 C  
HETATM    9  S   UNL     1      -7.195  12.345  69.219  1.00  0.00     0.239 S  
HETATM   10  C   UNL     1      -7.578  11.944  67.462  1.00  0.00    -0.140 C  
HETATM   11  C   UNL     1      -5.414  12.299  68.817  1.00  0.00    -0.050 C  
HETATM   12  C   UNL     1      -5.308  11.073  67.921  1.00  0.00    -0.039 C  
ENDROOT
BRANCH   3  13
HETATM   13  C   UNL     1      -9.407  16.374  67.985  1.00  0.00    -0.216 C  
BRANCH  13  14
HETATM   14  C   UNL     1      -9.059  17.825  67.918  1.00  0.00    -0.259 A  
HETATM   15  C   UNL     1      -9.779  20.128  67.645  1.00  0.00    -0.551 A  
HETATM   16  C   UNL     1      -7.436  19.573  67.468  1.00  0.00    -0.278 A  
HETATM   17  C   UNL     1     -10.079  18.785  67.872  1.00  0.00    -0.415 A  
HETATM   18  C   UNL     1      -7.735  18.229  67.699  1.00  0.00    -0.230 A  
HETATM   19  C   UNL     1      -8.458  20.521  67.446  1.00  0.00    -0.354 A  
ENDBRANCH  13  14
ENDBRANCH   3  13
BRANCH   7  20
HETATM   20  C   UNL     1     -10.422  12.808  67.324  1.00  0.00    -0.232 C  
BRANCH  20  21
HETATM   21  C   UNL     1     -10.527  11.304  67.396  1.00  0.00    -0.247 A  
HETATM   22  C   UNL     1     -10.739  10.617  68.596  1.00  0.00    -0.239 A  
HETATM   23  C   UNL     1     -10.774   9.223  68.623  1.00  0.00    -0.180 A  
HETATM   24  C   UNL     1     -10.659   8.504  67.438  1.00  0.00    -0.304 A  
HETATM   25  C   UNL     1     -10.515   9.175  66.227  1.00  0.00    -0.035 A  
HETATM   26  C   UNL     1     -10.458  10.567  66.202  1.00  0.00    -0.237 A  
ENDBRANCH  20  21
ENDBRANCH   7  20
TORSDOF 4
ENDMDL
MODEL      134
REMARK 921   NORMALIZED FREE ENERGY PREDICTED BY IDOCK:   -3.65 KCAL/MOL
REMARK 922        TOTAL FREE ENERGY PREDICTED BY IDOCK:   -5.24 KCAL/MOL
REMARK 923 INTER-LIGAND FREE ENERGY PREDICTED BY IDOCK:   -6.08 KCAL/MOL
REMARK 924 INTRA-LIGAND FREE ENERGY PREDICTED BY IDOCK:    0.84 KCAL/MOL
REMARK 927      BINDING AFFINITY PREDICTED BY RF-SCORE:    0.00 PKD
ROOT
HETATM    1  O   UNL     1     -12.227  14.591  66.918  1.00  0.00    -0.375 OA 
HETATM    2  C   UNL     1     -11.057  14.388  67.192  1.00  0.00    -0.312 C  
HETATM    3  N   UNL     1     -10.044  15.381  67.180  1.00  0.00    -0.242 N  
HETATM    4  C   UNL     1      -7.207  11.546  66.994  1.00  0.00    -0.146 C  
HETATM    5  C   UNL     1      -8.734  14.705  67.263  1.00  0.00    -0.208 C  
HETATM    6  C   UNL     1      -7.836  14.967  68.467  1.00  0.00    -0.126 C  
HETATM    7  N   UNL     1     -10.504  13.186  67.705  1.00  0.00    -0.225 N  
HETATM    8  C   UNL     1      -9.121  13.218  67.250  1.00  0.00    -0.221 C  
HETATM    9  S   UNL     1      -7.005  13.428  68.984  1.00  0.00    -0.046 S  
HETATM   10  C   UNL     1      -8.091  12.340  67.967  1.00  0.00    -0.156 C  
HETATM   11  C   UNL     1      -5.704  13.279  67.712  1.00  0.00    -0.121 C  
HETATM   12  C   UNL     1      -5.754  11.799  67.356  1.00  0.00    -0.102 C  
ENDROOT
BRANCH   3  13
HETATM   13  C   UNL     1     -10.449  16.544  67.949  1.00  0.00    -0.313 C  
BRANCH  13  14
HETATM   14  C   UNL     1      -9.837  17.863  67.603  1.00  0.00    -0.304 A  
HETATM   15  C   UNL     1     -10.099  20.250  67.249  1.00  0.00    -0.545 A  
HETATM   16  C   UNL     1      -8.091  19.138  66.502  1.00  0.00    -0.309 A  
HETATM   17  C   UNL     1     -10.596  19.035  67.721  1.00  0.00    -0.488 A  
HETATM   18  C   UNL     1      -8.585  17.922  66.976  1.00  0.00    -0.248 A  
HETATM   19  C   UNL     1      -8.847  20.302  66.643  1.00  0.00    -0.334 A  
ENDBRANCH  13  14
ENDBRANCH   3  13
BRANCH   7  20
HETATM   20  C   UNL     1     -10.747  12.984  69.141  1.00  0.00    -0.022 C  
BRANCH  20  21
HETATM   21  C   UNL     1     -11.499  14.052  69.897  1.00  0.00    -0.272 A  
HETATM   22  C   UNL     1     -10.862  15.128  70.524  1.00  0.00    -0.230 A  
HETATM   23  C   UNL     1     -11.593  16.061  71.258  1.00  0.00    -0.506 A  
HETATM   24  C   UNL     1     -12.979  15.960  71.322  1.00  0.00    -0.248 A  
HETATM   25  C   UNL     1     -13.635  14.934  70.648  1.00  0.00    -0.091 A  
HETATM   26  C   UNL     1     -12.902  13.990  69.931  1.00  0.00     0.110 A  
ENDBRANCH  20  21
ENDBRANCH   7  20
TORSDOF 4
ENDMDL
MODEL      135
REMARK 921   NORMALIZED FREE ENERGY PREDICTED BY IDOCK:   -3.64 KCAL/MOL
REMARK 922        TOTAL FREE ENERGY PREDICTED BY IDOCK:   -5.23 KCAL/MOL
REMARK 923 INTER-LIGAND FREE ENERGY PREDICTED BY IDOCK:   -4.72 KCAL/MOL
REMARK 924 INTRA-LIGAND FREE ENERGY PREDICTED BY IDOCK:   -0.51 KCAL/MOL
REMARK 927      BINDING AFFINITY PREDICTED BY RF-SCORE:    0.00 PKD
ROOT
HETATM    1  O   UNL     1      -6.895  10.069  68.057  1.00  0.00    -0.067 OA 
HETATM    2  C   UNL     1      -7.842   9.382  68.400  1.00  0.00    -0.090 C  
HETATM    3  N   UNL     1      -9.166   9.540  67.917  1.00  0.00    -0.126 N  
HETATM    4  C   UNL     1     -10.190   7.013  71.837  1.00  0.00    -0.205 C  
HETATM    5  C   UNL     1     -10.068   8.746  68.777  1.00  0.00    -0.198 C  
HETATM    6  C   UNL     1     -10.854   7.592  68.164  1.00  0.00    -0.006 C  
HETATM    7  N   UNL     1      -7.795   8.223  69.217  1.00  0.00    -0.106 N  
HETATM    8  C   UNL     1      -9.111   8.182  69.839  1.00  0.00    -0.151 C  
HETATM    9  S   UNL     1     -10.920   6.185  69.323  1.00  0.00    -0.382 S  
HETATM   10  C   UNL     1      -9.605   6.857  70.426  1.00  0.00    -0.169 C  
HETATM   11  C   UNL     1     -12.180   6.761  70.513  1.00  0.00    -0.195 C  
HETATM   12  C   UNL     1     -11.569   6.379  71.854  1.00  0.00    -0.367 C  
ENDROOT
BRANCH   3  13
HETATM   13  C   UNL     1      -9.189   9.575  66.466  1.00  0.00    -0.160 C  
BRANCH  13  14
HETATM   14  C   UNL     1      -9.907  10.705  65.803  1.00  0.00    -0.296 A  
HETATM   15  C   UNL     1     -11.730  12.308  65.818  1.00  0.00    -0.445 A  
HETATM   16  C   UNL     1     -10.487  11.922  63.785  1.00  0.00    -0.468 A  
HETATM   17  C   UNL     1     -10.942  11.366  66.478  1.00  0.00    -0.328 A  
HETATM   18  C   UNL     1      -9.695  10.982  64.445  1.00  0.00    -0.330 A  
HETATM   19  C   UNL     1     -11.500  12.589  64.474  1.00  0.00    -0.391 A  
ENDBRANCH  13  14
ENDBRANCH   3  13
BRANCH   7  20
HETATM   20  C   UNL     1      -7.332   7.017  68.514  1.00  0.00    -0.100 C  
BRANCH  20  21
HETATM   21  C   UNL     1      -6.577   5.975  69.301  1.00  0.00    -0.051 A  
HETATM   22  C   UNL     1      -6.263   6.129  70.656  1.00  0.00    -0.038 A  
HETATM   23  C   UNL     1      -5.516   5.163  71.329  1.00  0.00    -0.005 A  
HETATM   24  C   UNL     1      -5.125   4.004  70.668  1.00  0.00     0.000 A  
HETATM   25  C   UNL     1      -5.487   3.804  69.338  1.00  0.00    -0.016 A  
HETATM   26  C   UNL     1      -6.216   4.778  68.660  1.00  0.00    -0.031 A  
ENDBRANCH  20  21
ENDBRANCH   7  20
TORSDOF 4
ENDMDL
MODEL      136
REMARK 921   NORMALIZED FREE ENERGY PREDICTED BY IDOCK:   -3.60 KCAL/MOL
REMARK 922        TOTAL FREE ENERGY PREDICTED BY IDOCK:   -5.18 KCAL/MOL
REMARK 923 INTER-LIGAND FREE ENERGY PREDICTED BY IDOCK:   -5.27 KCAL/MOL
REMARK 924 INTRA-LIGAND FREE ENERGY PREDICTED BY IDOCK:    0.10 KCAL/MOL
REMARK 927      BINDING AFFINITY PREDICTED BY RF-SCORE:    0.00 PKD
ROOT
HETATM    1  O   UNL     1      -9.259  14.217  65.253  1.00  0.00     0.393 OA 
HETATM    2  C   UNL     1      -9.382  15.302  65.795  1.00  0.00    -0.198 C  
HETATM    3  N   UNL     1     -10.575  16.070  65.793  1.00  0.00    -0.356 N  
HETATM    4  C   UNL     1      -7.540  19.569  66.953  1.00  0.00    -0.267 C  
HETATM    5  C   UNL     1     -10.250  17.428  66.273  1.00  0.00    -0.341 C  
HETATM    6  C   UNL     1     -10.892  17.937  67.559  1.00  0.00    -0.225 C  
HETATM    7  N   UNL     1      -8.436  15.940  66.637  1.00  0.00    -0.261 N  
HETATM    8  C   UNL     1      -8.728  17.358  66.477  1.00  0.00    -0.260 C  
HETATM    9  S   UNL     1      -9.688  18.904  68.529  1.00  0.00    -0.406 S  
HETATM   10  C   UNL     1      -8.235  18.336  67.547  1.00  0.00    -0.237 C  
HETATM   11  C   UNL     1      -9.667  20.479  67.605  1.00  0.00    -0.361 C  
HETATM   12  C   UNL     1      -8.182  20.810  67.546  1.00  0.00    -0.186 C  
ENDROOT
BRANCH   3  13
HETATM   13  C   UNL     1     -11.709  15.268  66.217  1.00  0.00     0.102 C  
BRANCH  13  14
HETATM   14  C   UNL     1     -12.124  14.125  65.349  1.00  0.00    -0.415 A  
HETATM   15  C   UNL     1     -12.272  11.728  64.994  1.00  0.00     0.207 A  
HETATM   16  C   UNL     1     -12.623  13.240  63.145  1.00  0.00     0.084 A  
HETATM   17  C   UNL     1     -12.047  12.814  65.839  1.00  0.00    -0.485 A  
HETATM   18  C   UNL     1     -12.401  14.328  63.990  1.00  0.00    -0.283 A  
HETATM   19  C   UNL     1     -12.563  11.941  63.649  1.00  0.00    -0.555 A  
ENDBRANCH  13  14
ENDBRANCH   3  13
BRANCH   7  20
HETATM   20  C   UNL     1      -8.396  15.400  68.004  1.00  0.00    -0.142 C  
BRANCH  20  21
HETATM   21  C   UNL     1      -8.751  13.949  68.211  1.00  0.00    -0.183 A  
HETATM   22  C   UNL     1      -7.814  12.916  68.101  1.00  0.00    -0.147 A  
HETATM   23  C   UNL     1      -8.199  11.584  68.247  1.00  0.00    -0.152 A  
HETATM   24  C   UNL     1      -9.517  11.275  68.564  1.00  0.00    -0.191 A  
HETATM   25  C   UNL     1     -10.449  12.294  68.743  1.00  0.00    -0.187 A  
HETATM   26  C   UNL     1     -10.068  13.624  68.578  1.00  0.00    -0.219 A  
ENDBRANCH  20  21
ENDBRANCH   7  20
TORSDOF 4
ENDMDL
MODEL      137
REMARK 921   NORMALIZED FREE ENERGY PREDICTED BY IDOCK:   -3.58 KCAL/MOL
REMARK 922        TOTAL FREE ENERGY PREDICTED BY IDOCK:   -5.15 KCAL/MOL
REMARK 923 INTER-LIGAND FREE ENERGY PREDICTED BY IDOCK:   -4.36 KCAL/MOL
REMARK 924 INTRA-LIGAND FREE ENERGY PREDICTED BY IDOCK:   -0.79 KCAL/MOL
REMARK 927      BINDING AFFINITY PREDICTED BY RF-SCORE:    0.00 PKD
ROOT
HETATM    1  O   UNL     1      -9.857  10.403  65.164  1.00  0.00    -0.267 OA 
HETATM    2  C   UNL     1      -9.656   9.758  66.179  1.00  0.00    -0.227 C  
HETATM    3  N   UNL     1      -8.727   8.690  66.282  1.00  0.00    -0.134 N  
HETATM    4  C   UNL     1     -11.351   7.656  70.134  1.00  0.00    -0.147 C  
HETATM    5  C   UNL     1      -8.987   7.974  67.547  1.00  0.00    -0.138 C  
HETATM    6  C   UNL     1      -7.903   7.939  68.619  1.00  0.00    -0.119 C  
HETATM    7  N   UNL     1     -10.185  10.022  67.468  1.00  0.00    -0.198 N  
HETATM    8  C   UNL     1     -10.211   8.714  68.108  1.00  0.00    -0.205 C  
HETATM    9  S   UNL     1      -8.646   8.103  70.276  1.00  0.00    -0.133 S  
HETATM   10  C   UNL     1     -10.287   8.644  69.636  1.00  0.00    -0.213 C  
HETATM   11  C   UNL     1      -9.324   6.427  70.533  1.00  0.00    -0.162 C  
HETATM   12  C   UNL     1     -10.696   6.712  71.127  1.00  0.00    -0.274 C  
ENDROOT
BRANCH   3  13
HETATM   13  C   UNL     1      -7.423   9.088  65.783  1.00  0.00    -0.090 C  
BRANCH  13  14
HETATM   14  C   UNL     1      -6.792   8.249  64.720  1.00  0.00    -0.067 A  
HETATM   15  C   UNL     1      -5.181   6.542  64.098  1.00  0.00    -0.026 A  
HETATM   16  C   UNL     1      -6.196   7.915  62.392  1.00  0.00    -0.077 A  
HETATM   17  C   UNL     1      -5.903   7.225  65.076  1.00  0.00    -0.037 A  
HETATM   18  C   UNL     1      -6.922   8.597  63.369  1.00  0.00    -0.089 A  
HETATM   19  C   UNL     1      -5.330   6.885  62.757  1.00  0.00    -0.032 A  
ENDBRANCH  13  14
ENDBRANCH   3  13
BRANCH   7  20
HETATM   20  C   UNL     1      -9.505  11.116  68.178  1.00  0.00    -0.180 C  
BRANCH  20  21
HETATM   21  C   UNL     1      -9.737  12.530  67.703  1.00  0.00    -0.196 A  
HETATM   22  C   UNL     1     -11.013  13.095  67.601  1.00  0.00    -0.282 A  
HETATM   23  C   UNL     1     -11.182  14.387  67.105  1.00  0.00    -0.337 A  
HETATM   24  C   UNL     1     -10.071  15.149  66.762  1.00  0.00    -0.261 A  
HETATM   25  C   UNL     1      -8.791  14.626  66.921  1.00  0.00    -0.267 A  
HETATM   26  C   UNL     1      -8.622  13.328  67.397  1.00  0.00    -0.204 A  
ENDBRANCH  20  21
ENDBRANCH   7  20
TORSDOF 4
ENDMDL
MODEL      138
REMARK 921   NORMALIZED FREE ENERGY PREDICTED BY IDOCK:   -3.52 KCAL/MOL
REMARK 922        TOTAL FREE ENERGY PREDICTED BY IDOCK:   -5.08 KCAL/MOL
REMARK 923 INTER-LIGAND FREE ENERGY PREDICTED BY IDOCK:   -5.26 KCAL/MOL
REMARK 924 INTRA-LIGAND FREE ENERGY PREDICTED BY IDOCK:    0.18 KCAL/MOL
REMARK 927      BINDING AFFINITY PREDICTED BY RF-SCORE:    0.00 PKD
ROOT
HETATM    1  O   UNL     1     -11.902  10.667  66.889  1.00  0.00     0.123 OA 
HETATM    2  C   UNL     1     -11.415  11.778  66.997  1.00  0.00    -0.298 C  
HETATM    3  N   UNL     1     -11.340  12.508  68.212  1.00  0.00    -0.263 N  
HETATM    4  C   UNL     1     -10.700  16.162  65.206  1.00  0.00    -0.386 C  
HETATM    5  C   UNL     1     -10.975  13.903  67.890  1.00  0.00    -0.250 C  
HETATM    6  C   UNL     1      -9.662  14.470  68.419  1.00  0.00    -0.224 C  
HETATM    7  N   UNL     1     -10.711  12.496  65.996  1.00  0.00    -0.257 N  
HETATM    8  C   UNL     1     -10.924  13.891  66.354  1.00  0.00    -0.303 C  
HETATM    9  S   UNL     1      -8.878  15.531  67.161  1.00  0.00    -0.228 S  
HETATM   10  C   UNL     1      -9.967  14.948  65.793  1.00  0.00    -0.347 C  
HETATM   11  C   UNL     1      -9.890  17.046  67.290  1.00  0.00    -0.260 C  
HETATM   12  C   UNL     1     -10.118  17.418  65.831  1.00  0.00    -0.219 C  
ENDROOT
BRANCH   3  13
HETATM   13  C   UNL     1     -10.758  11.700  69.267  1.00  0.00    -0.097 C  
BRANCH  13  14
HETATM   14  C   UNL     1      -9.622  10.795  68.914  1.00  0.00    -0.204 A  
HETATM   15  C   UNL     1      -7.339  10.529  68.133  1.00  0.00    -0.088 A  
HETATM   16  C   UNL     1      -8.821   8.624  68.184  1.00  0.00    -0.142 A  
HETATM   17  C   UNL     1      -8.363  11.339  68.622  1.00  0.00    -0.146 A  
HETATM   18  C   UNL     1      -9.846   9.433  68.678  1.00  0.00    -0.174 A  
HETATM   19  C   UNL     1      -7.567   9.172  67.918  1.00  0.00    -0.085 A  
ENDBRANCH  13  14
ENDBRANCH   3  13
BRANCH   7  20
HETATM   20  C   UNL     1      -9.326  12.043  65.801  1.00  0.00    -0.125 C  
BRANCH  20  21
HETATM   21  C   UNL     1      -9.042  11.071  64.682  1.00  0.00    -0.138 A  
HETATM   22  C   UNL     1      -8.102  10.040  64.795  1.00  0.00    -0.155 A  
HETATM   23  C   UNL     1      -7.833   9.200  63.715  1.00  0.00    -0.133 A  
HETATM   24  C   UNL     1      -8.546   9.344  62.530  1.00  0.00    -0.219 A  
HETATM   25  C   UNL     1      -9.532  10.321  62.424  1.00  0.00    -0.252 A  
HETATM   26  C   UNL     1      -9.787  11.174  63.496  1.00  0.00    -0.392 A  
ENDBRANCH  20  21
ENDBRANCH   7  20
TORSDOF 4
ENDMDL
MODEL      139
REMARK 921   NORMALIZED FREE ENERGY PREDICTED BY IDOCK:   -3.45 KCAL/MOL
REMARK 922        TOTAL FREE ENERGY PREDICTED BY IDOCK:   -4.98 KCAL/MOL
REMARK 923 INTER-LIGAND FREE ENERGY PREDICTED BY IDOCK:   -4.46 KCAL/MOL
REMARK 924 INTRA-LIGAND FREE ENERGY PREDICTED BY IDOCK:   -0.52 KCAL/MOL
REMARK 927      BINDING AFFINITY PREDICTED BY RF-SCORE:    0.00 PKD
ROOT
HETATM    1  O   UNL     1      -8.306   9.434  66.704  1.00  0.00    -0.117 OA 
HETATM    2  C   UNL     1      -8.134  10.583  67.072  1.00  0.00    -0.118 C  
HETATM    3  N   UNL     1      -8.779  11.713  66.506  1.00  0.00    -0.187 N  
HETATM    4  C   UNL     1      -5.190  14.013  68.656  1.00  0.00    -0.090 C  
HETATM    5  C   UNL     1      -8.098  12.928  66.997  1.00  0.00    -0.049 C  
HETATM    6  C   UNL     1      -8.877  13.929  67.842  1.00  0.00    -0.184 C  
HETATM    7  N   UNL     1      -7.389  11.009  68.202  1.00  0.00    -0.083 N  
HETATM    8  C   UNL     1      -6.953  12.351  67.845  1.00  0.00    -0.106 C  
HETATM    9  S   UNL     1      -7.824  14.585  69.178  1.00  0.00    -0.016 S  
HETATM   10  C   UNL     1      -6.517  13.304  68.962  1.00  0.00    -0.102 C  
HETATM   11  C   UNL     1      -6.781  15.771  68.262  1.00  0.00    -0.119 C  
HETATM   12  C   UNL     1      -5.396  15.506  68.835  1.00  0.00    -0.099 C  
ENDROOT
BRANCH   3  13
HETATM   13  C   UNL     1     -10.216  11.512  66.442  1.00  0.00    -0.224 C  
BRANCH  13  14
HETATM   14  C   UNL     1     -11.004  12.369  65.506  1.00  0.00    -0.328 A  
HETATM   15  C   UNL     1     -12.603  14.165  65.175  1.00  0.00    -0.426 A  
HETATM   16  C   UNL     1     -12.054  12.694  63.342  1.00  0.00    -0.614 A  
HETATM   17  C   UNL     1     -11.735  13.456  66.004  1.00  0.00    -0.398 A  
HETATM   18  C   UNL     1     -11.181  11.985  64.170  1.00  0.00    -0.441 A  
HETATM   19  C   UNL     1     -12.759  13.786  63.844  1.00  0.00     0.107 A  
ENDBRANCH  13  14
ENDBRANCH   3  13
BRANCH   7  20
HETATM   20  C   UNL     1      -8.095  10.836  69.480  1.00  0.00     0.021 C  
BRANCH  20  21
HETATM   21  C   UNL     1      -8.120   9.462  70.104  1.00  0.00    -0.167 A  
HETATM   22  C   UNL     1      -7.165   8.482  69.816  1.00  0.00    -0.052 A  
HETATM   23  C   UNL     1      -7.260   7.208  70.374  1.00  0.00    -0.070 A  
HETATM   24  C   UNL     1      -8.279   6.920  71.276  1.00  0.00    -0.114 A  
HETATM   25  C   UNL     1      -9.199   7.905  71.625  1.00  0.00    -0.180 A  
HETATM   26  C   UNL     1      -9.116   9.172  71.051  1.00  0.00    -0.305 A  
ENDBRANCH  20  21
ENDBRANCH   7  20
TORSDOF 4
ENDMDL
MODEL      140
REMARK 921   NORMALIZED FREE ENERGY PREDICTED BY IDOCK:   -3.43 KCAL/MOL
REMARK 922        TOTAL FREE ENERGY PREDICTED BY IDOCK:   -4.97 KCAL/MOL
REMARK 923 INTER-LIGAND FREE ENERGY PREDICTED BY IDOCK:   -4.66 KCAL/MOL
REMARK 924 INTRA-LIGAND FREE ENERGY PREDICTED BY IDOCK:   -0.31 KCAL/MOL
REMARK 927      BINDING AFFINITY PREDICTED BY RF-SCORE:    0.00 PKD
ROOT
HETATM    1  O   UNL     1      -7.759   5.585  71.147  1.00  0.00    -0.098 OA 
HETATM    2  C   UNL     1      -8.737   6.300  71.276  1.00  0.00    -0.135 C  
HETATM    3  N   UNL     1      -8.824   7.386  72.185  1.00  0.00    -0.123 N  
HETATM    4  C   UNL     1     -13.499   6.793  71.417  1.00  0.00    -0.123 C  
HETATM    5  C   UNL     1     -10.238   7.805  72.269  1.00  0.00    -0.228 C  
HETATM    6  C   UNL     1     -10.626   9.211  71.823  1.00  0.00    -0.313 C  
HETATM    7  N   UNL     1      -9.905   6.292  70.470  1.00  0.00    -0.176 N  
HETATM    8  C   UNL     1     -10.945   6.787  71.361  1.00  0.00    -0.242 C  
HETATM    9  S   UNL     1     -12.224   9.178  70.944  1.00  0.00    -0.116 S  
HETATM   10  C   UNL     1     -12.233   7.346  70.748  1.00  0.00    -0.170 C  
HETATM   11  C   UNL     1     -13.394   9.011  72.336  1.00  0.00    -0.460 C  
HETATM   12  C   UNL     1     -14.374   7.966  71.822  1.00  0.00    -0.589 C  
ENDROOT
BRANCH   3  13
HETATM   13  C   UNL     1      -7.683   8.273  72.045  1.00  0.00    -0.119 C  
BRANCH  13  14
HETATM   14  C   UNL     1      -7.397   8.842  70.694  1.00  0.00    -0.072 A  
HETATM   15  C   UNL     1      -8.019  10.350  68.896  1.00  0.00    -0.123 A  
HETATM   16  C   UNL     1      -6.375   8.628  68.503  1.00  0.00    -0.054 A  
HETATM   17  C   UNL     1      -8.160   9.914  70.213  1.00  0.00    -0.115 A  
HETATM   18  C   UNL     1      -6.512   8.192  69.822  1.00  0.00    -0.036 A  
HETATM   19  C   UNL     1      -7.124   9.709  68.044  1.00  0.00    -0.080 A  
ENDBRANCH  13  14
ENDBRANCH   3  13
BRANCH   7  20
HETATM   20  C   UNL     1      -9.738   6.964  69.173  1.00  0.00    -0.155 C  
BRANCH  20  21
HETATM   21  C   UNL     1      -9.631   6.110  67.933  1.00  0.00    -0.118 A  
HETATM   22  C   UNL     1     -10.730   5.819  67.118  1.00  0.00    -0.358 A  
HETATM   23  C   UNL     1     -10.594   4.980  66.012  1.00  0.00    -0.286 A  
HETATM   24  C   UNL     1      -9.344   4.473  65.676  1.00  0.00    -0.164 A  
HETATM   25  C   UNL     1      -8.228   4.807  66.438  1.00  0.00    -0.107 A  
HETATM   26  C   UNL     1      -8.367   5.629  67.555  1.00  0.00    -0.100 A  
ENDBRANCH  20  21
ENDBRANCH   7  20
TORSDOF 4
ENDMDL
MODEL      141
REMARK 921   NORMALIZED FREE ENERGY PREDICTED BY IDOCK:   -3.40 KCAL/MOL
REMARK 922        TOTAL FREE ENERGY PREDICTED BY IDOCK:   -4.93 KCAL/MOL
REMARK 923 INTER-LIGAND FREE ENERGY PREDICTED BY IDOCK:   -7.08 KCAL/MOL
REMARK 924 INTRA-LIGAND FREE ENERGY PREDICTED BY IDOCK:    2.15 KCAL/MOL
REMARK 927      BINDING AFFINITY PREDICTED BY RF-SCORE:    0.00 PKD
ROOT
HETATM    1  O   UNL     1     -12.136  14.996  69.579  1.00  0.00    -0.302 OA 
HETATM    2  C   UNL     1     -11.837  14.636  68.454  1.00  0.00    -0.295 C  
HETATM    3  N   UNL     1     -11.361  15.500  67.434  1.00  0.00    -0.261 N  
HETATM    4  C   UNL     1     -12.695  11.859  64.647  1.00  0.00     0.193 C  
HETATM    5  C   UNL     1     -11.404  14.767  66.152  1.00  0.00    -0.330 C  
HETATM    6  C   UNL     1     -10.103  14.501  65.403  1.00  0.00    -0.364 C  
HETATM    7  N   UNL     1     -11.767  13.300  67.983  1.00  0.00    -0.340 N  
HETATM    8  C   UNL     1     -12.025  13.420  66.555  1.00  0.00    -0.400 C  
HETATM    9  S   UNL     1     -10.128  12.835  64.662  1.00  0.00    -0.179 S  
HETATM   10  C   UNL     1     -11.593  12.277  65.631  1.00  0.00    -0.380 C  
HETATM   11  C   UNL     1     -11.213  13.101  63.218  1.00  0.00     0.264 C  
HETATM   12  C   UNL     1     -12.111  11.872  63.245  1.00  0.00    -0.466 C  
ENDROOT
BRANCH   3  13
HETATM   13  C   UNL     1     -10.254  16.308  67.913  1.00  0.00    -0.261 C  
BRANCH  13  14
HETATM   14  C   UNL     1     -10.217  17.749  67.522  1.00  0.00    -0.356 A  
HETATM   15  C   UNL     1     -10.005  19.429  65.783  1.00  0.00    -0.183 A  
HETATM   16  C   UNL     1      -9.790  20.067  68.101  1.00  0.00    -0.499 A  
HETATM   17  C   UNL     1     -10.205  18.104  66.166  1.00  0.00    -0.372 A  
HETATM   18  C   UNL     1      -9.993  18.741  68.487  1.00  0.00    -0.450 A  
HETATM   19  C   UNL     1      -9.801  20.410  66.749  1.00  0.00    -0.541 A  
ENDBRANCH  13  14
ENDBRANCH   3  13
BRANCH   7  20
HETATM   20  C   UNL     1     -10.552  12.585  68.401  1.00  0.00    -0.242 C  
BRANCH  20  21
HETATM   21  C   UNL     1     -10.136  11.363  67.620  1.00  0.00    -0.200 A  
HETATM   22  C   UNL     1      -8.905  11.267  66.961  1.00  0.00    -0.153 A  
HETATM   23  C   UNL     1      -8.586  10.139  66.206  1.00  0.00    -0.138 A  
HETATM   24  C   UNL     1      -9.472   9.069  66.151  1.00  0.00    -0.318 A  
HETATM   25  C   UNL     1     -10.672   9.120  66.855  1.00  0.00    -0.149 A  
HETATM   26  C   UNL     1     -11.000  10.255  67.593  1.00  0.00    -0.356 A  
ENDBRANCH  20  21
ENDBRANCH   7  20
TORSDOF 4
ENDMDL
MODEL      142
REMARK 921   NORMALIZED FREE ENERGY PREDICTED BY IDOCK:   -3.22 KCAL/MOL
REMARK 922        TOTAL FREE ENERGY PREDICTED BY IDOCK:   -4.71 KCAL/MOL
REMARK 923 INTER-LIGAND FREE ENERGY PREDICTED BY IDOCK:   -4.06 KCAL/MOL
REMARK 924 INTRA-LIGAND FREE ENERGY PREDICTED BY IDOCK:   -0.65 KCAL/MOL
REMARK 927      BINDING AFFINITY PREDICTED BY RF-SCORE:    0.00 PKD
ROOT
HETATM    1  O   UNL     1      -9.643   3.037  67.776  1.00  0.00    -0.196 OA 
HETATM    2  C   UNL     1      -9.610   4.223  68.055  1.00  0.00    -0.147 C  
HETATM    3  N   UNL     1      -9.890   4.753  69.341  1.00  0.00    -0.203 N  
HETATM    4  C   UNL     1     -10.455   8.775  66.831  1.00  0.00    -0.319 C  
HETATM    5  C   UNL     1     -10.047   6.216  69.212  1.00  0.00    -0.174 C  
HETATM    6  C   UNL     1      -9.075   7.137  69.941  1.00  0.00    -0.141 C  
HETATM    7  N   UNL     1      -9.159   5.277  67.221  1.00  0.00    -0.112 N  
HETATM    8  C   UNL     1      -9.896   6.439  67.699  1.00  0.00    -0.121 C  
HETATM    9  S   UNL     1      -8.660   8.574  68.898  1.00  0.00    -0.127 S  
HETATM   10  C   UNL     1      -9.365   7.836  67.364  1.00  0.00    -0.141 C  
HETATM   11  C   UNL     1     -10.166   9.590  69.073  1.00  0.00    -0.200 C  
HETATM   12  C   UNL     1     -10.421  10.055  67.646  1.00  0.00    -0.297 C  
ENDROOT
BRANCH   3  13
HETATM   13  C   UNL     1      -9.119   4.069  70.363  1.00  0.00    -0.114 C  
BRANCH  13  14
HETATM   14  C   UNL     1      -9.777   3.800  71.677  1.00  0.00    -0.239 A  
HETATM   15  C   UNL     1     -10.980   4.636  73.613  1.00  0.00    -0.392 A  
HETATM   16  C   UNL     1      -9.998   2.432  73.670  1.00  0.00    -0.156 A  
HETATM   17  C   UNL     1     -10.499   4.817  72.317  1.00  0.00    -0.255 A  
HETATM   18  C   UNL     1      -9.519   2.610  72.371  1.00  0.00    -0.168 A  
HETATM   19  C   UNL     1     -10.732   3.444  74.287  1.00  0.00    -0.212 A  
ENDBRANCH  13  14
ENDBRANCH   3  13
BRANCH   7  20
HETATM   20  C   UNL     1      -7.695   5.384  67.134  1.00  0.00    -0.096 C  
BRANCH  20  21
HETATM   21  C   UNL     1      -7.036   5.120  65.802  1.00  0.00    -0.068 A  
HETATM   22  C   UNL     1      -5.973   5.890  65.318  1.00  0.00    -0.025 A  
HETATM   23  C   UNL     1      -5.431   5.644  64.057  1.00  0.00    -0.013 A  
HETATM   24  C   UNL     1      -5.908   4.585  63.292  1.00  0.00    -0.017 A  
HETATM   25  C   UNL     1      -6.920   3.768  63.788  1.00  0.00    -0.045 A  
HETATM   26  C   UNL     1      -7.476   4.026  65.039  1.00  0.00    -0.077 A  
ENDBRANCH  20  21
ENDBRANCH   7  20
TORSDOF 4
ENDMDL
MODEL      143
REMARK 921   NORMALIZED FREE ENERGY PREDICTED BY IDOCK:   -3.19 KCAL/MOL
REMARK 922        TOTAL FREE ENERGY PREDICTED BY IDOCK:   -4.67 KCAL/MOL
REMARK 923 INTER-LIGAND FREE ENERGY PREDICTED BY IDOCK:   -4.92 KCAL/MOL
REMARK 924 INTRA-LIGAND FREE ENERGY PREDICTED BY IDOCK:    0.26 KCAL/MOL
REMARK 927      BINDING AFFINITY PREDICTED BY RF-SCORE:    0.00 PKD
ROOT
HETATM    1  O   UNL     1      -8.312  14.116  69.125  1.00  0.00     0.014 OA 
HETATM    2  C   UNL     1      -9.135  13.761  68.299  1.00  0.00    -0.195 C  
HETATM    3  N   UNL     1      -9.996  12.644  68.451  1.00  0.00    -0.226 N  
HETATM    4  C   UNL     1     -10.368  13.123  63.715  1.00  0.00     0.180 C  
HETATM    5  C   UNL     1     -10.615  12.357  67.141  1.00  0.00    -0.224 C  
HETATM    6  C   UNL     1     -12.128  12.470  66.992  1.00  0.00    -0.077 C  
HETATM    7  N   UNL     1      -9.496  14.450  67.113  1.00  0.00    -0.214 N  
HETATM    8  C   UNL     1      -9.951  13.393  66.221  1.00  0.00    -0.296 C  
HETATM    9  S   UNL     1     -12.554  13.198  65.376  1.00  0.00    -0.352 S  
HETATM   10  C   UNL     1     -10.835  13.767  65.028  1.00  0.00    -0.371 C  
HETATM   11  C   UNL     1     -12.284  11.778  64.261  1.00  0.00    -0.128 C  
HETATM   12  C   UNL     1     -11.553  12.412  63.086  1.00  0.00    -0.291 C  
ENDROOT
BRANCH   3  13
HETATM   13  C   UNL     1     -10.689  12.693  69.725  1.00  0.00     0.660 C  
BRANCH  13  14
HETATM   14  C   UNL     1     -11.425  11.472  70.173  1.00  0.00    -0.258 A  
HETATM   15  C   UNL     1     -13.030  10.442  71.675  1.00  0.00    -0.581 A  
HETATM   16  C   UNL     1     -11.558   9.056  70.357  1.00  0.00    -0.145 A  
HETATM   17  C   UNL     1     -12.447  11.583  71.125  1.00  0.00    -0.442 A  
HETATM   18  C   UNL     1     -10.975  10.197  69.803  1.00  0.00    -0.325 A  
HETATM   19  C   UNL     1     -12.588   9.180  71.288  1.00  0.00    -0.351 A  
ENDBRANCH  13  14
ENDBRANCH   3  13
BRANCH   7  20
HETATM   20  C   UNL     1     -10.396  15.590  67.337  1.00  0.00    -0.266 C  
BRANCH  20  21
HETATM   21  C   UNL     1     -11.138  15.669  68.649  1.00  0.00    -0.317 A  
HETATM   22  C   UNL     1     -10.593  16.263  69.793  1.00  0.00    -0.316 A  
HETATM   23  C   UNL     1     -11.294  16.264  70.998  1.00  0.00    -0.315 A  
HETATM   24  C   UNL     1     -12.574  15.724  71.056  1.00  0.00    -0.470 A  
HETATM   25  C   UNL     1     -13.158  15.189  69.911  1.00  0.00     0.198 A  
HETATM   26  C   UNL     1     -12.450  15.170  68.711  1.00  0.00     0.186 A  
ENDBRANCH  20  21
ENDBRANCH   7  20
TORSDOF 4
ENDMDL
MODEL      144
REMARK 921   NORMALIZED FREE ENERGY PREDICTED BY IDOCK:   -3.09 KCAL/MOL
REMARK 922        TOTAL FREE ENERGY PREDICTED BY IDOCK:   -4.54 KCAL/MOL
REMARK 923 INTER-LIGAND FREE ENERGY PREDICTED BY IDOCK:   -5.11 KCAL/MOL
REMARK 924 INTRA-LIGAND FREE ENERGY PREDICTED BY IDOCK:    0.57 KCAL/MOL
REMARK 927      BINDING AFFINITY PREDICTED BY RF-SCORE:    0.00 PKD
ROOT
HETATM    1  O   UNL     1      -8.334  10.779  69.441  1.00  0.00    -0.116 OA 
HETATM    2  C   UNL     1      -8.978  11.137  68.470  1.00  0.00    -0.168 C  
HETATM    3  N   UNL     1      -8.602  10.896  67.124  1.00  0.00    -0.129 N  
HETATM    4  C   UNL     1     -11.710  14.430  66.318  1.00  0.00    -0.394 C  
HETATM    5  C   UNL     1      -9.452  11.732  66.251  1.00  0.00    -0.224 C  
HETATM    6  C   UNL     1     -10.387  11.056  65.254  1.00  0.00    -0.275 C  
HETATM    7  N   UNL     1     -10.269  11.725  68.480  1.00  0.00    -0.209 N  
HETATM    8  C   UNL     1     -10.297  12.523  67.262  1.00  0.00    -0.220 C  
HETATM    9  S   UNL     1     -11.974  11.951  65.167  1.00  0.00     0.102 S  
HETATM   10  C   UNL     1     -11.654  12.941  66.688  1.00  0.00    -0.372 C  
HETATM   11  C   UNL     1     -11.513  13.399  64.155  1.00  0.00    -0.383 C  
HETATM   12  C   UNL     1     -12.199  14.546  64.885  1.00  0.00    -0.409 C  
ENDROOT
BRANCH   3  13
HETATM   13  C   UNL     1      -8.292   9.493  66.915  1.00  0.00    -0.116 C  
BRANCH  13  14
HETATM   14  C   UNL     1      -7.427   8.808  67.922  1.00  0.00    -0.093 A  
HETATM   15  C   UNL     1      -5.202   8.247  68.716  1.00  0.00    -0.028 A  
HETATM   16  C   UNL     1      -7.120   7.066  69.583  1.00  0.00    -0.071 A  
HETATM   17  C   UNL     1      -6.039   9.002  67.895  1.00  0.00    -0.051 A  
HETATM   18  C   UNL     1      -7.959   7.823  68.764  1.00  0.00    -0.125 A  
HETATM   19  C   UNL     1      -5.743   7.283  69.563  1.00  0.00    -0.023 A  
ENDBRANCH  13  14
ENDBRANCH   3  13
BRANCH   7  20
HETATM   20  C   UNL     1     -11.360  10.763  68.693  1.00  0.00    -0.291 C  
BRANCH  20  21
HETATM   21  C   UNL     1     -11.166   9.677  69.723  1.00  0.00    -0.208 A  
HETATM   22  C   UNL     1     -11.187   9.927  71.100  1.00  0.00    -0.404 A  
HETATM   23  C   UNL     1     -10.949   8.901  72.014  1.00  0.00    -0.412 A  
HETATM   24  C   UNL     1     -10.746   7.602  71.561  1.00  0.00    -0.249 A  
HETATM   25  C   UNL     1     -10.788   7.325  70.198  1.00  0.00    -0.274 A  
HETATM   26  C   UNL     1     -11.006   8.353  69.283  1.00  0.00     0.028 A  
ENDBRANCH  20  21
ENDBRANCH   7  20
TORSDOF 4
ENDMDL
MODEL      145
REMARK 921   NORMALIZED FREE ENERGY PREDICTED BY IDOCK:   -3.08 KCAL/MOL
REMARK 922        TOTAL FREE ENERGY PREDICTED BY IDOCK:   -4.53 KCAL/MOL
REMARK 923 INTER-LIGAND FREE ENERGY PREDICTED BY IDOCK:   -4.03 KCAL/MOL
REMARK 924 INTRA-LIGAND FREE ENERGY PREDICTED BY IDOCK:   -0.51 KCAL/MOL
REMARK 927      BINDING AFFINITY PREDICTED BY RF-SCORE:    0.00 PKD
ROOT
HETATM    1  O   UNL     1     -11.151   8.625  68.285  1.00  0.00     0.103 OA 
HETATM    2  C   UNL     1     -10.122   8.855  67.673  1.00  0.00    -0.218 C  
HETATM    3  N   UNL     1      -9.486  10.122  67.620  1.00  0.00    -0.147 N  
HETATM    4  C   UNL     1      -7.378   8.164  63.809  1.00  0.00    -0.101 C  
HETATM    5  C   UNL     1      -8.464  10.080  66.554  1.00  0.00    -0.126 C  
HETATM    6  C   UNL     1      -6.996  10.269  66.922  1.00  0.00    -0.091 C  
HETATM    7  N   UNL     1      -9.292   7.905  67.024  1.00  0.00    -0.151 N  
HETATM    8  C   UNL     1      -8.647   8.672  65.967  1.00  0.00    -0.155 C  
HETATM    9  S   UNL     1      -5.947   9.152  65.934  1.00  0.00    -0.052 S  
HETATM   10  C   UNL     1      -7.359   8.125  65.344  1.00  0.00    -0.069 C  
HETATM   11  C   UNL     1      -5.927  10.010  64.323  1.00  0.00    -0.130 C  
HETATM   12  C   UNL     1      -6.119   8.867  63.335  1.00  0.00    -0.088 C  
ENDROOT
BRANCH   3  13
HETATM   13  C   UNL     1      -9.300  10.666  68.953  1.00  0.00    -0.184 C  
BRANCH  13  14
HETATM   14  C   UNL     1      -8.897   9.728  70.044  1.00  0.00    -0.245 A  
HETATM   15  C   UNL     1      -9.488   8.487  72.045  1.00  0.00    -0.364 A  
HETATM   16  C   UNL     1      -7.166   8.759  71.442  1.00  0.00    -0.104 A  
HETATM   17  C   UNL     1      -9.865   9.229  70.926  1.00  0.00    -0.363 A  
HETATM   18  C   UNL     1      -7.542   9.498  70.319  1.00  0.00    -0.162 A  
HETATM   19  C   UNL     1      -8.140   8.250  72.300  1.00  0.00    -0.203 A  
ENDBRANCH  13  14
ENDBRANCH   3  13
BRANCH   7  20
HETATM   20  C   UNL     1      -8.430   7.144  67.940  1.00  0.00    -0.121 C  
BRANCH  20  21
HETATM   21  C   UNL     1      -8.838   5.738  68.305  1.00  0.00    -0.109 A  
HETATM   22  C   UNL     1      -9.237   5.376  69.596  1.00  0.00    -0.153 A  
HETATM   23  C   UNL     1      -9.553   4.053  69.900  1.00  0.00    -0.281 A  
HETATM   24  C   UNL     1      -9.531   3.087  68.899  1.00  0.00    -0.176 A  
HETATM   25  C   UNL     1      -9.201   3.444  67.595  1.00  0.00    -0.233 A  
HETATM   26  C   UNL     1      -8.865   4.762  67.295  1.00  0.00    -0.104 A  
ENDBRANCH  20  21
ENDBRANCH   7  20
TORSDOF 4
ENDMDL
MODEL      146
REMARK 921   NORMALIZED FREE ENERGY PREDICTED BY IDOCK:   -3.06 KCAL/MOL
REMARK 922        TOTAL FREE ENERGY PREDICTED BY IDOCK:   -4.51 KCAL/MOL
REMARK 923 INTER-LIGAND FREE ENERGY PREDICTED BY IDOCK:   -4.18 KCAL/MOL
REMARK 924 INTRA-LIGAND FREE ENERGY PREDICTED BY IDOCK:   -0.32 KCAL/MOL
REMARK 927      BINDING AFFINITY PREDICTED BY RF-SCORE:    0.00 PKD
ROOT
HETATM    1  O   UNL     1     -10.501   5.534  68.707  1.00  0.00    -0.209 OA 
HETATM    2  C   UNL     1      -9.537   6.232  68.445  1.00  0.00    -0.121 C  
HETATM    3  N   UNL     1      -9.366   7.567  68.894  1.00  0.00    -0.143 N  
HETATM    4  C   UNL     1      -6.209   7.665  65.313  1.00  0.00    -0.038 C  
HETATM    5  C   UNL     1      -8.252   8.170  68.133  1.00  0.00    -0.129 C  
HETATM    6  C   UNL     1      -7.002   8.624  68.879  1.00  0.00    -0.062 C  
HETATM    7  N   UNL     1      -8.352   5.824  67.780  1.00  0.00    -0.104 N  
HETATM    8  C   UNL     1      -7.864   7.047  67.158  1.00  0.00    -0.109 C  
HETATM    9  S   UNL     1      -5.509   8.240  67.905  1.00  0.00    -0.035 S  
HETATM   10  C   UNL     1      -6.394   7.122  66.737  1.00  0.00    -0.050 C  
HETATM   11  C   UNL     1      -5.557   9.558  66.642  1.00  0.00    -0.046 C  
HETATM   12  C   UNL     1      -5.210   8.807  65.364  1.00  0.00    -0.038 C  
ENDROOT
BRANCH   3  13
HETATM   13  C   UNL     1      -9.564   7.662  70.329  1.00  0.00    -0.172 C  
BRANCH  13  14
HETATM   14  C   UNL     1     -10.737   8.441  70.826  1.00  0.00    -0.244 A  
HETATM   15  C   UNL     1     -11.893  10.568  71.017  1.00  0.00    -0.438 A  
HETATM   16  C   UNL     1     -12.554   8.712  72.412  1.00  0.00    -0.426 A  
HETATM   17  C   UNL     1     -10.901   9.778  70.437  1.00  0.00    -0.370 A  
HETATM   18  C   UNL     1     -11.564   7.919  71.829  1.00  0.00    -0.321 A  
HETATM   19  C   UNL     1     -12.721  10.034  72.001  1.00  0.00    -0.439 A  
ENDBRANCH  13  14
ENDBRANCH   3  13
BRANCH   7  20
HETATM   20  C   UNL     1      -7.420   5.071  68.632  1.00  0.00    -0.070 C  
BRANCH  20  21
HETATM   21  C   UNL     1      -7.993   4.168  69.697  1.00  0.00    -0.056 A  
HETATM   22  C   UNL     1      -8.264   4.607  70.997  1.00  0.00    -0.091 A  
HETATM   23  C   UNL     1      -8.742   3.722  71.963  1.00  0.00    -0.119 A  
HETATM   24  C   UNL     1      -9.011   2.402  71.621  1.00  0.00    -0.138 A  
HETATM   25  C   UNL     1      -8.811   1.966  70.314  1.00  0.00    -0.127 A  
HETATM   26  C   UNL     1      -8.313   2.844  69.354  1.00  0.00    -0.088 A  
ENDBRANCH  20  21
ENDBRANCH   7  20
TORSDOF 4
ENDMDL
MODEL      147
REMARK 921   NORMALIZED FREE ENERGY PREDICTED BY IDOCK:   -3.05 KCAL/MOL
REMARK 922        TOTAL FREE ENERGY PREDICTED BY IDOCK:   -4.49 KCAL/MOL
REMARK 923 INTER-LIGAND FREE ENERGY PREDICTED BY IDOCK:   -3.85 KCAL/MOL
REMARK 924 INTRA-LIGAND FREE ENERGY PREDICTED BY IDOCK:   -0.64 KCAL/MOL
REMARK 927      BINDING AFFINITY PREDICTED BY RF-SCORE:    0.00 PKD
ROOT
HETATM    1  O   UNL     1     -11.114   5.900  68.644  1.00  0.00    -0.284 OA 
HETATM    2  C   UNL     1     -10.312   5.970  69.558  1.00  0.00    -0.233 C  
HETATM    3  N   UNL     1      -9.779   4.850  70.247  1.00  0.00    -0.197 N  
HETATM    4  C   UNL     1      -8.733   8.185  73.501  1.00  0.00    -0.317 C  
HETATM    5  C   UNL     1      -9.097   5.339  71.463  1.00  0.00    -0.145 C  
HETATM    6  C   UNL     1      -7.596   5.116  71.615  1.00  0.00    -0.101 C  
HETATM    7  N   UNL     1      -9.651   7.139  70.018  1.00  0.00    -0.165 N  
HETATM    8  C   UNL     1      -9.368   6.851  71.417  1.00  0.00    -0.156 C  
HETATM    9  S   UNL     1      -6.813   6.577  72.375  1.00  0.00    -0.069 S  
HETATM   10  C   UNL     1      -8.282   7.662  72.129  1.00  0.00    -0.106 C  
HETATM   11  C   UNL     1      -7.289   6.368  74.126  1.00  0.00    -0.085 C  
HETATM   12  C   UNL     1      -7.694   7.779  74.530  1.00  0.00    -0.233 C  
ENDROOT
BRANCH   3  13
HETATM   13  C   UNL     1      -9.253   3.870  69.315  1.00  0.00    -0.157 C  
BRANCH  13  14
HETATM   14  C   UNL     1      -8.238   4.324  68.316  1.00  0.00    -0.090 A  
HETATM   15  C   UNL     1      -7.670   4.834  66.012  1.00  0.00    -0.091 A  
HETATM   16  C   UNL     1      -5.918   4.575  67.652  1.00  0.00    -0.023 A  
HETATM   17  C   UNL     1      -8.626   4.571  66.992  1.00  0.00    -0.104 A  
HETATM   18  C   UNL     1      -6.874   4.314  68.635  1.00  0.00    -0.047 A  
HETATM   19  C   UNL     1      -6.318   4.840  66.343  1.00  0.00    -0.036 A  
ENDBRANCH  13  14
ENDBRANCH   3  13
BRANCH   7  20
HETATM   20  C   UNL     1      -8.530   7.563  69.166  1.00  0.00    -0.136 C  
BRANCH  20  21
HETATM   21  C   UNL     1      -8.790   8.607  68.108  1.00  0.00    -0.142 A  
HETATM   22  C   UNL     1      -8.827   9.977  68.388  1.00  0.00    -0.117 A  
HETATM   23  C   UNL     1      -9.126  10.901  67.387  1.00  0.00    -0.144 A  
HETATM   24  C   UNL     1      -9.331  10.467  66.082  1.00  0.00    -0.210 A  
HETATM   25  C   UNL     1      -9.232   9.114  65.773  1.00  0.00    -0.294 A  
HETATM   26  C   UNL     1      -8.954   8.188  66.777  1.00  0.00    -0.172 A  
ENDBRANCH  20  21
ENDBRANCH   7  20
TORSDOF 4
ENDMDL
MODEL      148
REMARK 921   NORMALIZED FREE ENERGY PREDICTED BY IDOCK:   -3.02 KCAL/MOL
REMARK 922        TOTAL FREE ENERGY PREDICTED BY IDOCK:   -4.46 KCAL/MOL
REMARK 923 INTER-LIGAND FREE ENERGY PREDICTED BY IDOCK:   -4.21 KCAL/MOL
REMARK 924 INTRA-LIGAND FREE ENERGY PREDICTED BY IDOCK:   -0.24 KCAL/MOL
REMARK 927      BINDING AFFINITY PREDICTED BY RF-SCORE:    0.00 PKD
ROOT
HETATM    1  O   UNL     1      -7.729   3.711  69.840  1.00  0.00    -0.048 OA 
HETATM    2  C   UNL     1      -8.354   4.721  70.114  1.00  0.00    -0.075 C  
HETATM    3  N   UNL     1      -7.772   5.920  70.599  1.00  0.00    -0.094 N  
HETATM    4  C   UNL     1     -12.270   6.777  71.953  1.00  0.00    -0.377 C  
HETATM    5  C   UNL     1      -8.856   6.791  71.097  1.00  0.00    -0.137 C  
HETATM    6  C   UNL     1      -9.094   8.140  70.427  1.00  0.00    -0.150 C  
HETATM    7  N   UNL     1      -9.734   4.953  69.878  1.00  0.00    -0.185 N  
HETATM    8  C   UNL     1     -10.105   5.917  70.904  1.00  0.00    -0.197 C  
HETATM    9  S   UNL     1     -10.882   8.479  70.304  1.00  0.00    -0.231 S  
HETATM   10  C   UNL     1     -11.376   6.749  70.705  1.00  0.00    -0.325 C  
HETATM   11  C   UNL     1     -11.274   8.964  72.020  1.00  0.00    -0.352 C  
HETATM   12  C   UNL     1     -12.579   8.226  72.284  1.00  0.00    -0.357 C  
ENDROOT
BRANCH   3  13
HETATM   13  C   UNL     1      -6.667   6.338  69.755  1.00  0.00    -0.056 C  
BRANCH  13  14
HETATM   14  C   UNL     1      -6.874   6.337  68.276  1.00  0.00    -0.071 A  
HETATM   15  C   UNL     1      -6.291   5.448  66.093  1.00  0.00    -0.035 A  
HETATM   16  C   UNL     1      -7.570   7.488  66.256  1.00  0.00    -0.088 A  
HETATM   17  C   UNL     1      -6.243   5.367  67.484  1.00  0.00    -0.034 A  
HETATM   18  C   UNL     1      -7.526   7.407  67.649  1.00  0.00    -0.097 A  
HETATM   19  C   UNL     1      -6.957   6.506  65.480  1.00  0.00    -0.053 A  
ENDBRANCH  13  14
ENDBRANCH   3  13
BRANCH   7  20
HETATM   20  C   UNL     1     -10.051   5.284  68.480  1.00  0.00    -0.165 C  
BRANCH  20  21
HETATM   21  C   UNL     1      -9.711   4.276  67.411  1.00  0.00    -0.210 A  
HETATM   22  C   UNL     1      -9.331   2.961  67.702  1.00  0.00    -0.234 A  
HETATM   23  C   UNL     1      -8.973   2.080  66.683  1.00  0.00    -0.114 A  
HETATM   24  C   UNL     1      -9.051   2.487  65.355  1.00  0.00    -0.123 A  
HETATM   25  C   UNL     1      -9.492   3.770  65.045  1.00  0.00    -0.167 A  
HETATM   26  C   UNL     1      -9.830   4.658  66.064  1.00  0.00    -0.236 A  
ENDBRANCH  20  21
ENDBRANCH   7  20
TORSDOF 4
ENDMDL
MODEL      149
REMARK 921   NORMALIZED FREE ENERGY PREDICTED BY IDOCK:   -2.94 KCAL/MOL
REMARK 922        TOTAL FREE ENERGY PREDICTED BY IDOCK:   -4.36 KCAL/MOL
REMARK 923 INTER-LIGAND FREE ENERGY PREDICTED BY IDOCK:   -4.06 KCAL/MOL
REMARK 924 INTRA-LIGAND FREE ENERGY PREDICTED BY IDOCK:   -0.31 KCAL/MOL
REMARK 927      BINDING AFFINITY PREDICTED BY RF-SCORE:    0.00 PKD
ROOT
HETATM    1  O   UNL     1      -8.695  10.440  65.321  1.00  0.00    -0.165 OA 
HETATM    2  C   UNL     1      -9.117   9.995  66.374  1.00  0.00    -0.149 C  
HETATM    3  N   UNL     1      -9.435   8.631  66.600  1.00  0.00    -0.189 N  
HETATM    4  C   UNL     1     -11.888  10.492  70.249  1.00  0.00    -0.418 C  
HETATM    5  C   UNL     1     -10.191   8.537  67.866  1.00  0.00    -0.218 C  
HETATM    6  C   UNL     1      -9.601   7.746  69.028  1.00  0.00    -0.155 C  
HETATM    7  N   UNL     1      -9.239  10.696  67.602  1.00  0.00    -0.146 N  
HETATM    8  C   UNL     1     -10.323  10.009  68.288  1.00  0.00    -0.193 C  
HETATM    9  S   UNL     1      -9.936   8.594  70.607  1.00  0.00    -0.203 S  
HETATM   10  C   UNL     1     -10.453  10.171  69.806  1.00  0.00    -0.263 C  
HETATM   11  C   UNL     1     -11.694   8.178  70.871  1.00  0.00    -0.244 C  
HETATM   12  C   UNL     1     -12.284   9.504  71.332  1.00  0.00    -0.455 C  
ENDROOT
BRANCH   3  13
HETATM   13  C   UNL     1      -8.337   7.769  66.201  1.00  0.00    -0.129 C  
BRANCH  13  14
HETATM   14  C   UNL     1      -8.650   6.353  65.842  1.00  0.00    -0.151 A  
HETATM   15  C   UNL     1     -10.063   4.399  66.121  1.00  0.00    -0.257 A  
HETATM   16  C   UNL     1      -7.918   4.185  65.036  1.00  0.00    -0.093 A  
HETATM   17  C   UNL     1      -9.833   5.762  66.306  1.00  0.00    -0.136 A  
HETATM   18  C   UNL     1      -7.687   5.549  65.217  1.00  0.00    -0.090 A  
HETATM   19  C   UNL     1      -9.108   3.612  65.483  1.00  0.00    -0.148 A  
ENDBRANCH  13  14
ENDBRANCH   3  13
BRANCH   7  20
HETATM   20  C   UNL     1      -7.968  10.859  68.323  1.00  0.00    -0.121 C  
BRANCH  20  21
HETATM   21  C   UNL     1      -7.248  12.181  68.214  1.00  0.00    -0.095 A  
HETATM   22  C   UNL     1      -7.653  13.324  68.912  1.00  0.00     0.032 A  
HETATM   23  C   UNL     1      -6.989  14.538  68.738  1.00  0.00    -0.104 A  
HETATM   24  C   UNL     1      -5.875  14.606  67.908  1.00  0.00    -0.142 A  
HETATM   25  C   UNL     1      -5.419  13.463  67.259  1.00  0.00     0.331 A  
HETATM   26  C   UNL     1      -6.093  12.254  67.416  1.00  0.00    -0.153 A  
ENDBRANCH  20  21
ENDBRANCH   7  20
TORSDOF 4
ENDMDL
MODEL      150
REMARK 921   NORMALIZED FREE ENERGY PREDICTED BY IDOCK:   -2.77 KCAL/MOL
REMARK 922        TOTAL FREE ENERGY PREDICTED BY IDOCK:   -4.15 KCAL/MOL
REMARK 923 INTER-LIGAND FREE ENERGY PREDICTED BY IDOCK:   -4.39 KCAL/MOL
REMARK 924 INTRA-LIGAND FREE ENERGY PREDICTED BY IDOCK:    0.24 KCAL/MOL
REMARK 927      BINDING AFFINITY PREDICTED BY RF-SCORE:    0.00 PKD
ROOT
HETATM    1  O   UNL     1      -8.462   6.699  66.289  1.00  0.00    -0.119 OA 
HETATM    2  C   UNL     1      -9.141   6.846  67.291  1.00  0.00    -0.124 C  
HETATM    3  N   UNL     1     -10.226   6.009  67.657  1.00  0.00    -0.160 N  
HETATM    4  C   UNL     1     -11.333   9.760  70.397  1.00  0.00    -0.362 C  
HETATM    5  C   UNL     1     -10.976   6.674  68.742  1.00  0.00    -0.260 C  
HETATM    6  C   UNL     1     -11.061   6.003  70.108  1.00  0.00    -0.361 C  
HETATM    7  N   UNL     1      -8.907   7.768  68.344  1.00  0.00    -0.131 N  
HETATM    8  C   UNL     1     -10.233   8.011  68.895  1.00  0.00    -0.209 C  
HETATM    9  S   UNL     1     -10.935   7.248  71.435  1.00  0.00    -0.235 S  
HETATM   10  C   UNL     1     -10.348   8.585  70.310  1.00  0.00    -0.205 C  
HETATM   11  C   UNL     1     -12.606   7.983  71.397  1.00  0.00    -0.289 C  
HETATM   12  C   UNL     1     -12.317   9.473  71.517  1.00  0.00    -0.465 C  
ENDROOT
BRANCH   3  13
HETATM   13  C   UNL     1      -9.836   4.611  67.628  1.00  0.00    -0.141 C  
BRANCH  13  14
HETATM   14  C   UNL     1      -9.739   3.937  66.299  1.00  0.00    -0.176 A  
HETATM   15  C   UNL     1      -8.453   2.601  64.732  1.00  0.00    -0.090 A  
HETATM   16  C   UNL     1     -10.422   3.774  63.976  1.00  0.00    -0.271 A  
HETATM   17  C   UNL     1      -8.645   3.106  66.017  1.00  0.00    -0.119 A  
HETATM   18  C   UNL     1     -10.619   4.278  65.263  1.00  0.00    -0.165 A  
HETATM   19  C   UNL     1      -9.343   2.932  63.713  1.00  0.00    -0.106 A  
ENDBRANCH  13  14
ENDBRANCH   3  13
BRANCH   7  20
HETATM   20  C   UNL     1      -7.846   7.353  69.274  1.00  0.00    -0.116 C  
BRANCH  20  21
HETATM   21  C   UNL     1      -7.309   5.947  69.166  1.00  0.00    -0.083 A  
HETATM   22  C   UNL     1      -7.800   4.888  69.936  1.00  0.00    -0.066 A  
HETATM   23  C   UNL     1      -7.236   3.616  69.842  1.00  0.00    -0.042 A  
HETATM   24  C   UNL     1      -6.213   3.378  68.931  1.00  0.00    -0.029 A  
HETATM   25  C   UNL     1      -5.757   4.405  68.109  1.00  0.00    -0.021 A  
HETATM   26  C   UNL     1      -6.307   5.681  68.218  1.00  0.00    -0.041 A  
ENDBRANCH  20  21
ENDBRANCH   7  20
TORSDOF 4
ENDMDL
MODEL      151
REMARK 921   NORMALIZED FREE ENERGY PREDICTED BY IDOCK:   -2.60 KCAL/MOL
REMARK 922        TOTAL FREE ENERGY PREDICTED BY IDOCK:   -3.94 KCAL/MOL
REMARK 923 INTER-LIGAND FREE ENERGY PREDICTED BY IDOCK:   -4.15 KCAL/MOL
REMARK 924 INTRA-LIGAND FREE ENERGY PREDICTED BY IDOCK:    0.22 KCAL/MOL
REMARK 927      BINDING AFFINITY PREDICTED BY RF-SCORE:    0.00 PKD
ROOT
HETATM    1  O   UNL     1      -9.539  11.207  68.703  1.00  0.00    -0.190 OA 
HETATM    2  C   UNL     1      -9.431   9.994  68.665  1.00  0.00    -0.156 C  
HETATM    3  N   UNL     1      -9.768   9.191  67.545  1.00  0.00    -0.153 N  
HETATM    4  C   UNL     1      -9.798   5.749  70.854  1.00  0.00    -0.229 C  
HETATM    5  C   UNL     1      -9.794   7.780  67.980  1.00  0.00    -0.163 C  
HETATM    6  C   UNL     1      -8.811   6.792  67.360  1.00  0.00    -0.117 C  
HETATM    7  N   UNL     1      -8.829   9.166  69.648  1.00  0.00    -0.142 N  
HETATM    8  C   UNL     1      -9.504   7.886  69.485  1.00  0.00    -0.160 C  
HETATM    9  S   UNL     1      -8.197   5.632  68.626  1.00  0.00    -0.103 S  
HETATM   10  C   UNL     1      -8.834   6.626  70.042  1.00  0.00    -0.141 C  
HETATM   11  C   UNL     1      -9.624   4.507  68.804  1.00  0.00    -0.159 C  
HETATM   12  C   UNL     1      -9.724   4.333  70.313  1.00  0.00    -0.280 C  
ENDROOT
BRANCH   3  13
HETATM   13  C   UNL     1      -9.141   9.696  66.337  1.00  0.00    -0.156 C  
BRANCH  13  14
HETATM   14  C   UNL     1      -9.941  10.599  65.455  1.00  0.00    -0.333 A  
HETATM   15  C   UNL     1     -10.246  11.660  63.293  1.00  0.00    -0.445 A  
HETATM   16  C   UNL     1     -11.497  12.444  65.203  1.00  0.00    -0.379 A  
HETATM   17  C   UNL     1      -9.621  10.706  64.095  1.00  0.00    -0.353 A  
HETATM   18  C   UNL     1     -10.875  11.486  66.006  1.00  0.00    -0.330 A  
HETATM   19  C   UNL     1     -11.186  12.526  63.847  1.00  0.00    -0.496 A  
ENDBRANCH  13  14
ENDBRANCH   3  13
BRANCH   7  20
HETATM   20  C   UNL     1      -7.359   9.174  69.614  1.00  0.00    -0.065 C  
BRANCH  20  21
HETATM   21  C   UNL     1      -6.632  10.278  70.341  1.00  0.00    -0.126 A  
HETATM   22  C   UNL     1      -5.824  10.045  71.459  1.00  0.00     0.091 A  
HETATM   23  C   UNL     1      -5.215  11.103  72.132  1.00  0.00     0.289 A  
HETATM   24  C   UNL     1      -5.360  12.402  71.657  1.00  0.00     0.086 A  
HETATM   25  C   UNL     1      -6.106  12.644  70.506  1.00  0.00     0.057 A  
HETATM   26  C   UNL     1      -6.731  11.589  69.845  1.00  0.00     0.002 A  
ENDBRANCH  20  21
ENDBRANCH   7  20
TORSDOF 4
ENDMDL
MODEL      152
REMARK 921   NORMALIZED FREE ENERGY PREDICTED BY IDOCK:   -2.56 KCAL/MOL
REMARK 922        TOTAL FREE ENERGY PREDICTED BY IDOCK:   -3.88 KCAL/MOL
REMARK 923 INTER-LIGAND FREE ENERGY PREDICTED BY IDOCK:   -4.67 KCAL/MOL
REMARK 924 INTRA-LIGAND FREE ENERGY PREDICTED BY IDOCK:    0.79 KCAL/MOL
REMARK 927      BINDING AFFINITY PREDICTED BY RF-SCORE:    0.00 PKD
ROOT
HETATM    1  O   UNL     1      -7.040  15.212  66.970  1.00  0.00    -0.199 OA 
HETATM    2  C   UNL     1      -7.694  14.240  67.305  1.00  0.00    -0.120 C  
HETATM    3  N   UNL     1      -7.789  13.754  68.634  1.00  0.00    -0.131 N  
HETATM    4  C   UNL     1      -9.268   9.811  66.385  1.00  0.00    -0.200 C  
HETATM    5  C   UNL     1      -8.404  12.412  68.592  1.00  0.00     0.006 C  
HETATM    6  C   UNL     1      -9.745  12.186  69.283  1.00  0.00     0.619 C  
HETATM    7  N   UNL     1      -8.586  13.497  66.489  1.00  0.00     0.086 N  
HETATM    8  C   UNL     1      -8.579  12.169  67.085  1.00  0.00    -0.185 C  
HETATM    9  S   UNL     1     -10.795  11.081  68.282  1.00  0.00    -0.237 S  
HETATM   10  C   UNL     1      -9.739  11.218  66.777  1.00  0.00    -0.193 C  
HETATM   11  C   UNL     1     -10.040   9.456  68.634  1.00  0.00    -0.190 C  
HETATM   12  C   UNL     1      -9.997   8.805  67.258  1.00  0.00    -0.281 C  
ENDROOT
BRANCH   3  13
HETATM   13  C   UNL     1      -8.141  14.822  69.553  1.00  0.00     0.014 C  
BRANCH  13  14
HETATM   14  C   UNL     1      -9.426  15.550  69.323  1.00  0.00    -0.263 A  
HETATM   15  C   UNL     1     -11.851  15.577  69.432  1.00  0.00    -0.392 A  
HETATM   16  C   UNL     1     -10.688  17.251  68.139  1.00  0.00    -0.363 A  
HETATM   17  C   UNL     1     -10.631  14.998  69.779  1.00  0.00    -0.232 A  
HETATM   18  C   UNL     1      -9.465  16.675  68.488  1.00  0.00    -0.239 A  
HETATM   19  C   UNL     1     -11.879  16.705  68.616  1.00  0.00     0.423 A  
ENDBRANCH  13  14
ENDBRANCH   3  13
BRANCH   7  20
HETATM   20  C   UNL     1      -9.888  14.149  66.285  1.00  0.00    -0.306 C  
BRANCH  20  21
HETATM   21  C   UNL     1     -10.881  13.491  65.358  1.00  0.00    -0.299 A  
HETATM   22  C   UNL     1     -12.254  13.453  65.622  1.00  0.00    -0.510 A  
HETATM   23  C   UNL     1     -13.127  12.785  64.763  1.00  0.00    -0.022 A  
HETATM   24  C   UNL     1     -12.641  12.200  63.599  1.00  0.00    -0.616 A  
HETATM   25  C   UNL     1     -11.287  12.286  63.287  1.00  0.00    -0.414 A  
HETATM   26  C   UNL     1     -10.412  12.936  64.155  1.00  0.00    -0.429 A  
ENDBRANCH  20  21
ENDBRANCH   7  20
TORSDOF 4
ENDMDL
MODEL      153
REMARK 921   NORMALIZED FREE ENERGY PREDICTED BY IDOCK:   -2.38 KCAL/MOL
REMARK 922        TOTAL FREE ENERGY PREDICTED BY IDOCK:   -3.67 KCAL/MOL
REMARK 923 INTER-LIGAND FREE ENERGY PREDICTED BY IDOCK:   -4.97 KCAL/MOL
REMARK 924 INTRA-LIGAND FREE ENERGY PREDICTED BY IDOCK:    1.30 KCAL/MOL
REMARK 927      BINDING AFFINITY PREDICTED BY RF-SCORE:    0.00 PKD
ROOT
HETATM    1  O   UNL     1      -7.158  12.763  67.143  1.00  0.00    -0.116 OA 
HETATM    2  C   UNL     1      -7.542  13.918  67.190  1.00  0.00     0.070 C  
HETATM    3  N   UNL     1      -8.799  14.367  66.710  1.00  0.00    -0.228 N  
HETATM    4  C   UNL     1      -6.593  18.600  66.840  1.00  0.00    -0.204 C  
HETATM    5  C   UNL     1      -8.774  15.843  66.661  1.00  0.00    -0.289 C  
HETATM    6  C   UNL     1      -9.743  16.634  67.533  1.00  0.00    -0.247 C  
HETATM    7  N   UNL     1      -6.898  14.999  67.845  1.00  0.00    -0.140 N  
HETATM    8  C   UNL     1      -7.338  16.170  67.100  1.00  0.00    -0.215 C  
HETATM    9  S   UNL     1      -8.922  18.114  68.212  1.00  0.00    -0.301 S  
HETATM   10  C   UNL     1      -7.227  17.547  67.761  1.00  0.00    -0.177 C  
HETATM   11  C   UNL     1      -8.915  19.218  66.758  1.00  0.00    -0.327 C  
HETATM   12  C   UNL     1      -7.512  19.808  66.796  1.00  0.00    -0.272 C  
ENDROOT
BRANCH   3  13
HETATM   13  C   UNL     1      -9.878  13.554  67.240  1.00  0.00    -0.237 C  
BRANCH  13  14
HETATM   14  C   UNL     1      -9.784  12.071  67.081  1.00  0.00    -0.203 A  
HETATM   15  C   UNL     1      -9.926  10.119  65.645  1.00  0.00    -0.348 A  
HETATM   16  C   UNL     1      -9.915   9.848  68.043  1.00  0.00    -0.179 A  
HETATM   17  C   UNL     1      -9.847  11.503  65.802  1.00  0.00    -0.266 A  
HETATM   18  C   UNL     1      -9.833  11.232  68.202  1.00  0.00    -0.190 A  
HETATM   19  C   UNL     1      -9.956   9.293  66.765  1.00  0.00    -0.312 A  
ENDBRANCH  13  14
ENDBRANCH   3  13
BRANCH   7  20
HETATM   20  C   UNL     1      -7.083  15.008  69.304  1.00  0.00    -0.170 C  
BRANCH  20  21
HETATM   21  C   UNL     1      -6.411  13.929  70.117  1.00  0.00    -0.083 A  
HETATM   22  C   UNL     1      -5.788  14.183  71.344  1.00  0.00    -0.189 A  
HETATM   23  C   UNL     1      -5.131  13.165  72.035  1.00  0.00    -0.098 A  
HETATM   24  C   UNL     1      -5.143  11.868  71.533  1.00  0.00    -0.041 A  
HETATM   25  C   UNL     1      -5.815  11.585  70.347  1.00  0.00    -0.155 A  
HETATM   26  C   UNL     1      -6.454  12.606  69.647  1.00  0.00    -0.050 A  
ENDBRANCH  20  21
ENDBRANCH   7  20
TORSDOF 4
ENDMDL
MODEL      154
REMARK 921   NORMALIZED FREE ENERGY PREDICTED BY IDOCK:   -2.35 KCAL/MOL
REMARK 922        TOTAL FREE ENERGY PREDICTED BY IDOCK:   -3.64 KCAL/MOL
REMARK 923 INTER-LIGAND FREE ENERGY PREDICTED BY IDOCK:   -3.15 KCAL/MOL
REMARK 924 INTRA-LIGAND FREE ENERGY PREDICTED BY IDOCK:   -0.49 KCAL/MOL
REMARK 927      BINDING AFFINITY PREDICTED BY RF-SCORE:    0.00 PKD
ROOT
HETATM    1  O   UNL     1      -5.860  10.066  69.105  1.00  0.00    -0.038 OA 
HETATM    2  C   UNL     1      -6.789  10.695  68.631  1.00  0.00    -0.059 C  
HETATM    3  N   UNL     1      -7.063  10.800  67.242  1.00  0.00    -0.088 N  
HETATM    4  C   UNL     1      -9.621  14.557  68.704  1.00  0.00    -0.219 C  
HETATM    5  C   UNL     1      -8.060  11.873  67.048  1.00  0.00    -0.167 C  
HETATM    6  C   UNL     1      -9.423  11.526  66.460  1.00  0.00    -0.204 C  
HETATM    7  N   UNL     1      -7.844  11.318  69.346  1.00  0.00     0.048 N  
HETATM    8  C   UNL     1      -8.261  12.408  68.475  1.00  0.00    -0.086 C  
HETATM    9  S   UNL     1     -10.734  12.482  67.290  1.00  0.00    -0.238 S  
HETATM   10  C   UNL     1      -9.648  13.023  68.679  1.00  0.00    -0.023 C  
HETATM   11  C   UNL     1     -10.524  14.124  66.518  1.00  0.00    -0.280 C  
HETATM   12  C   UNL     1     -10.646  15.068  67.706  1.00  0.00    -0.264 C  
ENDROOT
BRANCH   3  13
HETATM   13  C   UNL     1      -7.096   9.489  66.620  1.00  0.00    -0.086 C  
BRANCH  13  14
HETATM   14  C   UNL     1      -6.931   9.411  65.137  1.00  0.00    -0.092 A  
HETATM   15  C   UNL     1      -5.937  10.292  63.105  1.00  0.00    -0.148 A  
HETATM   16  C   UNL     1      -7.784   8.743  62.966  1.00  0.00    -0.118 A  
HETATM   17  C   UNL     1      -5.991  10.230  64.497  1.00  0.00    -0.132 A  
HETATM   18  C   UNL     1      -7.837   8.678  64.359  1.00  0.00    -0.138 A  
HETATM   19  C   UNL     1      -6.831   9.546  62.340  1.00  0.00    -0.099 A  
ENDBRANCH  13  14
ENDBRANCH   3  13
BRANCH   7  20
HETATM   20  C   UNL     1      -8.879  10.383  69.815  1.00  0.00     0.066 C  
BRANCH  20  21
HETATM   21  C   UNL     1      -8.455   8.996  70.230  1.00  0.00    -0.180 A  
HETATM   22  C   UNL     1      -7.800   8.734  71.439  1.00  0.00    -0.166 A  
HETATM   23  C   UNL     1      -7.378   7.443  71.755  1.00  0.00    -0.079 A  
HETATM   24  C   UNL     1      -7.661   6.390  70.892  1.00  0.00    -0.093 A  
HETATM   25  C   UNL     1      -8.370   6.623  69.717  1.00  0.00    -0.132 A  
HETATM   26  C   UNL     1      -8.774   7.915  69.391  1.00  0.00    -0.138 A  
ENDBRANCH  20  21
ENDBRANCH   7  20
TORSDOF 4
ENDMDL
MODEL      155
REMARK 921   NORMALIZED FREE ENERGY PREDICTED BY IDOCK:   -2.28 KCAL/MOL
REMARK 922        TOTAL FREE ENERGY PREDICTED BY IDOCK:   -3.54 KCAL/MOL
REMARK 923 INTER-LIGAND FREE ENERGY PREDICTED BY IDOCK:   -4.18 KCAL/MOL
REMARK 924 INTRA-LIGAND FREE ENERGY PREDICTED BY IDOCK:    0.64 KCAL/MOL
REMARK 927      BINDING AFFINITY PREDICTED BY RF-SCORE:    0.00 PKD
ROOT
HETATM    1  O   UNL     1     -10.627  10.548  66.504  1.00  0.00    -0.231 OA 
HETATM    2  C   UNL     1      -9.733  11.077  67.143  1.00  0.00    -0.174 C  
HETATM    3  N   UNL     1      -9.701  11.164  68.559  1.00  0.00    -0.190 N  
HETATM    4  C   UNL     1      -6.529  14.605  67.614  1.00  0.00    -0.157 C  
HETATM    5  C   UNL     1      -8.644  12.124  68.938  1.00  0.00     0.233 C  
HETATM    6  C   UNL     1      -7.454  11.635  69.757  1.00  0.00     0.608 C  
HETATM    7  N   UNL     1      -8.506  11.573  66.633  1.00  0.00    -0.171 N  
HETATM    8  C   UNL     1      -8.135  12.619  67.575  1.00  0.00    -0.178 C  
HETATM    9  S   UNL     1      -5.919  12.435  69.182  1.00  0.00    -0.089 S  
HETATM   10  C   UNL     1      -6.674  13.077  67.628  1.00  0.00    -0.157 C  
HETATM   11  C   UNL     1      -6.083  14.097  69.920  1.00  0.00    -0.140 C  
HETATM   12  C   UNL     1      -5.648  15.010  68.783  1.00  0.00    -0.087 C  
ENDROOT
BRANCH   3  13
HETATM   13  C   UNL     1      -9.924   9.864  69.164  1.00  0.00    -0.198 C  
BRANCH  13  14
HETATM   14  C   UNL     1     -11.095   9.706  70.078  1.00  0.00    -0.293 A  
HETATM   15  C   UNL     1     -12.742  10.721  71.545  1.00  0.00    -0.536 A  
HETATM   16  C   UNL     1     -12.400   8.333  71.594  1.00  0.00    -0.349 A  
HETATM   17  C   UNL     1     -11.757  10.842  70.566  1.00  0.00    -0.449 A  
HETATM   18  C   UNL     1     -11.416   8.451  70.612  1.00  0.00    -0.235 A  
HETATM   19  C   UNL     1     -13.066   9.467  72.056  1.00  0.00    -0.528 A  
ENDBRANCH  13  14
ENDBRANCH   3  13
BRANCH   7  20
HETATM   20  C   UNL     1      -7.514  10.526  66.347  1.00  0.00    -0.133 C  
BRANCH  20  21
HETATM   21  C   UNL     1      -7.856   9.100  66.700  1.00  0.00    -0.100 A  
HETATM   22  C   UNL     1      -7.690   8.577  67.988  1.00  0.00    -0.103 A  
HETATM   23  C   UNL     1      -7.968   7.237  68.255  1.00  0.00    -0.124 A  
HETATM   24  C   UNL     1      -8.473   6.420  67.249  1.00  0.00    -0.111 A  
HETATM   25  C   UNL     1      -8.707   6.941  65.979  1.00  0.00    -0.151 A  
HETATM   26  C   UNL     1      -8.410   8.275  65.707  1.00  0.00    -0.142 A  
ENDBRANCH  20  21
ENDBRANCH   7  20
TORSDOF 4
ENDMDL
MODEL      156
REMARK 921   NORMALIZED FREE ENERGY PREDICTED BY IDOCK:   -1.99 KCAL/MOL
REMARK 922        TOTAL FREE ENERGY PREDICTED BY IDOCK:   -3.18 KCAL/MOL
REMARK 923 INTER-LIGAND FREE ENERGY PREDICTED BY IDOCK:   -3.28 KCAL/MOL
REMARK 924 INTRA-LIGAND FREE ENERGY PREDICTED BY IDOCK:    0.09 KCAL/MOL
REMARK 927      BINDING AFFINITY PREDICTED BY RF-SCORE:    0.00 PKD
ROOT
HETATM    1  O   UNL     1     -10.703  10.623  66.354  1.00  0.00    -0.214 OA 
HETATM    2  C   UNL     1      -9.769  10.997  67.042  1.00  0.00    -0.182 C  
HETATM    3  N   UNL     1      -9.350  10.366  68.241  1.00  0.00    -0.145 N  
HETATM    4  C   UNL     1      -7.213  14.579  68.933  1.00  0.00    -0.125 C  
HETATM    5  C   UNL     1      -8.408  11.269  68.934  1.00  0.00    -0.071 C  
HETATM    6  C   UNL     1      -6.970  10.817  69.156  1.00  0.00    -0.091 C  
HETATM    7  N   UNL     1      -8.841  12.022  66.724  1.00  0.00    -0.196 N  
HETATM    8  C   UNL     1      -8.401  12.508  68.024  1.00  0.00    -0.171 C  
HETATM    9  S   UNL     1      -5.821  12.212  68.911  1.00  0.00    -0.065 S  
HETATM   10  C   UNL     1      -7.086  13.289  68.111  1.00  0.00    -0.111 C  
HETATM   11  C   UNL     1      -6.049  13.140  70.466  1.00  0.00    -0.017 C  
HETATM   12  C   UNL     1      -6.118  14.583  69.985  1.00  0.00    -0.151 C  
ENDROOT
BRANCH   3  13
HETATM   13  C   UNL     1      -9.166   8.940  68.040  1.00  0.00    -0.139 C  
BRANCH  13  14
HETATM   14  C   UNL     1      -9.931   8.003  68.918  1.00  0.00    -0.199 A  
HETATM   15  C   UNL     1     -10.824   5.780  69.309  1.00  0.00    -0.374 A  
HETATM   16  C   UNL     1     -11.596   7.636  70.644  1.00  0.00    -0.251 A  
HETATM   17  C   UNL     1      -9.985   6.639  68.600  1.00  0.00    -0.151 A  
HETATM   18  C   UNL     1     -10.755   8.497  69.938  1.00  0.00    -0.224 A  
HETATM   19  C   UNL     1     -11.626   6.278  70.332  1.00  0.00    -0.371 A  
ENDBRANCH  13  14
ENDBRANCH   3  13
BRANCH   7  20
HETATM   20  C   UNL     1      -7.808  11.613  65.761  1.00  0.00     0.552 C  
BRANCH  20  21
HETATM   21  C   UNL     1      -7.650  10.142  65.462  1.00  0.00    -0.146 A  
HETATM   22  C   UNL     1      -8.460   9.465  64.545  1.00  0.00    -0.189 A  
HETATM   23  C   UNL     1      -8.314   8.093  64.341  1.00  0.00    -0.050 A  
HETATM   24  C   UNL     1      -7.314   7.396  65.011  1.00  0.00    -0.078 A  
HETATM   25  C   UNL     1      -6.456   8.068  65.877  1.00  0.00    -0.045 A  
HETATM   26  C   UNL     1      -6.615   9.434  66.096  1.00  0.00    -0.070 A  
ENDBRANCH  20  21
ENDBRANCH   7  20
TORSDOF 4
ENDMDL
MODEL      157
REMARK 921   NORMALIZED FREE ENERGY PREDICTED BY IDOCK:   -1.89 KCAL/MOL
REMARK 922        TOTAL FREE ENERGY PREDICTED BY IDOCK:   -3.06 KCAL/MOL
REMARK 923 INTER-LIGAND FREE ENERGY PREDICTED BY IDOCK:   -3.02 KCAL/MOL
REMARK 924 INTRA-LIGAND FREE ENERGY PREDICTED BY IDOCK:   -0.04 KCAL/MOL
REMARK 927      BINDING AFFINITY PREDICTED BY RF-SCORE:    0.00 PKD
ROOT
HETATM    1  O   UNL     1      -8.330  13.766  66.897  1.00  0.00    -0.139 OA 
HETATM    2  C   UNL     1      -8.769  14.892  67.053  1.00  0.00    -0.238 C  
HETATM    3  N   UNL     1      -8.750  15.906  66.060  1.00  0.00    -0.287 N  
HETATM    4  C   UNL     1      -9.419  18.716  69.862  1.00  0.00     0.981 C  
HETATM    5  C   UNL     1      -9.080  17.192  66.708  1.00  0.00    -0.247 C  
HETATM    6  C   UNL     1     -10.340  17.938  66.283  1.00  0.00    -0.364 C  
HETATM    7  N   UNL     1      -9.500  15.370  68.171  1.00  0.00    -0.201 N  
HETATM    8  C   UNL     1      -9.217  16.798  68.188  1.00  0.00    -0.224 C  
HETATM    9  S   UNL     1     -11.152  18.688  67.733  1.00  0.00     0.321 S  
HETATM   10  C   UNL     1     -10.163  17.726  68.955  1.00  0.00    -0.345 C  
HETATM   11  C   UNL     1     -10.080  20.134  68.037  1.00  0.00    -0.379 C  
HETATM   12  C   UNL     1      -9.919  20.116  69.550  1.00  0.00     0.037 C  
ENDROOT
BRANCH   3  13
HETATM   13  C   UNL     1      -9.302  15.419  64.810  1.00  0.00     2.008 C  
BRANCH  13  14
HETATM   14  C   UNL     1     -10.544  14.589  64.867  1.00  0.00    -0.450 A  
HETATM   15  C   UNL     1     -12.870  14.366  65.525  1.00  0.00    -0.243 A  
HETATM   16  C   UNL     1     -11.607  12.408  64.895  1.00  0.00    -0.392 A  
HETATM   17  C   UNL     1     -11.745  15.161  65.309  1.00  0.00    -0.135 A  
HETATM   18  C   UNL     1     -10.480  13.202  64.675  1.00  0.00    -0.411 A  
HETATM   19  C   UNL     1     -12.801  12.991  65.314  1.00  0.00    -0.284 A  
ENDBRANCH  13  14
ENDBRANCH   3  13
BRANCH   7  20
HETATM   20  C   UNL     1     -10.909  14.951  68.184  1.00  0.00    -0.256 C  
BRANCH  20  21
HETATM   21  C   UNL     1     -11.323  13.858  69.138  1.00  0.00    -0.331 A  
HETATM   22  C   UNL     1     -11.250  12.500  68.810  1.00  0.00    -0.318 A  
HETATM   23  C   UNL     1     -11.695  11.526  69.704  1.00  0.00    -0.419 A  
HETATM   24  C   UNL     1     -12.163  11.899  70.959  1.00  0.00    -0.275 A  
HETATM   25  C   UNL     1     -12.179  13.242  71.326  1.00  0.00    -0.117 A  
HETATM   26  C   UNL     1     -11.753  14.217  70.426  1.00  0.00    -0.312 A  
ENDBRANCH  20  21
ENDBRANCH   7  20
TORSDOF 4
ENDMDL
MODEL      158
REMARK 921   NORMALIZED FREE ENERGY PREDICTED BY IDOCK:   -0.69 KCAL/MOL
REMARK 922        TOTAL FREE ENERGY PREDICTED BY IDOCK:   -1.58 KCAL/MOL
REMARK 923 INTER-LIGAND FREE ENERGY PREDICTED BY IDOCK:   -2.62 KCAL/MOL
REMARK 924 INTRA-LIGAND FREE ENERGY PREDICTED BY IDOCK:    1.04 KCAL/MOL
REMARK 927      BINDING AFFINITY PREDICTED BY RF-SCORE:    0.00 PKD
ROOT
HETATM    1  O   UNL     1     -10.615  10.477  67.243  1.00  0.00    -0.231 OA 
HETATM    2  C   UNL     1      -9.670  10.347  68.002  1.00  0.00    -0.150 C  
HETATM    3  N   UNL     1      -9.649   9.467  69.115  1.00  0.00    -0.164 N  
HETATM    4  C   UNL     1      -6.039  12.297  70.442  1.00  0.00    -0.012 C  
HETATM    5  C   UNL     1      -8.481   9.811  69.952  1.00  0.00    -0.201 C  
HETATM    6  C   UNL     1      -7.378   8.777  70.151  1.00  0.00    -0.055 C  
HETATM    7  N   UNL     1      -8.381  10.921  67.856  1.00  0.00    -0.117 N  
HETATM    8  C   UNL     1      -7.891  11.028  69.223  1.00  0.00    -0.052 C  
HETATM    9  S   UNL     1      -5.743   9.584  70.134  1.00  0.00    -0.039 S  
HETATM   10  C   UNL     1      -6.384  11.174  69.454  1.00  0.00    -0.088 C  
HETATM   11  C   UNL     1      -5.699  10.340  71.795  1.00  0.00     0.244 C  
HETATM   12  C   UNL     1      -5.131  11.725  71.516  1.00  0.00    -0.033 C  
ENDROOT
BRANCH   3  13
HETATM   13  C   UNL     1     -10.049   8.128  68.725  1.00  0.00    -0.199 C  
BRANCH  13  14
HETATM   14  C   UNL     1     -10.299   7.126  69.806  1.00  0.00    -0.224 A  
HETATM   15  C   UNL     1     -10.118   6.500  72.144  1.00  0.00    -0.194 A  
HETATM   16  C   UNL     1     -10.654   4.826  70.490  1.00  0.00     0.072 A  
HETATM   17  C   UNL     1     -10.049   7.467  71.142  1.00  0.00    -0.189 A  
HETATM   18  C   UNL     1     -10.589   5.793  69.486  1.00  0.00    -0.390 A  
HETATM   19  C   UNL     1     -10.424   5.181  71.818  1.00  0.00    -0.268 A  
ENDBRANCH  13  14
ENDBRANCH   3  13
BRANCH   7  20
HETATM   20  C   UNL     1      -7.530  10.230  66.876  1.00  0.00    -0.101 C  
BRANCH  20  21
HETATM   21  C   UNL     1      -7.873   8.807  66.507  1.00  0.00    -0.103 A  
HETATM   22  C   UNL     1      -8.838   8.485  65.547  1.00  0.00    -0.196 A  
HETATM   23  C   UNL     1      -9.160   7.156  65.278  1.00  0.00     0.384 A  
HETATM   24  C   UNL     1      -8.476   6.132  65.925  1.00  0.00    -0.145 A  
HETATM   25  C   UNL     1      -7.466   6.435  66.834  1.00  0.00    -0.084 A  
HETATM   26  C   UNL     1      -7.158   7.764  67.118  1.00  0.00    -0.085 A  
ENDBRANCH  20  21
ENDBRANCH   7  20
TORSDOF 4
ENDMDL
MODEL      159
REMARK 921   NORMALIZED FREE ENERGY PREDICTED BY IDOCK:   -0.65 KCAL/MOL
REMARK 922        TOTAL FREE ENERGY PREDICTED BY IDOCK:   -1.54 KCAL/MOL
REMARK 923 INTER-LIGAND FREE ENERGY PREDICTED BY IDOCK:   -2.92 KCAL/MOL
REMARK 924 INTRA-LIGAND FREE ENERGY PREDICTED BY IDOCK:    1.38 KCAL/MOL
REMARK 927      BINDING AFFINITY PREDICTED BY RF-SCORE:    0.00 PKD
ROOT
HETATM    1  O   UNL     1     -11.984  13.503  70.576  1.00  0.00    -0.326 OA 
HETATM    2  C   UNL     1     -11.630  14.191  69.634  1.00  0.00    -0.292 C  
HETATM    3  N   UNL     1     -11.676  15.608  69.612  1.00  0.00    -0.342 N  
HETATM    4  C   UNL     1     -11.368  14.887  64.902  1.00  0.00    -0.415 C  
HETATM    5  C   UNL     1     -11.463  16.056  68.220  1.00  0.00    -0.291 C  
HETATM    6  C   UNL     1     -10.240  16.904  67.889  1.00  0.00    -0.308 C  
HETATM    7  N   UNL     1     -10.984  13.742  68.453  1.00  0.00    -0.245 N  
HETATM    8  C   UNL     1     -11.365  14.728  67.452  1.00  0.00    -0.351 C  
HETATM    9  S   UNL     1      -9.545  16.412  66.277  1.00  0.00    -0.330 S  
HETATM   10  C   UNL     1     -10.519  14.850  66.181  1.00  0.00    -0.306 C  
HETATM   11  C   UNL     1     -10.727  17.193  65.124  1.00  0.00     0.004 C  
HETATM   12  C   UNL     1     -10.953  16.100  64.089  1.00  0.00     0.595 C  
ENDROOT
BRANCH   3  13
HETATM   13  C   UNL     1     -11.036  16.166  70.790  1.00  0.00    -0.253 C  
BRANCH  13  14
HETATM   14  C   UNL     1     -11.759  16.068  72.094  1.00  0.00    -0.587 A  
HETATM   15  C   UNL     1     -13.366  14.916  73.501  1.00  0.00     0.001 A  
HETATM   16  C   UNL     1     -12.620  17.132  74.097  1.00  0.00     0.472 A  
HETATM   17  C   UNL     1     -12.558  14.950  72.366  1.00  0.00    -0.425 A  
HETATM   18  C   UNL     1     -11.807  17.166  72.963  1.00  0.00     0.486 A  
HETATM   19  C   UNL     1     -13.394  16.005  74.368  1.00  0.00     0.867 A  
ENDBRANCH  13  14
ENDBRANCH   3  13
BRANCH   7  20
HETATM   20  C   UNL     1      -9.551  13.463  68.628  1.00  0.00    -0.060 C  
BRANCH  20  21
HETATM   21  C   UNL     1      -9.068  12.046  68.438  1.00  0.00    -0.158 A  
HETATM   22  C   UNL     1      -7.881  11.734  67.767  1.00  0.00    -0.135 A  
HETATM   23  C   UNL     1      -7.503  10.407  67.568  1.00  0.00    -0.093 A  
HETATM   24  C   UNL     1      -8.280   9.379  68.091  1.00  0.00    -0.118 A  
HETATM   25  C   UNL     1      -9.429   9.674  68.819  1.00  0.00    -0.148 A  
HETATM   26  C   UNL     1      -9.817  11.000  69.001  1.00  0.00    -0.165 A  
ENDBRANCH  20  21
ENDBRANCH   7  20
TORSDOF 4
ENDMDL
MODEL      160
REMARK 921   NORMALIZED FREE ENERGY PREDICTED BY IDOCK:    5.30 KCAL/MOL
REMARK 922        TOTAL FREE ENERGY PREDICTED BY IDOCK:    5.80 KCAL/MOL
REMARK 923 INTER-LIGAND FREE ENERGY PREDICTED BY IDOCK:   -0.60 KCAL/MOL
REMARK 924 INTRA-LIGAND FREE ENERGY PREDICTED BY IDOCK:    6.40 KCAL/MOL
REMARK 927      BINDING AFFINITY PREDICTED BY RF-SCORE:    0.00 PKD
ROOT
HETATM    1  O   UNL     1      -9.466  14.695  70.378  1.00  0.00     0.765 OA 
HETATM    2  C   UNL     1      -9.893  14.935  69.262  1.00  0.00    -0.159 C  
HETATM    3  N   UNL     1     -10.238  16.229  68.794  1.00  0.00    -0.235 N  
HETATM    4  C   UNL     1     -12.643  13.692  65.542  1.00  0.00    -0.541 C  
HETATM    5  C   UNL     1     -10.992  16.079  67.533  1.00  0.00    -0.261 C  
HETATM    6  C   UNL     1     -10.415  16.659  66.247  1.00  0.00    -0.268 C  
HETATM    7  N   UNL     1      -9.998  14.022  68.180  1.00  0.00    -0.235 N  
HETATM    8  C   UNL     1     -11.094  14.552  67.382  1.00  0.00    -0.314 C  
HETATM    9  S   UNL     1     -10.728  15.534  64.847  1.00  0.00    -0.301 S  
HETATM   10  C   UNL     1     -11.216  14.116  65.919  1.00  0.00    -0.313 C  
HETATM   11  C   UNL     1     -12.494  15.860  64.514  1.00  0.00     0.560 C  
HETATM   12  C   UNL     1     -13.055  14.461  64.299  1.00  0.00     0.908 C  
ENDROOT
BRANCH   3  13
HETATM   13  C   UNL     1      -9.158  17.170  69.031  1.00  0.00    -0.123 C  
BRANCH  13  14
HETATM   14  C   UNL     1      -8.848  18.166  67.961  1.00  0.00    -0.286 A  
HETATM   15  C   UNL     1      -9.233  18.991  65.710  1.00  0.00     0.336 A  
HETATM   16  C   UNL     1      -7.309  19.750  66.955  1.00  0.00    -0.257 A  
HETATM   17  C   UNL     1      -9.609  18.185  66.784  1.00  0.00    -0.301 A  
HETATM   18  C   UNL     1      -7.686  18.946  68.032  1.00  0.00    -0.298 A  
HETATM   19  C   UNL     1      -8.086  19.776  65.798  1.00  0.00    -0.142 A  
ENDBRANCH  13  14
ENDBRANCH   3  13
BRANCH   7  20
HETATM   20  C   UNL     1      -8.722  13.757  67.500  1.00  0.00    -0.194 C  
BRANCH  20  21
HETATM   21  C   UNL     1      -7.570  13.226  68.318  1.00  0.00    -0.139 A  
HETATM   22  C   UNL     1      -6.235  13.529  68.032  1.00  0.00    -0.136 A  
HETATM   23  C   UNL     1      -5.201  12.971  68.783  1.00  0.00    -0.068 A  
HETATM   24  C   UNL     1      -5.496  12.150  69.866  1.00  0.00    -0.100 A  
HETATM   25  C   UNL     1      -6.821  11.893  70.205  1.00  0.00     0.815 A  
HETATM   26  C   UNL     1      -7.854  12.434  69.443  1.00  0.00     0.685 A  
ENDBRANCH  20  21
ENDBRANCH   7  20
TORSDOF 4
ENDMDL
MODEL      161
REMARK 921   NORMALIZED FREE ENERGY PREDICTED BY IDOCK:    8.09 KCAL/MOL
REMARK 922        TOTAL FREE ENERGY PREDICTED BY IDOCK:    9.25 KCAL/MOL
REMARK 923 INTER-LIGAND FREE ENERGY PREDICTED BY IDOCK:    8.43 KCAL/MOL
REMARK 924 INTRA-LIGAND FREE ENERGY PREDICTED BY IDOCK:    0.82 KCAL/MOL
REMARK 927      BINDING AFFINITY PREDICTED BY RF-SCORE:    0.00 PKD
ROOT
HETATM    1  O   UNL     1      -6.719  15.440  68.274  1.00  0.00    -0.107 OA 
HETATM    2  C   UNL     1      -7.429  16.423  68.401  1.00  0.00    -0.171 C  
HETATM    3  N   UNL     1      -7.326  17.596  67.610  1.00  0.00    -0.191 N  
HETATM    4  C   UNL     1      -9.796  19.466  71.243  1.00  0.00     2.707 C  
HETATM    5  C   UNL     1      -8.129  18.657  68.251  1.00  0.00    -0.314 C  
HETATM    6  C   UNL     1      -9.322  19.242  67.503  1.00  0.00    -0.306 C  
HETATM    7  N   UNL     1      -8.567  16.543  69.239  1.00  0.00    -0.145 N  
HETATM    8  C   UNL     1      -8.638  17.969  69.528  1.00  0.00     0.721 C  
HETATM    9  S   UNL     1     -10.704  19.547  68.653  1.00  0.00     0.546 S  
HETATM   10  C   UNL     1      -9.964  18.555  70.019  1.00  0.00     1.061 C  
HETATM   11  C   UNL     1     -10.143  21.071  69.489  1.00  0.00     1.266 C  
HETATM   12  C   UNL     1     -10.475  20.791  70.948  1.00  0.00     2.844 C  
ENDROOT
BRANCH   3  13
HETATM   13  C   UNL     1      -7.324  17.270  66.195  1.00  0.00    -0.281 C  
BRANCH  13  14
HETATM   14  C   UNL     1      -6.634  18.208  65.259  1.00  0.00     0.025 A  
HETATM   15  C   UNL     1      -6.577  20.357  64.132  1.00  0.00    -0.085 A  
HETATM   16  C   UNL     1      -5.129  18.574  63.391  1.00  0.00     0.014 A  
HETATM   17  C   UNL     1      -7.103  19.521  65.116  1.00  0.00     0.045 A  
HETATM   18  C   UNL     1      -5.651  17.737  64.378  1.00  0.00     1.149 A  
HETATM   19  C   UNL     1      -5.589  19.885  63.273  1.00  0.00    -0.333 A  
ENDBRANCH  13  14
ENDBRANCH   3  13
BRANCH   7  20
HETATM   20  C   UNL     1      -9.773  15.893  68.704  1.00  0.00    -0.207 C  
BRANCH  20  21
HETATM   21  C   UNL     1      -9.694  15.251  67.341  1.00  0.00    -0.208 A  
HETATM   22  C   UNL     1     -10.302  15.802  66.207  1.00  0.00    -0.320 A  
HETATM   23  C   UNL     1     -10.249  15.144  64.979  1.00  0.00    -0.332 A  
HETATM   24  C   UNL     1      -9.536  13.956  64.859  1.00  0.00     0.767 A  
HETATM   25  C   UNL     1      -8.869  13.429  65.962  1.00  0.00     0.524 A  
HETATM   26  C   UNL     1      -8.939  14.075  67.194  1.00  0.00    -0.241 A  
ENDBRANCH  20  21
ENDBRANCH   7  20
TORSDOF 4
ENDMDL
MODEL      162
REMARK 921   NORMALIZED FREE ENERGY PREDICTED BY IDOCK:   11.00 KCAL/MOL
REMARK 922        TOTAL FREE ENERGY PREDICTED BY IDOCK:   12.84 KCAL/MOL
REMARK 923 INTER-LIGAND FREE ENERGY PREDICTED BY IDOCK:   11.11 KCAL/MOL
REMARK 924 INTRA-LIGAND FREE ENERGY PREDICTED BY IDOCK:    1.73 KCAL/MOL
REMARK 927      BINDING AFFINITY PREDICTED BY RF-SCORE:    0.00 PKD
ROOT
HETATM    1  O   UNL     1     -10.418  14.939  71.327  1.00  0.00     0.319 OA 
HETATM    2  C   UNL     1     -11.168  13.979  71.360  1.00  0.00     1.475 C  
HETATM    3  N   UNL     1     -12.124  13.741  72.381  1.00  0.00     0.460 N  
HETATM    4  C   UNL     1     -11.929   9.310  70.614  1.00  0.00    -0.206 C  
HETATM    5  C   UNL     1     -12.614  12.355  72.240  1.00  0.00     0.513 C  
HETATM    6  C   UNL     1     -14.088  12.113  71.935  1.00  0.00     0.873 C  
HETATM    7  N   UNL     1     -11.341  13.004  70.344  1.00  0.00     0.328 N  
HETATM    8  C   UNL     1     -11.774  11.818  71.071  1.00  0.00     0.650 C  
HETATM    9  S   UNL     1     -14.274  10.732  70.759  1.00  0.00     3.109 S  
HETATM   10  C   UNL     1     -12.489  10.704  70.300  1.00  0.00    -0.304 C  
HETATM   11  C   UNL     1     -13.992   9.294  71.849  1.00  0.00    -0.295 C  
HETATM   12  C   UNL     1     -13.088   8.408  71.003  1.00  0.00     0.077 C  
ENDROOT
BRANCH   3  13
HETATM   13  C   UNL     1     -12.950  14.915  72.603  1.00  0.00    -0.412 C  
BRANCH  13  14
HETATM   14  C   UNL     1     -12.271  16.187  72.993  1.00  0.00    -0.641 A  
HETATM   15  C   UNL     1     -12.111  18.084  74.500  1.00  0.00     1.267 A  
HETATM   16  C   UNL     1     -10.950  18.130  72.384  1.00  0.00     2.970 A  
HETATM   17  C   UNL     1     -12.610  16.817  74.198  1.00  0.00    -0.133 A  
HETATM   18  C   UNL     1     -11.446  16.861  72.082  1.00  0.00     0.433 A  
HETATM   19  C   UNL     1     -11.279  18.737  73.595  1.00  0.00     2.753 A  
ENDBRANCH  13  14
ENDBRANCH   3  13
BRANCH   7  20
HETATM   20  C   UNL     1     -12.171  13.458  69.219  1.00  0.00    -0.176 C  
BRANCH  20  21
HETATM   21  C   UNL     1     -11.561  13.469  67.839  1.00  0.00    -0.377 A  
HETATM   22  C   UNL     1     -11.946  14.379  66.848  1.00  0.00    -0.425 A  
HETATM   23  C   UNL     1     -11.394  14.317  65.569  1.00  0.00    -0.325 A  
HETATM   24  C   UNL     1     -10.405  13.381  65.286  1.00  0.00    -0.330 A  
HETATM   25  C   UNL     1      -9.962  12.513  66.280  1.00  0.00    -0.263 A  
HETATM   26  C   UNL     1     -10.529  12.561  67.552  1.00  0.00    -0.231 A  
ENDBRANCH  20  21
ENDBRANCH   7  20
TORSDOF 4
ENDMDL
MODEL      163
REMARK 921   NORMALIZED FREE ENERGY PREDICTED BY IDOCK:   11.27 KCAL/MOL
REMARK 922        TOTAL FREE ENERGY PREDICTED BY IDOCK:   13.18 KCAL/MOL
REMARK 923 INTER-LIGAND FREE ENERGY PREDICTED BY IDOCK:   12.00 KCAL/MOL
REMARK 924 INTRA-LIGAND FREE ENERGY PREDICTED BY IDOCK:    1.18 KCAL/MOL
REMARK 927      BINDING AFFINITY PREDICTED BY RF-SCORE:    0.00 PKD
ROOT
HETATM    1  O   UNL     1      -6.849  15.638  68.297  1.00  0.00    -0.110 OA 
HETATM    2  C   UNL     1      -7.767  14.969  67.856  1.00  0.00    -0.134 C  
HETATM    3  N   UNL     1      -8.831  14.449  68.637  1.00  0.00    -0.183 N  
HETATM    4  C   UNL     1      -9.334  11.584  64.851  1.00  0.00    -0.085 C  
HETATM    5  C   UNL     1      -9.561  13.458  67.822  1.00  0.00    -0.213 C  
HETATM    6  C   UNL     1     -11.024  13.711  67.475  1.00  0.00    -0.268 C  
HETATM    7  N   UNL     1      -8.038  14.699  66.489  1.00  0.00     0.303 N  
HETATM    8  C   UNL     1      -8.745  13.427  66.520  1.00  0.00     0.105 C  
HETATM    9  S   UNL     1     -11.371  13.183  65.765  1.00  0.00    -0.316 S  
HETATM   10  C   UNL     1      -9.592  13.027  65.308  1.00  0.00     0.144 C  
HETATM   11  C   UNL     1     -11.456  11.370  65.959  1.00  0.00     0.088 C  
HETATM   12  C   UNL     1     -10.670  10.869  64.756  1.00  0.00    -0.248 C  
ENDROOT
BRANCH   3  13
HETATM   13  C   UNL     1      -9.435  15.490  69.450  1.00  0.00    -0.278 C  
BRANCH  13  14
HETATM   14  C   UNL     1     -10.350  16.462  68.779  1.00  0.00    -0.275 A  
HETATM   15  C   UNL     1     -10.645  18.526  67.535  1.00  0.00    -0.461 A  
HETATM   16  C   UNL     1     -12.552  17.458  68.559  1.00  0.00     4.440 A  
HETATM   17  C   UNL     1      -9.816  17.519  68.030  1.00  0.00    -0.299 A  
HETATM   18  C   UNL     1     -11.725  16.447  69.051  1.00  0.00    -0.054 A  
HETATM   19  C   UNL     1     -12.012  18.493  67.797  1.00  0.00     2.697 A  
ENDBRANCH  13  14
ENDBRANCH   3  13
BRANCH   7  20
HETATM   20  C   UNL     1      -8.672  15.817  65.776  1.00  0.00     0.292 C  
BRANCH  20  21
HETATM   21  C   UNL     1      -7.828  17.021  65.436  1.00  0.00     1.715 A  
HETATM   22  C   UNL     1      -6.513  16.916  64.969  1.00  0.00     3.881 A  
HETATM   23  C   UNL     1      -5.752  18.058  64.720  1.00  0.00     0.219 A  
HETATM   24  C   UNL     1      -6.320  19.317  64.878  1.00  0.00    -0.267 A  
HETATM   25  C   UNL     1      -7.648  19.438  65.278  1.00  0.00     0.425 A  
HETATM   26  C   UNL     1      -8.402  18.298  65.546  1.00  0.00     0.886 A  
ENDBRANCH  20  21
ENDBRANCH   7  20
TORSDOF 4
ENDMDL
MODEL      164
REMARK 921   NORMALIZED FREE ENERGY PREDICTED BY IDOCK:   14.44 KCAL/MOL
REMARK 922        TOTAL FREE ENERGY PREDICTED BY IDOCK:   17.08 KCAL/MOL
REMARK 923 INTER-LIGAND FREE ENERGY PREDICTED BY IDOCK:   17.38 KCAL/MOL
REMARK 924 INTRA-LIGAND FREE ENERGY PREDICTED BY IDOCK:   -0.30 KCAL/MOL
REMARK 927      BINDING AFFINITY PREDICTED BY RF-SCORE:    0.00 PKD
ROOT
HETATM    1  O   UNL     1      -6.713  15.435  68.284  1.00  0.00    -0.107 OA 
HETATM    2  C   UNL     1      -7.483  16.360  68.477  1.00  0.00    -0.181 C  
HETATM    3  N   UNL     1      -7.471  17.580  67.752  1.00  0.00    -0.188 N  
HETATM    4  C   UNL     1      -9.981  19.081  71.527  1.00  0.00     3.673 C  
HETATM    5  C   UNL     1      -8.328  18.549  68.466  1.00  0.00    -0.334 C  
HETATM    6  C   UNL     1      -9.571  19.095  67.772  1.00  0.00    -0.313 C  
HETATM    7  N   UNL     1      -8.608  16.359  69.341  1.00  0.00    -0.095 N  
HETATM    8  C   UNL     1      -8.764  17.759  69.710  1.00  0.00     1.342 C  
HETATM    9  S   UNL     1     -10.945  19.245  68.961  1.00  0.00     1.725 S  
HETATM   10  C   UNL     1     -10.116  18.229  70.256  1.00  0.00     1.554 C  
HETATM   11  C   UNL     1     -10.467  20.754  69.871  1.00  0.00     1.030 C  
HETATM   12  C   UNL     1     -10.750  20.373  71.318  1.00  0.00     4.022 C  
ENDROOT
BRANCH   3  13
HETATM   13  C   UNL     1      -7.478  17.333  66.322  1.00  0.00    -0.319 C  
BRANCH  13  14
HETATM   14  C   UNL     1      -6.884  18.372  65.427  1.00  0.00    -0.124 A  
HETATM   15  C   UNL     1      -5.132  19.033  63.882  1.00  0.00    -0.260 A  
HETATM   16  C   UNL     1      -6.588  20.706  64.835  1.00  0.00    -0.274 A  
HETATM   17  C   UNL     1      -5.802  18.042  64.599  1.00  0.00     0.469 A  
HETATM   18  C   UNL     1      -7.262  19.715  65.550  1.00  0.00    -0.246 A  
HETATM   19  C   UNL     1      -5.527  20.363  63.997  1.00  0.00    -0.256 A  
ENDBRANCH  13  14
ENDBRANCH   3  13
BRANCH   7  20
HETATM   20  C   UNL     1      -9.780  15.663  68.790  1.00  0.00    -0.212 C  
BRANCH  20  21
HETATM   21  C   UNL     1      -9.837  14.159  68.903  1.00  0.00    -0.110 A  
HETATM   22  C   UNL     1     -10.308  13.340  67.871  1.00  0.00    -0.239 A  
HETATM   23  C   UNL     1     -10.393  11.958  68.040  1.00  0.00    -0.209 A  
HETATM   24  C   UNL     1      -9.952  11.376  69.224  1.00  0.00     0.086 A  
HETATM   25  C   UNL     1      -9.419  12.171  70.235  1.00  0.00     4.270 A  
HETATM   26  C   UNL     1      -9.352  13.553  70.074  1.00  0.00     2.674 A  
ENDBRANCH  20  21
ENDBRANCH   7  20
TORSDOF 4
ENDMDL
MODEL      165
REMARK 921   NORMALIZED FREE ENERGY PREDICTED BY IDOCK:   21.94 KCAL/MOL
REMARK 922        TOTAL FREE ENERGY PREDICTED BY IDOCK:   26.34 KCAL/MOL
REMARK 923 INTER-LIGAND FREE ENERGY PREDICTED BY IDOCK:   25.48 KCAL/MOL
REMARK 924 INTRA-LIGAND FREE ENERGY PREDICTED BY IDOCK:    0.86 KCAL/MOL
REMARK 927      BINDING AFFINITY PREDICTED BY RF-SCORE:    0.00 PKD
ROOT
HETATM    1  O   UNL     1      -8.695  15.685  70.941  1.00  0.00     1.864 OA 
HETATM    2  C   UNL     1      -8.519  14.521  70.625  1.00  0.00     2.426 C  
HETATM    3  N   UNL     1      -9.559  13.600  70.336  1.00  0.00     3.166 N  
HETATM    4  C   UNL     1      -6.078  10.432  71.136  1.00  0.00     0.131 C  
HETATM    5  C   UNL     1      -8.977  12.243  70.299  1.00  0.00     4.871 C  
HETATM    6  C   UNL     1      -9.022  11.449  68.999  1.00  0.00     0.090 C  
HETATM    7  N   UNL     1      -7.275  13.898  70.347  1.00  0.00     0.751 N  
HETATM    8  C   UNL     1      -7.508  12.497  70.672  1.00  0.00     4.038 C  
HETATM    9  S   UNL     1      -7.469  10.520  68.770  1.00  0.00    -0.105 S  
HETATM   10  C   UNL     1      -6.566  11.441  70.086  1.00  0.00     0.050 C  
HETATM   11  C   UNL     1      -7.706   9.134  69.934  1.00  0.00    -0.087 C  
HETATM   12  C   UNL     1      -6.346   9.032  70.611  1.00  0.00    -0.049 C  
ENDROOT
BRANCH   3  13
HETATM   13  C   UNL     1     -10.486  14.153  69.365  1.00  0.00     0.022 C  
BRANCH  13  14
HETATM   14  C   UNL     1     -10.859  15.594  69.491  1.00  0.00    -0.271 A  
HETATM   15  C   UNL     1     -12.532  17.273  70.018  1.00  0.00     5.735 A  
HETATM   16  C   UNL     1     -10.512  17.911  68.859  1.00  0.00    -0.162 A  
HETATM   17  C   UNL     1     -12.098  15.948  70.042  1.00  0.00    -0.264 A  
HETATM   18  C   UNL     1     -10.075  16.586  68.886  1.00  0.00    -0.266 A  
HETATM   19  C   UNL     1     -11.738  18.254  69.430  1.00  0.00     4.663 A  
ENDBRANCH  13  14
ENDBRANCH   3  13
BRANCH   7  20
HETATM   20  C   UNL     1      -6.736  14.211  69.016  1.00  0.00    -0.107 C  
BRANCH  20  21
HETATM   21  C   UNL     1      -6.471  15.657  68.673  1.00  0.00    -0.107 A  
HETATM   22  C   UNL     1      -5.635  16.476  69.441  1.00  0.00    -0.148 A  
HETATM   23  C   UNL     1      -5.463  17.821  69.117  1.00  0.00    -0.190 A  
HETATM   24  C   UNL     1      -6.078  18.346  67.985  1.00  0.00    -0.184 A  
HETATM   25  C   UNL     1      -6.858  17.528  67.173  1.00  0.00    -0.196 A  
HETATM   26  C   UNL     1      -7.047  16.188  67.508  1.00  0.00    -0.191 A  
ENDBRANCH  20  21
ENDBRANCH   7  20
TORSDOF 4
ENDMDL
MODEL      166
REMARK 921   NORMALIZED FREE ENERGY PREDICTED BY IDOCK:   24.59 KCAL/MOL
REMARK 922        TOTAL FREE ENERGY PREDICTED BY IDOCK:   29.61 KCAL/MOL
REMARK 923 INTER-LIGAND FREE ENERGY PREDICTED BY IDOCK:   23.03 KCAL/MOL
REMARK 924 INTRA-LIGAND FREE ENERGY PREDICTED BY IDOCK:    6.57 KCAL/MOL
REMARK 927      BINDING AFFINITY PREDICTED BY RF-SCORE:    0.00 PKD
ROOT
HETATM    1  O   UNL     1      -8.465   4.761  71.129  1.00  0.00    -0.102 OA 
HETATM    2  C   UNL     1      -8.322   5.559  70.219  1.00  0.00    -0.110 C  
HETATM    3  N   UNL     1      -7.209   5.585  69.340  1.00  0.00    -0.064 N  
HETATM    4  C   UNL     1      -8.793  10.015  68.526  1.00  0.00    -0.120 C  
HETATM    5  C   UNL     1      -7.244   6.855  68.587  1.00  0.00    -0.088 C  
HETATM    6  C   UNL     1      -7.403   6.818  67.071  1.00  0.00    -0.082 C  
HETATM    7  N   UNL     1      -9.275   6.508  69.767  1.00  0.00    -0.145 N  
HETATM    8  C   UNL     1      -8.462   7.571  69.193  1.00  0.00    -0.136 C  
HETATM    9  S   UNL     1      -8.496   8.167  66.516  1.00  0.00    -0.137 S  
HETATM   10  C   UNL     1      -9.115   8.547  68.210  1.00  0.00    -0.138 C  
HETATM   11  C   UNL     1      -7.376   9.605  66.628  1.00  0.00    -0.090 C  
HETATM   12  C   UNL     1      -8.262  10.668  67.262  1.00  0.00    -0.116 C  
ENDROOT
BRANCH   3  13
HETATM   13  C   UNL     1      -6.963   4.270  68.776  1.00  0.00    -0.051 C  
BRANCH  13  14
HETATM   14  C   UNL     1      -7.491   3.983  67.408  1.00  0.00    -0.068 A  
HETATM   15  C   UNL     1      -8.404   4.807  65.314  1.00  0.00    -0.127 A  
HETATM   16  C   UNL     1      -8.557   2.458  65.850  1.00  0.00    -0.113 A  
HETATM   17  C   UNL     1      -7.759   5.041  66.528  1.00  0.00    -0.092 A  
HETATM   18  C   UNL     1      -7.908   2.690  67.064  1.00  0.00    -0.071 A  
HETATM   19  C   UNL     1      -8.799   3.515  64.974  1.00  0.00    -0.124 A  
ENDBRANCH  13  14
ENDBRANCH   3  13
BRANCH   7  20
HETATM   20  C   UNL     1     -10.338   5.933  68.931  1.00  0.00    -0.228 C  
BRANCH  20  21
HETATM   21  C   UNL     1     -10.621   4.455  69.048  1.00  0.00     0.988 A  
HETATM   22  C   UNL     1     -11.052   3.678  67.968  1.00  0.00     5.412 A  
HETATM   23  C   UNL     1     -11.353   2.327  68.136  1.00  0.00     9.522 A  
HETATM   24  C   UNL     1     -11.169   1.726  69.376  1.00  0.00     5.721 A  
HETATM   25  C   UNL     1     -10.677   2.469  70.446  1.00  0.00     2.771 A  
HETATM   26  C   UNL     1     -10.395   3.823  70.283  1.00  0.00     0.821 A  
ENDBRANCH  20  21
ENDBRANCH   7  20
TORSDOF 4
ENDMDL
MODEL      167
REMARK 921   NORMALIZED FREE ENERGY PREDICTED BY IDOCK:   26.87 KCAL/MOL
REMARK 922        TOTAL FREE ENERGY PREDICTED BY IDOCK:   32.42 KCAL/MOL
REMARK 923 INTER-LIGAND FREE ENERGY PREDICTED BY IDOCK:   14.77 KCAL/MOL
REMARK 924 INTRA-LIGAND FREE ENERGY PREDICTED BY IDOCK:   17.65 KCAL/MOL
REMARK 927      BINDING AFFINITY PREDICTED BY RF-SCORE:    0.00 PKD
ROOT
HETATM    1  O   UNL     1     -11.718  14.387  65.686  1.00  0.00    -0.347 OA 
HETATM    2  C   UNL     1     -11.190  15.397  66.119  1.00  0.00    -0.161 C  
HETATM    3  N   UNL     1     -11.879  16.601  66.415  1.00  0.00     1.507 N  
HETATM    4  C   UNL     1      -7.468  18.412  66.159  1.00  0.00    -0.280 C  
HETATM    5  C   UNL     1     -10.877  17.668  66.616  1.00  0.00     0.031 C  
HETATM    6  C   UNL     1     -10.778  18.349  67.977  1.00  0.00    -0.249 C  
HETATM    7  N   UNL     1      -9.842  15.533  66.540  1.00  0.00    -0.251 N  
HETATM    8  C   UNL     1      -9.552  16.944  66.329  1.00  0.00    -0.276 C  
HETATM    9  S   UNL     1      -9.033  18.667  68.400  1.00  0.00    -0.333 S  
HETATM   10  C   UNL     1      -8.370  17.572  67.074  1.00  0.00    -0.219 C  
HETATM   11  C   UNL     1      -8.669  20.117  67.353  1.00  0.00    -0.344 C  
HETATM   12  C   UNL     1      -7.295  19.783  66.788  1.00  0.00    -0.261 C  
ENDROOT
BRANCH   3  13
HETATM   13  C   UNL     1     -13.029  16.346  67.262  1.00  0.00     4.523 C  
BRANCH  13  14
HETATM   14  C   UNL     1     -13.069  15.060  68.023  1.00  0.00     2.738 A  
HETATM   15  C   UNL     1     -13.415  13.896  70.125  1.00  0.00     0.997 A  
HETATM   16  C   UNL     1     -12.363  12.753  68.277  1.00  0.00     0.272 A  
HETATM   17  C   UNL     1     -13.524  15.049  69.349  1.00  0.00     1.928 A  
HETATM   18  C   UNL     1     -12.475  13.905  67.498  1.00  0.00     0.098 A  
HETATM   19  C   UNL     1     -12.838  12.748  69.588  1.00  0.00     0.795 A  
ENDBRANCH  13  14
ENDBRANCH   3  13
BRANCH   7  20
HETATM   20  C   UNL     1      -9.576  14.972  67.873  1.00  0.00    -0.203 C  
BRANCH  20  21
HETATM   21  C   UNL     1     -10.190  15.653  69.072  1.00  0.00    -0.225 A  
HETATM   22  C   UNL     1     -11.394  16.361  69.007  1.00  0.00    -0.253 A  
HETATM   23  C   UNL     1     -11.896  17.020  70.128  1.00  0.00     1.857 A  
HETATM   24  C   UNL     1     -11.227  16.927  71.344  1.00  0.00     0.639 A  
HETATM   25  C   UNL     1     -10.062  16.171  71.442  1.00  0.00     2.412 A  
HETATM   26  C   UNL     1      -9.550  15.529  70.317  1.00  0.00     0.377 A  
ENDBRANCH  20  21
ENDBRANCH   7  20
TORSDOF 4
ENDMDL
MODEL      168
REMARK 921   NORMALIZED FREE ENERGY PREDICTED BY IDOCK:   32.69 KCAL/MOL
REMARK 922        TOTAL FREE ENERGY PREDICTED BY IDOCK:   39.60 KCAL/MOL
REMARK 923 INTER-LIGAND FREE ENERGY PREDICTED BY IDOCK:   37.23 KCAL/MOL
REMARK 924 INTRA-LIGAND FREE ENERGY PREDICTED BY IDOCK:    2.37 KCAL/MOL
REMARK 927      BINDING AFFINITY PREDICTED BY RF-SCORE:    0.00 PKD
ROOT
HETATM    1  O   UNL     1      -8.694  15.730  71.169  1.00  0.00     2.785 OA 
HETATM    2  C   UNL     1      -8.512  15.076  70.157  1.00  0.00     0.644 C  
HETATM    3  N   UNL     1      -9.521  14.339  69.484  1.00  0.00     0.354 N  
HETATM    4  C   UNL     1      -5.726  12.160  67.573  1.00  0.00    -0.117 C  
HETATM    5  C   UNL     1      -8.866  13.450  68.503  1.00  0.00    -0.068 C  
HETATM    6  C   UNL     1      -9.158  13.638  67.018  1.00  0.00    -0.248 C  
HETATM    7  N   UNL     1      -7.326  15.032  69.379  1.00  0.00    -0.183 N  
HETATM    8  C   UNL     1      -7.372  13.719  68.749  1.00  0.00    -0.103 C  
HETATM    9  S   UNL     1      -7.639  13.395  66.038  1.00  0.00     3.686 S  
HETATM   10  C   UNL     1      -6.520  13.472  67.501  1.00  0.00    -0.100 C  
HETATM   11  C   UNL     1      -7.492  11.575  66.050  1.00  0.00     0.312 C  
HETATM   12  C   UNL     1      -6.007  11.364  66.311  1.00  0.00    -0.044 C  
ENDROOT
BRANCH   3  13
HETATM   13  C   UNL     1     -10.688  15.165  69.235  1.00  0.00    -0.250 C  
BRANCH  13  14
HETATM   14  C   UNL     1     -11.864  14.534  68.564  1.00  0.00    -0.355 A  
HETATM   15  C   UNL     1     -14.271  14.250  68.415  1.00  0.00    11.050 A  
HETATM   16  C   UNL     1     -12.807  12.720  67.257  1.00  0.00     2.013 A  
HETATM   17  C   UNL     1     -13.162  14.938  68.907  1.00  0.00     2.091 A  
HETATM   18  C   UNL     1     -11.696  13.409  67.745  1.00  0.00    -0.394 A  
HETATM   19  C   UNL     1     -14.093  13.145  67.588  1.00  0.00    12.615 A  
ENDBRANCH  13  14
ENDBRANCH   3  13
BRANCH   7  20
HETATM   20  C   UNL     1      -7.141  16.202  68.508  1.00  0.00    -0.139 C  
BRANCH  20  21
HETATM   21  C   UNL     1      -7.813  17.496  68.896  1.00  0.00    -0.197 A  
HETATM   22  C   UNL     1      -7.693  18.059  70.171  1.00  0.00     2.002 A  
HETATM   23  C   UNL     1      -8.377  19.229  70.501  1.00  0.00     2.162 A  
HETATM   24  C   UNL     1      -9.139  19.881  69.538  1.00  0.00     0.379 A  
HETATM   25  C   UNL     1      -9.215  19.371  68.245  1.00  0.00    -0.402 A  
HETATM   26  C   UNL     1      -8.548  18.191  67.921  1.00  0.00    -0.259 A  
ENDBRANCH  20  21
ENDBRANCH   7  20
TORSDOF 4
ENDMDL
MODEL      169
REMARK 921   NORMALIZED FREE ENERGY PREDICTED BY IDOCK:   39.40 KCAL/MOL
REMARK 922        TOTAL FREE ENERGY PREDICTED BY IDOCK:   47.89 KCAL/MOL
REMARK 923 INTER-LIGAND FREE ENERGY PREDICTED BY IDOCK:   46.22 KCAL/MOL
REMARK 924 INTRA-LIGAND FREE ENERGY PREDICTED BY IDOCK:    1.66 KCAL/MOL
REMARK 927      BINDING AFFINITY PREDICTED BY RF-SCORE:    0.00 PKD
ROOT
HETATM    1  O   UNL     1     -12.652  15.416  70.154  1.00  0.00    -0.364 OA 
HETATM    2  C   UNL     1     -11.713  16.059  70.590  1.00  0.00    -0.350 C  
HETATM    3  N   UNL     1     -11.376  16.158  71.965  1.00  0.00    -0.177 N  
HETATM    4  C   UNL     1      -8.962  19.976  70.418  1.00  0.00     1.439 C  
HETATM    5  C   UNL     1     -10.392  17.249  72.121  1.00  0.00     5.070 C  
HETATM    6  C   UNL     1      -8.997  16.923  72.642  1.00  0.00    15.159 C  
HETATM    7  N   UNL     1     -10.705  16.707  69.831  1.00  0.00    -0.277 N  
HETATM    8  C   UNL     1     -10.269  17.798  70.691  1.00  0.00     2.184 C  
HETATM    9  S   UNL     1      -7.744  17.912  71.759  1.00  0.00    10.597 S  
HETATM   10  C   UNL     1      -8.904  18.442  70.428  1.00  0.00     3.238 C  
HETATM   11  C   UNL     1      -7.949  19.542  72.555  1.00  0.00     4.341 C  
HETATM   12  C   UNL     1      -7.901  20.498  71.371  1.00  0.00     2.090 C  
ENDROOT
BRANCH   3  13
HETATM   13  C   UNL     1     -11.290  14.843  72.573  1.00  0.00     0.167 C  
BRANCH  13  14
HETATM   14  C   UNL     1     -12.077  13.732  71.959  1.00  0.00     0.363 A  
HETATM   15  C   UNL     1     -12.255  11.987  70.280  1.00  0.00    -0.348 A  
HETATM   16  C   UNL     1     -14.218  12.685  71.499  1.00  0.00     1.566 A  
HETATM   17  C   UNL     1     -11.489  12.919  70.980  1.00  0.00     1.466 A  
HETATM   18  C   UNL     1     -13.452  13.616  72.203  1.00  0.00    -0.606 A  
HETATM   19  C   UNL     1     -13.617  11.868  70.543  1.00  0.00     1.761 A  
ENDBRANCH  13  14
ENDBRANCH   3  13
BRANCH   7  20
HETATM   20  C   UNL     1      -9.677  15.797  69.306  1.00  0.00    -0.263 C  
BRANCH  20  21
HETATM   21  C   UNL     1      -8.873  16.238  68.108  1.00  0.00    -0.183 A  
HETATM   22  C   UNL     1      -7.594  15.743  67.829  1.00  0.00    -0.157 A  
HETATM   23  C   UNL     1      -6.867  16.222  66.741  1.00  0.00    -0.123 A  
HETATM   24  C   UNL     1      -7.435  17.157  65.884  1.00  0.00     0.014 A  
HETATM   25  C   UNL     1      -8.732  17.611  66.108  1.00  0.00    -0.141 A  
HETATM   26  C   UNL     1      -9.452  17.148  67.208  1.00  0.00    -0.245 A  
ENDBRANCH  20  21
ENDBRANCH   7  20
TORSDOF 4
ENDMDL
MODEL      170
REMARK 921   NORMALIZED FREE ENERGY PREDICTED BY IDOCK:   70.61 KCAL/MOL
REMARK 922        TOTAL FREE ENERGY PREDICTED BY IDOCK:   86.39 KCAL/MOL
REMARK 923 INTER-LIGAND FREE ENERGY PREDICTED BY IDOCK:   85.73 KCAL/MOL
REMARK 924 INTRA-LIGAND FREE ENERGY PREDICTED BY IDOCK:    0.66 KCAL/MOL
REMARK 927      BINDING AFFINITY PREDICTED BY RF-SCORE:    0.00 PKD
ROOT
HETATM    1  O   UNL     1     -12.005  15.224  70.715  1.00  0.00    -0.284 OA 
HETATM    2  C   UNL     1     -11.221  16.011  71.217  1.00  0.00    -0.220 C  
HETATM    3  N   UNL     1     -10.672  15.878  72.518  1.00  0.00     1.438 N  
HETATM    4  C   UNL     1      -9.770  20.525  71.892  1.00  0.00     2.782 C  
HETATM    5  C   UNL     1     -10.025  17.157  72.878  1.00  0.00     9.157 C  
HETATM    6  C   UNL     1      -8.522  17.183  73.134  1.00  0.00    18.285 C  
HETATM    7  N   UNL     1     -10.599  17.113  70.575  1.00  0.00     0.599 N  
HETATM    8  C   UNL     1     -10.334  18.044  71.662  1.00  0.00     4.075 C  
HETATM    9  S   UNL     1      -7.790  18.705  72.446  1.00  0.00     9.894 S  
HETATM   10  C   UNL     1      -9.282  19.137  71.453  1.00  0.00     4.676 C  
HETATM   11  C   UNL     1      -8.292  19.940  73.694  1.00  0.00     6.003 C  
HETATM   12  C   UNL     1      -8.739  21.116  72.837  1.00  0.00     5.376 C  
ENDROOT
BRANCH   3  13
HETATM   13  C   UNL     1     -10.105  14.556  72.710  1.00  0.00     5.558 C  
BRANCH  13  14
HETATM   14  C   UNL     1      -9.480  13.883  71.532  1.00  0.00     7.963 A  
HETATM   15  C   UNL     1      -7.634  13.724  69.963  1.00  0.00     1.086 A  
HETATM   16  C   UNL     1      -9.708  12.580  69.497  1.00  0.00     1.274 A  
HETATM   17  C   UNL     1      -8.173  14.217  71.150  1.00  0.00     4.291 A  
HETATM   18  C   UNL     1     -10.248  13.070  70.687  1.00  0.00     4.530 A  
HETATM   19  C   UNL     1      -8.400  12.903  69.139  1.00  0.00     0.601 A  
ENDBRANCH  13  14
ENDBRANCH   3  13
BRANCH   7  20
HETATM   20  C   UNL     1      -9.475  16.738  69.705  1.00  0.00     0.556 C  
BRANCH  20  21
HETATM   21  C   UNL     1      -9.104  17.665  68.574  1.00  0.00    -0.279 A  
HETATM   22  C   UNL     1      -7.780  17.889  68.182  1.00  0.00    -0.256 A  
HETATM   23  C   UNL     1      -7.481  18.797  67.167  1.00  0.00    -0.234 A  
HETATM   24  C   UNL     1      -8.510  19.446  66.493  1.00  0.00    -0.354 A  
HETATM   25  C   UNL     1      -9.836  19.184  66.826  1.00  0.00    -0.407 A  
HETATM   26  C   UNL     1     -10.134  18.292  67.854  1.00  0.00    -0.376 A  
ENDBRANCH  20  21
ENDBRANCH   7  20
TORSDOF 4
ENDMDL
