MODEL        1
REMARK 921   NORMALIZED FREE ENERGY PREDICTED BY IDOCK:   -6.20 KCAL/MOL
REMARK 922        TOTAL FREE ENERGY PREDICTED BY IDOCK:   -7.83 KCAL/MOL
REMARK 923 INTER-LIGAND FREE ENERGY PREDICTED BY IDOCK:   -6.92 KCAL/MOL
REMARK 924 INTRA-LIGAND FREE ENERGY PREDICTED BY IDOCK:   -0.91 KCAL/MOL
REMARK 927      BINDING AFFINITY PREDICTED BY RF-SCORE:    0.00 PKD
ROOT
HETATM    1  C   UNL     1      -9.539  15.279  70.199  1.00  0.00     0.190 C  
HETATM    2  C   UNL     1     -10.980  14.885  69.835  1.00  0.00    -0.257 C  
HETATM    3  C   UNL     1     -11.659  15.923  68.911  1.00  0.00    -0.388 C  
HETATM    4  C   UNL     1     -11.758  14.724  71.168  1.00  0.00    -0.309 C  
ENDROOT
BRANCH   4   5
HETATM    5  N   UNL     1     -13.170  14.313  71.076  1.00  0.00    -0.335 NA 
HETATM    6  C   UNL     1     -14.030  15.429  71.493  1.00  0.00    -0.501 C  
HETATM    7  C   UNL     1     -13.453  13.140  71.906  1.00  0.00    -0.424 C  
ENDBRANCH   4   5
BRANCH   3   8
HETATM    8  N   UNL     1     -10.960  16.049  67.603  1.00  0.00    -0.313 NA 
HETATM    9  C   UNL     1     -11.118  14.966  66.712  1.00  0.00    -0.335 A  
HETATM   10  C   UNL     1     -12.392  14.571  66.275  1.00  0.00    -0.211 A  
HETATM   11  C   UNL     1     -12.551  13.552  65.336  1.00  0.00    -0.531 A  
HETATM   12  C   UNL     1     -11.437  12.899  64.821  1.00  0.00    -0.360 A  
HETATM   13  C   UNL     1     -10.163  13.271  65.243  1.00  0.00    -0.303 A  
HETATM   14  C   UNL     1      -9.998  14.302  66.180  1.00  0.00    -0.330 A  
HETATM   15  C   UNL     1      -8.624  14.720  66.618  1.00  0.00    -0.170 C  
HETATM   16  C   UNL     1      -8.273  16.107  66.093  1.00  0.00    -0.143 C  
HETATM   17  C   UNL     1      -9.076  17.304  66.569  1.00  0.00    -0.289 A  
HETATM   18  C   UNL     1      -8.512  18.561  66.239  1.00  0.00    -0.227 A  
HETATM   19  C   UNL     1      -9.126  19.756  66.594  1.00  0.00    -0.452 A  
HETATM   20  C   UNL     1     -10.329  19.721  67.277  1.00  0.00    -0.581 A  
HETATM   21  C   UNL     1     -10.903  18.490  67.606  1.00  0.00    -0.319 A  
HETATM   22  C   UNL     1     -10.298  17.255  67.279  1.00  0.00    -0.331 A  
ENDBRANCH   3   8
TORSDOF 2
ENDMDL
MODEL        2
REMARK 921   NORMALIZED FREE ENERGY PREDICTED BY IDOCK:   -6.17 KCAL/MOL
REMARK 922        TOTAL FREE ENERGY PREDICTED BY IDOCK:   -7.80 KCAL/MOL
REMARK 923 INTER-LIGAND FREE ENERGY PREDICTED BY IDOCK:   -6.91 KCAL/MOL
REMARK 924 INTRA-LIGAND FREE ENERGY PREDICTED BY IDOCK:   -0.89 KCAL/MOL
REMARK 927      BINDING AFFINITY PREDICTED BY RF-SCORE:    0.00 PKD
ROOT
HETATM    1  C   UNL     1     -10.052  15.490  69.524  1.00  0.00    -0.278 C  
HETATM    2  C   UNL     1     -11.048  14.635  70.325  1.00  0.00    -0.139 C  
HETATM    3  C   UNL     1     -12.067  13.911  69.413  1.00  0.00    -0.337 C  
HETATM    4  C   UNL     1     -11.761  15.584  71.323  1.00  0.00    -0.401 C  
ENDROOT
BRANCH   4   5
HETATM    5  N   UNL     1     -12.750  14.979  72.233  1.00  0.00    -0.321 NA 
HETATM    6  C   UNL     1     -14.095  15.442  71.866  1.00  0.00    -0.537 C  
HETATM    7  C   UNL     1     -12.482  15.315  73.634  1.00  0.00    -0.589 C  
ENDBRANCH   4   5
BRANCH   3   8
HETATM    8  N   UNL     1     -11.406  12.953  68.486  1.00  0.00    -0.267 NA 
HETATM    9  C   UNL     1     -10.962  11.743  69.062  1.00  0.00    -0.227 A  
HETATM   10  C   UNL     1     -11.860  10.881  69.711  1.00  0.00    -0.419 A  
HETATM   11  C   UNL     1     -11.443   9.649  70.216  1.00  0.00    -0.288 A  
HETATM   12  C   UNL     1     -10.115   9.257  70.089  1.00  0.00    -0.249 A  
HETATM   13  C   UNL     1      -9.205  10.098  69.453  1.00  0.00    -0.229 A  
HETATM   14  C   UNL     1      -9.622  11.334  68.936  1.00  0.00    -0.119 A  
HETATM   15  C   UNL     1      -8.648  12.231  68.229  1.00  0.00    -0.172 C  
HETATM   16  C   UNL     1      -8.949  12.311  66.737  1.00  0.00    -0.209 C  
HETATM   17  C   UNL     1     -10.257  12.930  66.278  1.00  0.00    -0.285 A  
HETATM   18  C   UNL     1     -10.326  13.199  64.889  1.00  0.00    -0.352 A  
HETATM   19  C   UNL     1     -11.457  13.758  64.307  1.00  0.00    -0.363 A  
HETATM   20  C   UNL     1     -12.553  14.049  65.099  1.00  0.00    -0.453 A  
HETATM   21  C   UNL     1     -12.505  13.785  66.471  1.00  0.00    -0.356 A  
HETATM   22  C   UNL     1     -11.366  13.235  67.102  1.00  0.00    -0.317 A  
ENDBRANCH   3   8
TORSDOF 2
ENDMDL
MODEL        3
REMARK 921   NORMALIZED FREE ENERGY PREDICTED BY IDOCK:   -6.17 KCAL/MOL
REMARK 922        TOTAL FREE ENERGY PREDICTED BY IDOCK:   -7.80 KCAL/MOL
REMARK 923 INTER-LIGAND FREE ENERGY PREDICTED BY IDOCK:   -8.22 KCAL/MOL
REMARK 924 INTRA-LIGAND FREE ENERGY PREDICTED BY IDOCK:    0.42 KCAL/MOL
REMARK 927      BINDING AFFINITY PREDICTED BY RF-SCORE:    0.00 PKD
ROOT
HETATM    1  C   UNL     1      -9.353  12.163  67.524  1.00  0.00    -0.181 C  
HETATM    2  C   UNL     1     -10.828  12.412  67.168  1.00  0.00    -0.280 C  
HETATM    3  C   UNL     1     -11.782  11.449  67.912  1.00  0.00    -0.228 C  
HETATM    4  C   UNL     1     -10.957  12.255  65.629  1.00  0.00    -0.299 C  
ENDROOT
BRANCH   4   5
HETATM    5  N   UNL     1     -12.289  12.481  65.042  1.00  0.00    -0.530 NA 
HETATM    6  C   UNL     1     -12.226  12.255  63.592  1.00  0.00    -0.567 C  
HETATM    7  C   UNL     1     -12.779  13.837  65.305  1.00  0.00    -0.439 C  
ENDBRANCH   4   5
BRANCH   3   8
HETATM    8  N   UNL     1     -11.716  11.626  69.388  1.00  0.00    -0.311 NA 
HETATM    9  C   UNL     1     -11.174  10.544  70.116  1.00  0.00    -0.315 A  
HETATM   10  C   UNL     1      -9.871  10.084  69.862  1.00  0.00    -0.266 A  
HETATM   11  C   UNL     1      -9.301   9.067  70.628  1.00  0.00    -0.283 A  
HETATM   12  C   UNL     1     -10.027   8.481  71.659  1.00  0.00    -0.329 A  
HETATM   13  C   UNL     1     -11.323   8.918  71.926  1.00  0.00    -0.446 A  
HETATM   14  C   UNL     1     -11.896   9.947  71.164  1.00  0.00    -0.472 A  
HETATM   15  C   UNL     1     -13.283  10.435  71.467  1.00  0.00    -0.485 C  
HETATM   16  C   UNL     1     -13.262  11.844  72.047  1.00  0.00    -0.461 C  
HETATM   17  C   UNL     1     -12.761  12.991  71.188  1.00  0.00    -0.372 A  
HETATM   18  C   UNL     1     -13.027  14.280  71.713  1.00  0.00    -0.430 A  
HETATM   19  C   UNL     1     -12.628  15.436  71.053  1.00  0.00    -0.491 A  
HETATM   20  C   UNL     1     -11.940  15.330  69.857  1.00  0.00    -0.373 A  
HETATM   21  C   UNL     1     -11.664  14.066  69.328  1.00  0.00    -0.372 A  
HETATM   22  C   UNL     1     -12.070  12.869  69.960  1.00  0.00    -0.286 A  
ENDBRANCH   3   8
TORSDOF 2
ENDMDL
MODEL        4
REMARK 921   NORMALIZED FREE ENERGY PREDICTED BY IDOCK:   -6.10 KCAL/MOL
REMARK 922        TOTAL FREE ENERGY PREDICTED BY IDOCK:   -7.73 KCAL/MOL
REMARK 923 INTER-LIGAND FREE ENERGY PREDICTED BY IDOCK:   -6.77 KCAL/MOL
REMARK 924 INTRA-LIGAND FREE ENERGY PREDICTED BY IDOCK:   -0.95 KCAL/MOL
REMARK 927      BINDING AFFINITY PREDICTED BY RF-SCORE:    0.00 PKD
ROOT
HETATM    1  C   UNL     1      -8.333  12.648  68.441  1.00  0.00    -0.125 C  
HETATM    2  C   UNL     1      -9.417  12.034  67.539  1.00  0.00    -0.178 C  
HETATM    3  C   UNL     1     -10.844  12.277  68.086  1.00  0.00    -0.227 C  
HETATM    4  C   UNL     1      -9.109  10.518  67.426  1.00  0.00    -0.139 C  
ENDROOT
BRANCH   4   5
HETATM    5  N   UNL     1     -10.004   9.714  66.575  1.00  0.00    -0.230 NA 
HETATM    6  C   UNL     1      -9.797   8.288  66.863  1.00  0.00    -0.247 C  
HETATM    7  C   UNL     1      -9.773   9.963  65.150  1.00  0.00    -0.306 C  
ENDBRANCH   4   5
BRANCH   3   8
HETATM    8  N   UNL     1     -11.180  13.725  68.148  1.00  0.00    -0.259 NA 
HETATM    9  C   UNL     1     -11.213  14.405  66.911  1.00  0.00    -0.334 A  
HETATM   10  C   UNL     1     -12.078  13.994  65.885  1.00  0.00    -0.448 A  
HETATM   11  C   UNL     1     -12.172  14.706  64.689  1.00  0.00    -0.447 A  
HETATM   12  C   UNL     1     -11.394  15.841  64.491  1.00  0.00    -0.324 A  
HETATM   13  C   UNL     1     -10.525  16.266  65.493  1.00  0.00    -0.383 A  
HETATM   14  C   UNL     1     -10.434  15.558  66.701  1.00  0.00    -0.299 A  
HETATM   15  C   UNL     1      -9.516  16.028  67.792  1.00  0.00    -0.217 C  
HETATM   16  C   UNL     1     -10.299  16.559  68.986  1.00  0.00    -0.296 C  
HETATM   17  C   UNL     1     -11.180  15.608  69.776  1.00  0.00    -0.322 A  
HETATM   18  C   UNL     1     -11.649  16.126  71.009  1.00  0.00    -0.434 A  
HETATM   19  C   UNL     1     -12.473  15.385  71.848  1.00  0.00    -0.452 A  
HETATM   20  C   UNL     1     -12.859  14.112  71.467  1.00  0.00    -0.430 A  
HETATM   21  C   UNL     1     -12.410  13.588  70.252  1.00  0.00    -0.370 A  
HETATM   22  C   UNL     1     -11.556  14.303  69.382  1.00  0.00    -0.306 A  
ENDBRANCH   3   8
TORSDOF 2
ENDMDL
MODEL        5
REMARK 921   NORMALIZED FREE ENERGY PREDICTED BY IDOCK:   -6.07 KCAL/MOL
REMARK 922        TOTAL FREE ENERGY PREDICTED BY IDOCK:   -7.69 KCAL/MOL
REMARK 923 INTER-LIGAND FREE ENERGY PREDICTED BY IDOCK:   -6.77 KCAL/MOL
REMARK 924 INTRA-LIGAND FREE ENERGY PREDICTED BY IDOCK:   -0.92 KCAL/MOL
REMARK 927      BINDING AFFINITY PREDICTED BY RF-SCORE:    0.00 PKD
ROOT
HETATM    1  C   UNL     1      -8.047  14.853  67.140  1.00  0.00    -0.239 C  
HETATM    2  C   UNL     1      -8.921  16.021  67.625  1.00  0.00    -0.193 C  
HETATM    3  C   UNL     1     -10.279  16.085  66.887  1.00  0.00    -0.280 C  
HETATM    4  C   UNL     1      -8.102  17.322  67.409  1.00  0.00    -0.190 C  
ENDROOT
BRANCH   4   5
HETATM    5  N   UNL     1      -8.728  18.586  67.834  1.00  0.00    -0.279 NA 
HETATM    6  C   UNL     1      -9.022  19.405  66.651  1.00  0.00    -0.346 C  
HETATM    7  C   UNL     1      -7.868  19.341  68.750  1.00  0.00    -0.353 C  
ENDBRANCH   4   5
BRANCH   3   8
HETATM    8  N   UNL     1     -11.104  14.871  67.128  1.00  0.00    -0.324 NA 
HETATM    9  C   UNL     1     -11.560  14.687  68.452  1.00  0.00    -0.323 A  
HETATM   10  C   UNL     1     -12.356  15.656  69.082  1.00  0.00    -0.019 A  
HETATM   11  C   UNL     1     -12.873  15.448  70.361  1.00  0.00    -0.355 A  
HETATM   12  C   UNL     1     -12.596  14.267  71.041  1.00  0.00    -0.428 A  
HETATM   13  C   UNL     1     -11.805  13.292  70.437  1.00  0.00    -0.270 A  
HETATM   14  C   UNL     1     -11.290  13.494  69.147  1.00  0.00    -0.333 A  
HETATM   15  C   UNL     1     -10.458  12.434  68.485  1.00  0.00    -0.244 C  
HETATM   16  C   UNL     1     -11.199  11.795  67.318  1.00  0.00    -0.364 C  
HETATM   17  C   UNL     1     -11.552  12.644  66.110  1.00  0.00    -0.445 A  
HETATM   18  C   UNL     1     -11.993  11.910  64.982  1.00  0.00    -0.150 A  
HETATM   19  C   UNL     1     -12.363  12.537  63.798  1.00  0.00    -0.595 A  
HETATM   20  C   UNL     1     -12.312  13.918  63.719  1.00  0.00    -0.260 A  
HETATM   21  C   UNL     1     -11.883  14.658  64.824  1.00  0.00    -0.444 A  
HETATM   22  C   UNL     1     -11.482  14.055  66.038  1.00  0.00    -0.338 A  
ENDBRANCH   3   8
TORSDOF 2
ENDMDL
MODEL        6
REMARK 921   NORMALIZED FREE ENERGY PREDICTED BY IDOCK:   -6.04 KCAL/MOL
REMARK 922        TOTAL FREE ENERGY PREDICTED BY IDOCK:   -7.65 KCAL/MOL
REMARK 923 INTER-LIGAND FREE ENERGY PREDICTED BY IDOCK:   -6.78 KCAL/MOL
REMARK 924 INTRA-LIGAND FREE ENERGY PREDICTED BY IDOCK:   -0.87 KCAL/MOL
REMARK 927      BINDING AFFINITY PREDICTED BY RF-SCORE:    0.00 PKD
ROOT
HETATM    1  C   UNL     1      -8.142  13.058  68.221  1.00  0.00    -0.151 C  
HETATM    2  C   UNL     1      -8.992  11.927  67.619  1.00  0.00    -0.169 C  
HETATM    3  C   UNL     1     -10.367  11.790  68.316  1.00  0.00    -0.206 C  
HETATM    4  C   UNL     1      -8.165  10.620  67.747  1.00  0.00    -0.111 C  
ENDROOT
BRANCH   4   5
HETATM    5  N   UNL     1      -8.767   9.390  67.204  1.00  0.00    -0.127 NA 
HETATM    6  C   UNL     1      -7.799   8.290  67.303  1.00  0.00    -0.105 C  
HETATM    7  C   UNL     1      -9.180   9.554  65.807  1.00  0.00    -0.211 C  
ENDBRANCH   4   5
BRANCH   3   8
HETATM    8  N   UNL     1     -11.199  13.013  68.156  1.00  0.00    -0.256 NA 
HETATM    9  C   UNL     1     -11.484  13.397  66.827  1.00  0.00    -0.343 A  
HETATM   10  C   UNL     1     -12.153  12.526  65.953  1.00  0.00    -0.420 A  
HETATM   11  C   UNL     1     -12.506  12.925  64.663  1.00  0.00    -0.499 A  
HETATM   12  C   UNL     1     -12.187  14.203  64.218  1.00  0.00    -0.449 A  
HETATM   13  C   UNL     1     -11.520  15.083  65.067  1.00  0.00    -0.364 A  
HETATM   14  C   UNL     1     -11.171  14.689  66.367  1.00  0.00    -0.336 A  
HETATM   15  C   UNL     1     -10.474  15.644  67.291  1.00  0.00    -0.292 C  
HETATM   16  C   UNL     1     -11.385  16.079  68.432  1.00  0.00    -0.355 C  
HETATM   17  C   UNL     1     -11.860  15.044  69.436  1.00  0.00    -0.358 A  
HETATM   18  C   UNL     1     -12.473  15.583  70.593  1.00  0.00    -0.483 A  
HETATM   19  C   UNL     1     -12.970  14.769  71.605  1.00  0.00    -0.411 A  
HETATM   20  C   UNL     1     -12.877  13.395  71.476  1.00  0.00    -0.427 A  
HETATM   21  C   UNL     1     -12.280  12.846  70.338  1.00  0.00    -0.381 A  
HETATM   22  C   UNL     1     -11.747  13.640  69.298  1.00  0.00    -0.325 A  
ENDBRANCH   3   8
TORSDOF 2
ENDMDL
MODEL        7
REMARK 921   NORMALIZED FREE ENERGY PREDICTED BY IDOCK:   -5.91 KCAL/MOL
REMARK 922        TOTAL FREE ENERGY PREDICTED BY IDOCK:   -7.51 KCAL/MOL
REMARK 923 INTER-LIGAND FREE ENERGY PREDICTED BY IDOCK:   -6.58 KCAL/MOL
REMARK 924 INTRA-LIGAND FREE ENERGY PREDICTED BY IDOCK:   -0.92 KCAL/MOL
REMARK 927      BINDING AFFINITY PREDICTED BY RF-SCORE:    0.00 PKD
ROOT
HETATM    1  C   UNL     1      -8.363  11.693  68.698  1.00  0.00    -0.100 C  
HETATM    2  C   UNL     1      -9.604  10.961  68.159  1.00  0.00    -0.169 C  
HETATM    3  C   UNL     1     -10.921  11.540  68.730  1.00  0.00    -0.222 C  
HETATM    4  C   UNL     1      -9.443   9.462  68.526  1.00  0.00    -0.145 C  
ENDROOT
BRANCH   4   5
HETATM    5  N   UNL     1     -10.507   8.545  68.081  1.00  0.00    -0.207 NA 
HETATM    6  C   UNL     1     -10.559   7.386  68.982  1.00  0.00    -0.192 C  
HETATM    7  C   UNL     1     -10.293   8.086  66.706  1.00  0.00    -0.290 C  
ENDBRANCH   4   5
BRANCH   3   8
HETATM    8  N   UNL     1     -11.122  12.962  68.340  1.00  0.00    -0.247 NA 
HETATM    9  C   UNL     1     -11.185  13.219  66.954  1.00  0.00    -0.305 A  
HETATM   10  C   UNL     1     -12.156  12.602  66.149  1.00  0.00    -0.399 A  
HETATM   11  C   UNL     1     -12.274  12.910  64.793  1.00  0.00    -0.499 A  
HETATM   12  C   UNL     1     -11.415  13.836  64.212  1.00  0.00    -0.363 A  
HETATM   13  C   UNL     1     -10.441  14.457  64.990  1.00  0.00    -0.454 A  
HETATM   14  C   UNL     1     -10.325  14.157  66.355  1.00  0.00    -0.287 A  
HETATM   15  C   UNL     1      -9.292  14.845  67.200  1.00  0.00    -0.227 C  
HETATM   16  C   UNL     1      -9.935  15.804  68.194  1.00  0.00    -0.214 C  
HETATM   17  C   UNL     1     -10.836  15.248  69.282  1.00  0.00    -0.257 A  
HETATM   18  C   UNL     1     -11.167  16.173  70.303  1.00  0.00    -0.389 A  
HETATM   19  C   UNL     1     -11.989  15.825  71.368  1.00  0.00    -0.499 A  
HETATM   20  C   UNL     1     -12.513  14.546  71.429  1.00  0.00    -0.423 A  
HETATM   21  C   UNL     1     -12.202  13.623  70.428  1.00  0.00    -0.434 A  
HETATM   22  C   UNL     1     -11.355  13.933  69.340  1.00  0.00    -0.258 A  
ENDBRANCH   3   8
TORSDOF 2
ENDMDL
MODEL        8
REMARK 921   NORMALIZED FREE ENERGY PREDICTED BY IDOCK:   -5.85 KCAL/MOL
REMARK 922        TOTAL FREE ENERGY PREDICTED BY IDOCK:   -7.44 KCAL/MOL
REMARK 923 INTER-LIGAND FREE ENERGY PREDICTED BY IDOCK:   -6.48 KCAL/MOL
REMARK 924 INTRA-LIGAND FREE ENERGY PREDICTED BY IDOCK:   -0.95 KCAL/MOL
REMARK 927      BINDING AFFINITY PREDICTED BY RF-SCORE:    0.00 PKD
ROOT
HETATM    1  C   UNL     1      -7.969  12.151  67.773  1.00  0.00    -0.151 C  
HETATM    2  C   UNL     1      -8.719  11.355  66.693  1.00  0.00    -0.178 C  
HETATM    3  C   UNL     1     -10.107  10.872  67.177  1.00  0.00    -0.198 C  
HETATM    4  C   UNL     1      -7.813  10.158  66.299  1.00  0.00    -0.113 C  
ENDROOT
BRANCH   4   5
HETATM    5  N   UNL     1      -8.312   9.258  65.244  1.00  0.00    -0.137 NA 
HETATM    6  C   UNL     1      -7.412   8.104  65.123  1.00  0.00    -0.081 C  
HETATM    7  C   UNL     1      -8.414   9.937  63.949  1.00  0.00    -0.181 C  
ENDBRANCH   4   5
BRANCH   3   8
HETATM    8  N   UNL     1     -11.011  12.007  67.505  1.00  0.00    -0.240 NA 
HETATM    9  C   UNL     1     -11.351  12.856  66.430  1.00  0.00    -0.319 A  
HETATM   10  C   UNL     1     -11.993  12.352  65.287  1.00  0.00    -0.461 A  
HETATM   11  C   UNL     1     -12.401  13.196  64.254  1.00  0.00    -0.421 A  
HETATM   12  C   UNL     1     -12.167  14.564  64.339  1.00  0.00    -0.480 A  
HETATM   13  C   UNL     1     -11.529  15.087  65.462  1.00  0.00    -0.265 A  
HETATM   14  C   UNL     1     -11.125  14.243  66.507  1.00  0.00    -0.323 A  
HETATM   15  C   UNL     1     -10.459  14.807  67.728  1.00  0.00    -0.254 C  
HETATM   16  C   UNL     1     -11.363  14.708  68.950  1.00  0.00    -0.305 C  
HETATM   17  C   UNL     1     -11.753  13.338  69.474  1.00  0.00    -0.384 A  
HETATM   18  C   UNL     1     -12.365  13.347  70.751  1.00  0.00    -0.433 A  
HETATM   19  C   UNL     1     -12.789  12.177  71.369  1.00  0.00    -0.378 A  
HETATM   20  C   UNL     1     -12.622  10.968  70.717  1.00  0.00    -0.463 A  
HETATM   21  C   UNL     1     -12.024  10.941  69.453  1.00  0.00    -0.393 A  
HETATM   22  C   UNL     1     -11.564  12.107  68.802  1.00  0.00    -0.327 A  
ENDBRANCH   3   8
TORSDOF 2
ENDMDL
MODEL        9
REMARK 921   NORMALIZED FREE ENERGY PREDICTED BY IDOCK:   -5.66 KCAL/MOL
REMARK 922        TOTAL FREE ENERGY PREDICTED BY IDOCK:   -7.23 KCAL/MOL
REMARK 923 INTER-LIGAND FREE ENERGY PREDICTED BY IDOCK:   -6.46 KCAL/MOL
REMARK 924 INTRA-LIGAND FREE ENERGY PREDICTED BY IDOCK:   -0.77 KCAL/MOL
REMARK 927      BINDING AFFINITY PREDICTED BY RF-SCORE:    0.00 PKD
ROOT
HETATM    1  C   UNL     1     -11.877  11.460  69.252  1.00  0.00    -0.417 C  
HETATM    2  C   UNL     1     -11.974  12.994  69.274  1.00  0.00    -0.331 C  
HETATM    3  C   UNL     1     -10.679  13.671  68.765  1.00  0.00    -0.244 C  
HETATM    4  C   UNL     1     -12.288  13.409  70.736  1.00  0.00    -0.354 C  
ENDROOT
BRANCH   4   5
HETATM    5  N   UNL     1     -12.459  14.848  71.002  1.00  0.00    -0.305 NA 
HETATM    6  C   UNL     1     -11.682  15.219  72.193  1.00  0.00    -0.448 C  
HETATM    7  C   UNL     1     -13.867  15.202  71.207  1.00  0.00    -0.472 C  
ENDBRANCH   4   5
BRANCH   3   8
HETATM    8  N   UNL     1     -10.392  13.332  67.345  1.00  0.00    -0.242 NA 
HETATM    9  C   UNL     1     -10.852  14.256  66.383  1.00  0.00    -0.307 A  
HETATM   10  C   UNL     1     -10.427  15.595  66.408  1.00  0.00    -0.309 A  
HETATM   11  C   UNL     1     -10.817  16.496  65.417  1.00  0.00    -0.216 A  
HETATM   12  C   UNL     1     -11.648  16.079  64.383  1.00  0.00    -0.212 A  
HETATM   13  C   UNL     1     -12.086  14.757  64.341  1.00  0.00    -0.457 A  
HETATM   14  C   UNL     1     -11.689  13.845  65.330  1.00  0.00    -0.347 A  
HETATM   15  C   UNL     1     -12.140  12.414  65.271  1.00  0.00    -0.451 C  
HETATM   16  C   UNL     1     -10.980  11.480  64.951  1.00  0.00    -0.319 C  
HETATM   17  C   UNL     1      -9.836  11.353  65.940  1.00  0.00    -0.262 A  
HETATM   18  C   UNL     1      -8.951  10.277  65.684  1.00  0.00    -0.198 A  
HETATM   19  C   UNL     1      -7.847  10.028  66.490  1.00  0.00    -0.112 A  
HETATM   20  C   UNL     1      -7.594  10.860  67.566  1.00  0.00    -0.101 A  
HETATM   21  C   UNL     1      -8.452  11.930  67.830  1.00  0.00    -0.154 A  
HETATM   22  C   UNL     1      -9.595  12.203  67.044  1.00  0.00    -0.205 A  
ENDBRANCH   3   8
TORSDOF 2
ENDMDL
MODEL       10
REMARK 921   NORMALIZED FREE ENERGY PREDICTED BY IDOCK:   -5.65 KCAL/MOL
REMARK 922        TOTAL FREE ENERGY PREDICTED BY IDOCK:   -7.22 KCAL/MOL
REMARK 923 INTER-LIGAND FREE ENERGY PREDICTED BY IDOCK:   -6.37 KCAL/MOL
REMARK 924 INTRA-LIGAND FREE ENERGY PREDICTED BY IDOCK:   -0.84 KCAL/MOL
REMARK 927      BINDING AFFINITY PREDICTED BY RF-SCORE:    0.00 PKD
ROOT
HETATM    1  C   UNL     1     -10.665  15.646  65.161  1.00  0.00    -0.463 C  
HETATM    2  C   UNL     1     -11.032  14.182  65.455  1.00  0.00    -0.310 C  
HETATM    3  C   UNL     1      -9.993  13.488  66.367  1.00  0.00    -0.295 C  
HETATM    4  C   UNL     1     -11.152  13.460  64.087  1.00  0.00    -0.327 C  
ENDROOT
BRANCH   4   5
HETATM    5  N   UNL     1     -11.531  12.037  64.111  1.00  0.00    -0.365 NA 
HETATM    6  C   UNL     1     -10.453  11.236  63.517  1.00  0.00    -0.395 C  
HETATM    7  C   UNL     1     -12.780  11.791  63.385  1.00  0.00    -0.267 C  
ENDBRANCH   4   5
BRANCH   3   8
HETATM    8  N   UNL     1      -9.904  14.131  67.706  1.00  0.00    -0.227 NA 
HETATM    9  C   UNL     1     -10.813  13.660  68.678  1.00  0.00    -0.263 A  
HETATM   10  C   UNL     1     -10.830  12.307  69.054  1.00  0.00    -0.197 A  
HETATM   11  C   UNL     1     -11.671  11.849  70.068  1.00  0.00    -0.366 A  
HETATM   12  C   UNL     1     -12.521  12.734  70.722  1.00  0.00    -0.357 A  
HETATM   13  C   UNL     1     -12.524  14.080  70.363  1.00  0.00    -0.418 A  
HETATM   14  C   UNL     1     -11.673  14.547  69.350  1.00  0.00    -0.361 A  
HETATM   15  C   UNL     1     -11.658  16.001  68.979  1.00  0.00    -0.350 C  
HETATM   16  C   UNL     1     -10.354  16.668  69.399  1.00  0.00    -0.294 C  
HETATM   17  C   UNL     1      -9.053  16.220  68.758  1.00  0.00    -0.245 A  
HETATM   18  C   UNL     1      -7.947  17.069  69.012  1.00  0.00    -0.153 A  
HETATM   19  C   UNL     1      -6.683  16.796  68.504  1.00  0.00    -0.161 A  
HETATM   20  C   UNL     1      -6.491  15.659  67.740  1.00  0.00    -0.181 A  
HETATM   21  C   UNL     1      -7.569  14.807  67.484  1.00  0.00    -0.215 A  
HETATM   22  C   UNL     1      -8.873  15.061  67.967  1.00  0.00    -0.165 A  
ENDBRANCH   3   8
TORSDOF 2
ENDMDL
MODEL       11
REMARK 921   NORMALIZED FREE ENERGY PREDICTED BY IDOCK:   -5.64 KCAL/MOL
REMARK 922        TOTAL FREE ENERGY PREDICTED BY IDOCK:   -7.20 KCAL/MOL
REMARK 923 INTER-LIGAND FREE ENERGY PREDICTED BY IDOCK:   -6.94 KCAL/MOL
REMARK 924 INTRA-LIGAND FREE ENERGY PREDICTED BY IDOCK:   -0.27 KCAL/MOL
REMARK 927      BINDING AFFINITY PREDICTED BY RF-SCORE:    0.00 PKD
ROOT
HETATM    1  C   UNL     1     -11.172  15.102  66.049  1.00  0.00    -0.275 C  
HETATM    2  C   UNL     1     -10.414  16.160  66.868  1.00  0.00    -0.300 C  
HETATM    3  C   UNL     1     -10.972  16.303  68.304  1.00  0.00    -0.348 C  
HETATM    4  C   UNL     1     -10.518  17.498  66.089  1.00  0.00    -0.288 C  
ENDROOT
BRANCH   4   5
HETATM    5  N   UNL     1      -9.833  18.666  66.669  1.00  0.00    -0.334 NA 
HETATM    6  C   UNL     1     -10.335  19.891  66.033  1.00  0.00    -0.486 C  
HETATM    7  C   UNL     1      -8.379  18.588  66.499  1.00  0.00    -0.281 C  
ENDBRANCH   4   5
BRANCH   3   8
HETATM    8  N   UNL     1     -10.829  15.045  69.087  1.00  0.00    -0.241 NA 
HETATM    9  C   UNL     1      -9.696  14.258  68.789  1.00  0.00    -0.173 A  
HETATM   10  C   UNL     1      -8.400  14.780  68.921  1.00  0.00    -0.163 A  
HETATM   11  C   UNL     1      -7.274  13.986  68.702  1.00  0.00    -0.114 A  
HETATM   12  C   UNL     1      -7.422  12.652  68.338  1.00  0.00    -0.127 A  
HETATM   13  C   UNL     1      -8.699  12.113  68.196  1.00  0.00    -0.185 A  
HETATM   14  C   UNL     1      -9.834  12.906  68.424  1.00  0.00    -0.197 A  
HETATM   15  C   UNL     1     -11.210  12.320  68.296  1.00  0.00    -0.315 C  
HETATM   16  C   UNL     1     -11.894  12.207  69.653  1.00  0.00    -0.391 C  
HETATM   17  C   UNL     1     -12.218  13.473  70.426  1.00  0.00    -0.426 A  
HETATM   18  C   UNL     1     -13.080  13.282  71.534  1.00  0.00    -0.414 A  
HETATM   19  C   UNL     1     -13.468  14.338  72.351  1.00  0.00    -0.586 A  
HETATM   20  C   UNL     1     -12.991  15.609  72.086  1.00  0.00    -0.527 A  
HETATM   21  C   UNL     1     -12.135  15.815  71.001  1.00  0.00    -0.464 A  
HETATM   22  C   UNL     1     -11.734  14.770  70.137  1.00  0.00    -0.301 A  
ENDBRANCH   3   8
TORSDOF 2
ENDMDL
MODEL       12
REMARK 921   NORMALIZED FREE ENERGY PREDICTED BY IDOCK:   -5.61 KCAL/MOL
REMARK 922        TOTAL FREE ENERGY PREDICTED BY IDOCK:   -7.17 KCAL/MOL
REMARK 923 INTER-LIGAND FREE ENERGY PREDICTED BY IDOCK:   -7.03 KCAL/MOL
REMARK 924 INTRA-LIGAND FREE ENERGY PREDICTED BY IDOCK:   -0.15 KCAL/MOL
REMARK 927      BINDING AFFINITY PREDICTED BY RF-SCORE:    0.00 PKD
ROOT
HETATM    1  C   UNL     1     -12.347  13.807  66.134  1.00  0.00    -0.496 C  
HETATM    2  C   UNL     1     -11.141  14.719  66.414  1.00  0.00    -0.340 C  
HETATM    3  C   UNL     1     -11.133  15.254  67.865  1.00  0.00    -0.321 C  
HETATM    4  C   UNL     1     -11.202  15.881  65.386  1.00  0.00    -0.100 C  
ENDROOT
BRANCH   4   5
HETATM    5  N   UNL     1     -10.119  16.878  65.437  1.00  0.00    -0.590 NA 
HETATM    6  C   UNL     1      -8.911  16.256  65.995  1.00  0.00    -0.273 C  
HETATM    7  C   UNL     1     -10.487  18.044  66.246  1.00  0.00    -0.335 C  
ENDBRANCH   4   5
BRANCH   3   8
HETATM    8  N   UNL     1     -11.016  14.158  68.865  1.00  0.00    -0.252 NA 
HETATM    9  C   UNL     1      -9.981  13.226  68.640  1.00  0.00    -0.122 A  
HETATM   10  C   UNL     1      -8.641  13.638  68.569  1.00  0.00    -0.103 A  
HETATM   11  C   UNL     1      -7.606  12.714  68.424  1.00  0.00    -0.132 A  
HETATM   12  C   UNL     1      -7.891  11.356  68.339  1.00  0.00    -0.135 A  
HETATM   13  C   UNL     1      -9.214  10.924  68.403  1.00  0.00    -0.168 A  
HETATM   14  C   UNL     1     -10.257  11.849  68.557  1.00  0.00    -0.221 A  
HETATM   15  C   UNL     1     -11.681  11.382  68.652  1.00  0.00    -0.394 C  
HETATM   16  C   UNL     1     -12.242  11.591  70.053  1.00  0.00    -0.354 C  
HETATM   17  C   UNL     1     -12.393  13.003  70.587  1.00  0.00    -0.391 A  
HETATM   18  C   UNL     1     -13.161  13.106  71.773  1.00  0.00    -0.494 A  
HETATM   19  C   UNL     1     -13.388  14.327  72.396  1.00  0.00    -0.568 A  
HETATM   20  C   UNL     1     -12.840  15.476  71.853  1.00  0.00    -0.504 A  
HETATM   21  C   UNL     1     -12.075  15.393  70.686  1.00  0.00    -0.412 A  
HETATM   22  C   UNL     1     -11.838  14.172  70.015  1.00  0.00    -0.323 A  
ENDBRANCH   3   8
TORSDOF 2
ENDMDL
MODEL       13
REMARK 921   NORMALIZED FREE ENERGY PREDICTED BY IDOCK:   -5.60 KCAL/MOL
REMARK 922        TOTAL FREE ENERGY PREDICTED BY IDOCK:   -7.16 KCAL/MOL
REMARK 923 INTER-LIGAND FREE ENERGY PREDICTED BY IDOCK:   -6.22 KCAL/MOL
REMARK 924 INTRA-LIGAND FREE ENERGY PREDICTED BY IDOCK:   -0.94 KCAL/MOL
REMARK 927      BINDING AFFINITY PREDICTED BY RF-SCORE:    0.00 PKD
ROOT
HETATM    1  C   UNL     1     -12.123  10.972  69.348  1.00  0.00    -0.389 C  
HETATM    2  C   UNL     1     -10.616  10.668  69.324  1.00  0.00    -0.263 C  
HETATM    3  C   UNL     1     -10.022  10.752  67.899  1.00  0.00    -0.174 C  
HETATM    4  C   UNL     1     -10.429   9.251  69.929  1.00  0.00    -0.227 C  
ENDROOT
BRANCH   4   5
HETATM    5  N   UNL     1      -9.049   8.748  70.042  1.00  0.00    -0.153 NA 
HETATM    6  C   UNL     1      -8.961   7.423  69.414  1.00  0.00    -0.139 C  
HETATM    7  C   UNL     1      -8.612   8.657  71.438  1.00  0.00    -0.192 C  
ENDBRANCH   4   5
BRANCH   3   8
HETATM    8  N   UNL     1     -10.140  12.119  67.323  1.00  0.00    -0.202 NA 
HETATM    9  C   UNL     1      -9.484  13.147  68.033  1.00  0.00    -0.220 A  
HETATM   10  C   UNL     1      -8.099  13.095  68.264  1.00  0.00    -0.152 A  
HETATM   11  C   UNL     1      -7.431  14.142  68.898  1.00  0.00    -0.112 A  
HETATM   12  C   UNL     1      -8.137  15.263  69.323  1.00  0.00    -0.236 A  
HETATM   13  C   UNL     1      -9.511  15.335  69.109  1.00  0.00    -0.236 A  
HETATM   14  C   UNL     1     -10.186  14.287  68.464  1.00  0.00    -0.245 A  
HETATM   15  C   UNL     1     -11.663  14.375  68.211  1.00  0.00    -0.376 C  
HETATM   16  C   UNL     1     -11.963  14.533  66.726  1.00  0.00    -0.364 C  
HETATM   17  C   UNL     1     -11.600  13.409  65.773  1.00  0.00    -0.358 A  
HETATM   18  C   UNL     1     -12.154  13.534  64.475  1.00  0.00    -0.460 A  
HETATM   19  C   UNL     1     -11.911  12.593  63.481  1.00  0.00    -0.630 A  
HETATM   20  C   UNL     1     -11.097  11.510  63.759  1.00  0.00    -0.471 A  
HETATM   21  C   UNL     1     -10.538  11.373  65.033  1.00  0.00    -0.359 A  
HETATM   22  C   UNL     1     -10.777  12.298  66.074  1.00  0.00    -0.261 A  
ENDBRANCH   3   8
TORSDOF 2
ENDMDL
MODEL       14
REMARK 921   NORMALIZED FREE ENERGY PREDICTED BY IDOCK:   -5.53 KCAL/MOL
REMARK 922        TOTAL FREE ENERGY PREDICTED BY IDOCK:   -7.08 KCAL/MOL
REMARK 923 INTER-LIGAND FREE ENERGY PREDICTED BY IDOCK:   -6.34 KCAL/MOL
REMARK 924 INTRA-LIGAND FREE ENERGY PREDICTED BY IDOCK:   -0.74 KCAL/MOL
REMARK 927      BINDING AFFINITY PREDICTED BY RF-SCORE:    0.00 PKD
ROOT
HETATM    1  C   UNL     1     -11.423  11.441  69.460  1.00  0.00    -0.381 C  
HETATM    2  C   UNL     1     -11.708  12.919  69.143  1.00  0.00    -0.376 C  
HETATM    3  C   UNL     1     -10.443  13.671  68.666  1.00  0.00    -0.234 C  
HETATM    4  C   UNL     1     -12.288  13.556  70.434  1.00  0.00    -0.327 C  
ENDROOT
BRANCH   4   5
HETATM    5  N   UNL     1     -12.672  14.977  70.365  1.00  0.00    -0.344 NA 
HETATM    6  C   UNL     1     -11.585  15.802  70.911  1.00  0.00    -0.405 C  
HETATM    7  C   UNL     1     -13.908  15.245  71.105  1.00  0.00    -0.417 C  
ENDBRANCH   4   5
BRANCH   3   8
HETATM    8  N   UNL     1      -9.905  13.111  67.397  1.00  0.00    -0.222 NA 
HETATM    9  C   UNL     1     -10.731  13.249  66.261  1.00  0.00    -0.286 A  
HETATM   10  C   UNL     1     -11.141  14.516  65.817  1.00  0.00    -0.324 A  
HETATM   11  C   UNL     1     -11.893  14.666  64.652  1.00  0.00    -0.459 A  
HETATM   12  C   UNL     1     -12.260  13.549  63.910  1.00  0.00    -0.458 A  
HETATM   13  C   UNL     1     -11.868  12.281  64.334  1.00  0.00    -0.464 A  
HETATM   14  C   UNL     1     -11.104  12.126  65.500  1.00  0.00    -0.361 A  
HETATM   15  C   UNL     1     -10.660  10.762  65.944  1.00  0.00    -0.216 C  
HETATM   16  C   UNL     1      -9.155  10.590  65.787  1.00  0.00    -0.204 C  
HETATM   17  C   UNL     1      -8.220  11.452  66.616  1.00  0.00    -0.163 A  
HETATM   18  C   UNL     1      -6.865  11.039  66.599  1.00  0.00    -0.137 A  
HETATM   19  C   UNL     1      -5.881  11.726  67.299  1.00  0.00    -0.119 A  
HETATM   20  C   UNL     1      -6.227  12.852  68.024  1.00  0.00    -0.110 A  
HETATM   21  C   UNL     1      -7.558  13.278  68.048  1.00  0.00    -0.145 A  
HETATM   22  C   UNL     1      -8.589  12.595  67.364  1.00  0.00    -0.189 A  
ENDBRANCH   3   8
TORSDOF 2
ENDMDL
MODEL       15
REMARK 921   NORMALIZED FREE ENERGY PREDICTED BY IDOCK:   -5.53 KCAL/MOL
REMARK 922        TOTAL FREE ENERGY PREDICTED BY IDOCK:   -7.08 KCAL/MOL
REMARK 923 INTER-LIGAND FREE ENERGY PREDICTED BY IDOCK:   -6.18 KCAL/MOL
REMARK 924 INTRA-LIGAND FREE ENERGY PREDICTED BY IDOCK:   -0.90 KCAL/MOL
REMARK 927      BINDING AFFINITY PREDICTED BY RF-SCORE:    0.00 PKD
ROOT
HETATM    1  C   UNL     1     -11.924  13.504  69.973  1.00  0.00    -0.410 C  
HETATM    2  C   UNL     1     -11.586  12.005  69.940  1.00  0.00    -0.315 C  
HETATM    3  C   UNL     1     -11.654  11.419  68.510  1.00  0.00    -0.318 C  
HETATM    4  C   UNL     1     -12.588  11.292  70.887  1.00  0.00    -0.371 C  
ENDROOT
BRANCH   4   5
HETATM    5  N   UNL     1     -12.440   9.835  71.046  1.00  0.00    -0.323 NA 
HETATM    6  C   UNL     1     -13.375   9.360  72.074  1.00  0.00    -0.450 C  
HETATM    7  C   UNL     1     -11.072   9.462  71.419  1.00  0.00    -0.380 C  
ENDBRANCH   4   5
BRANCH   3   8
HETATM    8  N   UNL     1     -10.660  12.050  67.599  1.00  0.00    -0.206 NA 
HETATM    9  C   UNL     1      -9.319  11.644  67.773  1.00  0.00    -0.178 A  
HETATM   10  C   UNL     1      -8.951  10.295  67.644  1.00  0.00    -0.137 A  
HETATM   11  C   UNL     1      -7.617   9.897  67.738  1.00  0.00    -0.090 A  
HETATM   12  C   UNL     1      -6.623  10.840  67.972  1.00  0.00    -0.063 A  
HETATM   13  C   UNL     1      -6.965  12.184  68.108  1.00  0.00    -0.082 A  
HETATM   14  C   UNL     1      -8.304  12.590  68.005  1.00  0.00    -0.171 A  
HETATM   15  C   UNL     1      -8.671  14.040  68.126  1.00  0.00    -0.180 C  
HETATM   16  C   UNL     1      -9.140  14.608  66.792  1.00  0.00    -0.287 C  
HETATM   17  C   UNL     1     -10.411  14.068  66.163  1.00  0.00    -0.301 A  
HETATM   18  C   UNL     1     -10.902  14.832  65.076  1.00  0.00    -0.440 A  
HETATM   19  C   UNL     1     -12.052  14.468  64.385  1.00  0.00    -0.492 A  
HETATM   20  C   UNL     1     -12.731  13.322  64.758  1.00  0.00    -0.338 A  
HETATM   21  C   UNL     1     -12.258  12.553  65.824  1.00  0.00    -0.361 A  
HETATM   22  C   UNL     1     -11.104  12.901  66.562  1.00  0.00    -0.286 A  
ENDBRANCH   3   8
TORSDOF 2
ENDMDL
MODEL       16
REMARK 921   NORMALIZED FREE ENERGY PREDICTED BY IDOCK:   -5.45 KCAL/MOL
REMARK 922        TOTAL FREE ENERGY PREDICTED BY IDOCK:   -7.00 KCAL/MOL
REMARK 923 INTER-LIGAND FREE ENERGY PREDICTED BY IDOCK:   -6.09 KCAL/MOL
REMARK 924 INTRA-LIGAND FREE ENERGY PREDICTED BY IDOCK:   -0.91 KCAL/MOL
REMARK 927      BINDING AFFINITY PREDICTED BY RF-SCORE:    0.00 PKD
ROOT
HETATM    1  C   UNL     1      -7.729  14.030  67.713  1.00  0.00    -0.178 C  
HETATM    2  C   UNL     1      -9.155  14.449  68.106  1.00  0.00    -0.194 C  
HETATM    3  C   UNL     1     -10.215  13.942  67.100  1.00  0.00    -0.258 C  
HETATM    4  C   UNL     1      -9.164  15.999  68.198  1.00  0.00    -0.195 C  
ENDROOT
BRANCH   4   5
HETATM    5  N   UNL     1     -10.429  16.639  68.596  1.00  0.00    -0.301 NA 
HETATM    6  C   UNL     1     -10.266  18.099  68.567  1.00  0.00    -0.384 C  
HETATM    7  C   UNL     1     -10.857  16.221  69.934  1.00  0.00    -0.352 C  
ENDBRANCH   4   5
BRANCH   3   8
HETATM    8  N   UNL     1     -10.262  12.456  67.040  1.00  0.00    -0.219 NA 
HETATM    9  C   UNL     1     -10.563  11.798  68.252  1.00  0.00    -0.211 A  
HETATM   10  C   UNL     1     -11.762  12.056  68.935  1.00  0.00    -0.383 A  
HETATM   11  C   UNL     1     -12.101  11.354  70.092  1.00  0.00    -0.439 A  
HETATM   12  C   UNL     1     -11.242  10.385  70.597  1.00  0.00    -0.358 A  
HETATM   13  C   UNL     1     -10.044  10.115  69.939  1.00  0.00    -0.268 A  
HETATM   14  C   UNL     1      -9.703  10.811  68.770  1.00  0.00    -0.197 A  
HETATM   15  C   UNL     1      -8.425  10.504  68.046  1.00  0.00    -0.120 C  
HETATM   16  C   UNL     1      -8.693   9.822  66.710  1.00  0.00    -0.140 C  
HETATM   17  C   UNL     1      -9.432  10.584  65.625  1.00  0.00    -0.259 A  
HETATM   18  C   UNL     1      -9.397   9.972  64.347  1.00  0.00    -0.348 A  
HETATM   19  C   UNL     1     -10.032  10.537  63.247  1.00  0.00    -0.231 A  
HETATM   20  C   UNL     1     -10.729  11.722  63.403  1.00  0.00    -0.468 A  
HETATM   21  C   UNL     1     -10.778  12.337  64.657  1.00  0.00    -0.347 A  
HETATM   22  C   UNL     1     -10.130  11.803  65.794  1.00  0.00    -0.237 A  
ENDBRANCH   3   8
TORSDOF 2
ENDMDL
MODEL       17
REMARK 921   NORMALIZED FREE ENERGY PREDICTED BY IDOCK:   -5.44 KCAL/MOL
REMARK 922        TOTAL FREE ENERGY PREDICTED BY IDOCK:   -6.98 KCAL/MOL
REMARK 923 INTER-LIGAND FREE ENERGY PREDICTED BY IDOCK:   -6.07 KCAL/MOL
REMARK 924 INTRA-LIGAND FREE ENERGY PREDICTED BY IDOCK:   -0.92 KCAL/MOL
REMARK 927      BINDING AFFINITY PREDICTED BY RF-SCORE:    0.00 PKD
ROOT
HETATM    1  C   UNL     1     -12.160  12.507  65.662  1.00  0.00    -0.464 C  
HETATM    2  C   UNL     1     -10.796  11.799  65.613  1.00  0.00    -0.342 C  
HETATM    3  C   UNL     1      -9.705  12.570  66.392  1.00  0.00    -0.249 C  
HETATM    4  C   UNL     1     -10.417  11.647  64.116  1.00  0.00    -0.351 C  
ENDROOT
BRANCH   4   5
HETATM    5  N   UNL     1      -9.149  10.960  63.812  1.00  0.00    -0.194 NA 
HETATM    6  C   UNL     1      -8.954  10.920  62.356  1.00  0.00    -0.309 C  
HETATM    7  C   UNL     1      -9.125   9.595  64.346  1.00  0.00    -0.229 C  
ENDBRANCH   4   5
BRANCH   3   8
HETATM    8  N   UNL     1     -10.023  12.676  67.842  1.00  0.00    -0.221 NA 
HETATM    9  C   UNL     1      -9.757  11.528  68.618  1.00  0.00    -0.165 A  
HETATM   10  C   UNL     1      -8.462  10.987  68.688  1.00  0.00    -0.157 A  
HETATM   11  C   UNL     1      -8.176   9.899  69.513  1.00  0.00    -0.163 A  
HETATM   12  C   UNL     1      -9.182   9.322  70.279  1.00  0.00    -0.273 A  
HETATM   13  C   UNL     1     -10.474   9.838  70.223  1.00  0.00    -0.345 A  
HETATM   14  C   UNL     1     -10.765  10.938  69.402  1.00  0.00    -0.265 A  
HETATM   15  C   UNL     1     -12.152  11.510  69.359  1.00  0.00    -0.345 C  
HETATM   16  C   UNL     1     -12.205  12.887  70.010  1.00  0.00    -0.292 C  
HETATM   17  C   UNL     1     -11.429  14.032  69.384  1.00  0.00    -0.343 A  
HETATM   18  C   UNL     1     -11.751  15.313  69.899  1.00  0.00    -0.349 A  
HETATM   19  C   UNL     1     -11.124  16.465  69.439  1.00  0.00    -0.300 A  
HETATM   20  C   UNL     1     -10.151  16.362  68.461  1.00  0.00    -0.248 A  
HETATM   21  C   UNL     1      -9.817  15.106  67.947  1.00  0.00    -0.216 A  
HETATM   22  C   UNL     1     -10.445  13.915  68.375  1.00  0.00    -0.247 A  
ENDBRANCH   3   8
TORSDOF 2
ENDMDL
MODEL       18
REMARK 921   NORMALIZED FREE ENERGY PREDICTED BY IDOCK:   -5.41 KCAL/MOL
REMARK 922        TOTAL FREE ENERGY PREDICTED BY IDOCK:   -6.95 KCAL/MOL
REMARK 923 INTER-LIGAND FREE ENERGY PREDICTED BY IDOCK:   -5.98 KCAL/MOL
REMARK 924 INTRA-LIGAND FREE ENERGY PREDICTED BY IDOCK:   -0.97 KCAL/MOL
REMARK 927      BINDING AFFINITY PREDICTED BY RF-SCORE:    0.00 PKD
ROOT
HETATM    1  C   UNL     1     -11.051  15.463  69.911  1.00  0.00    -0.304 C  
HETATM    2  C   UNL     1     -10.513  16.161  68.651  1.00  0.00    -0.269 C  
HETATM    3  C   UNL     1      -9.262  15.456  68.077  1.00  0.00    -0.184 C  
HETATM    4  C   UNL     1     -10.201  17.630  69.043  1.00  0.00    -0.314 C  
ENDROOT
BRANCH   4   5
HETATM    5  N   UNL     1      -9.697  18.515  67.979  1.00  0.00    -0.313 NA 
HETATM    6  C   UNL     1      -8.734  19.466  68.552  1.00  0.00    -0.367 C  
HETATM    7  C   UNL     1     -10.780  19.252  67.322  1.00  0.00    -0.488 C  
ENDBRANCH   4   5
BRANCH   3   8
HETATM    8  N   UNL     1      -9.555  14.064  67.641  1.00  0.00    -0.216 NA 
HETATM    9  C   UNL     1     -10.461  13.931  66.567  1.00  0.00    -0.282 A  
HETATM   10  C   UNL     1     -10.200  14.530  65.324  1.00  0.00    -0.431 A  
HETATM   11  C   UNL     1     -11.052  14.340  64.236  1.00  0.00    -0.105 A  
HETATM   12  C   UNL     1     -12.190  13.553  64.371  1.00  0.00    -0.440 A  
HETATM   13  C   UNL     1     -12.473  12.953  65.596  1.00  0.00    -0.400 A  
HETATM   14  C   UNL     1     -11.614  13.134  66.691  1.00  0.00    -0.403 A  
HETATM   15  C   UNL     1     -11.903  12.467  68.004  1.00  0.00    -0.382 C  
HETATM   16  C   UNL     1     -10.894  11.366  68.303  1.00  0.00    -0.253 C  
HETATM   17  C   UNL     1      -9.436  11.735  68.512  1.00  0.00    -0.165 A  
HETATM   18  C   UNL     1      -8.635  10.693  69.041  1.00  0.00    -0.150 A  
HETATM   19  C   UNL     1      -7.277  10.865  69.284  1.00  0.00    -0.128 A  
HETATM   20  C   UNL     1      -6.685  12.081  68.990  1.00  0.00    -0.100 A  
HETATM   21  C   UNL     1      -7.460  13.118  68.462  1.00  0.00    -0.117 A  
HETATM   22  C   UNL     1      -8.846  12.987  68.220  1.00  0.00    -0.172 A  
ENDBRANCH   3   8
TORSDOF 2
ENDMDL
MODEL       19
REMARK 921   NORMALIZED FREE ENERGY PREDICTED BY IDOCK:   -5.34 KCAL/MOL
REMARK 922        TOTAL FREE ENERGY PREDICTED BY IDOCK:   -6.88 KCAL/MOL
REMARK 923 INTER-LIGAND FREE ENERGY PREDICTED BY IDOCK:   -6.62 KCAL/MOL
REMARK 924 INTRA-LIGAND FREE ENERGY PREDICTED BY IDOCK:   -0.25 KCAL/MOL
REMARK 927      BINDING AFFINITY PREDICTED BY RF-SCORE:    0.00 PKD
ROOT
HETATM    1  C   UNL     1     -12.525  13.760  65.301  1.00  0.00    -0.512 C  
HETATM    2  C   UNL     1     -11.464  12.647  65.272  1.00  0.00    -0.368 C  
HETATM    3  C   UNL     1     -10.073  13.149  65.725  1.00  0.00    -0.285 C  
HETATM    4  C   UNL     1     -11.419  12.100  63.821  1.00  0.00    -0.465 C  
ENDROOT
BRANCH   4   5
HETATM    5  N   UNL     1     -10.488  10.991  63.551  1.00  0.00    -0.349 NA 
HETATM    6  C   UNL     1     -10.112  10.352  64.819  1.00  0.00    -0.317 C  
HETATM    7  C   UNL     1      -9.281  11.447  62.857  1.00  0.00    -0.281 C  
ENDBRANCH   4   5
BRANCH   3   8
HETATM    8  N   UNL     1     -10.082  13.625  67.135  1.00  0.00    -0.242 NA 
HETATM    9  C   UNL     1     -10.458  12.672  68.106  1.00  0.00    -0.231 A  
HETATM   10  C   UNL     1      -9.743  11.473  68.255  1.00  0.00    -0.198 A  
HETATM   11  C   UNL     1     -10.060  10.561  69.262  1.00  0.00    -0.244 A  
HETATM   12  C   UNL     1     -11.108  10.826  70.137  1.00  0.00    -0.298 A  
HETATM   13  C   UNL     1     -11.834  12.008  70.006  1.00  0.00    -0.392 A  
HETATM   14  C   UNL     1     -11.512  12.932  69.001  1.00  0.00    -0.358 A  
HETATM   15  C   UNL     1     -12.278  14.216  68.874  1.00  0.00    -0.257 C  
HETATM   16  C   UNL     1     -11.420  15.415  69.260  1.00  0.00    -0.344 C  
HETATM   17  C   UNL     1     -10.201  15.753  68.422  1.00  0.00    -0.223 A  
HETATM   18  C   UNL     1      -9.630  17.021  68.696  1.00  0.00    -0.275 A  
HETATM   19  C   UNL     1      -8.504  17.478  68.021  1.00  0.00    -0.242 A  
HETATM   20  C   UNL     1      -7.914  16.672  67.065  1.00  0.00    -0.230 A  
HETATM   21  C   UNL     1      -8.460  15.416  66.786  1.00  0.00    -0.307 A  
HETATM   22  C   UNL     1      -9.614  14.924  67.437  1.00  0.00    -0.206 A  
ENDBRANCH   3   8
TORSDOF 2
ENDMDL
MODEL       20
REMARK 921   NORMALIZED FREE ENERGY PREDICTED BY IDOCK:   -5.34 KCAL/MOL
REMARK 922        TOTAL FREE ENERGY PREDICTED BY IDOCK:   -6.87 KCAL/MOL
REMARK 923 INTER-LIGAND FREE ENERGY PREDICTED BY IDOCK:   -5.97 KCAL/MOL
REMARK 924 INTRA-LIGAND FREE ENERGY PREDICTED BY IDOCK:   -0.91 KCAL/MOL
REMARK 927      BINDING AFFINITY PREDICTED BY RF-SCORE:    0.00 PKD
ROOT
HETATM    1  C   UNL     1     -13.715   8.450  71.464  1.00  0.00    -0.356 C  
HETATM    2  C   UNL     1     -12.765   9.654  71.356  1.00  0.00    -0.466 C  
HETATM    3  C   UNL     1     -11.420   9.408  72.078  1.00  0.00    -0.095 C  
HETATM    4  C   UNL     1     -13.510  10.876  71.955  1.00  0.00    -0.202 C  
ENDROOT
BRANCH   4   5
HETATM    5  N   UNL     1     -12.803  12.169  71.932  1.00  0.00    -0.283 NA 
HETATM    6  C   UNL     1     -13.695  13.220  72.442  1.00  0.00    -0.578 C  
HETATM    7  C   UNL     1     -12.352  12.522  70.584  1.00  0.00    -0.282 C  
ENDBRANCH   4   5
BRANCH   3   8
HETATM    8  N   UNL     1     -10.663   8.275  71.480  1.00  0.00    -0.224 NA 
HETATM    9  C   UNL     1     -10.006   8.546  70.261  1.00  0.00    -0.183 A  
HETATM   10  C   UNL     1      -9.041   9.563  70.172  1.00  0.00    -0.276 A  
HETATM   11  C   UNL     1      -8.332   9.786  68.991  1.00  0.00    -0.127 A  
HETATM   12  C   UNL     1      -8.581   9.002  67.870  1.00  0.00    -0.125 A  
HETATM   13  C   UNL     1      -9.537   7.991  67.933  1.00  0.00    -0.178 A  
HETATM   14  C   UNL     1     -10.245   7.757  69.122  1.00  0.00    -0.210 A  
HETATM   15  C   UNL     1     -11.258   6.651  69.199  1.00  0.00    -0.305 C  
HETATM   16  C   UNL     1     -10.778   5.520  70.100  1.00  0.00    -0.348 C  
HETATM   17  C   UNL     1     -10.570   5.789  71.579  1.00  0.00    -0.304 A  
HETATM   18  C   UNL     1     -10.384   4.628  72.369  1.00  0.00    -0.262 A  
HETATM   19  C   UNL     1     -10.173   4.702  73.741  1.00  0.00    -0.234 A  
HETATM   20  C   UNL     1     -10.129   5.941  74.354  1.00  0.00    -0.302 A  
HETATM   21  C   UNL     1     -10.304   7.098  73.589  1.00  0.00    -0.411 A  
HETATM   22  C   UNL     1     -10.540   7.062  72.196  1.00  0.00    -0.213 A  
ENDBRANCH   3   8
TORSDOF 2
ENDMDL
MODEL       21
REMARK 921   NORMALIZED FREE ENERGY PREDICTED BY IDOCK:   -5.29 KCAL/MOL
REMARK 922        TOTAL FREE ENERGY PREDICTED BY IDOCK:   -6.81 KCAL/MOL
REMARK 923 INTER-LIGAND FREE ENERGY PREDICTED BY IDOCK:   -6.16 KCAL/MOL
REMARK 924 INTRA-LIGAND FREE ENERGY PREDICTED BY IDOCK:   -0.65 KCAL/MOL
REMARK 927      BINDING AFFINITY PREDICTED BY RF-SCORE:    0.00 PKD
ROOT
HETATM    1  C   UNL     1      -8.150  13.530  68.157  1.00  0.00    -0.154 C  
HETATM    2  C   UNL     1      -8.439  12.288  67.297  1.00  0.00    -0.181 C  
HETATM    3  C   UNL     1      -9.441  11.324  67.975  1.00  0.00    -0.173 C  
HETATM    4  C   UNL     1      -7.078  11.591  67.035  1.00  0.00    -0.147 C  
ENDROOT
BRANCH   4   5
HETATM    5  N   UNL     1      -7.096  10.379  66.196  1.00  0.00    -0.123 NA 
HETATM    6  C   UNL     1      -6.852   9.201  67.038  1.00  0.00    -0.080 C  
HETATM    7  C   UNL     1      -6.090  10.437  65.131  1.00  0.00    -0.124 C  
ENDBRANCH   4   5
BRANCH   3   8
HETATM    8  N   UNL     1     -10.772  11.957  68.183  1.00  0.00    -0.205 NA 
HETATM    9  C   UNL     1     -11.335  12.595  67.057  1.00  0.00    -0.323 A  
HETATM   10  C   UNL     1     -11.583  11.882  65.872  1.00  0.00    -0.291 A  
HETATM   11  C   UNL     1     -12.209  12.486  64.782  1.00  0.00    -0.532 A  
HETATM   12  C   UNL     1     -12.594  13.820  64.850  1.00  0.00    -0.380 A  
HETATM   13  C   UNL     1     -12.354  14.548  66.013  1.00  0.00    -0.234 A  
HETATM   14  C   UNL     1     -11.733  13.943  67.116  1.00  0.00    -0.419 A  
HETATM   15  C   UNL     1     -11.497  14.719  68.379  1.00  0.00    -0.336 C  
HETATM   16  C   UNL     1     -12.388  14.222  69.511  1.00  0.00    -0.272 C  
HETATM   17  C   UNL     1     -12.202  12.809  70.033  1.00  0.00    -0.279 A  
HETATM   18  C   UNL     1     -12.883  12.535  71.245  1.00  0.00    -0.337 A  
HETATM   19  C   UNL     1     -12.823  11.286  71.852  1.00  0.00    -0.386 A  
HETATM   20  C   UNL     1     -12.091  10.277  71.253  1.00  0.00    -0.479 A  
HETATM   21  C   UNL     1     -11.418  10.528  70.054  1.00  0.00    -0.393 A  
HETATM   22  C   UNL     1     -11.440  11.790  69.418  1.00  0.00    -0.307 A  
ENDBRANCH   3   8
TORSDOF 2
ENDMDL
MODEL       22
REMARK 921   NORMALIZED FREE ENERGY PREDICTED BY IDOCK:   -5.27 KCAL/MOL
REMARK 922        TOTAL FREE ENERGY PREDICTED BY IDOCK:   -6.79 KCAL/MOL
REMARK 923 INTER-LIGAND FREE ENERGY PREDICTED BY IDOCK:   -5.83 KCAL/MOL
REMARK 924 INTRA-LIGAND FREE ENERGY PREDICTED BY IDOCK:   -0.96 KCAL/MOL
REMARK 927      BINDING AFFINITY PREDICTED BY RF-SCORE:    0.00 PKD
ROOT
HETATM    1  C   UNL     1      -8.271   8.109  72.291  1.00  0.00    -0.205 C  
HETATM    2  C   UNL     1      -9.043   6.821  71.959  1.00  0.00    -0.139 C  
HETATM    3  C   UNL     1     -10.559   7.075  71.779  1.00  0.00    -0.210 C  
HETATM    4  C   UNL     1      -8.774   5.819  73.112  1.00  0.00    -0.122 C  
ENDROOT
BRANCH   4   5
HETATM    5  N   UNL     1      -9.391   4.485  73.000  1.00  0.00    -0.122 NA 
HETATM    6  C   UNL     1     -10.280   4.262  74.147  1.00  0.00    -0.204 C  
HETATM    7  C   UNL     1      -8.385   3.421  72.946  1.00  0.00    -0.081 C  
ENDBRANCH   4   5
BRANCH   3   8
HETATM    8  N   UNL     1     -10.841   7.989  70.639  1.00  0.00    -0.230 NA 
HETATM    9  C   UNL     1     -10.536   7.489  69.355  1.00  0.00    -0.223 A  
HETATM   10  C   UNL     1     -11.133   6.310  68.880  1.00  0.00    -0.434 A  
HETATM   11  C   UNL     1     -10.895   5.850  67.584  1.00  0.00    -0.331 A  
HETATM   12  C   UNL     1     -10.047   6.557  66.739  1.00  0.00    -0.239 A  
HETATM   13  C   UNL     1      -9.441   7.726  67.190  1.00  0.00    -0.198 A  
HETATM   14  C   UNL     1      -9.684   8.197  68.489  1.00  0.00    -0.170 A  
HETATM   15  C   UNL     1      -9.050   9.471  68.968  1.00  0.00    -0.144 C  
HETATM   16  C   UNL     1     -10.086  10.576  69.140  1.00  0.00    -0.240 C  
HETATM   17  C   UNL     1     -11.174  10.414  70.186  1.00  0.00    -0.393 A  
HETATM   18  C   UNL     1     -11.916  11.592  70.452  1.00  0.00    -0.459 A  
HETATM   19  C   UNL     1     -12.953  11.611  71.377  1.00  0.00    -0.426 A  
HETATM   20  C   UNL     1     -13.281  10.448  72.050  1.00  0.00    -0.497 A  
HETATM   21  C   UNL     1     -12.564   9.276  71.796  1.00  0.00    -0.461 A  
HETATM   22  C   UNL     1     -11.491   9.222  70.878  1.00  0.00    -0.303 A  
ENDBRANCH   3   8
TORSDOF 2
ENDMDL
MODEL       23
REMARK 921   NORMALIZED FREE ENERGY PREDICTED BY IDOCK:   -5.27 KCAL/MOL
REMARK 922        TOTAL FREE ENERGY PREDICTED BY IDOCK:   -6.79 KCAL/MOL
REMARK 923 INTER-LIGAND FREE ENERGY PREDICTED BY IDOCK:   -5.93 KCAL/MOL
REMARK 924 INTRA-LIGAND FREE ENERGY PREDICTED BY IDOCK:   -0.86 KCAL/MOL
REMARK 927      BINDING AFFINITY PREDICTED BY RF-SCORE:    0.00 PKD
ROOT
HETATM    1  C   UNL     1     -10.214  10.970  68.472  1.00  0.00    -0.203 C  
HETATM    2  C   UNL     1      -8.923  11.803  68.418  1.00  0.00    -0.168 C  
HETATM    3  C   UNL     1      -8.606  12.303  66.989  1.00  0.00    -0.191 C  
HETATM    4  C   UNL     1      -7.781  10.906  68.966  1.00  0.00    -0.135 C  
ENDROOT
BRANCH   4   5
HETATM    5  N   UNL     1      -6.436  11.505  69.042  1.00  0.00    -0.068 NA 
HETATM    6  C   UNL     1      -5.572  10.891  68.025  1.00  0.00    -0.042 C  
HETATM    7  C   UNL     1      -5.834  11.330  70.366  1.00  0.00    -0.151 C  
ENDBRANCH   4   5
BRANCH   3   8
HETATM    8  N   UNL     1      -9.663  13.212  66.467  1.00  0.00    -0.264 NA 
HETATM    9  C   UNL     1      -9.627  14.539  66.945  1.00  0.00    -0.250 A  
HETATM   10  C   UNL     1      -8.493  15.345  66.755  1.00  0.00    -0.307 A  
HETATM   11  C   UNL     1      -8.478  16.680  67.156  1.00  0.00    -0.213 A  
HETATM   12  C   UNL     1      -9.597  17.237  67.766  1.00  0.00    -0.262 A  
HETATM   13  C   UNL     1     -10.733  16.456  67.970  1.00  0.00    -0.334 A  
HETATM   14  C   UNL     1     -10.755  15.114  67.559  1.00  0.00    -0.284 A  
HETATM   15  C   UNL     1     -11.986  14.279  67.755  1.00  0.00    -0.384 C  
HETATM   16  C   UNL     1     -12.655  13.955  66.425  1.00  0.00    -0.314 C  
HETATM   17  C   UNL     1     -11.915  13.098  65.413  1.00  0.00    -0.448 A  
HETATM   18  C   UNL     1     -12.712  12.636  64.337  1.00  0.00    -0.417 A  
HETATM   19  C   UNL     1     -12.185  11.848  63.321  1.00  0.00    -0.487 A  
HETATM   20  C   UNL     1     -10.843  11.514  63.351  1.00  0.00    -0.423 A  
HETATM   21  C   UNL     1     -10.040  11.966  64.402  1.00  0.00    -0.310 A  
HETATM   22  C   UNL     1     -10.544  12.753  65.462  1.00  0.00    -0.281 A  
ENDBRANCH   3   8
TORSDOF 2
ENDMDL
MODEL       24
REMARK 921   NORMALIZED FREE ENERGY PREDICTED BY IDOCK:   -5.25 KCAL/MOL
REMARK 922        TOTAL FREE ENERGY PREDICTED BY IDOCK:   -6.77 KCAL/MOL
REMARK 923 INTER-LIGAND FREE ENERGY PREDICTED BY IDOCK:   -5.79 KCAL/MOL
REMARK 924 INTRA-LIGAND FREE ENERGY PREDICTED BY IDOCK:   -0.98 KCAL/MOL
REMARK 927      BINDING AFFINITY PREDICTED BY RF-SCORE:    0.00 PKD
ROOT
HETATM    1  C   UNL     1     -11.917  12.106  69.279  1.00  0.00    -0.318 C  
HETATM    2  C   UNL     1     -10.685  11.192  69.168  1.00  0.00    -0.262 C  
HETATM    3  C   UNL     1     -10.304  10.896  67.698  1.00  0.00    -0.197 C  
HETATM    4  C   UNL     1     -11.019   9.885  69.936  1.00  0.00    -0.281 C  
ENDROOT
BRANCH   4   5
HETATM    5  N   UNL     1      -9.966   8.856  69.996  1.00  0.00    -0.183 NA 
HETATM    6  C   UNL     1     -10.529   7.560  69.595  1.00  0.00    -0.234 C  
HETATM    7  C   UNL     1      -9.388   8.744  71.338  1.00  0.00    -0.258 C  
ENDBRANCH   4   5
BRANCH   3   8
HETATM    8  N   UNL     1      -9.924  12.131  66.960  1.00  0.00    -0.201 NA 
HETATM    9  C   UNL     1      -8.733  12.762  67.381  1.00  0.00    -0.196 A  
HETATM   10  C   UNL     1      -7.508  12.076  67.362  1.00  0.00    -0.152 A  
HETATM   11  C   UNL     1      -6.316  12.714  67.703  1.00  0.00    -0.147 A  
HETATM   12  C   UNL     1      -6.326  14.052  68.081  1.00  0.00    -0.128 A  
HETATM   13  C   UNL     1      -7.530  14.752  68.113  1.00  0.00    -0.119 A  
HETATM   14  C   UNL     1      -8.730  14.116  67.761  1.00  0.00    -0.182 A  
HETATM   15  C   UNL     1     -10.025  14.875  67.770  1.00  0.00    -0.222 C  
HETATM   16  C   UNL     1     -10.553  15.089  66.357  1.00  0.00    -0.310 C  
HETATM   17  C   UNL     1     -10.962  13.884  65.529  1.00  0.00    -0.302 A  
HETATM   18  C   UNL     1     -11.681  14.196  64.349  1.00  0.00    -0.409 A  
HETATM   19  C   UNL     1     -12.121  13.208  63.476  1.00  0.00    -0.585 A  
HETATM   20  C   UNL     1     -11.839  11.883  63.757  1.00  0.00    -0.558 A  
HETATM   21  C   UNL     1     -11.126  11.557  64.914  1.00  0.00    -0.282 A  
HETATM   22  C   UNL     1     -10.680  12.532  65.835  1.00  0.00    -0.264 A  
ENDBRANCH   3   8
TORSDOF 2
ENDMDL
MODEL       25
REMARK 921   NORMALIZED FREE ENERGY PREDICTED BY IDOCK:   -5.18 KCAL/MOL
REMARK 922        TOTAL FREE ENERGY PREDICTED BY IDOCK:   -6.69 KCAL/MOL
REMARK 923 INTER-LIGAND FREE ENERGY PREDICTED BY IDOCK:   -7.23 KCAL/MOL
REMARK 924 INTRA-LIGAND FREE ENERGY PREDICTED BY IDOCK:    0.54 KCAL/MOL
REMARK 927      BINDING AFFINITY PREDICTED BY RF-SCORE:    0.00 PKD
ROOT
HETATM    1  C   UNL     1     -12.241  15.513  69.146  1.00  0.00    -0.175 C  
HETATM    2  C   UNL     1     -11.072  15.767  68.180  1.00  0.00    -0.341 C  
HETATM    3  C   UNL     1     -10.064  14.594  68.157  1.00  0.00    -0.224 C  
HETATM    4  C   UNL     1     -10.390  17.086  68.628  1.00  0.00    -0.351 C  
ENDROOT
BRANCH   4   5
HETATM    5  N   UNL     1      -9.249  17.558  67.825  1.00  0.00    -0.250 NA 
HETATM    6  C   UNL     1      -8.557  18.634  68.547  1.00  0.00    -0.340 C  
HETATM    7  C   UNL     1      -9.671  18.045  66.509  1.00  0.00    -0.338 C  
ENDBRANCH   4   5
BRANCH   3   8
HETATM    8  N   UNL     1     -10.685  13.331  67.673  1.00  0.00    -0.237 NA 
HETATM    9  C   UNL     1     -10.958  12.360  68.660  1.00  0.00    -0.247 A  
HETATM   10  C   UNL     1     -11.801  12.651  69.745  1.00  0.00    -0.379 A  
HETATM   11  C   UNL     1     -12.136  11.674  70.683  1.00  0.00    -0.432 A  
HETATM   12  C   UNL     1     -11.627  10.386  70.560  1.00  0.00    -0.433 A  
HETATM   13  C   UNL     1     -10.786  10.075  69.494  1.00  0.00    -0.269 A  
HETATM   14  C   UNL     1     -10.453  11.052  68.544  1.00  0.00    -0.210 A  
HETATM   15  C   UNL     1      -9.567  10.712  67.381  1.00  0.00    -0.180 C  
HETATM   16  C   UNL     1     -10.343  10.720  66.070  1.00  0.00    -0.300 C  
HETATM   17  C   UNL     1     -10.942  12.023  65.571  1.00  0.00    -0.345 A  
HETATM   18  C   UNL     1     -11.406  11.984  64.233  1.00  0.00    -0.433 A  
HETATM   19  C   UNL     1     -11.989  13.092  63.628  1.00  0.00    -0.608 A  
HETATM   20  C   UNL     1     -12.133  14.261  64.352  1.00  0.00    -0.490 A  
HETATM   21  C   UNL     1     -11.685  14.316  65.675  1.00  0.00    -0.358 A  
HETATM   22  C   UNL     1     -11.071  13.217  66.318  1.00  0.00    -0.290 A  
ENDBRANCH   3   8
TORSDOF 2
ENDMDL
MODEL       26
REMARK 921   NORMALIZED FREE ENERGY PREDICTED BY IDOCK:   -5.16 KCAL/MOL
REMARK 922        TOTAL FREE ENERGY PREDICTED BY IDOCK:   -6.67 KCAL/MOL
REMARK 923 INTER-LIGAND FREE ENERGY PREDICTED BY IDOCK:   -5.74 KCAL/MOL
REMARK 924 INTRA-LIGAND FREE ENERGY PREDICTED BY IDOCK:   -0.93 KCAL/MOL
REMARK 927      BINDING AFFINITY PREDICTED BY RF-SCORE:    0.00 PKD
ROOT
HETATM    1  C   UNL     1     -12.775   9.513  71.575  1.00  0.00    -0.461 C  
HETATM    2  C   UNL     1     -11.938  10.202  70.485  1.00  0.00    -0.400 C  
HETATM    3  C   UNL     1     -10.421   9.962  70.668  1.00  0.00    -0.231 C  
HETATM    4  C   UNL     1     -12.279  11.715  70.539  1.00  0.00    -0.361 C  
ENDROOT
BRANCH   4   5
HETATM    5  N   UNL     1     -11.615  12.588  69.555  1.00  0.00    -0.291 NA 
HETATM    6  C   UNL     1     -12.123  13.959  69.699  1.00  0.00    -0.349 C  
HETATM    7  C   UNL     1     -11.833  12.127  68.181  1.00  0.00    -0.299 C  
ENDBRANCH   4   5
BRANCH   3   8
HETATM    8  N   UNL     1     -10.066   8.521  70.561  1.00  0.00    -0.188 NA 
HETATM    9  C   UNL     1     -10.155   7.957  69.270  1.00  0.00    -0.197 A  
HETATM   10  C   UNL     1      -9.406   8.476  68.202  1.00  0.00    -0.145 A  
HETATM   11  C   UNL     1      -9.431   7.878  66.943  1.00  0.00    -0.243 A  
HETATM   12  C   UNL     1     -10.214   6.750  66.722  1.00  0.00    -0.273 A  
HETATM   13  C   UNL     1     -10.970   6.220  67.766  1.00  0.00    -0.427 A  
HETATM   14  C   UNL     1     -10.941   6.814  69.036  1.00  0.00    -0.281 A  
HETATM   15  C   UNL     1     -11.735   6.229  70.168  1.00  0.00    -0.274 C  
HETATM   16  C   UNL     1     -10.826   5.607  71.221  1.00  0.00    -0.289 C  
HETATM   17  C   UNL     1      -9.877   6.499  72.001  1.00  0.00    -0.169 A  
HETATM   18  C   UNL     1      -9.276   5.881  73.125  1.00  0.00    -0.133 A  
HETATM   19  C   UNL     1      -8.376   6.558  73.939  1.00  0.00    -0.120 A  
HETATM   20  C   UNL     1      -8.045   7.867  73.640  1.00  0.00    -0.248 A  
HETATM   21  C   UNL     1      -8.624   8.491  72.531  1.00  0.00    -0.204 A  
HETATM   22  C   UNL     1      -9.557   7.842  71.691  1.00  0.00    -0.155 A  
ENDBRANCH   3   8
TORSDOF 2
ENDMDL
MODEL       27
REMARK 921   NORMALIZED FREE ENERGY PREDICTED BY IDOCK:   -5.12 KCAL/MOL
REMARK 922        TOTAL FREE ENERGY PREDICTED BY IDOCK:   -6.62 KCAL/MOL
REMARK 923 INTER-LIGAND FREE ENERGY PREDICTED BY IDOCK:   -5.88 KCAL/MOL
REMARK 924 INTRA-LIGAND FREE ENERGY PREDICTED BY IDOCK:   -0.74 KCAL/MOL
REMARK 927      BINDING AFFINITY PREDICTED BY RF-SCORE:    0.00 PKD
ROOT
HETATM    1  C   UNL     1      -9.840   9.832  65.878  1.00  0.00    -0.352 C  
HETATM    2  C   UNL     1     -10.281  11.303  65.961  1.00  0.00    -0.295 C  
HETATM    3  C   UNL     1     -11.112  11.596  67.232  1.00  0.00    -0.290 C  
HETATM    4  C   UNL     1     -11.093  11.607  64.675  1.00  0.00    -0.278 C  
ENDROOT
BRANCH   4   5
HETATM    5  N   UNL     1     -11.599  12.981  64.512  1.00  0.00    -0.342 NA 
HETATM    6  C   UNL     1     -12.288  13.096  63.219  1.00  0.00    -0.283 C  
HETATM    7  C   UNL     1     -10.523  13.973  64.582  1.00  0.00    -0.373 C  
ENDBRANCH   4   5
BRANCH   3   8
HETATM    8  N   UNL     1     -10.331  11.365  68.478  1.00  0.00    -0.199 NA 
HETATM    9  C   UNL     1      -9.061  11.979  68.533  1.00  0.00    -0.106 A  
HETATM   10  C   UNL     1      -8.927  13.371  68.412  1.00  0.00    -0.136 A  
HETATM   11  C   UNL     1      -7.685  13.992  68.542  1.00  0.00    -0.139 A  
HETATM   12  C   UNL     1      -6.547  13.231  68.787  1.00  0.00    -0.099 A  
HETATM   13  C   UNL     1      -6.656  11.847  68.907  1.00  0.00    -0.087 A  
HETATM   14  C   UNL     1      -7.904  11.220  68.786  1.00  0.00    -0.139 A  
HETATM   15  C   UNL     1      -8.026   9.731  68.939  1.00  0.00    -0.092 C  
HETATM   16  C   UNL     1      -8.763   9.363  70.221  1.00  0.00    -0.261 C  
HETATM   17  C   UNL     1     -10.218   9.763  70.380  1.00  0.00    -0.343 A  
HETATM   18  C   UNL     1     -10.882   9.153  71.473  1.00  0.00    -0.436 A  
HETATM   19  C   UNL     1     -12.215   9.419  71.762  1.00  0.00    -0.465 A  
HETATM   20  C   UNL     1     -12.913  10.313  70.971  1.00  0.00    -0.488 A  
HETATM   21  C   UNL     1     -12.273  10.929  69.892  1.00  0.00    -0.408 A  
HETATM   22  C   UNL     1     -10.925  10.670  69.556  1.00  0.00    -0.272 A  
ENDBRANCH   3   8
TORSDOF 2
ENDMDL
MODEL       28
REMARK 921   NORMALIZED FREE ENERGY PREDICTED BY IDOCK:   -5.12 KCAL/MOL
REMARK 922        TOTAL FREE ENERGY PREDICTED BY IDOCK:   -6.62 KCAL/MOL
REMARK 923 INTER-LIGAND FREE ENERGY PREDICTED BY IDOCK:   -6.19 KCAL/MOL
REMARK 924 INTRA-LIGAND FREE ENERGY PREDICTED BY IDOCK:   -0.43 KCAL/MOL
REMARK 927      BINDING AFFINITY PREDICTED BY RF-SCORE:    0.00 PKD
ROOT
HETATM    1  C   UNL     1     -11.047  14.302  65.310  1.00  0.00    -0.335 C  
HETATM    2  C   UNL     1     -10.346  15.276  66.272  1.00  0.00    -0.303 C  
HETATM    3  C   UNL     1     -10.804  15.086  67.737  1.00  0.00    -0.284 C  
HETATM    4  C   UNL     1     -10.652  16.711  65.768  1.00  0.00    -0.268 C  
ENDROOT
BRANCH   4   5
HETATM    5  N   UNL     1     -10.053  17.828  66.520  1.00  0.00    -0.343 NA 
HETATM    6  C   UNL     1     -10.534  19.101  65.967  1.00  0.00    -0.467 C  
HETATM    7  C   UNL     1      -8.589  17.796  66.473  1.00  0.00    -0.257 C  
ENDBRANCH   4   5
BRANCH   3   8
HETATM    8  N   UNL     1     -10.467  13.734  68.258  1.00  0.00    -0.241 NA 
HETATM    9  C   UNL     1      -9.226  13.203  67.843  1.00  0.00    -0.207 A  
HETATM   10  C   UNL     1      -8.026  13.879  68.114  1.00  0.00    -0.148 A  
HETATM   11  C   UNL     1      -6.791  13.326  67.776  1.00  0.00    -0.154 A  
HETATM   12  C   UNL     1      -6.732  12.086  67.148  1.00  0.00    -0.136 A  
HETATM   13  C   UNL     1      -7.910  11.399  66.865  1.00  0.00    -0.158 A  
HETATM   14  C   UNL     1      -9.153  11.948  67.212  1.00  0.00    -0.178 A  
HETATM   15  C   UNL     1     -10.422  11.198  66.930  1.00  0.00    -0.289 C  
HETATM   16  C   UNL     1     -11.078  10.712  68.216  1.00  0.00    -0.334 C  
HETATM   17  C   UNL     1     -11.594  11.731  69.216  1.00  0.00    -0.378 A  
HETATM   18  C   UNL     1     -12.414  11.193  70.237  1.00  0.00    -0.354 A  
HETATM   19  C   UNL     1     -12.960  11.991  71.236  1.00  0.00    -0.315 A  
HETATM   20  C   UNL     1     -12.685  13.347  71.244  1.00  0.00    -0.424 A  
HETATM   21  C   UNL     1     -11.873  13.894  70.247  1.00  0.00    -0.360 A  
HETATM   22  C   UNL     1     -11.316  13.118  69.205  1.00  0.00    -0.253 A  
ENDBRANCH   3   8
TORSDOF 2
ENDMDL
MODEL       29
REMARK 921   NORMALIZED FREE ENERGY PREDICTED BY IDOCK:   -5.09 KCAL/MOL
REMARK 922        TOTAL FREE ENERGY PREDICTED BY IDOCK:   -6.59 KCAL/MOL
REMARK 923 INTER-LIGAND FREE ENERGY PREDICTED BY IDOCK:   -5.92 KCAL/MOL
REMARK 924 INTRA-LIGAND FREE ENERGY PREDICTED BY IDOCK:   -0.67 KCAL/MOL
REMARK 927      BINDING AFFINITY PREDICTED BY RF-SCORE:    0.00 PKD
ROOT
HETATM    1  C   UNL     1     -10.603   8.561  67.126  1.00  0.00    -0.314 C  
HETATM    2  C   UNL     1     -10.521   9.524  68.322  1.00  0.00    -0.265 C  
HETATM    3  C   UNL     1      -9.391  10.568  68.161  1.00  0.00    -0.148 C  
HETATM    4  C   UNL     1     -10.307   8.655  69.590  1.00  0.00    -0.213 C  
ENDROOT
BRANCH   4   5
HETATM    5  N   UNL     1     -10.229   9.361  70.881  1.00  0.00    -0.295 NA 
HETATM    6  C   UNL     1      -9.169   8.760  71.701  1.00  0.00    -0.263 C  
HETATM    7  C   UNL     1     -11.500   9.310  71.610  1.00  0.00    -0.398 C  
ENDBRANCH   4   5
BRANCH   3   8
HETATM    8  N   UNL     1      -9.609  11.449  66.982  1.00  0.00    -0.175 NA 
HETATM    9  C   UNL     1     -10.156  12.721  67.254  1.00  0.00    -0.226 A  
HETATM   10  C   UNL     1      -9.503  13.618  68.116  1.00  0.00    -0.217 A  
HETATM   11  C   UNL     1      -9.997  14.905  68.330  1.00  0.00    -0.222 A  
HETATM   12  C   UNL     1     -11.161  15.319  67.693  1.00  0.00    -0.320 A  
HETATM   13  C   UNL     1     -11.828  14.446  66.837  1.00  0.00    -0.433 A  
HETATM   14  C   UNL     1     -11.330  13.154  66.612  1.00  0.00    -0.361 A  
HETATM   15  C   UNL     1     -12.034  12.220  65.670  1.00  0.00    -0.373 C  
HETATM   16  C   UNL     1     -11.216  11.986  64.406  1.00  0.00    -0.406 C  
HETATM   17  C   UNL     1      -9.873  11.288  64.512  1.00  0.00    -0.317 A  
HETATM   18  C   UNL     1      -9.320  10.882  63.272  1.00  0.00    -0.324 A  
HETATM   19  C   UNL     1      -8.092  10.237  63.194  1.00  0.00    -0.158 A  
HETATM   20  C   UNL     1      -7.379   9.994  64.355  1.00  0.00    -0.138 A  
HETATM   21  C   UNL     1      -7.907  10.393  65.586  1.00  0.00    -0.154 A  
HETATM   22  C   UNL     1      -9.160  11.034  65.707  1.00  0.00    -0.202 A  
ENDBRANCH   3   8
TORSDOF 2
ENDMDL
MODEL       30
REMARK 921   NORMALIZED FREE ENERGY PREDICTED BY IDOCK:   -5.03 KCAL/MOL
REMARK 922        TOTAL FREE ENERGY PREDICTED BY IDOCK:   -6.52 KCAL/MOL
REMARK 923 INTER-LIGAND FREE ENERGY PREDICTED BY IDOCK:   -6.97 KCAL/MOL
REMARK 924 INTRA-LIGAND FREE ENERGY PREDICTED BY IDOCK:    0.45 KCAL/MOL
REMARK 927      BINDING AFFINITY PREDICTED BY RF-SCORE:    0.00 PKD
ROOT
HETATM    1  C   UNL     1     -10.281  10.527  67.641  1.00  0.00    -0.234 C  
HETATM    2  C   UNL     1     -10.443  11.704  66.665  1.00  0.00    -0.268 C  
HETATM    3  C   UNL     1     -11.467  12.748  67.170  1.00  0.00    -0.337 C  
HETATM    4  C   UNL     1     -10.877  11.105  65.300  1.00  0.00    -0.152 C  
ENDROOT
BRANCH   4   5
HETATM    5  N   UNL     1     -11.066  12.049  64.185  1.00  0.00    -0.339 NA 
HETATM    6  C   UNL     1     -12.423  11.895  63.642  1.00  0.00    -0.470 C  
HETATM    7  C   UNL     1     -10.085  11.837  63.117  1.00  0.00    -0.354 C  
ENDBRANCH   4   5
BRANCH   3   8
HETATM    8  N   UNL     1     -11.040  13.376  68.450  1.00  0.00    -0.259 NA 
HETATM    9  C   UNL     1     -11.790  13.021  69.592  1.00  0.00    -0.319 A  
HETATM   10  C   UNL     1     -11.896  11.680  69.997  1.00  0.00    -0.435 A  
HETATM   11  C   UNL     1     -12.571  11.329  71.166  1.00  0.00    -0.501 A  
HETATM   12  C   UNL     1     -13.163  12.313  71.952  1.00  0.00    -0.481 A  
HETATM   13  C   UNL     1     -13.074  13.649  71.567  1.00  0.00    -0.431 A  
HETATM   14  C   UNL     1     -12.388  14.007  70.397  1.00  0.00    -0.429 A  
HETATM   15  C   UNL     1     -12.271  15.448  69.994  1.00  0.00    -0.392 C  
HETATM   16  C   UNL     1     -10.839  15.949  70.136  1.00  0.00    -0.359 C  
HETATM   17  C   UNL     1      -9.753  15.344  69.265  1.00  0.00    -0.268 A  
HETATM   18  C   UNL     1      -8.525  16.050  69.278  1.00  0.00    -0.224 A  
HETATM   19  C   UNL     1      -7.427  15.624  68.540  1.00  0.00    -0.123 A  
HETATM   20  C   UNL     1      -7.527  14.471  67.781  1.00  0.00    -0.182 A  
HETATM   21  C   UNL     1      -8.730  13.759  67.761  1.00  0.00    -0.182 A  
HETATM   22  C   UNL     1      -9.873  14.172  68.482  1.00  0.00    -0.230 A  
ENDBRANCH   3   8
TORSDOF 2
ENDMDL
MODEL       31
REMARK 921   NORMALIZED FREE ENERGY PREDICTED BY IDOCK:   -4.98 KCAL/MOL
REMARK 922        TOTAL FREE ENERGY PREDICTED BY IDOCK:   -6.47 KCAL/MOL
REMARK 923 INTER-LIGAND FREE ENERGY PREDICTED BY IDOCK:   -5.77 KCAL/MOL
REMARK 924 INTRA-LIGAND FREE ENERGY PREDICTED BY IDOCK:   -0.70 KCAL/MOL
REMARK 927      BINDING AFFINITY PREDICTED BY RF-SCORE:    0.00 PKD
ROOT
HETATM    1  C   UNL     1     -11.631  12.475  65.482  1.00  0.00    -0.429 C  
HETATM    2  C   UNL     1     -10.439  11.539  65.742  1.00  0.00    -0.308 C  
HETATM    3  C   UNL     1      -9.240  12.278  66.382  1.00  0.00    -0.203 C  
HETATM    4  C   UNL     1     -10.049  10.911  64.377  1.00  0.00    -0.339 C  
ENDROOT
BRANCH   4   5
HETATM    5  N   UNL     1      -8.939   9.942  64.378  1.00  0.00    -0.221 NA 
HETATM    6  C   UNL     1      -8.900   9.246  63.085  1.00  0.00    -0.144 C  
HETATM    7  C   UNL     1      -9.070   8.961  65.458  1.00  0.00    -0.190 C  
ENDBRANCH   4   5
BRANCH   3   8
HETATM    8  N   UNL     1      -9.577  12.838  67.718  1.00  0.00    -0.198 NA 
HETATM    9  C   UNL     1     -10.154  11.937  68.639  1.00  0.00    -0.177 A  
HETATM   10  C   UNL     1      -9.477  10.768  69.024  1.00  0.00    -0.179 A  
HETATM   11  C   UNL     1     -10.005   9.911  69.990  1.00  0.00    -0.302 A  
HETATM   12  C   UNL     1     -11.228  10.201  70.585  1.00  0.00    -0.418 A  
HETATM   13  C   UNL     1     -11.919  11.353  70.215  1.00  0.00    -0.460 A  
HETATM   14  C   UNL     1     -11.387  12.222  69.251  1.00  0.00    -0.317 A  
HETATM   15  C   UNL     1     -12.120  13.476  68.869  1.00  0.00    -0.315 C  
HETATM   16  C   UNL     1     -11.387  14.718  69.361  1.00  0.00    -0.312 C  
HETATM   17  C   UNL     1     -10.013  15.037  68.802  1.00  0.00    -0.228 A  
HETATM   18  C   UNL     1      -9.535  16.334  69.114  1.00  0.00    -0.246 A  
HETATM   19  C   UNL     1      -8.291  16.779  68.685  1.00  0.00    -0.252 A  
HETATM   20  C   UNL     1      -7.487  15.932  67.943  1.00  0.00    -0.145 A  
HETATM   21  C   UNL     1      -7.940  14.647  67.630  1.00  0.00    -0.193 A  
HETATM   22  C   UNL     1      -9.206  14.166  68.033  1.00  0.00    -0.195 A  
ENDBRANCH   3   8
TORSDOF 2
ENDMDL
MODEL       32
REMARK 921   NORMALIZED FREE ENERGY PREDICTED BY IDOCK:   -4.97 KCAL/MOL
REMARK 922        TOTAL FREE ENERGY PREDICTED BY IDOCK:   -6.46 KCAL/MOL
REMARK 923 INTER-LIGAND FREE ENERGY PREDICTED BY IDOCK:   -5.51 KCAL/MOL
REMARK 924 INTRA-LIGAND FREE ENERGY PREDICTED BY IDOCK:   -0.95 KCAL/MOL
REMARK 927      BINDING AFFINITY PREDICTED BY RF-SCORE:    0.00 PKD
ROOT
HETATM    1  C   UNL     1     -11.227   6.250  68.905  1.00  0.00    -0.387 C  
HETATM    2  C   UNL     1      -9.705   6.388  69.074  1.00  0.00    -0.145 C  
HETATM    3  C   UNL     1      -9.251   7.866  69.124  1.00  0.00    -0.144 C  
HETATM    4  C   UNL     1      -9.046   5.636  67.887  1.00  0.00    -0.107 C  
ENDROOT
BRANCH   4   5
HETATM    5  N   UNL     1      -7.573   5.602  67.850  1.00  0.00    -0.084 NA 
HETATM    6  C   UNL     1      -7.108   6.065  66.536  1.00  0.00    -0.072 C  
HETATM    7  C   UNL     1      -7.051   4.258  68.109  1.00  0.00    -0.059 C  
ENDBRANCH   4   5
BRANCH   3   8
HETATM    8  N   UNL     1      -9.827   8.589  70.290  1.00  0.00    -0.179 NA 
HETATM    9  C   UNL     1      -9.467   8.096  71.562  1.00  0.00    -0.171 A  
HETATM   10  C   UNL     1      -8.120   8.027  71.955  1.00  0.00    -0.164 A  
HETATM   11  C   UNL     1      -7.761   7.613  73.238  1.00  0.00    -0.142 A  
HETATM   12  C   UNL     1      -8.742   7.250  74.153  1.00  0.00    -0.253 A  
HETATM   13  C   UNL     1     -10.084   7.306  73.785  1.00  0.00    -0.375 A  
HETATM   14  C   UNL     1     -10.450   7.730  72.499  1.00  0.00    -0.343 A  
HETATM   15  C   UNL     1     -11.898   7.814  72.108  1.00  0.00    -0.370 C  
HETATM   16  C   UNL     1     -12.344   9.261  71.939  1.00  0.00    -0.454 C  
HETATM   17  C   UNL     1     -11.726  10.103  70.837  1.00  0.00    -0.468 A  
HETATM   18  C   UNL     1     -12.388  11.331  70.592  1.00  0.00    -0.477 A  
HETATM   19  C   UNL     1     -11.944  12.221  69.621  1.00  0.00    -0.347 A  
HETATM   20  C   UNL     1     -10.817  11.909  68.881  1.00  0.00    -0.261 A  
HETATM   21  C   UNL     1     -10.148  10.704  69.114  1.00  0.00    -0.234 A  
HETATM   22  C   UNL     1     -10.581   9.766  70.078  1.00  0.00    -0.276 A  
ENDBRANCH   3   8
TORSDOF 2
ENDMDL
MODEL       33
REMARK 921   NORMALIZED FREE ENERGY PREDICTED BY IDOCK:   -4.94 KCAL/MOL
REMARK 922        TOTAL FREE ENERGY PREDICTED BY IDOCK:   -6.43 KCAL/MOL
REMARK 923 INTER-LIGAND FREE ENERGY PREDICTED BY IDOCK:   -5.53 KCAL/MOL
REMARK 924 INTRA-LIGAND FREE ENERGY PREDICTED BY IDOCK:   -0.89 KCAL/MOL
REMARK 927      BINDING AFFINITY PREDICTED BY RF-SCORE:    0.00 PKD
ROOT
HETATM    1  C   UNL     1     -11.378   6.466  69.106  1.00  0.00    -0.366 C  
HETATM    2  C   UNL     1      -9.897   6.871  69.182  1.00  0.00    -0.156 C  
HETATM    3  C   UNL     1      -9.713   8.394  69.383  1.00  0.00    -0.177 C  
HETATM    4  C   UNL     1      -9.227   6.393  67.866  1.00  0.00    -0.113 C  
ENDROOT
BRANCH   4   5
HETATM    5  N   UNL     1      -7.782   6.643  67.720  1.00  0.00    -0.106 NA 
HETATM    6  C   UNL     1      -7.539   7.367  66.466  1.00  0.00    -0.092 C  
HETATM    7  C   UNL     1      -7.009   5.398  67.725  1.00  0.00    -0.066 C  
ENDBRANCH   4   5
BRANCH   3   8
HETATM    8  N   UNL     1     -10.299   8.863  70.668  1.00  0.00    -0.202 NA 
HETATM    9  C   UNL     1      -9.801   8.245  71.836  1.00  0.00    -0.232 A  
HETATM   10  C   UNL     1      -8.434   8.299  72.153  1.00  0.00    -0.239 A  
HETATM   11  C   UNL     1      -7.945   7.757  73.342  1.00  0.00    -0.192 A  
HETATM   12  C   UNL     1      -8.814   7.142  74.237  1.00  0.00    -0.248 A  
HETATM   13  C   UNL     1     -10.174   7.074  73.941  1.00  0.00    -0.388 A  
HETATM   14  C   UNL     1     -10.671   7.625  72.750  1.00  0.00    -0.401 A  
HETATM   15  C   UNL     1     -12.139   7.574  72.442  1.00  0.00    -0.216 C  
HETATM   16  C   UNL     1     -12.769   8.959  72.510  1.00  0.00    -0.382 C  
HETATM   17  C   UNL     1     -12.331  10.022  71.520  1.00  0.00    -0.513 A  
HETATM   18  C   UNL     1     -13.153  11.175  71.490  1.00  0.00    -0.489 A  
HETATM   19  C   UNL     1     -12.884  12.245  70.644  1.00  0.00    -0.014 A  
HETATM   20  C   UNL     1     -11.777  12.191  69.816  1.00  0.00    -0.381 A  
HETATM   21  C   UNL     1     -10.951  11.063  69.836  1.00  0.00    -0.218 A  
HETATM   22  C   UNL     1     -11.203   9.949  70.668  1.00  0.00    -0.344 A  
ENDBRANCH   3   8
TORSDOF 2
ENDMDL
MODEL       34
REMARK 921   NORMALIZED FREE ENERGY PREDICTED BY IDOCK:   -4.91 KCAL/MOL
REMARK 922        TOTAL FREE ENERGY PREDICTED BY IDOCK:   -6.39 KCAL/MOL
REMARK 923 INTER-LIGAND FREE ENERGY PREDICTED BY IDOCK:   -6.24 KCAL/MOL
REMARK 924 INTRA-LIGAND FREE ENERGY PREDICTED BY IDOCK:   -0.14 KCAL/MOL
REMARK 927      BINDING AFFINITY PREDICTED BY RF-SCORE:    0.00 PKD
ROOT
HETATM    1  C   UNL     1      -6.507  16.595  66.810  1.00  0.00    -0.186 C  
HETATM    2  C   UNL     1      -6.787  15.422  67.763  1.00  0.00    -0.188 C  
HETATM    3  C   UNL     1      -7.949  15.723  68.740  1.00  0.00    -0.180 C  
HETATM    4  C   UNL     1      -5.469  15.135  68.530  1.00  0.00    -0.099 C  
ENDROOT
BRANCH   4   5
HETATM    5  N   UNL     1      -5.482  14.018  69.490  1.00  0.00    -0.084 NA 
HETATM    6  C   UNL     1      -6.373  12.961  68.995  1.00  0.00    -0.100 C  
HETATM    7  C   UNL     1      -5.922  14.446  70.821  1.00  0.00    -0.195 C  
ENDBRANCH   4   5
BRANCH   3   8
HETATM    8  N   UNL     1      -9.236  15.944  68.026  1.00  0.00    -0.192 NA 
HETATM    9  C   UNL     1     -10.076  14.817  67.903  1.00  0.00    -0.221 A  
HETATM   10  C   UNL     1     -10.538  14.133  69.039  1.00  0.00    -0.227 A  
HETATM   11  C   UNL     1     -11.429  13.065  68.929  1.00  0.00    -0.345 A  
HETATM   12  C   UNL     1     -11.870  12.652  67.676  1.00  0.00    -0.390 A  
HETATM   13  C   UNL     1     -11.422  13.313  66.535  1.00  0.00    -0.372 A  
HETATM   14  C   UNL     1     -10.533  14.393  66.642  1.00  0.00    -0.274 A  
HETATM   15  C   UNL     1     -10.069  15.121  65.414  1.00  0.00    -0.384 C  
HETATM   16  C   UNL     1     -10.650  16.528  65.349  1.00  0.00    -0.293 C  
HETATM   17  C   UNL     1     -10.265  17.538  66.414  1.00  0.00    -0.354 A  
HETATM   18  C   UNL     1     -10.638  18.873  66.123  1.00  0.00    -0.476 A  
HETATM   19  C   UNL     1     -10.367  19.918  66.999  1.00  0.00    -0.592 A  
HETATM   20  C   UNL     1      -9.726  19.648  68.195  1.00  0.00    -0.503 A  
HETATM   21  C   UNL     1      -9.356  18.336  68.502  1.00  0.00    -0.334 A  
HETATM   22  C   UNL     1      -9.598  17.252  67.628  1.00  0.00    -0.256 A  
ENDBRANCH   3   8
TORSDOF 2
ENDMDL
MODEL       35
REMARK 921   NORMALIZED FREE ENERGY PREDICTED BY IDOCK:   -4.89 KCAL/MOL
REMARK 922        TOTAL FREE ENERGY PREDICTED BY IDOCK:   -6.36 KCAL/MOL
REMARK 923 INTER-LIGAND FREE ENERGY PREDICTED BY IDOCK:   -5.38 KCAL/MOL
REMARK 924 INTRA-LIGAND FREE ENERGY PREDICTED BY IDOCK:   -0.98 KCAL/MOL
REMARK 927      BINDING AFFINITY PREDICTED BY RF-SCORE:    0.00 PKD
ROOT
HETATM    1  C   UNL     1     -10.619   8.931  67.361  1.00  0.00    -0.305 C  
HETATM    2  C   UNL     1      -9.501   9.702  68.081  1.00  0.00    -0.144 C  
HETATM    3  C   UNL     1      -9.922  10.165  69.496  1.00  0.00    -0.235 C  
HETATM    4  C   UNL     1      -9.130  10.911  67.181  1.00  0.00    -0.145 C  
ENDROOT
BRANCH   4   5
HETATM    5  N   UNL     1      -8.046  11.790  67.653  1.00  0.00    -0.136 NA 
HETATM    6  C   UNL     1      -8.442  13.193  67.468  1.00  0.00    -0.198 C  
HETATM    7  C   UNL     1      -6.790  11.538  66.942  1.00  0.00    -0.138 C  
ENDBRANCH   4   5
BRANCH   3   8
HETATM    8  N   UNL     1     -10.226   9.016  70.392  1.00  0.00    -0.196 NA 
HETATM    9  C   UNL     1      -9.129   8.200  70.744  1.00  0.00    -0.146 A  
HETATM   10  C   UNL     1      -8.011   8.739  71.402  1.00  0.00    -0.175 A  
HETATM   11  C   UNL     1      -6.958   7.926  71.821  1.00  0.00    -0.068 A  
HETATM   12  C   UNL     1      -6.996   6.556  71.582  1.00  0.00    -0.072 A  
HETATM   13  C   UNL     1      -8.093   6.001  70.927  1.00  0.00    -0.121 A  
HETATM   14  C   UNL     1      -9.159   6.813  70.512  1.00  0.00    -0.156 A  
HETATM   15  C   UNL     1     -10.353   6.213  69.829  1.00  0.00    -0.269 C  
HETATM   16  C   UNL     1     -11.589   6.270  70.718  1.00  0.00    -0.347 C  
HETATM   17  C   UNL     1     -12.161   7.622  71.104  1.00  0.00    -0.310 A  
HETATM   18  C   UNL     1     -13.445   7.570  71.700  1.00  0.00    -0.429 A  
HETATM   19  C   UNL     1     -14.105   8.719  72.119  1.00  0.00    -0.519 A  
HETATM   20  C   UNL     1     -13.489   9.948  71.964  1.00  0.00    -0.478 A  
HETATM   21  C   UNL     1     -12.220  10.017  71.383  1.00  0.00    -0.510 A  
HETATM   22  C   UNL     1     -11.526   8.874  70.928  1.00  0.00    -0.288 A  
ENDBRANCH   3   8
TORSDOF 2
ENDMDL
MODEL       36
REMARK 921   NORMALIZED FREE ENERGY PREDICTED BY IDOCK:   -4.86 KCAL/MOL
REMARK 922        TOTAL FREE ENERGY PREDICTED BY IDOCK:   -6.34 KCAL/MOL
REMARK 923 INTER-LIGAND FREE ENERGY PREDICTED BY IDOCK:   -5.37 KCAL/MOL
REMARK 924 INTRA-LIGAND FREE ENERGY PREDICTED BY IDOCK:   -0.97 KCAL/MOL
REMARK 927      BINDING AFFINITY PREDICTED BY RF-SCORE:    0.00 PKD
ROOT
HETATM    1  C   UNL     1     -10.771   7.570  67.187  1.00  0.00    -0.379 C  
HETATM    2  C   UNL     1      -9.825   8.782  67.153  1.00  0.00    -0.268 C  
HETATM    3  C   UNL     1     -10.183   9.836  68.228  1.00  0.00    -0.183 C  
HETATM    4  C   UNL     1      -9.908   9.384  65.725  1.00  0.00    -0.275 C  
ENDROOT
BRANCH   4   5
HETATM    5  N   UNL     1      -9.055  10.550  65.439  1.00  0.00    -0.177 NA 
HETATM    6  C   UNL     1      -9.854  11.586  64.771  1.00  0.00    -0.249 C  
HETATM    7  C   UNL     1      -7.910  10.196  64.595  1.00  0.00    -0.144 C  
ENDBRANCH   4   5
BRANCH   3   8
HETATM    8  N   UNL     1     -10.053   9.294  69.607  1.00  0.00    -0.188 NA 
HETATM    9  C   UNL     1      -8.753   8.909  70.000  1.00  0.00    -0.147 A  
HETATM   10  C   UNL     1      -7.695   9.832  69.997  1.00  0.00    -0.179 A  
HETATM   11  C   UNL     1      -6.426   9.480  70.456  1.00  0.00    -0.086 A  
HETATM   12  C   UNL     1      -6.185   8.192  70.920  1.00  0.00    -0.033 A  
HETATM   13  C   UNL     1      -7.219   7.257  70.929  1.00  0.00    -0.069 A  
HETATM   14  C   UNL     1      -8.499   7.610  70.477  1.00  0.00    -0.128 A  
HETATM   15  C   UNL     1      -9.619   6.611  70.509  1.00  0.00    -0.177 C  
HETATM   16  C   UNL     1     -10.664   6.982  71.554  1.00  0.00    -0.244 C  
HETATM   17  C   UNL     1     -11.460   8.264  71.384  1.00  0.00    -0.314 A  
HETATM   18  C   UNL     1     -12.575   8.384  72.249  1.00  0.00    -0.401 A  
HETATM   19  C   UNL     1     -13.402   9.501  72.227  1.00  0.00    -0.526 A  
HETATM   20  C   UNL     1     -13.125  10.531  71.346  1.00  0.00    -0.509 A  
HETATM   21  C   UNL     1     -12.025  10.431  70.489  1.00  0.00    -0.427 A  
HETATM   22  C   UNL     1     -11.173   9.304  70.470  1.00  0.00    -0.265 A  
ENDBRANCH   3   8
TORSDOF 2
ENDMDL
MODEL       37
REMARK 921   NORMALIZED FREE ENERGY PREDICTED BY IDOCK:   -4.86 KCAL/MOL
REMARK 922        TOTAL FREE ENERGY PREDICTED BY IDOCK:   -6.33 KCAL/MOL
REMARK 923 INTER-LIGAND FREE ENERGY PREDICTED BY IDOCK:   -5.44 KCAL/MOL
REMARK 924 INTRA-LIGAND FREE ENERGY PREDICTED BY IDOCK:   -0.89 KCAL/MOL
REMARK 927      BINDING AFFINITY PREDICTED BY RF-SCORE:    0.00 PKD
ROOT
HETATM    1  C   UNL     1      -9.713   9.786  65.574  1.00  0.00    -0.382 C  
HETATM    2  C   UNL     1      -9.730   8.715  66.677  1.00  0.00    -0.315 C  
HETATM    3  C   UNL     1      -8.840   9.099  67.883  1.00  0.00    -0.128 C  
HETATM    4  C   UNL     1      -9.256   7.387  66.029  1.00  0.00    -0.041 C  
ENDROOT
BRANCH   4   5
HETATM    5  N   UNL     1      -9.219   6.194  66.893  1.00  0.00    -0.125 NA 
HETATM    6  C   UNL     1      -8.318   5.195  66.304  1.00  0.00    -0.113 C  
HETATM    7  C   UNL     1     -10.550   5.608  67.072  1.00  0.00    -0.285 C  
ENDBRANCH   4   5
BRANCH   3   8
HETATM    8  N   UNL     1      -9.314  10.339  68.555  1.00  0.00    -0.149 NA 
HETATM    9  C   UNL     1     -10.330  10.170  69.520  1.00  0.00    -0.240 A  
HETATM   10  C   UNL     1     -10.132   9.343  70.638  1.00  0.00    -0.356 A  
HETATM   11  C   UNL     1     -11.101   9.231  71.635  1.00  0.00    -0.438 A  
HETATM   12  C   UNL     1     -12.294   9.936  71.530  1.00  0.00    -0.504 A  
HETATM   13  C   UNL     1     -12.514  10.759  70.428  1.00  0.00    -0.430 A  
HETATM   14  C   UNL     1     -11.539  10.882  69.427  1.00  0.00    -0.387 A  
HETATM   15  C   UNL     1     -11.764  11.788  68.251  1.00  0.00    -0.377 C  
HETATM   16  C   UNL     1     -10.846  13.003  68.301  1.00  0.00    -0.267 C  
HETATM   17  C   UNL     1      -9.346  12.802  68.193  1.00  0.00    -0.214 A  
HETATM   18  C   UNL     1      -8.605  13.992  67.983  1.00  0.00    -0.179 A  
HETATM   19  C   UNL     1      -7.220  13.982  67.871  1.00  0.00    -0.164 A  
HETATM   20  C   UNL     1      -6.541  12.782  67.980  1.00  0.00    -0.101 A  
HETATM   21  C   UNL     1      -7.254  11.599  68.193  1.00  0.00    -0.085 A  
HETATM   22  C   UNL     1      -8.664  11.567  68.293  1.00  0.00    -0.162 A  
ENDBRANCH   3   8
TORSDOF 2
ENDMDL
MODEL       38
REMARK 921   NORMALIZED FREE ENERGY PREDICTED BY IDOCK:   -4.85 KCAL/MOL
REMARK 922        TOTAL FREE ENERGY PREDICTED BY IDOCK:   -6.33 KCAL/MOL
REMARK 923 INTER-LIGAND FREE ENERGY PREDICTED BY IDOCK:   -5.70 KCAL/MOL
REMARK 924 INTRA-LIGAND FREE ENERGY PREDICTED BY IDOCK:   -0.63 KCAL/MOL
REMARK 927      BINDING AFFINITY PREDICTED BY RF-SCORE:    0.00 PKD
ROOT
HETATM    1  C   UNL     1     -10.536   8.564  66.621  1.00  0.00    -0.235 C  
HETATM    2  C   UNL     1     -10.502   9.740  67.611  1.00  0.00    -0.305 C  
HETATM    3  C   UNL     1      -9.285  10.667  67.381  1.00  0.00    -0.143 C  
HETATM    4  C   UNL     1     -10.482   9.131  69.039  1.00  0.00    -0.221 C  
ENDROOT
BRANCH   4   5
HETATM    5  N   UNL     1     -10.481  10.075  70.170  1.00  0.00    -0.279 NA 
HETATM    6  C   UNL     1     -10.514   9.322  71.431  1.00  0.00    -0.338 C  
HETATM    7  C   UNL     1     -11.621  10.993  70.118  1.00  0.00    -0.334 C  
ENDBRANCH   4   5
BRANCH   3   8
HETATM    8  N   UNL     1      -9.316  11.306  66.038  1.00  0.00    -0.208 NA 
HETATM    9  C   UNL     1      -9.797  12.632  65.996  1.00  0.00    -0.254 A  
HETATM   10  C   UNL     1      -9.177  13.649  66.739  1.00  0.00    -0.251 A  
HETATM   11  C   UNL     1      -9.599  14.975  66.644  1.00  0.00    -0.281 A  
HETATM   12  C   UNL     1     -10.659  15.311  65.808  1.00  0.00    -0.359 A  
HETATM   13  C   UNL     1     -11.292  14.319  65.064  1.00  0.00    -0.365 A  
HETATM   14  C   UNL     1     -10.865  12.985  65.150  1.00  0.00    -0.320 A  
HETATM   15  C   UNL     1     -11.530  11.918  64.330  1.00  0.00    -0.393 C  
HETATM   16  C   UNL     1     -10.604  11.398  63.238  1.00  0.00    -0.374 C  
HETATM   17  C   UNL     1      -9.331  10.671  63.631  1.00  0.00    -0.315 A  
HETATM   18  C   UNL     1      -8.681  10.001  62.565  1.00  0.00    -0.226 A  
HETATM   19  C   UNL     1      -7.500   9.294  62.755  1.00  0.00    -0.104 A  
HETATM   20  C   UNL     1      -6.931   9.253  64.016  1.00  0.00    -0.091 A  
HETATM   21  C   UNL     1      -7.555   9.913  65.078  1.00  0.00    -0.134 A  
HETATM   22  C   UNL     1      -8.767  10.625  64.928  1.00  0.00    -0.168 A  
ENDBRANCH   3   8
TORSDOF 2
ENDMDL
MODEL       39
REMARK 921   NORMALIZED FREE ENERGY PREDICTED BY IDOCK:   -4.82 KCAL/MOL
REMARK 922        TOTAL FREE ENERGY PREDICTED BY IDOCK:   -6.30 KCAL/MOL
REMARK 923 INTER-LIGAND FREE ENERGY PREDICTED BY IDOCK:   -5.33 KCAL/MOL
REMARK 924 INTRA-LIGAND FREE ENERGY PREDICTED BY IDOCK:   -0.96 KCAL/MOL
REMARK 927      BINDING AFFINITY PREDICTED BY RF-SCORE:    0.00 PKD
ROOT
HETATM    1  C   UNL     1      -8.446   9.875  66.684  1.00  0.00    -0.126 C  
HETATM    2  C   UNL     1      -9.806  10.248  67.298  1.00  0.00    -0.222 C  
HETATM    3  C   UNL     1     -10.769   9.039  67.371  1.00  0.00    -0.161 C  
HETATM    4  C   UNL     1     -10.399  11.388  66.428  1.00  0.00    -0.242 C  
ENDROOT
BRANCH   4   5
HETATM    5  N   UNL     1     -11.701  11.939  66.843  1.00  0.00    -0.589 NA 
HETATM    6  C   UNL     1     -12.132  12.953  65.871  1.00  0.00    -0.444 C  
HETATM    7  C   UNL     1     -11.640  12.538  68.179  1.00  0.00    -0.340 C  
ENDBRANCH   4   5
BRANCH   3   8
HETATM    8  N   UNL     1     -10.243   7.958  68.248  1.00  0.00    -0.199 NA 
HETATM    9  C   UNL     1     -10.182   8.256  69.627  1.00  0.00    -0.209 A  
HETATM   10  C   UNL     1     -11.338   8.613  70.340  1.00  0.00    -0.203 A  
HETATM   11  C   UNL     1     -11.299   8.834  71.716  1.00  0.00    -0.409 A  
HETATM   12  C   UNL     1     -10.099   8.711  72.409  1.00  0.00    -0.321 A  
HETATM   13  C   UNL     1      -8.939   8.362  71.721  1.00  0.00    -0.262 A  
HETATM   14  C   UNL     1      -8.975   8.130  70.338  1.00  0.00    -0.146 A  
HETATM   15  C   UNL     1      -7.730   7.730  69.601  1.00  0.00    -0.101 C  
HETATM   16  C   UNL     1      -7.807   6.284  69.126  1.00  0.00    -0.105 C  
HETATM   17  C   UNL     1      -8.856   5.897  68.099  1.00  0.00    -0.110 A  
HETATM   18  C   UNL     1      -8.677   4.612  67.530  1.00  0.00    -0.107 A  
HETATM   19  C   UNL     1      -9.555   4.102  66.581  1.00  0.00    -0.225 A  
HETATM   20  C   UNL     1     -10.642   4.862  66.188  1.00  0.00    -0.322 A  
HETATM   21  C   UNL     1     -10.838   6.130  66.743  1.00  0.00    -0.360 A  
HETATM   22  C   UNL     1      -9.956   6.689  67.696  1.00  0.00    -0.131 A  
ENDBRANCH   3   8
TORSDOF 2
ENDMDL
MODEL       40
REMARK 921   NORMALIZED FREE ENERGY PREDICTED BY IDOCK:   -4.77 KCAL/MOL
REMARK 922        TOTAL FREE ENERGY PREDICTED BY IDOCK:   -6.24 KCAL/MOL
REMARK 923 INTER-LIGAND FREE ENERGY PREDICTED BY IDOCK:   -5.29 KCAL/MOL
REMARK 924 INTRA-LIGAND FREE ENERGY PREDICTED BY IDOCK:   -0.95 KCAL/MOL
REMARK 927      BINDING AFFINITY PREDICTED BY RF-SCORE:    0.00 PKD
ROOT
HETATM    1  C   UNL     1     -10.297   8.005  68.043  1.00  0.00    -0.262 C  
HETATM    2  C   UNL     1     -10.658   9.063  69.098  1.00  0.00    -0.219 C  
HETATM    3  C   UNL     1      -9.515  10.080  69.326  1.00  0.00    -0.217 C  
HETATM    4  C   UNL     1     -11.003   8.302  70.406  1.00  0.00    -0.239 C  
ENDROOT
BRANCH   4   5
HETATM    5  N   UNL     1     -11.415   9.113  71.565  1.00  0.00    -0.339 NA 
HETATM    6  C   UNL     1     -11.736   8.225  72.690  1.00  0.00    -0.337 C  
HETATM    7  C   UNL     1     -12.576   9.953  71.258  1.00  0.00    -0.381 C  
ENDBRANCH   4   5
BRANCH   3   8
HETATM    8  N   UNL     1      -9.208  10.861  68.097  1.00  0.00    -0.153 NA 
HETATM    9  C   UNL     1     -10.205  11.768  67.677  1.00  0.00    -0.199 A  
HETATM   10  C   UNL     1     -10.645  12.800  68.523  1.00  0.00    -0.270 A  
HETATM   11  C   UNL     1     -11.573  13.746  68.089  1.00  0.00    -0.370 A  
HETATM   12  C   UNL     1     -12.090  13.674  66.799  1.00  0.00    -0.445 A  
HETATM   13  C   UNL     1     -11.671  12.657  65.944  1.00  0.00    -0.470 A  
HETATM   14  C   UNL     1     -10.731  11.709  66.374  1.00  0.00    -0.316 A  
HETATM   15  C   UNL     1     -10.261  10.628  65.445  1.00  0.00    -0.341 C  
HETATM   16  C   UNL     1      -8.807  10.836  65.040  1.00  0.00    -0.190 C  
HETATM   17  C   UNL     1      -7.724  10.759  66.101  1.00  0.00    -0.149 A  
HETATM   18  C   UNL     1      -6.403  10.701  65.592  1.00  0.00    -0.103 A  
HETATM   19  C   UNL     1      -5.297  10.635  66.432  1.00  0.00    -0.071 A  
HETATM   20  C   UNL     1      -5.486  10.641  67.802  1.00  0.00    -0.043 A  
HETATM   21  C   UNL     1      -6.782  10.704  68.322  1.00  0.00    -0.063 A  
HETATM   22  C   UNL     1      -7.932  10.752  67.501  1.00  0.00    -0.110 A  
ENDBRANCH   3   8
TORSDOF 2
ENDMDL
MODEL       41
REMARK 921   NORMALIZED FREE ENERGY PREDICTED BY IDOCK:   -4.73 KCAL/MOL
REMARK 922        TOTAL FREE ENERGY PREDICTED BY IDOCK:   -6.19 KCAL/MOL
REMARK 923 INTER-LIGAND FREE ENERGY PREDICTED BY IDOCK:   -5.46 KCAL/MOL
REMARK 924 INTRA-LIGAND FREE ENERGY PREDICTED BY IDOCK:   -0.73 KCAL/MOL
REMARK 927      BINDING AFFINITY PREDICTED BY RF-SCORE:    0.00 PKD
ROOT
HETATM    1  C   UNL     1     -11.782  12.227  66.284  1.00  0.00    -0.431 C  
HETATM    2  C   UNL     1     -10.919  13.046  67.259  1.00  0.00    -0.288 C  
HETATM    3  C   UNL     1     -10.693  12.312  68.602  1.00  0.00    -0.233 C  
HETATM    4  C   UNL     1     -11.641  14.403  67.474  1.00  0.00    -0.373 C  
ENDROOT
BRANCH   4   5
HETATM    5  N   UNL     1     -10.981  15.381  68.356  1.00  0.00    -0.270 NA 
HETATM    6  C   UNL     1     -11.894  15.745  69.448  1.00  0.00    -0.349 C  
HETATM    7  C   UNL     1     -10.579  16.589  67.630  1.00  0.00    -0.321 C  
ENDBRANCH   4   5
BRANCH   3   8
HETATM    8  N   UNL     1      -9.950  11.035  68.423  1.00  0.00    -0.179 NA 
HETATM    9  C   UNL     1      -8.775  11.108  67.644  1.00  0.00    -0.129 A  
HETATM   10  C   UNL     1      -7.719  11.959  68.009  1.00  0.00    -0.132 A  
HETATM   11  C   UNL     1      -6.525  11.980  67.288  1.00  0.00    -0.149 A  
HETATM   12  C   UNL     1      -6.365  11.155  66.180  1.00  0.00    -0.056 A  
HETATM   13  C   UNL     1      -7.401  10.306  65.797  1.00  0.00    -0.140 A  
HETATM   14  C   UNL     1      -8.600  10.275  66.524  1.00  0.00    -0.136 A  
HETATM   15  C   UNL     1      -9.708   9.342  66.127  1.00  0.00    -0.334 C  
HETATM   16  C   UNL     1      -9.888   8.227  67.150  1.00  0.00    -0.281 C  
HETATM   17  C   UNL     1     -10.334   8.579  68.558  1.00  0.00    -0.230 A  
HETATM   18  C   UNL     1     -10.727   7.470  69.346  1.00  0.00    -0.200 A  
HETATM   19  C   UNL     1     -11.154   7.620  70.660  1.00  0.00    -0.269 A  
HETATM   20  C   UNL     1     -11.185   8.883  71.222  1.00  0.00    -0.368 A  
HETATM   21  C   UNL     1     -10.795   9.989  70.461  1.00  0.00    -0.380 A  
HETATM   22  C   UNL     1     -10.374   9.878  69.116  1.00  0.00    -0.209 A  
ENDBRANCH   3   8
TORSDOF 2
ENDMDL
MODEL       42
REMARK 921   NORMALIZED FREE ENERGY PREDICTED BY IDOCK:   -4.68 KCAL/MOL
REMARK 922        TOTAL FREE ENERGY PREDICTED BY IDOCK:   -6.13 KCAL/MOL
REMARK 923 INTER-LIGAND FREE ENERGY PREDICTED BY IDOCK:   -5.17 KCAL/MOL
REMARK 924 INTRA-LIGAND FREE ENERGY PREDICTED BY IDOCK:   -0.96 KCAL/MOL
REMARK 927      BINDING AFFINITY PREDICTED BY RF-SCORE:    0.00 PKD
ROOT
HETATM    1  C   UNL     1      -9.060   6.846  72.482  1.00  0.00    -0.145 C  
HETATM    2  C   UNL     1      -9.124   5.870  71.295  1.00  0.00    -0.148 C  
HETATM    3  C   UNL     1     -10.564   5.686  70.762  1.00  0.00    -0.265 C  
HETATM    4  C   UNL     1      -8.529   4.522  71.783  1.00  0.00    -0.112 C  
ENDROOT
BRANCH   4   5
HETATM    5  N   UNL     1      -8.453   3.427  70.800  1.00  0.00    -0.067 NA 
HETATM    6  C   UNL     1      -8.581   2.140  71.495  1.00  0.00    -0.062 C  
HETATM    7  C   UNL     1      -7.197   3.455  70.047  1.00  0.00    -0.041 C  
ENDBRANCH   4   5
BRANCH   3   8
HETATM    8  N   UNL     1     -11.132   6.957  70.235  1.00  0.00    -0.279 NA 
HETATM    9  C   UNL     1     -10.643   7.378  68.980  1.00  0.00    -0.192 A  
HETATM   10  C   UNL     1     -10.772   6.562  67.845  1.00  0.00    -0.357 A  
HETATM   11  C   UNL     1     -10.361   7.002  66.586  1.00  0.00    -0.215 A  
HETATM   12  C   UNL     1      -9.804   8.267  66.439  1.00  0.00    -0.283 A  
HETATM   13  C   UNL     1      -9.663   9.094  67.551  1.00  0.00    -0.204 A  
HETATM   14  C   UNL     1     -10.083   8.658  68.817  1.00  0.00    -0.210 A  
HETATM   15  C   UNL     1      -9.954   9.557  70.013  1.00  0.00    -0.274 C  
HETATM   16  C   UNL     1     -11.318  10.023  70.506  1.00  0.00    -0.409 C  
HETATM   17  C   UNL     1     -12.298   8.999  71.052  1.00  0.00    -0.244 A  
HETATM   18  C   UNL     1     -13.415   9.553  71.724  1.00  0.00    -0.480 A  
HETATM   19  C   UNL     1     -14.409   8.752  72.275  1.00  0.00    -0.468 A  
HETATM   20  C   UNL     1     -14.315   7.377  72.154  1.00  0.00    -0.323 A  
HETATM   21  C   UNL     1     -13.222   6.814  71.489  1.00  0.00    -0.222 A  
HETATM   22  C   UNL     1     -12.183   7.595  70.933  1.00  0.00    -0.168 A  
ENDBRANCH   3   8
TORSDOF 2
ENDMDL
MODEL       43
REMARK 921   NORMALIZED FREE ENERGY PREDICTED BY IDOCK:   -4.65 KCAL/MOL
REMARK 922        TOTAL FREE ENERGY PREDICTED BY IDOCK:   -6.10 KCAL/MOL
REMARK 923 INTER-LIGAND FREE ENERGY PREDICTED BY IDOCK:   -5.28 KCAL/MOL
REMARK 924 INTRA-LIGAND FREE ENERGY PREDICTED BY IDOCK:   -0.82 KCAL/MOL
REMARK 927      BINDING AFFINITY PREDICTED BY RF-SCORE:    0.00 PKD
ROOT
HETATM    1  C   UNL     1      -7.061  10.672  67.038  1.00  0.00    -0.100 C  
HETATM    2  C   UNL     1      -7.558  10.620  65.584  1.00  0.00    -0.100 C  
HETATM    3  C   UNL     1      -8.971  10.002  65.468  1.00  0.00    -0.174 C  
HETATM    4  C   UNL     1      -6.517   9.800  64.777  1.00  0.00    -0.108 C  
ENDROOT
BRANCH   4   5
HETATM    5  N   UNL     1      -6.764   9.639  63.333  1.00  0.00    -0.104 NA 
HETATM    6  C   UNL     1      -6.288   8.317  62.903  1.00  0.00    -0.086 C  
HETATM    7  C   UNL     1      -6.099  10.679  62.545  1.00  0.00    -0.127 C  
ENDBRANCH   4   5
BRANCH   3   8
HETATM    8  N   UNL     1      -9.995  10.806  66.188  1.00  0.00    -0.223 NA 
HETATM    9  C   UNL     1     -10.640  11.807  65.430  1.00  0.00    -0.277 A  
HETATM   10  C   UNL     1     -11.355  11.482  64.266  1.00  0.00    -0.320 A  
HETATM   11  C   UNL     1     -12.058  12.454  63.554  1.00  0.00    -0.651 A  
HETATM   12  C   UNL     1     -12.053  13.775  63.987  1.00  0.00    -0.448 A  
HETATM   13  C   UNL     1     -11.347  14.122  65.136  1.00  0.00    -0.336 A  
HETATM   14  C   UNL     1     -10.646  13.146  65.861  1.00  0.00    -0.290 A  
HETATM   15  C   UNL     1      -9.905  13.514  67.113  1.00  0.00    -0.245 C  
HETATM   16  C   UNL     1     -10.577  12.928  68.349  1.00  0.00    -0.267 C  
HETATM   17  C   UNL     1     -10.639  11.420  68.513  1.00  0.00    -0.225 A  
HETATM   18  C   UNL     1     -11.037  10.983  69.801  1.00  0.00    -0.303 A  
HETATM   19  C   UNL     1     -11.152   9.634  70.114  1.00  0.00    -0.314 A  
HETATM   20  C   UNL     1     -10.883   8.688  69.140  1.00  0.00    -0.060 A  
HETATM   21  C   UNL     1     -10.493   9.101  67.863  1.00  0.00    -0.293 A  
HETATM   22  C   UNL     1     -10.348  10.463  67.513  1.00  0.00    -0.224 A  
ENDBRANCH   3   8
TORSDOF 2
ENDMDL
MODEL       44
REMARK 921   NORMALIZED FREE ENERGY PREDICTED BY IDOCK:   -4.61 KCAL/MOL
REMARK 922        TOTAL FREE ENERGY PREDICTED BY IDOCK:   -6.06 KCAL/MOL
REMARK 923 INTER-LIGAND FREE ENERGY PREDICTED BY IDOCK:   -5.35 KCAL/MOL
REMARK 924 INTRA-LIGAND FREE ENERGY PREDICTED BY IDOCK:   -0.71 KCAL/MOL
REMARK 927      BINDING AFFINITY PREDICTED BY RF-SCORE:    0.00 PKD
ROOT
HETATM    1  C   UNL     1     -10.925  12.456  68.148  1.00  0.00    -0.263 C  
HETATM    2  C   UNL     1     -11.315  13.408  67.006  1.00  0.00    -0.346 C  
HETATM    3  C   UNL     1     -12.232  14.557  67.486  1.00  0.00    -0.121 C  
HETATM    4  C   UNL     1     -12.012  12.549  65.917  1.00  0.00    -0.409 C  
ENDROOT
BRANCH   4   5
HETATM    5  N   UNL     1     -12.453  13.244  64.695  1.00  0.00    -0.588 NA 
HETATM    6  C   UNL     1     -12.524  12.282  63.587  1.00  0.00    -0.541 C  
HETATM    7  C   UNL     1     -11.550  14.341  64.334  1.00  0.00    -0.344 C  
ENDBRANCH   4   5
BRANCH   3   8
HETATM    8  N   UNL     1     -11.560  15.427  68.488  1.00  0.00    -0.351 NA 
HETATM    9  C   UNL     1     -10.620  16.347  67.976  1.00  0.00    -0.314 A  
HETATM   10  C   UNL     1     -10.995  17.310  67.026  1.00  0.00     0.091 A  
HETATM   11  C   UNL     1     -10.091  18.270  66.572  1.00  0.00    -0.396 A  
HETATM   12  C   UNL     1      -8.787  18.282  67.054  1.00  0.00    -0.267 A  
HETATM   13  C   UNL     1      -8.390  17.334  67.994  1.00  0.00    -0.228 A  
HETATM   14  C   UNL     1      -9.299  16.372  68.460  1.00  0.00    -0.225 A  
HETATM   15  C   UNL     1      -8.880  15.365  69.492  1.00  0.00    -0.217 C  
HETATM   16  C   UNL     1      -9.563  15.623  70.829  1.00  0.00     1.390 C  
HETATM   17  C   UNL     1     -11.071  15.487  70.928  1.00  0.00    -0.387 A  
HETATM   18  C   UNL     1     -11.577  15.484  72.252  1.00  0.00    -0.554 A  
HETATM   19  C   UNL     1     -12.937  15.376  72.516  1.00  0.00    -0.500 A  
HETATM   20  C   UNL     1     -13.826  15.282  71.460  1.00  0.00    -0.617 A  
HETATM   21  C   UNL     1     -13.346  15.290  70.148  1.00  0.00     0.195 A  
HETATM   22  C   UNL     1     -11.969  15.379  69.840  1.00  0.00    -0.359 A  
ENDBRANCH   3   8
TORSDOF 2
ENDMDL
MODEL       45
REMARK 921   NORMALIZED FREE ENERGY PREDICTED BY IDOCK:   -4.60 KCAL/MOL
REMARK 922        TOTAL FREE ENERGY PREDICTED BY IDOCK:   -6.04 KCAL/MOL
REMARK 923 INTER-LIGAND FREE ENERGY PREDICTED BY IDOCK:   -6.51 KCAL/MOL
REMARK 924 INTRA-LIGAND FREE ENERGY PREDICTED BY IDOCK:    0.47 KCAL/MOL
REMARK 927      BINDING AFFINITY PREDICTED BY RF-SCORE:    0.00 PKD
ROOT
HETATM    1  C   UNL     1     -10.438   8.547  67.627  1.00  0.00    -0.308 C  
HETATM    2  C   UNL     1      -9.637   9.023  68.850  1.00  0.00    -0.156 C  
HETATM    3  C   UNL     1      -9.548  10.566  68.929  1.00  0.00    -0.193 C  
HETATM    4  C   UNL     1      -8.226   8.384  68.746  1.00  0.00    -0.119 C  
ENDROOT
BRANCH   4   5
HETATM    5  N   UNL     1      -7.277   8.673  69.835  1.00  0.00    -0.050 NA 
HETATM    6  C   UNL     1      -6.096   9.351  69.284  1.00  0.00    -0.037 C  
HETATM    7  C   UNL     1      -6.860   7.455  70.535  1.00  0.00    -0.052 C  
ENDBRANCH   4   5
BRANCH   3   8
HETATM    8  N   UNL     1     -10.887  11.195  69.088  1.00  0.00    -0.227 NA 
HETATM    9  C   UNL     1     -11.300  12.041  68.036  1.00  0.00    -0.296 A  
HETATM   10  C   UNL     1     -11.408  11.559  66.722  1.00  0.00    -0.309 A  
HETATM   11  C   UNL     1     -11.888  12.368  65.691  1.00  0.00    -0.468 A  
HETATM   12  C   UNL     1     -12.263  13.681  65.953  1.00  0.00    -0.502 A  
HETATM   13  C   UNL     1     -12.161  14.182  67.249  1.00  0.00    -0.407 A  
HETATM   14  C   UNL     1     -11.687  13.370  68.290  1.00  0.00    -0.391 A  
HETATM   15  C   UNL     1     -11.600  13.901  69.691  1.00  0.00    -0.347 C  
HETATM   16  C   UNL     1     -12.629  13.241  70.600  1.00  0.00    -0.305 C  
HETATM   17  C   UNL     1     -12.525  11.752  70.877  1.00  0.00    -0.416 A  
HETATM   18  C   UNL     1     -13.353  11.290  71.930  1.00  0.00    -0.413 A  
HETATM   19  C   UNL     1     -13.382   9.951  72.305  1.00  0.00    -0.429 A  
HETATM   20  C   UNL     1     -12.593   9.041  71.625  1.00  0.00    -0.414 A  
HETATM   21  C   UNL     1     -11.775   9.479  70.580  1.00  0.00    -0.330 A  
HETATM   22  C   UNL     1     -11.704  10.833  70.183  1.00  0.00    -0.339 A  
ENDBRANCH   3   8
TORSDOF 2
ENDMDL
MODEL       46
REMARK 921   NORMALIZED FREE ENERGY PREDICTED BY IDOCK:   -4.57 KCAL/MOL
REMARK 922        TOTAL FREE ENERGY PREDICTED BY IDOCK:   -6.01 KCAL/MOL
REMARK 923 INTER-LIGAND FREE ENERGY PREDICTED BY IDOCK:   -5.61 KCAL/MOL
REMARK 924 INTRA-LIGAND FREE ENERGY PREDICTED BY IDOCK:   -0.40 KCAL/MOL
REMARK 927      BINDING AFFINITY PREDICTED BY RF-SCORE:    0.00 PKD
ROOT
HETATM    1  C   UNL     1     -12.478   9.653  71.222  1.00  0.00    -0.445 C  
HETATM    2  C   UNL     1     -11.709  10.276  70.045  1.00  0.00    -0.330 C  
HETATM    3  C   UNL     1     -10.186  10.022  70.138  1.00  0.00    -0.242 C  
HETATM    4  C   UNL     1     -12.027  11.795  70.047  1.00  0.00    -0.344 C  
ENDROOT
BRANCH   4   5
HETATM    5  N   UNL     1     -11.421  12.608  68.978  1.00  0.00    -0.284 NA 
HETATM    6  C   UNL     1     -11.771  14.020  69.183  1.00  0.00    -0.333 C  
HETATM    7  C   UNL     1     -11.865  12.181  67.649  1.00  0.00    -0.246 C  
ENDBRANCH   4   5
BRANCH   3   8
HETATM    8  N   UNL     1      -9.856   8.572  70.079  1.00  0.00    -0.177 NA 
HETATM    9  C   UNL     1      -9.262   8.121  68.880  1.00  0.00    -0.147 A  
HETATM   10  C   UNL     1      -8.052   8.669  68.424  1.00  0.00    -0.118 A  
HETATM   11  C   UNL     1      -7.421   8.177  67.282  1.00  0.00    -0.090 A  
HETATM   12  C   UNL     1      -7.992   7.131  66.565  1.00  0.00    -0.112 A  
HETATM   13  C   UNL     1      -9.194   6.575  66.996  1.00  0.00    -0.142 A  
HETATM   14  C   UNL     1      -9.828   7.061  68.150  1.00  0.00    -0.151 A  
HETATM   15  C   UNL     1     -11.111   6.446  68.629  1.00  0.00    -0.393 C  
HETATM   16  C   UNL     1     -10.907   5.677  69.929  1.00  0.00    -0.370 C  
HETATM   17  C   UNL     1     -10.494   6.432  71.179  1.00  0.00    -0.265 A  
HETATM   18  C   UNL     1     -10.589   5.683  72.378  1.00  0.00    -0.270 A  
HETATM   19  C   UNL     1     -10.241   6.225  73.610  1.00  0.00    -0.267 A  
HETATM   20  C   UNL     1      -9.776   7.527  73.669  1.00  0.00    -0.341 A  
HETATM   21  C   UNL     1      -9.671   8.278  72.496  1.00  0.00    -0.368 A  
HETATM   22  C   UNL     1     -10.033   7.768  71.228  1.00  0.00    -0.175 A  
ENDBRANCH   3   8
TORSDOF 2
ENDMDL
MODEL       47
REMARK 921   NORMALIZED FREE ENERGY PREDICTED BY IDOCK:   -4.55 KCAL/MOL
REMARK 922        TOTAL FREE ENERGY PREDICTED BY IDOCK:   -5.99 KCAL/MOL
REMARK 923 INTER-LIGAND FREE ENERGY PREDICTED BY IDOCK:   -5.36 KCAL/MOL
REMARK 924 INTRA-LIGAND FREE ENERGY PREDICTED BY IDOCK:   -0.63 KCAL/MOL
REMARK 927      BINDING AFFINITY PREDICTED BY RF-SCORE:    0.00 PKD
ROOT
HETATM    1  C   UNL     1     -11.889  10.924  70.461  1.00  0.00    -0.457 C  
HETATM    2  C   UNL     1     -11.288  11.117  69.058  1.00  0.00    -0.343 C  
HETATM    3  C   UNL     1      -9.747  10.980  69.055  1.00  0.00    -0.134 C  
HETATM    4  C   UNL     1     -11.729  12.521  68.565  1.00  0.00    -0.324 C  
ENDROOT
BRANCH   4   5
HETATM    5  N   UNL     1     -11.296  12.924  67.216  1.00  0.00    -0.292 NA 
HETATM    6  C   UNL     1     -12.021  14.136  66.814  1.00  0.00    -0.447 C  
HETATM    7  C   UNL     1     -11.527  11.866  66.229  1.00  0.00    -0.301 C  
ENDBRANCH   4   5
BRANCH   3   8
HETATM    8  N   UNL     1      -9.306   9.620  69.470  1.00  0.00    -0.186 NA 
HETATM    9  C   UNL     1      -9.959   8.540  68.838  1.00  0.00    -0.190 A  
HETATM   10  C   UNL     1      -9.927   8.394  67.441  1.00  0.00    -0.274 A  
HETATM   11  C   UNL     1     -10.503   7.289  66.815  1.00  0.00    -0.311 A  
HETATM   12  C   UNL     1     -11.133   6.308  67.574  1.00  0.00    -0.379 A  
HETATM   13  C   UNL     1     -11.181   6.433  68.961  1.00  0.00    -0.402 A  
HETATM   14  C   UNL     1     -10.594   7.539  69.595  1.00  0.00    -0.243 A  
HETATM   15  C   UNL     1     -10.623   7.662  71.091  1.00  0.00    -0.235 C  
HETATM   16  C   UNL     1      -9.234   7.482  71.690  1.00  0.00    -0.152 C  
HETATM   17  C   UNL     1      -8.150   8.494  71.364  1.00  0.00    -0.176 A  
HETATM   18  C   UNL     1      -6.988   8.392  72.169  1.00  0.00    -0.103 A  
HETATM   19  C   UNL     1      -5.900   9.239  71.994  1.00  0.00    -0.029 A  
HETATM   20  C   UNL     1      -5.943  10.200  70.999  1.00  0.00    -0.034 A  
HETATM   21  C   UNL     1      -7.079  10.310  70.193  1.00  0.00    -0.154 A  
HETATM   22  C   UNL     1      -8.212   9.481  70.353  1.00  0.00    -0.190 A  
ENDBRANCH   3   8
TORSDOF 2
ENDMDL
MODEL       48
REMARK 921   NORMALIZED FREE ENERGY PREDICTED BY IDOCK:   -4.52 KCAL/MOL
REMARK 922        TOTAL FREE ENERGY PREDICTED BY IDOCK:   -5.96 KCAL/MOL
REMARK 923 INTER-LIGAND FREE ENERGY PREDICTED BY IDOCK:   -5.00 KCAL/MOL
REMARK 924 INTRA-LIGAND FREE ENERGY PREDICTED BY IDOCK:   -0.96 KCAL/MOL
REMARK 927      BINDING AFFINITY PREDICTED BY RF-SCORE:    0.00 PKD
ROOT
HETATM    1  C   UNL     1     -10.140   8.676  66.383  1.00  0.00    -0.294 C  
HETATM    2  C   UNL     1      -9.949   7.919  67.707  1.00  0.00    -0.221 C  
HETATM    3  C   UNL     1      -8.920   8.607  68.634  1.00  0.00    -0.142 C  
HETATM    4  C   UNL     1      -9.505   6.477  67.346  1.00  0.00    -0.124 C  
ENDROOT
BRANCH   4   5
HETATM    5  N   UNL     1      -9.289   5.542  68.464  1.00  0.00    -0.118 NA 
HETATM    6  C   UNL     1      -8.845   4.245  67.935  1.00  0.00    -0.111 C  
HETATM    7  C   UNL     1     -10.503   5.355  69.263  1.00  0.00    -0.239 C  
ENDBRANCH   4   5
BRANCH   3   8
HETATM    8  N   UNL     1      -9.355   9.971  69.039  1.00  0.00    -0.170 NA 
HETATM    9  C   UNL     1     -10.505  10.035  69.856  1.00  0.00    -0.274 A  
HETATM   10  C   UNL     1     -10.544   9.384  71.100  1.00  0.00    -0.403 A  
HETATM   11  C   UNL     1     -11.646   9.505  71.946  1.00  0.00    -0.268 A  
HETATM   12  C   UNL     1     -12.738  10.275  71.561  1.00  0.00    -0.557 A  
HETATM   13  C   UNL     1     -12.724  10.927  70.330  1.00  0.00    -0.326 A  
HETATM   14  C   UNL     1     -11.613  10.815  69.480  1.00  0.00    -0.375 A  
HETATM   15  C   UNL     1     -11.586  11.536  68.164  1.00  0.00    -0.378 C  
HETATM   16  C   UNL     1     -10.568  12.670  68.173  1.00  0.00    -0.241 C  
HETATM   17  C   UNL     1      -9.094  12.340  68.322  1.00  0.00    -0.187 A  
HETATM   18  C   UNL     1      -8.218  13.421  68.054  1.00  0.00    -0.161 A  
HETATM   19  C   UNL     1      -6.838  13.287  68.152  1.00  0.00    -0.114 A  
HETATM   20  C   UNL     1      -6.302  12.071  68.535  1.00  0.00    -0.055 A  
HETATM   21  C   UNL     1      -7.151  10.995  68.810  1.00  0.00    -0.086 A  
HETATM   22  C   UNL     1      -8.557  11.088  68.702  1.00  0.00    -0.157 A  
ENDBRANCH   3   8
TORSDOF 2
ENDMDL
MODEL       49
REMARK 921   NORMALIZED FREE ENERGY PREDICTED BY IDOCK:   -4.49 KCAL/MOL
REMARK 922        TOTAL FREE ENERGY PREDICTED BY IDOCK:   -5.92 KCAL/MOL
REMARK 923 INTER-LIGAND FREE ENERGY PREDICTED BY IDOCK:   -6.41 KCAL/MOL
REMARK 924 INTRA-LIGAND FREE ENERGY PREDICTED BY IDOCK:    0.49 KCAL/MOL
REMARK 927      BINDING AFFINITY PREDICTED BY RF-SCORE:    0.00 PKD
ROOT
HETATM    1  C   UNL     1     -11.857  13.360  69.260  1.00  0.00    -0.385 C  
HETATM    2  C   UNL     1     -10.772  14.007  68.384  1.00  0.00    -0.261 C  
HETATM    3  C   UNL     1      -9.658  13.006  67.994  1.00  0.00    -0.224 C  
HETATM    4  C   UNL     1     -10.197  15.206  69.183  1.00  0.00    -0.249 C  
ENDROOT
BRANCH   4   5
HETATM    5  N   UNL     1      -9.151  16.010  68.527  1.00  0.00    -0.195 NA 
HETATM    6  C   UNL     1      -7.872  15.805  69.221  1.00  0.00    -0.233 C  
HETATM    7  C   UNL     1      -9.481  17.437  68.520  1.00  0.00    -0.297 C  
ENDBRANCH   4   5
BRANCH   3   8
HETATM    8  N   UNL     1     -10.181  11.878  67.177  1.00  0.00    -0.207 NA 
HETATM    9  C   UNL     1     -10.161  10.608  67.793  1.00  0.00    -0.180 A  
HETATM   10  C   UNL     1     -10.847  10.380  68.997  1.00  0.00    -0.273 A  
HETATM   11  C   UNL     1     -10.896   9.110  69.572  1.00  0.00    -0.194 A  
HETATM   12  C   UNL     1     -10.252   8.042  68.959  1.00  0.00    -0.217 A  
HETATM   13  C   UNL     1      -9.561   8.245  67.766  1.00  0.00    -0.178 A  
HETATM   14  C   UNL     1      -9.517   9.519  67.180  1.00  0.00    -0.187 A  
HETATM   15  C   UNL     1      -8.794   9.735  65.882  1.00  0.00    -0.175 C  
HETATM   16  C   UNL     1      -9.767  10.027  64.746  1.00  0.00    -0.363 C  
HETATM   17  C   UNL     1     -10.603  11.294  64.794  1.00  0.00    -0.376 A  
HETATM   18  C   UNL     1     -11.269  11.607  63.584  1.00  0.00    -0.497 A  
HETATM   19  C   UNL     1     -12.081  12.729  63.464  1.00  0.00    -0.642 A  
HETATM   20  C   UNL     1     -12.256  13.557  64.558  1.00  0.00    -0.445 A  
HETATM   21  C   UNL     1     -11.611  13.260  65.762  1.00  0.00    -0.368 A  
HETATM   22  C   UNL     1     -10.763  12.140  65.916  1.00  0.00    -0.266 A  
ENDBRANCH   3   8
TORSDOF 2
ENDMDL
MODEL       50
REMARK 921   NORMALIZED FREE ENERGY PREDICTED BY IDOCK:   -4.37 KCAL/MOL
REMARK 922        TOTAL FREE ENERGY PREDICTED BY IDOCK:   -5.79 KCAL/MOL
REMARK 923 INTER-LIGAND FREE ENERGY PREDICTED BY IDOCK:   -4.81 KCAL/MOL
REMARK 924 INTRA-LIGAND FREE ENERGY PREDICTED BY IDOCK:   -0.98 KCAL/MOL
REMARK 927      BINDING AFFINITY PREDICTED BY RF-SCORE:    0.00 PKD
ROOT
HETATM    1  C   UNL     1     -10.676   7.561  67.559  1.00  0.00    -0.296 C  
HETATM    2  C   UNL     1      -9.240   7.595  68.108  1.00  0.00    -0.138 C  
HETATM    3  C   UNL     1      -8.790   9.026  68.487  1.00  0.00    -0.134 C  
HETATM    4  C   UNL     1      -8.322   6.988  67.014  1.00  0.00    -0.121 C  
ENDROOT
BRANCH   4   5
HETATM    5  N   UNL     1      -6.885   6.884  67.327  1.00  0.00    -0.070 NA 
HETATM    6  C   UNL     1      -6.105   7.051  66.094  1.00  0.00    -0.036 C  
HETATM    7  C   UNL     1      -6.553   5.598  67.947  1.00  0.00    -0.053 C  
ENDBRANCH   4   5
BRANCH   3   8
HETATM    8  N   UNL     1      -9.623   9.605  69.575  1.00  0.00    -0.185 NA 
HETATM    9  C   UNL     1      -9.493   8.997  70.843  1.00  0.00    -0.267 A  
HETATM   10  C   UNL     1      -8.248   8.938  71.490  1.00  0.00    -0.143 A  
HETATM   11  C   UNL     1      -8.124   8.408  72.774  1.00  0.00    -0.168 A  
HETATM   12  C   UNL     1      -9.245   7.917  73.436  1.00  0.00    -0.351 A  
HETATM   13  C   UNL     1     -10.489   7.961  72.812  1.00  0.00    -0.412 A  
HETATM   14  C   UNL     1     -10.619   8.502  71.524  1.00  0.00    -0.333 A  
HETATM   15  C   UNL     1     -11.964   8.573  70.861  1.00  0.00    -0.204 C  
HETATM   16  C   UNL     1     -12.449  10.012  70.741  1.00  0.00    -0.386 C  
HETATM   17  C   UNL     1     -11.674  10.984  69.869  1.00  0.00    -0.424 A  
HETATM   18  C   UNL     1     -12.343  12.206  69.611  1.00  0.00    -0.065 A  
HETATM   19  C   UNL     1     -11.767  13.207  68.837  1.00  0.00    -0.368 A  
HETATM   20  C   UNL     1     -10.502  13.014  68.312  1.00  0.00    -0.258 A  
HETATM   21  C   UNL     1      -9.825  11.816  68.561  1.00  0.00    -0.192 A  
HETATM   22  C   UNL     1     -10.385  10.769  69.327  1.00  0.00    -0.205 A  
ENDBRANCH   3   8
TORSDOF 2
ENDMDL
MODEL       51
REMARK 921   NORMALIZED FREE ENERGY PREDICTED BY IDOCK:   -4.36 KCAL/MOL
REMARK 922        TOTAL FREE ENERGY PREDICTED BY IDOCK:   -5.78 KCAL/MOL
REMARK 923 INTER-LIGAND FREE ENERGY PREDICTED BY IDOCK:   -4.85 KCAL/MOL
REMARK 924 INTRA-LIGAND FREE ENERGY PREDICTED BY IDOCK:   -0.93 KCAL/MOL
REMARK 927      BINDING AFFINITY PREDICTED BY RF-SCORE:    0.00 PKD
ROOT
HETATM    1  C   UNL     1     -10.033  10.721  63.477  1.00  0.00    -0.403 C  
HETATM    2  C   UNL     1     -10.099  11.586  64.746  1.00  0.00    -0.316 C  
HETATM    3  C   UNL     1     -10.335  10.742  66.021  1.00  0.00    -0.238 C  
HETATM    4  C   UNL     1     -11.239  12.618  64.535  1.00  0.00    -0.333 C  
ENDROOT
BRANCH   4   5
HETATM    5  N   UNL     1     -11.473  13.589  65.619  1.00  0.00    -0.310 NA 
HETATM    6  C   UNL     1     -12.837  14.123  65.506  1.00  0.00    -0.376 C  
HETATM    7  C   UNL     1     -10.510  14.693  65.581  1.00  0.00    -0.342 C  
ENDBRANCH   4   5
BRANCH   3   8
HETATM    8  N   UNL     1      -9.223   9.786  66.272  1.00  0.00    -0.156 NA 
HETATM    9  C   UNL     1      -7.947  10.359  66.462  1.00  0.00    -0.123 A  
HETATM   10  C   UNL     1      -7.717  11.283  67.494  1.00  0.00    -0.122 A  
HETATM   11  C   UNL     1      -6.442  11.795  67.736  1.00  0.00    -0.075 A  
HETATM   12  C   UNL     1      -5.370  11.400  66.943  1.00  0.00    -0.104 A  
HETATM   13  C   UNL     1      -5.575  10.488  65.910  1.00  0.00    -0.105 A  
HETATM   14  C   UNL     1      -6.854   9.963  65.670  1.00  0.00    -0.106 A  
HETATM   15  C   UNL     1      -7.072   8.961  64.573  1.00  0.00    -0.089 C  
HETATM   16  C   UNL     1      -7.391   7.582  65.136  1.00  0.00    -0.073 C  
HETATM   17  C   UNL     1      -8.669   7.383  65.930  1.00  0.00    -0.161 A  
HETATM   18  C   UNL     1      -9.004   6.030  66.179  1.00  0.00    -0.160 A  
HETATM   19  C   UNL     1     -10.139   5.677  66.899  1.00  0.00    -0.230 A  
HETATM   20  C   UNL     1     -10.960   6.672  67.400  1.00  0.00    -0.434 A  
HETATM   21  C   UNL     1     -10.641   8.013  67.170  1.00  0.00    -0.367 A  
HETATM   22  C   UNL     1      -9.507   8.410  66.426  1.00  0.00    -0.227 A  
ENDBRANCH   3   8
TORSDOF 2
ENDMDL
MODEL       52
REMARK 921   NORMALIZED FREE ENERGY PREDICTED BY IDOCK:   -4.34 KCAL/MOL
REMARK 922        TOTAL FREE ENERGY PREDICTED BY IDOCK:   -5.75 KCAL/MOL
REMARK 923 INTER-LIGAND FREE ENERGY PREDICTED BY IDOCK:   -4.82 KCAL/MOL
REMARK 924 INTRA-LIGAND FREE ENERGY PREDICTED BY IDOCK:   -0.93 KCAL/MOL
REMARK 927      BINDING AFFINITY PREDICTED BY RF-SCORE:    0.00 PKD
ROOT
HETATM    1  C   UNL     1     -11.426  10.772  67.979  1.00  0.00    -0.333 C  
HETATM    2  C   UNL     1      -9.922  11.037  68.153  1.00  0.00    -0.190 C  
HETATM    3  C   UNL     1      -9.342  10.334  69.403  1.00  0.00    -0.199 C  
HETATM    4  C   UNL     1      -9.738  12.575  68.237  1.00  0.00    -0.220 C  
ENDROOT
BRANCH   4   5
HETATM    5  N   UNL     1      -8.360  13.079  68.375  1.00  0.00    -0.147 NA 
HETATM    6  C   UNL     1      -8.370  14.547  68.314  1.00  0.00    -0.152 C  
HETATM    7  C   UNL     1      -7.478  12.552  67.330  1.00  0.00    -0.153 C  
ENDBRANCH   4   5
BRANCH   3   8
HETATM    8  N   UNL     1      -9.457   8.853  69.315  1.00  0.00    -0.159 NA 
HETATM    9  C   UNL     1      -8.646   8.227  68.344  1.00  0.00    -0.133 A  
HETATM   10  C   UNL     1      -7.249   8.365  68.373  1.00  0.00    -0.085 A  
HETATM   11  C   UNL     1      -6.436   7.688  67.463  1.00  0.00    -0.058 A  
HETATM   12  C   UNL     1      -7.005   6.865  66.498  1.00  0.00    -0.066 A  
HETATM   13  C   UNL     1      -8.389   6.716  66.448  1.00  0.00    -0.121 A  
HETATM   14  C   UNL     1      -9.210   7.387  67.366  1.00  0.00    -0.146 A  
HETATM   15  C   UNL     1     -10.700   7.208  67.329  1.00  0.00    -0.399 C  
HETATM   16  C   UNL     1     -11.196   6.427  68.540  1.00  0.00    -0.321 C  
HETATM   17  C   UNL     1     -11.039   7.030  69.924  1.00  0.00    -0.301 A  
HETATM   18  C   UNL     1     -11.761   6.361  70.943  1.00  0.00    -0.366 A  
HETATM   19  C   UNL     1     -11.718   6.781  72.267  1.00  0.00    -0.300 A  
HETATM   20  C   UNL     1     -10.940   7.874  72.606  1.00  0.00    -0.440 A  
HETATM   21  C   UNL     1     -10.217   8.542  71.614  1.00  0.00    -0.336 A  
HETATM   22  C   UNL     1     -10.251   8.157  70.255  1.00  0.00    -0.200 A  
ENDBRANCH   3   8
TORSDOF 2
ENDMDL
MODEL       53
REMARK 921   NORMALIZED FREE ENERGY PREDICTED BY IDOCK:   -4.32 KCAL/MOL
REMARK 922        TOTAL FREE ENERGY PREDICTED BY IDOCK:   -5.73 KCAL/MOL
REMARK 923 INTER-LIGAND FREE ENERGY PREDICTED BY IDOCK:   -6.16 KCAL/MOL
REMARK 924 INTRA-LIGAND FREE ENERGY PREDICTED BY IDOCK:    0.43 KCAL/MOL
REMARK 927      BINDING AFFINITY PREDICTED BY RF-SCORE:    0.00 PKD
ROOT
HETATM    1  C   UNL     1     -12.352  11.381  69.353  1.00  0.00    -0.184 C  
HETATM    2  C   UNL     1     -11.608  12.604  68.792  1.00  0.00    -0.355 C  
HETATM    3  C   UNL     1     -10.185  12.249  68.297  1.00  0.00    -0.220 C  
HETATM    4  C   UNL     1     -11.562  13.665  69.923  1.00  0.00    -0.211 C  
ENDROOT
BRANCH   4   5
HETATM    5  N   UNL     1     -10.917  14.952  69.608  1.00  0.00    -0.270 NA 
HETATM    6  C   UNL     1     -10.921  15.804  70.805  1.00  0.00    -0.281 C  
HETATM    7  C   UNL     1     -11.594  15.648  68.510  1.00  0.00    -0.370 C  
ENDBRANCH   4   5
BRANCH   3   8
HETATM    8  N   UNL     1     -10.211  11.275  67.173  1.00  0.00    -0.196 NA 
HETATM    9  C   UNL     1      -9.728   9.981  67.466  1.00  0.00    -0.159 A  
HETATM   10  C   UNL     1     -10.312   9.205  68.480  1.00  0.00    -0.236 A  
HETATM   11  C   UNL     1      -9.891   7.898  68.724  1.00  0.00    -0.171 A  
HETATM   12  C   UNL     1      -8.867   7.342  67.963  1.00  0.00    -0.126 A  
HETATM   13  C   UNL     1      -8.270   8.095  66.955  1.00  0.00    -0.115 A  
HETATM   14  C   UNL     1      -8.697   9.407  66.701  1.00  0.00    -0.143 A  
HETATM   15  C   UNL     1      -8.071  10.211  65.598  1.00  0.00    -0.149 C  
HETATM   16  C   UNL     1      -9.045  10.429  64.447  1.00  0.00    -0.267 C  
HETATM   17  C   UNL     1     -10.302  11.245  64.686  1.00  0.00    -0.373 A  
HETATM   18  C   UNL     1     -10.999  11.613  63.508  1.00  0.00    -0.485 A  
HETATM   19  C   UNL     1     -12.173  12.354  63.553  1.00  0.00    -0.661 A  
HETATM   20  C   UNL     1     -12.686  12.735  64.780  1.00  0.00    -0.469 A  
HETATM   21  C   UNL     1     -12.015  12.377  65.952  1.00  0.00    -0.434 A  
HETATM   22  C   UNL     1     -10.809  11.640  65.946  1.00  0.00    -0.287 A  
ENDBRANCH   3   8
TORSDOF 2
ENDMDL
MODEL       54
REMARK 921   NORMALIZED FREE ENERGY PREDICTED BY IDOCK:   -4.30 KCAL/MOL
REMARK 922        TOTAL FREE ENERGY PREDICTED BY IDOCK:   -5.71 KCAL/MOL
REMARK 923 INTER-LIGAND FREE ENERGY PREDICTED BY IDOCK:   -5.02 KCAL/MOL
REMARK 924 INTRA-LIGAND FREE ENERGY PREDICTED BY IDOCK:   -0.69 KCAL/MOL
REMARK 927      BINDING AFFINITY PREDICTED BY RF-SCORE:    0.00 PKD
ROOT
HETATM    1  C   UNL     1      -8.389   9.683  70.442  1.00  0.00    -0.188 C  
HETATM    2  C   UNL     1      -9.660   9.130  69.777  1.00  0.00    -0.191 C  
HETATM    3  C   UNL     1     -10.722  10.228  69.535  1.00  0.00    -0.249 C  
HETATM    4  C   UNL     1     -10.208   8.012  70.704  1.00  0.00    -0.196 C  
ENDROOT
BRANCH   4   5
HETATM    5  N   UNL     1     -11.420   7.304  70.256  1.00  0.00    -0.247 NA 
HETATM    6  C   UNL     1     -12.179   6.848  71.428  1.00  0.00    -0.372 C  
HETATM    7  C   UNL     1     -11.097   6.155  69.405  1.00  0.00    -0.409 C  
ENDBRANCH   4   5
BRANCH   3   8
HETATM    8  N   UNL     1     -10.236  11.280  68.602  1.00  0.00    -0.198 NA 
HETATM    9  C   UNL     1      -9.617  10.820  67.421  1.00  0.00    -0.159 A  
HETATM   10  C   UNL     1     -10.306   9.991  66.521  1.00  0.00    -0.268 A  
HETATM   11  C   UNL     1      -9.728   9.594  65.315  1.00  0.00    -0.330 A  
HETATM   12  C   UNL     1      -8.443  10.011  64.987  1.00  0.00    -0.167 A  
HETATM   13  C   UNL     1      -7.738  10.830  65.866  1.00  0.00    -0.118 A  
HETATM   14  C   UNL     1      -8.319  11.239  67.076  1.00  0.00    -0.153 A  
HETATM   15  C   UNL     1      -7.570  12.142  68.013  1.00  0.00    -0.123 C  
HETATM   16  C   UNL     1      -8.196  13.530  68.066  1.00  0.00    -0.163 C  
HETATM   17  C   UNL     1      -9.602  13.688  68.617  1.00  0.00    -0.100 A  
HETATM   18  C   UNL     1      -9.989  15.027  68.871  1.00  0.00    -0.236 A  
HETATM   19  C   UNL     1     -11.247  15.344  69.369  1.00  0.00    -0.300 A  
HETATM   20  C   UNL     1     -12.154  14.328  69.613  1.00  0.00    -0.396 A  
HETATM   21  C   UNL     1     -11.791  13.002  69.363  1.00  0.00    -0.380 A  
HETATM   22  C   UNL     1     -10.516  12.639  68.875  1.00  0.00    -0.080 A  
ENDBRANCH   3   8
TORSDOF 2
ENDMDL
MODEL       55
REMARK 921   NORMALIZED FREE ENERGY PREDICTED BY IDOCK:   -4.30 KCAL/MOL
REMARK 922        TOTAL FREE ENERGY PREDICTED BY IDOCK:   -5.71 KCAL/MOL
REMARK 923 INTER-LIGAND FREE ENERGY PREDICTED BY IDOCK:   -6.15 KCAL/MOL
REMARK 924 INTRA-LIGAND FREE ENERGY PREDICTED BY IDOCK:    0.44 KCAL/MOL
REMARK 927      BINDING AFFINITY PREDICTED BY RF-SCORE:    0.00 PKD
ROOT
HETATM    1  C   UNL     1     -11.687  13.090  70.009  1.00  0.00    -0.285 C  
HETATM    2  C   UNL     1     -11.567  11.558  69.948  1.00  0.00    -0.387 C  
HETATM    3  C   UNL     1     -11.811  11.006  68.523  1.00  0.00    -0.216 C  
HETATM    4  C   UNL     1     -12.594  10.981  70.958  1.00  0.00    -0.411 C  
ENDROOT
BRANCH   4   5
HETATM    5  N   UNL     1     -12.643   9.516  71.101  1.00  0.00    -0.314 NA 
HETATM    6  C   UNL     1     -13.656   9.158  72.103  1.00  0.00    -0.474 C  
HETATM    7  C   UNL     1     -11.346   8.962  71.498  1.00  0.00    -0.325 C  
ENDBRANCH   4   5
BRANCH   3   8
HETATM    8  N   UNL     1     -10.801  11.503  67.551  1.00  0.00    -0.222 NA 
HETATM    9  C   UNL     1     -11.274  12.407  66.576  1.00  0.00    -0.319 A  
HETATM   10  C   UNL     1     -11.876  13.620  66.948  1.00  0.00    -0.451 A  
HETATM   11  C   UNL     1     -12.277  14.552  65.991  1.00  0.00    -0.266 A  
HETATM   12  C   UNL     1     -12.093  14.287  64.639  1.00  0.00    -0.478 A  
HETATM   13  C   UNL     1     -11.502  13.088  64.246  1.00  0.00    -0.428 A  
HETATM   14  C   UNL     1     -11.089  12.151  65.205  1.00  0.00    -0.369 A  
HETATM   15  C   UNL     1     -10.429  10.870  64.783  1.00  0.00    -0.373 C  
HETATM   16  C   UNL     1      -8.955  10.852  65.168  1.00  0.00    -0.195 C  
HETATM   17  C   UNL     1      -8.573  10.873  66.637  1.00  0.00    -0.148 A  
HETATM   18  C   UNL     1      -7.209  10.586  66.895  1.00  0.00    -0.106 A  
HETATM   19  C   UNL     1      -6.696  10.573  68.187  1.00  0.00    -0.064 A  
HETATM   20  C   UNL     1      -7.532  10.861  69.251  1.00  0.00    -0.124 A  
HETATM   21  C   UNL     1      -8.878  11.151  69.014  1.00  0.00    -0.025 A  
HETATM   22  C   UNL     1      -9.441  11.155  67.717  1.00  0.00    -0.168 A  
ENDBRANCH   3   8
TORSDOF 2
ENDMDL
MODEL       56
REMARK 921   NORMALIZED FREE ENERGY PREDICTED BY IDOCK:   -4.30 KCAL/MOL
REMARK 922        TOTAL FREE ENERGY PREDICTED BY IDOCK:   -5.70 KCAL/MOL
REMARK 923 INTER-LIGAND FREE ENERGY PREDICTED BY IDOCK:   -4.75 KCAL/MOL
REMARK 924 INTRA-LIGAND FREE ENERGY PREDICTED BY IDOCK:   -0.95 KCAL/MOL
REMARK 927      BINDING AFFINITY PREDICTED BY RF-SCORE:    0.00 PKD
ROOT
HETATM    1  C   UNL     1      -7.501   5.487  68.846  1.00  0.00    -0.082 C  
HETATM    2  C   UNL     1      -8.425   5.568  67.620  1.00  0.00    -0.102 C  
HETATM    3  C   UNL     1      -9.874   5.953  68.001  1.00  0.00    -0.125 C  
HETATM    4  C   UNL     1      -8.376   4.184  66.921  1.00  0.00    -0.100 C  
ENDROOT
BRANCH   4   5
HETATM    5  N   UNL     1      -9.167   4.026  65.689  1.00  0.00    -0.141 NA 
HETATM    6  C   UNL     1      -9.047   2.644  65.206  1.00  0.00    -0.138 C  
HETATM    7  C   UNL     1      -8.733   4.951  64.638  1.00  0.00    -0.152 C  
ENDBRANCH   4   5
BRANCH   3   8
HETATM    8  N   UNL     1      -9.950   7.304  68.620  1.00  0.00    -0.161 NA 
HETATM    9  C   UNL     1      -9.583   8.385  67.790  1.00  0.00    -0.156 A  
HETATM   10  C   UNL     1     -10.257   8.629  66.582  1.00  0.00    -0.343 A  
HETATM   11  C   UNL     1      -9.951   9.739  65.795  1.00  0.00    -0.349 A  
HETATM   12  C   UNL     1      -8.957  10.625  66.195  1.00  0.00    -0.184 A  
HETATM   13  C   UNL     1      -8.273  10.402  67.387  1.00  0.00    -0.117 A  
HETATM   14  C   UNL     1      -8.583   9.291  68.187  1.00  0.00    -0.125 A  
HETATM   15  C   UNL     1      -7.862   9.063  69.484  1.00  0.00    -0.094 C  
HETATM   16  C   UNL     1      -8.784   9.283  70.677  1.00  0.00    -0.282 C  
HETATM   17  C   UNL     1      -9.975   8.363  70.873  1.00  0.00    -0.230 A  
HETATM   18  C   UNL     1     -10.607   8.477  72.136  1.00  0.00    -0.419 A  
HETATM   19  C   UNL     1     -11.717   7.711  72.471  1.00  0.00    -0.352 A  
HETATM   20  C   UNL     1     -12.230   6.821  71.545  1.00  0.00    -0.413 A  
HETATM   21  C   UNL     1     -11.623   6.699  70.292  1.00  0.00    -0.454 A  
HETATM   22  C   UNL     1     -10.482   7.447  69.922  1.00  0.00    -0.231 A  
ENDBRANCH   3   8
TORSDOF 2
ENDMDL
MODEL       57
REMARK 921   NORMALIZED FREE ENERGY PREDICTED BY IDOCK:   -4.28 KCAL/MOL
REMARK 922        TOTAL FREE ENERGY PREDICTED BY IDOCK:   -5.69 KCAL/MOL
REMARK 923 INTER-LIGAND FREE ENERGY PREDICTED BY IDOCK:   -6.11 KCAL/MOL
REMARK 924 INTRA-LIGAND FREE ENERGY PREDICTED BY IDOCK:    0.42 KCAL/MOL
REMARK 927      BINDING AFFINITY PREDICTED BY RF-SCORE:    0.00 PKD
ROOT
HETATM    1  C   UNL     1      -8.586  11.323  68.342  1.00  0.00    -0.155 C  
HETATM    2  C   UNL     1      -9.980  11.123  67.725  1.00  0.00    -0.193 C  
HETATM    3  C   UNL     1     -10.454   9.653  67.807  1.00  0.00    -0.256 C  
HETATM    4  C   UNL     1      -9.898  11.605  66.252  1.00  0.00    -0.219 C  
ENDROOT
BRANCH   4   5
HETATM    5  N   UNL     1     -11.136  11.540  65.455  1.00  0.00    -0.238 NA 
HETATM    6  C   UNL     1     -10.793  11.468  64.029  1.00  0.00    -0.387 C  
HETATM    7  C   UNL     1     -12.000  12.699  65.693  1.00  0.00    -0.452 C  
ENDBRANCH   4   5
BRANCH   3   8
HETATM    8  N   UNL     1     -10.594   9.189  69.214  1.00  0.00    -0.225 NA 
HETATM    9  C   UNL     1      -9.704   8.172  69.621  1.00  0.00    -0.170 A  
HETATM   10  C   UNL     1      -8.314   8.363  69.561  1.00  0.00    -0.120 A  
HETATM   11  C   UNL     1      -7.430   7.392  70.032  1.00  0.00    -0.084 A  
HETATM   12  C   UNL     1      -7.918   6.205  70.566  1.00  0.00    -0.111 A  
HETATM   13  C   UNL     1      -9.293   5.991  70.631  1.00  0.00    -0.176 A  
HETATM   14  C   UNL     1     -10.186   6.968  70.167  1.00  0.00    -0.206 A  
HETATM   15  C   UNL     1     -11.669   6.750  70.260  1.00  0.00    -0.397 C  
HETATM   16  C   UNL     1     -12.303   7.678  71.288  1.00  0.00    -0.334 C  
HETATM   17  C   UNL     1     -12.273   9.177  71.052  1.00  0.00    -0.302 A  
HETATM   18  C   UNL     1     -13.110   9.927  71.915  1.00  0.00    -0.559 A  
HETATM   19  C   UNL     1     -13.192  11.312  71.835  1.00  0.00    -0.491 A  
HETATM   20  C   UNL     1     -12.426  11.982  70.897  1.00  0.00    -0.384 A  
HETATM   21  C   UNL     1     -11.591  11.259  70.042  1.00  0.00    -0.404 A  
HETATM   22  C   UNL     1     -11.496   9.849  70.080  1.00  0.00    -0.248 A  
ENDBRANCH   3   8
TORSDOF 2
ENDMDL
MODEL       58
REMARK 921   NORMALIZED FREE ENERGY PREDICTED BY IDOCK:   -4.26 KCAL/MOL
REMARK 922        TOTAL FREE ENERGY PREDICTED BY IDOCK:   -5.67 KCAL/MOL
REMARK 923 INTER-LIGAND FREE ENERGY PREDICTED BY IDOCK:   -4.85 KCAL/MOL
REMARK 924 INTRA-LIGAND FREE ENERGY PREDICTED BY IDOCK:   -0.82 KCAL/MOL
REMARK 927      BINDING AFFINITY PREDICTED BY RF-SCORE:    0.00 PKD
ROOT
HETATM    1  C   UNL     1      -8.404   8.938  68.845  1.00  0.00    -0.122 C  
HETATM    2  C   UNL     1      -9.929   9.127  68.908  1.00  0.00    -0.189 C  
HETATM    3  C   UNL     1     -10.687   8.060  68.083  1.00  0.00    -0.032 C  
HETATM    4  C   UNL     1     -10.231  10.558  68.389  1.00  0.00    -0.172 C  
ENDROOT
BRANCH   4   5
HETATM    5  N   UNL     1     -11.642  10.985  68.385  1.00  0.00    -0.420 NA 
HETATM    6  C   UNL     1     -11.734  12.354  67.860  1.00  0.00    -0.360 C  
HETATM    7  C   UNL     1     -12.232  10.934  69.725  1.00  0.00    -0.311 C  
ENDBRANCH   4   5
BRANCH   3   8
HETATM    8  N   UNL     1     -10.455   6.684  68.601  1.00  0.00    -0.194 NA 
HETATM    9  C   UNL     1     -10.730   6.486  69.971  1.00  0.00    -0.249 A  
HETATM   10  C   UNL     1     -12.009   6.735  70.494  1.00  0.00    -0.385 A  
HETATM   11  C   UNL     1     -12.309   6.468  71.830  1.00  0.00    -0.339 A  
HETATM   12  C   UNL     1     -11.331   5.955  72.675  1.00  0.00    -0.337 A  
HETATM   13  C   UNL     1     -10.053   5.704  72.179  1.00  0.00    -0.227 A  
HETATM   14  C   UNL     1      -9.750   5.962  70.834  1.00  0.00    -0.211 A  
HETATM   15  C   UNL     1      -8.381   5.669  70.293  1.00  0.00    -0.112 C  
HETATM   16  C   UNL     1      -8.407   4.495  69.322  1.00  0.00    -0.085 C  
HETATM   17  C   UNL     1      -9.180   4.626  68.022  1.00  0.00    -0.158 A  
HETATM   18  C   UNL     1      -8.928   3.598  67.080  1.00  0.00    -0.162 A  
HETATM   19  C   UNL     1      -9.562   3.567  65.844  1.00  0.00    -0.106 A  
HETATM   20  C   UNL     1     -10.475   4.556  65.525  1.00  0.00    -0.241 A  
HETATM   21  C   UNL     1     -10.740   5.574  66.445  1.00  0.00    -0.262 A  
HETATM   22  C   UNL     1     -10.102   5.651  67.704  1.00  0.00    -0.172 A  
ENDBRANCH   3   8
TORSDOF 2
ENDMDL
MODEL       59
REMARK 921   NORMALIZED FREE ENERGY PREDICTED BY IDOCK:   -4.25 KCAL/MOL
REMARK 922        TOTAL FREE ENERGY PREDICTED BY IDOCK:   -5.65 KCAL/MOL
REMARK 923 INTER-LIGAND FREE ENERGY PREDICTED BY IDOCK:   -5.72 KCAL/MOL
REMARK 924 INTRA-LIGAND FREE ENERGY PREDICTED BY IDOCK:    0.06 KCAL/MOL
REMARK 927      BINDING AFFINITY PREDICTED BY RF-SCORE:    0.00 PKD
ROOT
HETATM    1  C   UNL     1     -10.811   7.899  67.584  1.00  0.00    -0.125 C  
HETATM    2  C   UNL     1     -10.040   9.199  67.302  1.00  0.00    -0.295 C  
HETATM    3  C   UNL     1     -10.715  10.434  67.945  1.00  0.00    -0.261 C  
HETATM    4  C   UNL     1      -9.948   9.348  65.760  1.00  0.00    -0.208 C  
ENDROOT
BRANCH   4   5
HETATM    5  N   UNL     1      -9.216  10.517  65.242  1.00  0.00    -0.187 NA 
HETATM    6  C   UNL     1      -9.996  11.142  64.166  1.00  0.00    -0.316 C  
HETATM    7  C   UNL     1      -7.890  10.152  64.736  1.00  0.00    -0.146 C  
ENDBRANCH   4   5
BRANCH   3   8
HETATM    8  N   UNL     1     -10.761  10.336  69.429  1.00  0.00    -0.225 NA 
HETATM    9  C   UNL     1      -9.795   9.496  70.024  1.00  0.00    -0.233 A  
HETATM   10  C   UNL     1      -8.423   9.727  69.833  1.00  0.00    -0.217 A  
HETATM   11  C   UNL     1      -7.462   8.948  70.478  1.00  0.00    -0.089 A  
HETATM   12  C   UNL     1      -7.854   7.914  71.322  1.00  0.00    -0.088 A  
HETATM   13  C   UNL     1      -9.209   7.664  71.522  1.00  0.00    -0.156 A  
HETATM   14  C   UNL     1     -10.179   8.450  70.882  1.00  0.00    -0.234 A  
HETATM   15  C   UNL     1     -11.640   8.197  71.117  1.00  0.00    -0.306 C  
HETATM   16  C   UNL     1     -12.278   9.327  71.916  1.00  0.00    -0.448 C  
HETATM   17  C   UNL     1     -12.347  10.716  71.310  1.00  0.00    -0.488 A  
HETATM   18  C   UNL     1     -13.184  11.623  72.007  1.00  0.00    -0.443 A  
HETATM   19  C   UNL     1     -13.349  12.937  71.587  1.00  0.00    -0.358 A  
HETATM   20  C   UNL     1     -12.670  13.381  70.466  1.00  0.00    -0.194 A  
HETATM   21  C   UNL     1     -11.835  12.502  69.770  1.00  0.00    -0.380 A  
HETATM   22  C   UNL     1     -11.657  11.154  70.155  1.00  0.00    -0.323 A  
ENDBRANCH   3   8
TORSDOF 2
ENDMDL
MODEL       60
REMARK 921   NORMALIZED FREE ENERGY PREDICTED BY IDOCK:   -4.25 KCAL/MOL
REMARK 922        TOTAL FREE ENERGY PREDICTED BY IDOCK:   -5.65 KCAL/MOL
REMARK 923 INTER-LIGAND FREE ENERGY PREDICTED BY IDOCK:   -5.12 KCAL/MOL
REMARK 924 INTRA-LIGAND FREE ENERGY PREDICTED BY IDOCK:   -0.53 KCAL/MOL
REMARK 927      BINDING AFFINITY PREDICTED BY RF-SCORE:    0.00 PKD
ROOT
HETATM    1  C   UNL     1     -10.503  10.461  66.086  1.00  0.00    -0.224 C  
HETATM    2  C   UNL     1     -10.086  11.715  66.872  1.00  0.00    -0.238 C  
HETATM    3  C   UNL     1     -10.620  11.703  68.324  1.00  0.00    -0.205 C  
HETATM    4  C   UNL     1     -10.621  12.942  66.087  1.00  0.00    -0.271 C  
ENDROOT
BRANCH   4   5
HETATM    5  N   UNL     1     -10.314  14.275  66.637  1.00  0.00    -0.275 NA 
HETATM    6  C   UNL     1     -11.528  14.847  67.233  1.00  0.00    -0.340 C  
HETATM    7  C   UNL     1      -9.799  15.184  65.609  1.00  0.00    -0.343 C  
ENDBRANCH   4   5
BRANCH   3   8
HETATM    8  N   UNL     1     -10.072  10.564  69.111  1.00  0.00    -0.215 NA 
HETATM    9  C   UNL     1      -8.685  10.338  68.988  1.00  0.00    -0.163 A  
HETATM   10  C   UNL     1      -7.758  11.339  69.323  1.00  0.00     0.010 A  
HETATM   11  C   UNL     1      -6.385  11.098  69.276  1.00  0.00    -0.076 A  
HETATM   12  C   UNL     1      -5.909   9.852  68.884  1.00  0.00    -0.034 A  
HETATM   13  C   UNL     1      -6.809   8.846  68.542  1.00  0.00    -0.064 A  
HETATM   14  C   UNL     1      -8.191   9.081  68.597  1.00  0.00    -0.118 A  
HETATM   15  C   UNL     1      -9.163   7.989  68.253  1.00  0.00    -0.134 C  
HETATM   16  C   UNL     1      -9.917   7.508  69.487  1.00  0.00    -0.180 C  
HETATM   17  C   UNL     1     -10.845   8.468  70.209  1.00  0.00    -0.249 A  
HETATM   18  C   UNL     1     -11.692   7.860  71.168  1.00  0.00    -0.306 A  
HETATM   19  C   UNL     1     -12.595   8.600  71.922  1.00  0.00    -0.411 A  
HETATM   20  C   UNL     1     -12.663   9.970  71.743  1.00  0.00    -0.526 A  
HETATM   21  C   UNL     1     -11.831  10.587  70.805  1.00  0.00    -0.465 A  
HETATM   22  C   UNL     1     -10.914   9.866  70.007  1.00  0.00    -0.291 A  
ENDBRANCH   3   8
TORSDOF 2
ENDMDL
MODEL       61
REMARK 921   NORMALIZED FREE ENERGY PREDICTED BY IDOCK:   -4.21 KCAL/MOL
REMARK 922        TOTAL FREE ENERGY PREDICTED BY IDOCK:   -5.61 KCAL/MOL
REMARK 923 INTER-LIGAND FREE ENERGY PREDICTED BY IDOCK:   -6.07 KCAL/MOL
REMARK 924 INTRA-LIGAND FREE ENERGY PREDICTED BY IDOCK:    0.46 KCAL/MOL
REMARK 927      BINDING AFFINITY PREDICTED BY RF-SCORE:    0.00 PKD
ROOT
HETATM    1  C   UNL     1     -12.091  10.970  68.193  1.00  0.00     0.135 C  
HETATM    2  C   UNL     1     -11.025  11.184  69.280  1.00  0.00    -0.300 C  
HETATM    3  C   UNL     1     -10.054  12.337  68.932  1.00  0.00     0.020 C  
HETATM    4  C   UNL     1     -10.266   9.840  69.443  1.00  0.00    -0.210 C  
ENDROOT
BRANCH   4   5
HETATM    5  N   UNL     1      -9.205   9.790  70.464  1.00  0.00    -0.141 NA 
HETATM    6  C   UNL     1      -7.940   9.393  69.831  1.00  0.00    -0.130 C  
HETATM    7  C   UNL     1      -9.528   8.852  71.542  1.00  0.00    -0.277 C  
ENDBRANCH   4   5
BRANCH   3   8
HETATM    8  N   UNL     1     -10.755  13.646  68.828  1.00  0.00    -0.251 NA 
HETATM    9  C   UNL     1     -10.724  14.264  67.559  1.00  0.00    -0.270 A  
HETATM   10  C   UNL     1     -11.244  13.614  66.428  1.00  0.00    -0.317 A  
HETATM   11  C   UNL     1     -11.287  14.248  65.186  1.00  0.00    -0.345 A  
HETATM   12  C   UNL     1     -10.802  15.544  65.048  1.00  0.00    -0.468 A  
HETATM   13  C   UNL     1     -10.278  16.206  66.155  1.00  0.00    -0.351 A  
HETATM   14  C   UNL     1     -10.241  15.576  67.408  1.00  0.00    -0.255 A  
HETATM   15  C   UNL     1      -9.699  16.298  68.607  1.00  0.00    -0.235 C  
HETATM   16  C   UNL     1     -10.804  16.630  69.602  1.00  0.00    -0.282 C  
HETATM   17  C   UNL     1     -11.546  15.499  70.290  1.00  0.00    -0.355 A  
HETATM   18  C   UNL     1     -12.358  15.903  71.379  1.00  0.00    -0.485 A  
HETATM   19  C   UNL     1     -13.110  14.990  72.110  1.00  0.00    -0.443 A  
HETATM   20  C   UNL     1     -13.077  13.652  71.760  1.00  0.00    -0.468 A  
HETATM   21  C   UNL     1     -12.286  13.237  70.685  1.00  0.00    -0.416 A  
HETATM   22  C   UNL     1     -11.494  14.132  69.931  1.00  0.00    -0.226 A  
ENDBRANCH   3   8
TORSDOF 2
ENDMDL
MODEL       62
REMARK 921   NORMALIZED FREE ENERGY PREDICTED BY IDOCK:   -4.18 KCAL/MOL
REMARK 922        TOTAL FREE ENERGY PREDICTED BY IDOCK:   -5.57 KCAL/MOL
REMARK 923 INTER-LIGAND FREE ENERGY PREDICTED BY IDOCK:   -6.05 KCAL/MOL
REMARK 924 INTRA-LIGAND FREE ENERGY PREDICTED BY IDOCK:    0.48 KCAL/MOL
REMARK 927      BINDING AFFINITY PREDICTED BY RF-SCORE:    0.00 PKD
ROOT
HETATM    1  C   UNL     1     -10.133   9.204  66.199  1.00  0.00    -0.278 C  
HETATM    2  C   UNL     1      -9.225   9.909  67.220  1.00  0.00    -0.156 C  
HETATM    3  C   UNL     1      -9.058  11.417  66.915  1.00  0.00    -0.175 C  
HETATM    4  C   UNL     1      -7.858   9.175  67.195  1.00  0.00    -0.102 C  
ENDROOT
BRANCH   4   5
HETATM    5  N   UNL     1      -6.821   9.657  68.125  1.00  0.00    -0.069 NA 
HETATM    6  C   UNL     1      -5.671  10.151  67.357  1.00  0.00    -0.042 C  
HETATM    7  C   UNL     1      -6.381   8.605  69.045  1.00  0.00    -0.044 C  
ENDBRANCH   4   5
BRANCH   3   8
HETATM    8  N   UNL     1     -10.350  12.150  66.991  1.00  0.00    -0.210 NA 
HETATM    9  C   UNL     1     -10.884  12.590  65.761  1.00  0.00    -0.276 A  
HETATM   10  C   UNL     1     -11.176  11.678  64.733  1.00  0.00    -0.300 A  
HETATM   11  C   UNL     1     -11.774  12.096  63.544  1.00  0.00    -0.579 A  
HETATM   12  C   UNL     1     -12.085  13.438  63.354  1.00  0.00    -0.437 A  
HETATM   13  C   UNL     1     -11.800  14.361  64.357  1.00  0.00    -0.433 A  
HETATM   14  C   UNL     1     -11.207  13.944  65.559  1.00  0.00    -0.307 A  
HETATM   15  C   UNL     1     -10.922  14.934  66.651  1.00  0.00    -0.325 C  
HETATM   16  C   UNL     1     -11.832  14.713  67.852  1.00  0.00    -0.352 C  
HETATM   17  C   UNL     1     -11.722  13.418  68.637  1.00  0.00    -0.384 A  
HETATM   18  C   UNL     1     -12.410  13.418  69.875  1.00  0.00    -0.259 A  
HETATM   19  C   UNL     1     -12.415  12.308  70.710  1.00  0.00    -0.356 A  
HETATM   20  C   UNL     1     -11.743  11.163  70.319  1.00  0.00    -0.431 A  
HETATM   21  C   UNL     1     -11.064  11.143  69.098  1.00  0.00    -0.306 A  
HETATM   22  C   UNL     1     -11.019  12.259  68.232  1.00  0.00    -0.232 A  
ENDBRANCH   3   8
TORSDOF 2
ENDMDL
MODEL       63
REMARK 921   NORMALIZED FREE ENERGY PREDICTED BY IDOCK:   -4.17 KCAL/MOL
REMARK 922        TOTAL FREE ENERGY PREDICTED BY IDOCK:   -5.57 KCAL/MOL
REMARK 923 INTER-LIGAND FREE ENERGY PREDICTED BY IDOCK:   -4.60 KCAL/MOL
REMARK 924 INTRA-LIGAND FREE ENERGY PREDICTED BY IDOCK:   -0.97 KCAL/MOL
REMARK 927      BINDING AFFINITY PREDICTED BY RF-SCORE:    0.00 PKD
ROOT
HETATM    1  C   UNL     1     -11.467  11.281  67.894  1.00  0.00    -0.360 C  
HETATM    2  C   UNL     1     -10.994  11.567  66.460  1.00  0.00    -0.346 C  
HETATM    3  C   UNL     1      -9.536  12.081  66.414  1.00  0.00    -0.231 C  
HETATM    4  C   UNL     1     -11.976  12.606  65.856  1.00  0.00    -0.438 C  
ENDROOT
BRANCH   4   5
HETATM    5  N   UNL     1     -11.742  13.017  64.461  1.00  0.00    -0.349 NA 
HETATM    6  C   UNL     1     -12.110  14.430  64.302  1.00  0.00    -0.436 C  
HETATM    7  C   UNL     1     -12.509  12.202  63.515  1.00  0.00    -0.555 C  
ENDBRANCH   4   5
BRANCH   3   8
HETATM    8  N   UNL     1      -8.571  11.075  66.935  1.00  0.00    -0.139 NA 
HETATM    9  C   UNL     1      -8.456   9.883  66.187  1.00  0.00    -0.125 A  
HETATM   10  C   UNL     1      -8.075   9.914  64.836  1.00  0.00    -0.145 A  
HETATM   11  C   UNL     1      -7.885   8.737  64.112  1.00  0.00    -0.139 A  
HETATM   12  C   UNL     1      -8.082   7.503  64.722  1.00  0.00    -0.112 A  
HETATM   13  C   UNL     1      -8.465   7.449  66.060  1.00  0.00    -0.152 A  
HETATM   14  C   UNL     1      -8.648   8.629  66.795  1.00  0.00    -0.126 A  
HETATM   15  C   UNL     1      -9.036   8.571  68.244  1.00  0.00    -0.138 C  
HETATM   16  C   UNL     1      -7.896   9.032  69.144  1.00  0.00    -0.093 C  
HETATM   17  C   UNL     1      -7.418  10.470  69.057  1.00  0.00    -0.112 A  
HETATM   18  C   UNL     1      -6.550  10.867  70.104  1.00  0.00    -0.122 A  
HETATM   19  C   UNL     1      -6.018  12.149  70.168  1.00  0.00    -0.154 A  
HETATM   20  C   UNL     1      -6.331  13.062  69.176  1.00  0.00    -0.105 A  
HETATM   21  C   UNL     1      -7.181  12.686  68.133  1.00  0.00    -0.109 A  
HETATM   22  C   UNL     1      -7.757  11.398  68.045  1.00  0.00    -0.114 A  
ENDBRANCH   3   8
TORSDOF 2
ENDMDL
MODEL       64
REMARK 921   NORMALIZED FREE ENERGY PREDICTED BY IDOCK:   -4.15 KCAL/MOL
REMARK 922        TOTAL FREE ENERGY PREDICTED BY IDOCK:   -5.55 KCAL/MOL
REMARK 923 INTER-LIGAND FREE ENERGY PREDICTED BY IDOCK:   -4.60 KCAL/MOL
REMARK 924 INTRA-LIGAND FREE ENERGY PREDICTED BY IDOCK:   -0.95 KCAL/MOL
REMARK 927      BINDING AFFINITY PREDICTED BY RF-SCORE:    0.00 PKD
ROOT
HETATM    1  C   UNL     1     -11.004   6.463  67.202  1.00  0.00    -0.476 C  
HETATM    2  C   UNL     1      -9.500   6.566  66.896  1.00  0.00    -0.178 C  
HETATM    3  C   UNL     1      -9.099   7.969  66.384  1.00  0.00    -0.183 C  
HETATM    4  C   UNL     1      -9.175   5.470  65.847  1.00  0.00    -0.147 C  
ENDROOT
BRANCH   4   5
HETATM    5  N   UNL     1      -7.771   5.351  65.416  1.00  0.00    -0.089 NA 
HETATM    6  C   UNL     1      -7.692   5.523  63.959  1.00  0.00    -0.089 C  
HETATM    7  C   UNL     1      -7.193   4.056  65.787  1.00  0.00    -0.072 C  
ENDBRANCH   4   5
BRANCH   3   8
HETATM    8  N   UNL     1      -9.351   9.028  67.399  1.00  0.00    -0.137 NA 
HETATM    9  C   UNL     1      -8.610   8.924  68.596  1.00  0.00    -0.133 A  
HETATM   10  C   UNL     1      -7.206   8.928  68.578  1.00  0.00    -0.073 A  
HETATM   11  C   UNL     1      -6.467   8.903  69.761  1.00  0.00    -0.035 A  
HETATM   12  C   UNL     1      -7.118   8.865  70.988  1.00  0.00    -0.090 A  
HETATM   13  C   UNL     1      -8.511   8.857  71.031  1.00  0.00    -0.244 A  
HETATM   14  C   UNL     1      -9.258   8.891  69.844  1.00  0.00    -0.171 A  
HETATM   15  C   UNL     1     -10.758   8.907  69.889  1.00  0.00    -0.236 C  
HETATM   16  C   UNL     1     -11.313  10.252  69.438  1.00  0.00    -0.279 C  
HETATM   17  C   UNL     1     -11.089  10.703  68.006  1.00  0.00    -0.361 A  
HETATM   18  C   UNL     1     -11.859  11.826  67.614  1.00  0.00    -0.241 A  
HETATM   19  C   UNL     1     -11.766  12.369  66.338  1.00  0.00    -0.453 A  
HETATM   20  C   UNL     1     -10.888  11.810  65.427  1.00  0.00    -0.347 A  
HETATM   21  C   UNL     1     -10.115  10.706  65.799  1.00  0.00    -0.327 A  
HETATM   22  C   UNL     1     -10.197  10.114  67.080  1.00  0.00    -0.234 A  
ENDBRANCH   3   8
TORSDOF 2
ENDMDL
MODEL       65
REMARK 921   NORMALIZED FREE ENERGY PREDICTED BY IDOCK:   -4.13 KCAL/MOL
REMARK 922        TOTAL FREE ENERGY PREDICTED BY IDOCK:   -5.52 KCAL/MOL
REMARK 923 INTER-LIGAND FREE ENERGY PREDICTED BY IDOCK:   -6.20 KCAL/MOL
REMARK 924 INTRA-LIGAND FREE ENERGY PREDICTED BY IDOCK:    0.68 KCAL/MOL
REMARK 927      BINDING AFFINITY PREDICTED BY RF-SCORE:    0.00 PKD
ROOT
HETATM    1  C   UNL     1      -9.030  15.130  69.846  1.00  0.00     0.175 C  
HETATM    2  C   UNL     1     -10.464  15.684  69.858  1.00  0.00    -0.327 C  
HETATM    3  C   UNL     1     -10.517  17.186  69.489  1.00  0.00    -0.122 C  
HETATM    4  C   UNL     1     -11.037  15.433  71.278  1.00  0.00    -0.286 C  
ENDROOT
BRANCH   4   5
HETATM    5  N   UNL     1     -12.427  15.855  71.525  1.00  0.00    -0.451 NA 
HETATM    6  C   UNL     1     -12.659  15.943  72.973  1.00  0.00    -0.501 C  
HETATM    7  C   UNL     1     -13.393  14.928  70.930  1.00  0.00    -0.344 C  
ENDBRANCH   4   5
BRANCH   3   8
HETATM    8  N   UNL     1     -10.026  17.440  68.108  1.00  0.00    -0.291 NA 
HETATM    9  C   UNL     1      -8.978  18.377  67.988  1.00  0.00    -0.290 A  
HETATM   10  C   UNL     1      -7.756  18.183  68.653  1.00  0.00    -0.309 A  
HETATM   11  C   UNL     1      -6.689  19.064  68.479  1.00  0.00    -0.293 A  
HETATM   12  C   UNL     1      -6.825  20.166  67.642  1.00  0.00    -0.290 A  
HETATM   13  C   UNL     1      -8.029  20.382  66.975  1.00  0.00    -0.359 A  
HETATM   14  C   UNL     1      -9.101  19.493  67.140  1.00  0.00    -0.375 A  
HETATM   15  C   UNL     1     -10.391  19.711  66.403  1.00  0.00    -0.609 C  
HETATM   16  C   UNL     1     -10.604  18.649  65.331  1.00  0.00     0.209 C  
HETATM   17  C   UNL     1     -10.782  17.201  65.748  1.00  0.00    -0.140 A  
HETATM   18  C   UNL     1     -11.234  16.341  64.716  1.00  0.00    -0.267 A  
HETATM   19  C   UNL     1     -11.440  14.984  64.931  1.00  0.00    -0.399 A  
HETATM   20  C   UNL     1     -11.184  14.450  66.182  1.00  0.00    -0.336 A  
HETATM   21  C   UNL     1     -10.732  15.282  67.210  1.00  0.00    -0.311 A  
HETATM   22  C   UNL     1     -10.529  16.670  67.035  1.00  0.00    -0.283 A  
ENDBRANCH   3   8
TORSDOF 2
ENDMDL
MODEL       66
REMARK 921   NORMALIZED FREE ENERGY PREDICTED BY IDOCK:   -4.11 KCAL/MOL
REMARK 922        TOTAL FREE ENERGY PREDICTED BY IDOCK:   -5.50 KCAL/MOL
REMARK 923 INTER-LIGAND FREE ENERGY PREDICTED BY IDOCK:   -5.16 KCAL/MOL
REMARK 924 INTRA-LIGAND FREE ENERGY PREDICTED BY IDOCK:   -0.34 KCAL/MOL
REMARK 927      BINDING AFFINITY PREDICTED BY RF-SCORE:    0.00 PKD
ROOT
HETATM    1  C   UNL     1      -9.453   9.265  70.898  1.00  0.00    -0.330 C  
HETATM    2  C   UNL     1     -10.879   8.914  70.442  1.00  0.00    -0.269 C  
HETATM    3  C   UNL     1     -11.460   9.968  69.469  1.00  0.00    -0.120 C  
HETATM    4  C   UNL     1     -11.747   8.791  71.722  1.00  0.00    -0.346 C  
ENDROOT
BRANCH   4   5
HETATM    5  N   UNL     1     -13.163   8.426  71.539  1.00  0.00    -0.316 NA 
HETATM    6  C   UNL     1     -13.958   8.992  72.637  1.00  0.00    -0.308 C  
HETATM    7  C   UNL     1     -13.352   6.973  71.497  1.00  0.00    -0.294 C  
ENDBRANCH   4   5
BRANCH   3   8
HETATM    8  N   UNL     1     -10.674  10.060  68.210  1.00  0.00    -0.227 NA 
HETATM    9  C   UNL     1     -10.130   8.848  67.731  1.00  0.00    -0.210 A  
HETATM   10  C   UNL     1     -10.959   7.756  67.426  1.00  0.00    -0.060 A  
HETATM   11  C   UNL     1     -10.438   6.583  66.880  1.00  0.00    -0.347 A  
HETATM   12  C   UNL     1      -9.073   6.474  66.637  1.00  0.00    -0.159 A  
HETATM   13  C   UNL     1      -8.231   7.542  66.936  1.00  0.00    -0.124 A  
HETATM   14  C   UNL     1      -8.752   8.728  67.476  1.00  0.00    -0.135 A  
HETATM   15  C   UNL     1      -7.849   9.889  67.775  1.00  0.00    -0.094 C  
HETATM   16  C   UNL     1      -8.105  11.051  66.823  1.00  0.00    -0.151 C  
HETATM   17  C   UNL     1      -9.451  11.751  66.853  1.00  0.00    -0.200 A  
HETATM   18  C   UNL     1      -9.498  12.970  66.132  1.00  0.00    -0.159 A  
HETATM   19  C   UNL     1     -10.659  13.730  66.053  1.00  0.00    -0.290 A  
HETATM   20  C   UNL     1     -11.806  13.281  66.683  1.00  0.00    -0.447 A  
HETATM   21  C   UNL     1     -11.779  12.078  67.394  1.00  0.00    -0.352 A  
HETATM   22  C   UNL     1     -10.614  11.288  67.512  1.00  0.00    -0.218 A  
ENDBRANCH   3   8
TORSDOF 2
ENDMDL
MODEL       67
REMARK 921   NORMALIZED FREE ENERGY PREDICTED BY IDOCK:   -4.09 KCAL/MOL
REMARK 922        TOTAL FREE ENERGY PREDICTED BY IDOCK:   -5.48 KCAL/MOL
REMARK 923 INTER-LIGAND FREE ENERGY PREDICTED BY IDOCK:   -5.19 KCAL/MOL
REMARK 924 INTRA-LIGAND FREE ENERGY PREDICTED BY IDOCK:   -0.29 KCAL/MOL
REMARK 927      BINDING AFFINITY PREDICTED BY RF-SCORE:    0.00 PKD
ROOT
HETATM    1  C   UNL     1      -7.661  12.357  68.700  1.00  0.00    -0.082 C  
HETATM    2  C   UNL     1      -7.729  13.891  68.629  1.00  0.00    -0.128 C  
HETATM    3  C   UNL     1      -8.475  14.388  67.368  1.00  0.00    -0.203 C  
HETATM    4  C   UNL     1      -6.268  14.414  68.660  1.00  0.00    -0.087 C  
ENDROOT
BRANCH   4   5
HETATM    5  N   UNL     1      -6.078  15.874  68.633  1.00  0.00    -0.099 NA 
HETATM    6  C   UNL     1      -7.272  16.531  69.182  1.00  0.00    -0.226 C  
HETATM    7  C   UNL     1      -5.827  16.368  67.276  1.00  0.00    -0.144 C  
ENDBRANCH   4   5
BRANCH   3   8
HETATM    8  N   UNL     1      -9.896  13.945  67.348  1.00  0.00    -0.233 NA 
HETATM    9  C   UNL     1     -10.679  14.334  68.456  1.00  0.00    -0.255 A  
HETATM   10  C   UNL     1     -10.847  15.690  68.780  1.00  0.00    -0.262 A  
HETATM   11  C   UNL     1     -11.681  16.086  69.826  1.00  0.00    -0.267 A  
HETATM   12  C   UNL     1     -12.359  15.132  70.577  1.00  0.00    -0.408 A  
HETATM   13  C   UNL     1     -12.204  13.780  70.276  1.00  0.00    -0.429 A  
HETATM   14  C   UNL     1     -11.374  13.378  69.219  1.00  0.00    -0.314 A  
HETATM   15  C   UNL     1     -11.225  11.924  68.878  1.00  0.00    -0.310 C  
HETATM   16  C   UNL     1     -11.884  11.597  67.543  1.00  0.00    -0.196 C  
HETATM   17  C   UNL     1     -11.334  12.221  66.274  1.00  0.00    -0.395 A  
HETATM   18  C   UNL     1     -11.834  11.656  65.075  1.00  0.00     0.021 A  
HETATM   19  C   UNL     1     -11.437  12.119  63.826  1.00  0.00    -0.548 A  
HETATM   20  C   UNL     1     -10.540  13.169  63.747  1.00  0.00    -0.040 A  
HETATM   21  C   UNL     1     -10.041  13.742  64.919  1.00  0.00    -0.297 A  
HETATM   22  C   UNL     1     -10.406  13.286  66.206  1.00  0.00    -0.290 A  
ENDBRANCH   3   8
TORSDOF 2
ENDMDL
MODEL       68
REMARK 921   NORMALIZED FREE ENERGY PREDICTED BY IDOCK:   -4.05 KCAL/MOL
REMARK 922        TOTAL FREE ENERGY PREDICTED BY IDOCK:   -5.43 KCAL/MOL
REMARK 923 INTER-LIGAND FREE ENERGY PREDICTED BY IDOCK:   -5.23 KCAL/MOL
REMARK 924 INTRA-LIGAND FREE ENERGY PREDICTED BY IDOCK:   -0.20 KCAL/MOL
REMARK 927      BINDING AFFINITY PREDICTED BY RF-SCORE:    0.00 PKD
ROOT
HETATM    1  C   UNL     1     -12.354  13.040  68.498  1.00  0.00     0.169 C  
HETATM    2  C   UNL     1     -11.650  14.144  69.303  1.00  0.00    -0.350 C  
HETATM    3  C   UNL     1     -10.109  14.057  69.198  1.00  0.00     0.036 C  
HETATM    4  C   UNL     1     -12.122  14.004  70.775  1.00  0.00    -0.345 C  
ENDROOT
BRANCH   4   5
HETATM    5  N   UNL     1     -11.600  14.985  71.743  1.00  0.00    -0.385 NA 
HETATM    6  C   UNL     1     -12.444  14.978  72.946  1.00  0.00    -0.391 C  
HETATM    7  C   UNL     1     -11.560  16.338  71.182  1.00  0.00    -0.328 C  
ENDBRANCH   4   5
BRANCH   3   8
HETATM    8  N   UNL     1      -9.633  14.248  67.801  1.00  0.00    -0.216 NA 
HETATM    9  C   UNL     1      -8.980  15.470  67.532  1.00  0.00    -0.189 A  
HETATM   10  C   UNL     1      -7.826  15.843  68.240  1.00  0.00    -0.138 A  
HETATM   11  C   UNL     1      -7.133  17.013  67.928  1.00  0.00    -0.166 A  
HETATM   12  C   UNL     1      -7.585  17.839  66.906  1.00  0.00    -0.238 A  
HETATM   13  C   UNL     1      -8.730  17.492  66.193  1.00  0.00    -0.155 A  
HETATM   14  C   UNL     1      -9.425  16.312  66.497  1.00  0.00    -0.289 A  
HETATM   15  C   UNL     1     -10.645  15.924  65.713  1.00  0.00    -0.368 C  
HETATM   16  C   UNL     1     -10.381  14.700  64.845  1.00  0.00    -0.382 C  
HETATM   17  C   UNL     1     -10.064  13.373  65.511  1.00  0.00    -0.279 A  
HETATM   18  C   UNL     1     -10.098  12.254  64.642  1.00  0.00    -0.275 A  
HETATM   19  C   UNL     1      -9.824  10.969  65.093  1.00  0.00    -0.319 A  
HETATM   20  C   UNL     1      -9.495  10.773  66.423  1.00  0.00    -0.200 A  
HETATM   21  C   UNL     1      -9.451  11.867  67.293  1.00  0.00    -0.176 A  
HETATM   22  C   UNL     1      -9.742  13.185  66.875  1.00  0.00    -0.243 A  
ENDBRANCH   3   8
TORSDOF 2
ENDMDL
MODEL       69
REMARK 921   NORMALIZED FREE ENERGY PREDICTED BY IDOCK:   -3.95 KCAL/MOL
REMARK 922        TOTAL FREE ENERGY PREDICTED BY IDOCK:   -5.32 KCAL/MOL
REMARK 923 INTER-LIGAND FREE ENERGY PREDICTED BY IDOCK:   -5.04 KCAL/MOL
REMARK 924 INTRA-LIGAND FREE ENERGY PREDICTED BY IDOCK:   -0.28 KCAL/MOL
REMARK 927      BINDING AFFINITY PREDICTED BY RF-SCORE:    0.00 PKD
ROOT
HETATM    1  C   UNL     1      -9.232   9.927  65.017  1.00  0.00    -0.295 C  
HETATM    2  C   UNL     1      -9.959  11.281  64.976  1.00  0.00    -0.323 C  
HETATM    3  C   UNL     1     -10.675  11.605  66.308  1.00  0.00    -0.272 C  
HETATM    4  C   UNL     1     -10.966  11.221  63.797  1.00  0.00    -0.301 C  
ENDROOT
BRANCH   4   5
HETATM    5  N   UNL     1     -11.767  12.430  63.536  1.00  0.00    -0.490 NA 
HETATM    6  C   UNL     1     -11.166  13.572  64.238  1.00  0.00    -0.360 C  
HETATM    7  C   UNL     1     -13.158  12.268  63.967  1.00  0.00    -0.058 C  
ENDBRANCH   4   5
BRANCH   3   8
HETATM    8  N   UNL     1      -9.718  11.724  67.442  1.00  0.00    -0.178 NA 
HETATM    9  C   UNL     1      -8.874  12.856  67.421  1.00  0.00    -0.199 A  
HETATM   10  C   UNL     1      -9.409  14.154  67.411  1.00  0.00    -0.215 A  
HETATM   11  C   UNL     1      -8.583  15.277  67.468  1.00  0.00    -0.190 A  
HETATM   12  C   UNL     1      -7.202  15.124  67.527  1.00  0.00    -0.227 A  
HETATM   13  C   UNL     1      -6.649  13.846  67.535  1.00  0.00    -0.104 A  
HETATM   14  C   UNL     1      -7.476  12.714  67.487  1.00  0.00    -0.155 A  
HETATM   15  C   UNL     1      -6.883  11.335  67.519  1.00  0.00    -0.086 C  
HETATM   16  C   UNL     1      -7.194  10.628  68.832  1.00  0.00    -0.090 C  
HETATM   17  C   UNL     1      -8.636  10.300  69.174  1.00  0.00    -0.167 A  
HETATM   18  C   UNL     1      -8.797   9.418  70.270  1.00  0.00    -0.269 A  
HETATM   19  C   UNL     1     -10.054   9.025  70.716  1.00  0.00    -0.303 A  
HETATM   20  C   UNL     1     -11.181   9.517  70.083  1.00  0.00    -0.275 A  
HETATM   21  C   UNL     1     -11.041  10.393  69.003  1.00  0.00    -0.297 A  
HETATM   22  C   UNL     1      -9.781  10.800  68.509  1.00  0.00    -0.182 A  
ENDBRANCH   3   8
TORSDOF 2
ENDMDL
MODEL       70
REMARK 921   NORMALIZED FREE ENERGY PREDICTED BY IDOCK:   -3.81 KCAL/MOL
REMARK 922        TOTAL FREE ENERGY PREDICTED BY IDOCK:   -5.16 KCAL/MOL
REMARK 923 INTER-LIGAND FREE ENERGY PREDICTED BY IDOCK:   -4.26 KCAL/MOL
REMARK 924 INTRA-LIGAND FREE ENERGY PREDICTED BY IDOCK:   -0.90 KCAL/MOL
REMARK 927      BINDING AFFINITY PREDICTED BY RF-SCORE:    0.00 PKD
ROOT
HETATM    1  C   UNL     1      -7.286   7.958  68.964  1.00  0.00    -0.088 C  
HETATM    2  C   UNL     1      -8.711   8.196  68.437  1.00  0.00    -0.134 C  
HETATM    3  C   UNL     1      -9.491   6.875  68.238  1.00  0.00    -0.126 C  
HETATM    4  C   UNL     1      -8.578   8.977  67.104  1.00  0.00    -0.116 C  
ENDROOT
BRANCH   4   5
HETATM    5  N   UNL     1      -9.828   9.352  66.419  1.00  0.00    -0.247 NA 
HETATM    6  C   UNL     1      -9.519   9.801  65.055  1.00  0.00    -0.272 C  
HETATM    7  C   UNL     1     -10.546  10.412  67.132  1.00  0.00    -0.261 C  
ENDBRANCH   4   5
BRANCH   3   8
HETATM    8  N   UNL     1      -9.679   6.137  69.516  1.00  0.00    -0.144 NA 
HETATM    9  C   UNL     1     -10.356   6.837  70.539  1.00  0.00    -0.201 A  
HETATM   10  C   UNL     1     -11.658   7.324  70.340  1.00  0.00    -0.253 A  
HETATM   11  C   UNL     1     -12.363   7.948  71.369  1.00  0.00    -0.334 A  
HETATM   12  C   UNL     1     -11.774   8.108  72.619  1.00  0.00    -0.419 A  
HETATM   13  C   UNL     1     -10.482   7.637  72.838  1.00  0.00    -0.394 A  
HETATM   14  C   UNL     1      -9.774   7.000  71.808  1.00  0.00    -0.165 A  
HETATM   15  C   UNL     1      -8.390   6.470  72.051  1.00  0.00    -0.107 C  
HETATM   16  C   UNL     1      -8.369   4.946  72.041  1.00  0.00    -0.123 C  
HETATM   17  C   UNL     1      -8.712   4.209  70.759  1.00  0.00    -0.120 A  
HETATM   18  C   UNL     1      -8.408   2.826  70.775  1.00  0.00    -0.082 A  
HETATM   19  C   UNL     1      -8.668   2.006  69.683  1.00  0.00    -0.113 A  
HETATM   20  C   UNL     1      -9.250   2.549  68.552  1.00  0.00    -0.250 A  
HETATM   21  C   UNL     1      -9.561   3.912  68.520  1.00  0.00    -0.179 A  
HETATM   22  C   UNL     1      -9.295   4.780  69.603  1.00  0.00    -0.133 A  
ENDBRANCH   3   8
TORSDOF 2
ENDMDL
MODEL       71
REMARK 921   NORMALIZED FREE ENERGY PREDICTED BY IDOCK:   -3.80 KCAL/MOL
REMARK 922        TOTAL FREE ENERGY PREDICTED BY IDOCK:   -5.15 KCAL/MOL
REMARK 923 INTER-LIGAND FREE ENERGY PREDICTED BY IDOCK:   -4.55 KCAL/MOL
REMARK 924 INTRA-LIGAND FREE ENERGY PREDICTED BY IDOCK:   -0.61 KCAL/MOL
REMARK 927      BINDING AFFINITY PREDICTED BY RF-SCORE:    0.00 PKD
ROOT
HETATM    1  C   UNL     1      -8.994   8.942  71.210  1.00  0.00    -0.312 C  
HETATM    2  C   UNL     1     -10.321   8.306  70.766  1.00  0.00    -0.221 C  
HETATM    3  C   UNL     1     -10.628   8.571  69.273  1.00  0.00    -0.181 C  
HETATM    4  C   UNL     1     -11.432   8.888  71.680  1.00  0.00    -0.339 C  
ENDROOT
BRANCH   4   5
HETATM    5  N   UNL     1     -12.804   8.397  71.462  1.00  0.00    -0.316 NA 
HETATM    6  C   UNL     1     -13.716   9.068  72.399  1.00  0.00    -0.479 C  
HETATM    7  C   UNL     1     -12.901   6.946  71.640  1.00  0.00    -0.335 C  
ENDBRANCH   4   5
BRANCH   3   8
HETATM    8  N   UNL     1      -9.604   7.971  68.376  1.00  0.00    -0.149 NA 
HETATM    9  C   UNL     1      -9.200   6.655  68.692  1.00  0.00    -0.128 A  
HETATM   10  C   UNL     1     -10.133   5.606  68.739  1.00  0.00    -0.245 A  
HETATM   11  C   UNL     1      -9.731   4.292  68.976  1.00  0.00    -0.209 A  
HETATM   12  C   UNL     1      -8.387   3.999  69.179  1.00  0.00    -0.087 A  
HETATM   13  C   UNL     1      -7.445   5.024  69.142  1.00  0.00    -0.061 A  
HETATM   14  C   UNL     1      -7.843   6.347  68.895  1.00  0.00    -0.110 A  
HETATM   15  C   UNL     1      -6.826   7.449  68.830  1.00  0.00    -0.072 C  
HETATM   16  C   UNL     1      -6.675   7.982  67.411  1.00  0.00    -0.069 C  
HETATM   17  C   UNL     1      -7.854   8.674  66.751  1.00  0.00    -0.094 A  
HETATM   18  C   UNL     1      -7.539   9.362  65.553  1.00  0.00    -0.099 A  
HETATM   19  C   UNL     1      -8.507  10.041  64.822  1.00  0.00    -0.180 A  
HETATM   20  C   UNL     1      -9.817  10.036  65.265  1.00  0.00    -0.388 A  
HETATM   21  C   UNL     1     -10.147   9.358  66.442  1.00  0.00    -0.332 A  
HETATM   22  C   UNL     1      -9.188   8.673  67.222  1.00  0.00    -0.140 A  
ENDBRANCH   3   8
TORSDOF 2
ENDMDL
MODEL       72
REMARK 921   NORMALIZED FREE ENERGY PREDICTED BY IDOCK:   -3.77 KCAL/MOL
REMARK 922        TOTAL FREE ENERGY PREDICTED BY IDOCK:   -5.12 KCAL/MOL
REMARK 923 INTER-LIGAND FREE ENERGY PREDICTED BY IDOCK:   -4.14 KCAL/MOL
REMARK 924 INTRA-LIGAND FREE ENERGY PREDICTED BY IDOCK:   -0.98 KCAL/MOL
REMARK 927      BINDING AFFINITY PREDICTED BY RF-SCORE:    0.00 PKD
ROOT
HETATM    1  C   UNL     1     -10.969   7.189  66.966  1.00  0.00    -0.304 C  
HETATM    2  C   UNL     1      -9.662   7.998  66.971  1.00  0.00    -0.275 C  
HETATM    3  C   UNL     1      -9.290   8.507  68.384  1.00  0.00    -0.134 C  
HETATM    4  C   UNL     1      -9.854   9.178  65.981  1.00  0.00    -0.272 C  
ENDROOT
BRANCH   4   5
HETATM    5  N   UNL     1      -8.709  10.086  65.790  1.00  0.00    -0.140 NA 
HETATM    6  C   UNL     1      -9.128  11.464  66.074  1.00  0.00    -0.208 C  
HETATM    7  C   UNL     1      -8.172  10.009  64.429  1.00  0.00    -0.165 C  
ENDBRANCH   4   5
BRANCH   3   8
HETATM    8  N   UNL     1      -9.045   7.388  69.334  1.00  0.00    -0.139 NA 
HETATM    9  C   UNL     1      -7.876   6.630  69.107  1.00  0.00    -0.111 A  
HETATM   10  C   UNL     1      -6.610   7.237  69.109  1.00  0.00    -0.041 A  
HETATM   11  C   UNL     1      -5.446   6.483  68.962  1.00  0.00    -0.016 A  
HETATM   12  C   UNL     1      -5.524   5.104  68.800  1.00  0.00    -0.004 A  
HETATM   13  C   UNL     1      -6.770   4.480  68.792  1.00  0.00    -0.046 A  
HETATM   14  C   UNL     1      -7.943   5.234  68.948  1.00  0.00    -0.086 A  
HETATM   15  C   UNL     1      -9.284   4.560  68.964  1.00  0.00    -0.192 C  
HETATM   16  C   UNL     1      -9.915   4.610  70.350  1.00  0.00    -0.300 C  
HETATM   17  C   UNL     1     -10.291   5.955  70.944  1.00  0.00    -0.288 A  
HETATM   18  C   UNL     1     -11.103   5.882  72.102  1.00  0.00    -0.333 A  
HETATM   19  C   UNL     1     -11.528   7.023  72.772  1.00  0.00    -0.207 A  
HETATM   20  C   UNL     1     -11.139   8.266  72.307  1.00  0.00    -0.429 A  
HETATM   21  C   UNL     1     -10.332   8.357  71.169  1.00  0.00    -0.264 A  
HETATM   22  C   UNL     1      -9.897   7.221  70.450  1.00  0.00    -0.183 A  
ENDBRANCH   3   8
TORSDOF 2
ENDMDL
MODEL       73
REMARK 921   NORMALIZED FREE ENERGY PREDICTED BY IDOCK:   -3.75 KCAL/MOL
REMARK 922        TOTAL FREE ENERGY PREDICTED BY IDOCK:   -5.10 KCAL/MOL
REMARK 923 INTER-LIGAND FREE ENERGY PREDICTED BY IDOCK:   -5.06 KCAL/MOL
REMARK 924 INTRA-LIGAND FREE ENERGY PREDICTED BY IDOCK:   -0.04 KCAL/MOL
REMARK 927      BINDING AFFINITY PREDICTED BY RF-SCORE:    0.00 PKD
ROOT
HETATM    1  C   UNL     1     -11.165  11.227  64.650  1.00  0.00    -0.152 C  
HETATM    2  C   UNL     1     -10.810  12.485  65.460  1.00  0.00    -0.312 C  
HETATM    3  C   UNL     1     -11.125  12.322  66.966  1.00  0.00    -0.287 C  
HETATM    4  C   UNL     1     -11.610  13.663  64.843  1.00  0.00    -0.344 C  
ENDROOT
BRANCH   4   5
HETATM    5  N   UNL     1     -11.407  14.996  65.438  1.00  0.00    -0.346 NA 
HETATM    6  C   UNL     1     -11.760  16.028  64.454  1.00  0.00    -0.134 C  
HETATM    7  C   UNL     1     -10.023  15.193  65.879  1.00  0.00    -0.328 C  
ENDBRANCH   4   5
BRANCH   3   8
HETATM    8  N   UNL     1     -10.324  11.234  67.589  1.00  0.00    -0.180 NA 
HETATM    9  C   UNL     1      -9.030  11.038  67.061  1.00  0.00    -0.148 A  
HETATM   10  C   UNL     1      -8.084  12.075  67.067  1.00  0.00    -0.158 A  
HETATM   11  C   UNL     1      -6.780  11.867  66.616  1.00  0.00     0.084 A  
HETATM   12  C   UNL     1      -6.397  10.618  66.141  1.00  0.00    -0.128 A  
HETATM   13  C   UNL     1      -7.321   9.575  66.122  1.00  0.00    -0.093 A  
HETATM   14  C   UNL     1      -8.630   9.777  66.582  1.00  0.00    -0.134 A  
HETATM   15  C   UNL     1      -9.619   8.647  66.585  1.00  0.00    -0.285 C  
HETATM   16  C   UNL     1      -9.949   8.202  68.004  1.00  0.00    -0.222 C  
HETATM   17  C   UNL     1     -10.653   9.168  68.939  1.00  0.00    -0.214 A  
HETATM   18  C   UNL     1     -11.149   8.581  70.129  1.00  0.00    -0.192 A  
HETATM   19  C   UNL     1     -11.812   9.330  71.094  1.00  0.00    -0.396 A  
HETATM   20  C   UNL     1     -11.981  10.689  70.898  1.00  0.00    -0.469 A  
HETATM   21  C   UNL     1     -11.493  11.286  69.732  1.00  0.00    -0.386 A  
HETATM   22  C   UNL     1     -10.832  10.554  68.720  1.00  0.00    -0.231 A  
ENDBRANCH   3   8
TORSDOF 2
ENDMDL
MODEL       74
REMARK 921   NORMALIZED FREE ENERGY PREDICTED BY IDOCK:   -3.73 KCAL/MOL
REMARK 922        TOTAL FREE ENERGY PREDICTED BY IDOCK:   -5.07 KCAL/MOL
REMARK 923 INTER-LIGAND FREE ENERGY PREDICTED BY IDOCK:   -5.53 KCAL/MOL
REMARK 924 INTRA-LIGAND FREE ENERGY PREDICTED BY IDOCK:    0.45 KCAL/MOL
REMARK 927      BINDING AFFINITY PREDICTED BY RF-SCORE:    0.00 PKD
ROOT
HETATM    1  C   UNL     1     -10.041  11.780  67.824  1.00  0.00    -0.199 C  
HETATM    2  C   UNL     1      -8.832  10.852  68.032  1.00  0.00    -0.135 C  
HETATM    3  C   UNL     1      -8.884  10.116  69.392  1.00  0.00    -0.185 C  
HETATM    4  C   UNL     1      -7.559  11.731  67.917  1.00  0.00    -0.121 C  
ENDROOT
BRANCH   4   5
HETATM    5  N   UNL     1      -6.260  11.050  68.051  1.00  0.00    -0.053 NA 
HETATM    6  C   UNL     1      -5.421  11.786  69.006  1.00  0.00    -0.050 C  
HETATM    7  C   UNL     1      -5.562  10.946  66.766  1.00  0.00    -0.074 C  
ENDBRANCH   4   5
BRANCH   3   8
HETATM    8  N   UNL     1     -10.069   9.222  69.499  1.00  0.00    -0.190 NA 
HETATM    9  C   UNL     1     -11.081   9.642  70.389  1.00  0.00    -0.290 A  
HETATM   10  C   UNL     1     -11.720  10.881  70.222  1.00  0.00    -0.437 A  
HETATM   11  C   UNL     1     -12.773  11.270  71.051  1.00  0.00    -0.457 A  
HETATM   12  C   UNL     1     -13.203  10.429  72.072  1.00  0.00    -0.497 A  
HETATM   13  C   UNL     1     -12.580   9.197  72.259  1.00  0.00    -0.425 A  
HETATM   14  C   UNL     1     -11.528   8.799  71.422  1.00  0.00    -0.366 A  
HETATM   15  C   UNL     1     -10.873   7.460  71.607  1.00  0.00    -0.246 C  
HETATM   16  C   UNL     1     -11.200   6.518  70.456  1.00  0.00    -0.401 C  
HETATM   17  C   UNL     1     -10.712   6.858  69.059  1.00  0.00    -0.259 A  
HETATM   18  C   UNL     1     -10.832   5.804  68.120  1.00  0.00    -0.249 A  
HETATM   19  C   UNL     1     -10.438   5.955  66.796  1.00  0.00    -0.344 A  
HETATM   20  C   UNL     1      -9.926   7.169  66.376  1.00  0.00    -0.081 A  
HETATM   21  C   UNL     1      -9.805   8.222  67.288  1.00  0.00    -0.258 A  
HETATM   22  C   UNL     1     -10.177   8.100  68.646  1.00  0.00    -0.207 A  
ENDBRANCH   3   8
TORSDOF 2
ENDMDL
MODEL       75
REMARK 921   NORMALIZED FREE ENERGY PREDICTED BY IDOCK:   -3.73 KCAL/MOL
REMARK 922        TOTAL FREE ENERGY PREDICTED BY IDOCK:   -5.07 KCAL/MOL
REMARK 923 INTER-LIGAND FREE ENERGY PREDICTED BY IDOCK:   -5.28 KCAL/MOL
REMARK 924 INTRA-LIGAND FREE ENERGY PREDICTED BY IDOCK:    0.21 KCAL/MOL
REMARK 927      BINDING AFFINITY PREDICTED BY RF-SCORE:    0.00 PKD
ROOT
HETATM    1  C   UNL     1     -11.612  10.870  69.042  1.00  0.00    -0.387 C  
HETATM    2  C   UNL     1     -10.101  10.672  69.246  1.00  0.00    -0.227 C  
HETATM    3  C   UNL     1      -9.365  10.356  67.922  1.00  0.00    -0.138 C  
HETATM    4  C   UNL     1      -9.928   9.522  70.273  1.00  0.00    -0.259 C  
ENDROOT
BRANCH   4   5
HETATM    5  N   UNL     1      -8.550   9.167  70.657  1.00  0.00    -0.210 NA 
HETATM    6  C   UNL     1      -7.629  10.206  70.177  1.00  0.00    -0.104 C  
HETATM    7  C   UNL     1      -8.148   7.867  70.114  1.00  0.00    -0.116 C  
ENDBRANCH   4   5
BRANCH   3   8
HETATM    8  N   UNL     1      -9.471  11.473  66.944  1.00  0.00    -0.179 NA 
HETATM    9  C   UNL     1      -9.319  12.773  67.472  1.00  0.00    -0.189 A  
HETATM   10  C   UNL     1      -8.145  13.146  68.147  1.00  0.00    -0.155 A  
HETATM   11  C   UNL     1      -7.956  14.450  68.605  1.00  0.00    -0.145 A  
HETATM   12  C   UNL     1      -8.944  15.408  68.404  1.00  0.00    -0.189 A  
HETATM   13  C   UNL     1     -10.119  15.061  67.741  1.00  0.00    -0.234 A  
HETATM   14  C   UNL     1     -10.309  13.752  67.272  1.00  0.00    -0.253 A  
HETATM   15  C   UNL     1     -11.563  13.383  66.535  1.00  0.00    -0.394 C  
HETATM   16  C   UNL     1     -11.283  13.110  65.063  1.00  0.00    -0.322 C  
HETATM   17  C   UNL     1     -10.400  11.936  64.682  1.00  0.00    -0.326 A  
HETATM   18  C   UNL     1     -10.417  11.608  63.303  1.00  0.00    -0.438 A  
HETATM   19  C   UNL     1      -9.657  10.564  62.790  1.00  0.00    -0.323 A  
HETATM   20  C   UNL     1      -8.851   9.830  63.642  1.00  0.00    -0.258 A  
HETATM   21  C   UNL     1      -8.818  10.143  65.003  1.00  0.00    -0.205 A  
HETATM   22  C   UNL     1      -9.590  11.185  65.565  1.00  0.00    -0.226 A  
ENDBRANCH   3   8
TORSDOF 2
ENDMDL
MODEL       76
REMARK 921   NORMALIZED FREE ENERGY PREDICTED BY IDOCK:   -3.72 KCAL/MOL
REMARK 922        TOTAL FREE ENERGY PREDICTED BY IDOCK:   -5.06 KCAL/MOL
REMARK 923 INTER-LIGAND FREE ENERGY PREDICTED BY IDOCK:   -4.36 KCAL/MOL
REMARK 924 INTRA-LIGAND FREE ENERGY PREDICTED BY IDOCK:   -0.70 KCAL/MOL
REMARK 927      BINDING AFFINITY PREDICTED BY RF-SCORE:    0.00 PKD
ROOT
HETATM    1  C   UNL     1      -6.989   8.890  69.827  1.00  0.00    -0.050 C  
HETATM    2  C   UNL     1      -7.941   7.953  70.589  1.00  0.00    -0.096 C  
HETATM    3  C   UNL     1      -9.319   8.605  70.856  1.00  0.00    -0.189 C  
HETATM    4  C   UNL     1      -7.235   7.568  71.916  1.00  0.00    -0.064 C  
ENDROOT
BRANCH   4   5
HETATM    5  N   UNL     1      -7.948   6.641  72.811  1.00  0.00    -0.101 NA 
HETATM    6  C   UNL     1      -7.023   6.150  73.841  1.00  0.00    -0.083 C  
HETATM    7  C   UNL     1      -8.515   5.503  72.080  1.00  0.00    -0.126 C  
ENDBRANCH   4   5
BRANCH   3   8
HETATM    8  N   UNL     1     -10.038   8.930  69.594  1.00  0.00    -0.194 NA 
HETATM    9  C   UNL     1     -10.167   7.872  68.668  1.00  0.00    -0.205 A  
HETATM   10  C   UNL     1     -10.815   6.678  69.022  1.00  0.00    -0.324 A  
HETATM   11  C   UNL     1     -11.014   5.659  68.090  1.00  0.00    -0.026 A  
HETATM   12  C   UNL     1     -10.560   5.811  66.784  1.00  0.00    -0.373 A  
HETATM   13  C   UNL     1      -9.911   6.985  66.411  1.00  0.00    -0.103 A  
HETATM   14  C   UNL     1      -9.717   8.016  67.343  1.00  0.00    -0.216 A  
HETATM   15  C   UNL     1      -9.039   9.292  66.936  1.00  0.00    -0.158 C  
HETATM   16  C   UNL     1     -10.019  10.459  66.917  1.00  0.00    -0.254 C  
HETATM   17  C   UNL     1     -10.662  10.907  68.217  1.00  0.00    -0.244 A  
HETATM   18  C   UNL     1     -11.339  12.149  68.142  1.00  0.00    -0.349 A  
HETATM   19  C   UNL     1     -11.989  12.697  69.243  1.00  0.00    -0.301 A  
HETATM   20  C   UNL     1     -11.988  12.007  70.442  1.00  0.00    -0.379 A  
HETATM   21  C   UNL     1     -11.329  10.777  70.532  1.00  0.00    -0.289 A  
HETATM   22  C   UNL     1     -10.642  10.198  69.441  1.00  0.00    -0.237 A  
ENDBRANCH   3   8
TORSDOF 2
ENDMDL
MODEL       77
REMARK 921   NORMALIZED FREE ENERGY PREDICTED BY IDOCK:   -3.69 KCAL/MOL
REMARK 922        TOTAL FREE ENERGY PREDICTED BY IDOCK:   -5.03 KCAL/MOL
REMARK 923 INTER-LIGAND FREE ENERGY PREDICTED BY IDOCK:   -4.06 KCAL/MOL
REMARK 924 INTRA-LIGAND FREE ENERGY PREDICTED BY IDOCK:   -0.97 KCAL/MOL
REMARK 927      BINDING AFFINITY PREDICTED BY RF-SCORE:    0.00 PKD
ROOT
HETATM    1  C   UNL     1      -7.207   8.300  69.972  1.00  0.00    -0.059 C  
HETATM    2  C   UNL     1      -8.444   7.881  69.160  1.00  0.00    -0.137 C  
HETATM    3  C   UNL     1      -8.908   6.444  69.495  1.00  0.00    -0.136 C  
HETATM    4  C   UNL     1      -8.070   8.016  67.660  1.00  0.00    -0.124 C  
ENDROOT
BRANCH   4   5
HETATM    5  N   UNL     1      -9.119   7.696  66.676  1.00  0.00    -0.156 NA 
HETATM    6  C   UNL     1      -8.634   6.645  65.772  1.00  0.00    -0.140 C  
HETATM    7  C   UNL     1      -9.512   8.872  65.894  1.00  0.00    -0.234 C  
ENDBRANCH   4   5
BRANCH   3   8
HETATM    8  N   UNL     1      -9.327   6.309  70.917  1.00  0.00    -0.161 NA 
HETATM    9  C   UNL     1     -10.559   6.908  71.258  1.00  0.00    -0.220 A  
HETATM   10  C   UNL     1     -11.748   6.530  70.613  1.00  0.00    -0.436 A  
HETATM   11  C   UNL     1     -12.979   7.061  70.997  1.00  0.00    -0.213 A  
HETATM   12  C   UNL     1     -13.046   7.990  72.030  1.00  0.00    -0.289 A  
HETATM   13  C   UNL     1     -11.879   8.383  72.681  1.00  0.00    -0.360 A  
HETATM   14  C   UNL     1     -10.639   7.845  72.304  1.00  0.00    -0.331 A  
HETATM   15  C   UNL     1      -9.384   8.249  73.021  1.00  0.00    -0.310 C  
HETATM   16  C   UNL     1      -8.827   7.101  73.854  1.00  0.00    -0.222 C  
HETATM   17  C   UNL     1      -8.336   5.848  73.154  1.00  0.00    -0.116 A  
HETATM   18  C   UNL     1      -7.600   4.961  73.978  1.00  0.00    -0.094 A  
HETATM   19  C   UNL     1      -7.087   3.764  73.492  1.00  0.00    -0.051 A  
HETATM   20  C   UNL     1      -7.311   3.419  72.171  1.00  0.00    -0.055 A  
HETATM   21  C   UNL     1      -8.040   4.279  71.345  1.00  0.00    -0.082 A  
HETATM   22  C   UNL     1      -8.560   5.512  71.798  1.00  0.00    -0.135 A  
ENDBRANCH   3   8
TORSDOF 2
ENDMDL
MODEL       78
REMARK 921   NORMALIZED FREE ENERGY PREDICTED BY IDOCK:   -3.65 KCAL/MOL
REMARK 922        TOTAL FREE ENERGY PREDICTED BY IDOCK:   -4.98 KCAL/MOL
REMARK 923 INTER-LIGAND FREE ENERGY PREDICTED BY IDOCK:   -4.60 KCAL/MOL
REMARK 924 INTRA-LIGAND FREE ENERGY PREDICTED BY IDOCK:   -0.39 KCAL/MOL
REMARK 927      BINDING AFFINITY PREDICTED BY RF-SCORE:    0.00 PKD
ROOT
HETATM    1  C   UNL     1      -9.055  17.460  67.500  1.00  0.00    -0.232 C  
HETATM    2  C   UNL     1      -7.929  16.505  67.928  1.00  0.00    -0.165 C  
HETATM    3  C   UNL     1      -8.309  15.668  69.172  1.00  0.00    -0.251 C  
HETATM    4  C   UNL     1      -6.672  17.375  68.197  1.00  0.00    -0.178 C  
ENDROOT
BRANCH   4   5
HETATM    5  N   UNL     1      -5.441  16.670  68.595  1.00  0.00    -0.117 NA 
HETATM    6  C   UNL     1      -5.432  15.330  67.993  1.00  0.00    -0.134 C  
HETATM    7  C   UNL     1      -5.325  16.553  70.051  1.00  0.00    -0.182 C  
ENDBRANCH   4   5
BRANCH   3   8
HETATM    8  N   UNL     1      -9.477  14.783  68.916  1.00  0.00    -0.205 NA 
HETATM    9  C   UNL     1      -9.234  13.663  68.093  1.00  0.00    -0.204 A  
HETATM   10  C   UNL     1      -8.270  12.704  68.445  1.00  0.00    -0.129 A  
HETATM   11  C   UNL     1      -8.078  11.555  67.677  1.00  0.00    -0.130 A  
HETATM   12  C   UNL     1      -8.840  11.346  66.534  1.00  0.00    -0.187 A  
HETATM   13  C   UNL     1      -9.799  12.285  66.162  1.00  0.00    -0.257 A  
HETATM   14  C   UNL     1     -10.003  13.437  66.936  1.00  0.00    -0.252 A  
HETATM   15  C   UNL     1     -11.053  14.438  66.551  1.00  0.00    -0.331 C  
HETATM   16  C   UNL     1     -12.213  14.434  67.538  1.00  0.00    -0.210 C  
HETATM   17  C   UNL     1     -11.965  14.855  68.975  1.00  0.00    -0.307 A  
HETATM   18  C   UNL     1     -13.139  15.073  69.737  1.00  0.00     0.354 A  
HETATM   19  C   UNL     1     -13.085  15.455  71.072  1.00  0.00    -0.565 A  
HETATM   20  C   UNL     1     -11.854  15.615  71.681  1.00  0.00    -0.504 A  
HETATM   21  C   UNL     1     -10.685  15.399  70.946  1.00  0.00    -0.156 A  
HETATM   22  C   UNL     1     -10.699  15.029  69.582  1.00  0.00    -0.257 A  
ENDBRANCH   3   8
TORSDOF 2
ENDMDL
MODEL       79
REMARK 921   NORMALIZED FREE ENERGY PREDICTED BY IDOCK:   -3.62 KCAL/MOL
REMARK 922        TOTAL FREE ENERGY PREDICTED BY IDOCK:   -4.95 KCAL/MOL
REMARK 923 INTER-LIGAND FREE ENERGY PREDICTED BY IDOCK:   -4.01 KCAL/MOL
REMARK 924 INTRA-LIGAND FREE ENERGY PREDICTED BY IDOCK:   -0.94 KCAL/MOL
REMARK 927      BINDING AFFINITY PREDICTED BY RF-SCORE:    0.00 PKD
ROOT
HETATM    1  C   UNL     1     -11.910   6.626  70.462  1.00  0.00    -0.430 C  
HETATM    2  C   UNL     1     -10.673   6.308  71.318  1.00  0.00    -0.299 C  
HETATM    3  C   UNL     1      -9.684   5.363  70.594  1.00  0.00    -0.181 C  
HETATM    4  C   UNL     1     -11.186   5.678  72.641  1.00  0.00    -0.300 C  
ENDROOT
BRANCH   4   5
HETATM    5  N   UNL     1     -10.173   5.314  73.647  1.00  0.00    -0.191 NA 
HETATM    6  C   UNL     1     -10.654   4.169  74.430  1.00  0.00    -0.208 C  
HETATM    7  C   UNL     1      -9.871   6.431  74.547  1.00  0.00    -0.337 C  
ENDBRANCH   4   5
BRANCH   3   8
HETATM    8  N   UNL     1      -9.137   5.973  69.352  1.00  0.00    -0.132 NA 
HETATM    9  C   UNL     1      -8.395   7.162  69.523  1.00  0.00    -0.133 A  
HETATM   10  C   UNL     1      -7.251   7.188  70.336  1.00  0.00    -0.070 A  
HETATM   11  C   UNL     1      -6.470   8.338  70.449  1.00  0.00    -0.036 A  
HETATM   12  C   UNL     1      -6.822   9.491  69.756  1.00  0.00    -0.064 A  
HETATM   13  C   UNL     1      -7.956   9.490  68.947  1.00  0.00    -0.091 A  
HETATM   14  C   UNL     1      -8.739   8.332  68.823  1.00  0.00    -0.137 A  
HETATM   15  C   UNL     1      -9.947   8.322  67.931  1.00  0.00    -0.227 C  
HETATM   16  C   UNL     1      -9.726   7.443  66.707  1.00  0.00    -0.271 C  
HETATM   17  C   UNL     1      -9.525   5.950  66.893  1.00  0.00    -0.145 A  
HETATM   18  C   UNL     1      -9.595   5.192  65.699  1.00  0.00    -0.104 A  
HETATM   19  C   UNL     1      -9.424   3.813  65.695  1.00  0.00    -0.170 A  
HETATM   20  C   UNL     1      -9.166   3.160  66.887  1.00  0.00    -0.187 A  
HETATM   21  C   UNL     1      -9.089   3.893  68.075  1.00  0.00    -0.183 A  
HETATM   22  C   UNL     1      -9.275   5.293  68.121  1.00  0.00    -0.113 A  
ENDBRANCH   3   8
TORSDOF 2
ENDMDL
MODEL       80
REMARK 921   NORMALIZED FREE ENERGY PREDICTED BY IDOCK:   -3.62 KCAL/MOL
REMARK 922        TOTAL FREE ENERGY PREDICTED BY IDOCK:   -4.95 KCAL/MOL
REMARK 923 INTER-LIGAND FREE ENERGY PREDICTED BY IDOCK:   -4.01 KCAL/MOL
REMARK 924 INTRA-LIGAND FREE ENERGY PREDICTED BY IDOCK:   -0.94 KCAL/MOL
REMARK 927      BINDING AFFINITY PREDICTED BY RF-SCORE:    0.00 PKD
ROOT
HETATM    1  C   UNL     1     -10.981   6.366  68.598  1.00  0.00    -0.404 C  
HETATM    2  C   UNL     1     -10.784   7.569  69.534  1.00  0.00    -0.222 C  
HETATM    3  C   UNL     1      -9.290   7.893  69.770  1.00  0.00    -0.153 C  
HETATM    4  C   UNL     1     -11.503   7.230  70.868  1.00  0.00    -0.292 C  
ENDROOT
BRANCH   4   5
HETATM    5  N   UNL     1     -11.479   8.258  71.923  1.00  0.00    -0.288 NA 
HETATM    6  C   UNL     1     -10.847   7.704  73.128  1.00  0.00    -0.382 C  
HETATM    7  C   UNL     1     -12.825   8.736  72.251  1.00  0.00    -0.405 C  
ENDBRANCH   4   5
BRANCH   3   8
HETATM    8  N   UNL     1      -8.597   8.278  68.510  1.00  0.00    -0.133 NA 
HETATM    9  C   UNL     1      -8.817   9.598  68.062  1.00  0.00    -0.119 A  
HETATM   10  C   UNL     1      -8.490  10.698  68.871  1.00  0.00    -0.154 A  
HETATM   11  C   UNL     1      -8.633  12.006  68.406  1.00  0.00    -0.147 A  
HETATM   12  C   UNL     1      -9.116  12.240  67.123  1.00  0.00    -0.193 A  
HETATM   13  C   UNL     1      -9.451  11.164  66.305  1.00  0.00    -0.220 A  
HETATM   14  C   UNL     1      -9.300   9.847  66.765  1.00  0.00    -0.187 A  
HETATM   15  C   UNL     1      -9.638   8.686  65.875  1.00  0.00    -0.210 C  
HETATM   16  C   UNL     1      -8.386   7.927  65.454  1.00  0.00    -0.146 C  
HETATM   17  C   UNL     1      -7.560   7.216  66.511  1.00  0.00    -0.092 A  
HETATM   18  C   UNL     1      -6.582   6.329  65.998  1.00  0.00    -0.048 A  
HETATM   19  C   UNL     1      -5.738   5.606  66.833  1.00  0.00    -0.017 A  
HETATM   20  C   UNL     1      -5.843   5.765  68.203  1.00  0.00    -0.013 A  
HETATM   21  C   UNL     1      -6.799   6.640  68.727  1.00  0.00    -0.070 A  
HETATM   22  C   UNL     1      -7.687   7.377  67.911  1.00  0.00    -0.116 A  
ENDBRANCH   3   8
TORSDOF 2
ENDMDL
MODEL       81
REMARK 921   NORMALIZED FREE ENERGY PREDICTED BY IDOCK:   -3.62 KCAL/MOL
REMARK 922        TOTAL FREE ENERGY PREDICTED BY IDOCK:   -4.95 KCAL/MOL
REMARK 923 INTER-LIGAND FREE ENERGY PREDICTED BY IDOCK:   -4.22 KCAL/MOL
REMARK 924 INTRA-LIGAND FREE ENERGY PREDICTED BY IDOCK:   -0.72 KCAL/MOL
REMARK 927      BINDING AFFINITY PREDICTED BY RF-SCORE:    0.00 PKD
ROOT
HETATM    1  C   UNL     1      -7.203   7.983  68.980  1.00  0.00    -0.078 C  
HETATM    2  C   UNL     1      -8.415   7.076  69.247  1.00  0.00    -0.133 C  
HETATM    3  C   UNL     1      -9.728   7.669  68.684  1.00  0.00    -0.155 C  
HETATM    4  C   UNL     1      -8.502   6.874  70.784  1.00  0.00    -0.136 C  
ENDROOT
BRANCH   4   5
HETATM    5  N   UNL     1      -9.580   6.005  71.286  1.00  0.00    -0.167 NA 
HETATM    6  C   UNL     1      -9.196   5.460  72.594  1.00  0.00    -0.137 C  
HETATM    7  C   UNL     1      -9.869   4.903  70.363  1.00  0.00    -0.232 C  
ENDBRANCH   4   5
BRANCH   3   8
HETATM    8  N   UNL     1      -9.686   7.816  67.204  1.00  0.00    -0.170 NA 
HETATM    9  C   UNL     1      -9.567   6.617  66.468  1.00  0.00    -0.140 A  
HETATM   10  C   UNL     1     -10.526   5.599  66.588  1.00  0.00    -0.340 A  
HETATM   11  C   UNL     1     -10.457   4.445  65.807  1.00  0.00    -0.211 A  
HETATM   12  C   UNL     1      -9.420   4.281  64.895  1.00  0.00    -0.169 A  
HETATM   13  C   UNL     1      -8.455   5.276  64.762  1.00  0.00    -0.149 A  
HETATM   14  C   UNL     1      -8.525   6.443  65.538  1.00  0.00    -0.141 A  
HETATM   15  C   UNL     1      -7.500   7.527  65.378  1.00  0.00    -0.082 C  
HETATM   16  C   UNL     1      -8.102   8.771  64.737  1.00  0.00    -0.151 C  
HETATM   17  C   UNL     1      -9.181   9.538  65.479  1.00  0.00    -0.292 A  
HETATM   18  C   UNL     1      -9.483  10.810  64.932  1.00  0.00    -0.288 A  
HETATM   19  C   UNL     1     -10.453  11.635  65.488  1.00  0.00    -0.321 A  
HETATM   20  C   UNL     1     -11.155  11.202  66.599  1.00  0.00    -0.255 A  
HETATM   21  C   UNL     1     -10.874   9.948  67.149  1.00  0.00    -0.227 A  
HETATM   22  C   UNL     1      -9.882   9.089  66.623  1.00  0.00    -0.248 A  
ENDBRANCH   3   8
TORSDOF 2
ENDMDL
MODEL       82
REMARK 921   NORMALIZED FREE ENERGY PREDICTED BY IDOCK:   -3.60 KCAL/MOL
REMARK 922        TOTAL FREE ENERGY PREDICTED BY IDOCK:   -4.93 KCAL/MOL
REMARK 923 INTER-LIGAND FREE ENERGY PREDICTED BY IDOCK:   -4.25 KCAL/MOL
REMARK 924 INTRA-LIGAND FREE ENERGY PREDICTED BY IDOCK:   -0.68 KCAL/MOL
REMARK 927      BINDING AFFINITY PREDICTED BY RF-SCORE:    0.00 PKD
ROOT
HETATM    1  C   UNL     1      -9.953  11.903  64.820  1.00  0.00    -0.262 C  
HETATM    2  C   UNL     1      -9.745  11.065  66.093  1.00  0.00    -0.257 C  
HETATM    3  C   UNL     1      -8.574  11.590  66.957  1.00  0.00    -0.161 C  
HETATM    4  C   UNL     1      -9.497   9.602  65.638  1.00  0.00    -0.255 C  
ENDROOT
BRANCH   4   5
HETATM    5  N   UNL     1      -9.300   8.596  66.696  1.00  0.00    -0.177 NA 
HETATM    6  C   UNL     1      -8.251   7.654  66.283  1.00  0.00    -0.120 C  
HETATM    7  C   UNL     1     -10.533   7.858  66.985  1.00  0.00    -0.349 C  
ENDBRANCH   4   5
BRANCH   3   8
HETATM    8  N   UNL     1      -8.820  12.972  67.451  1.00  0.00    -0.193 NA 
HETATM    9  C   UNL     1     -10.092  13.210  68.013  1.00  0.00    -0.232 A  
HETATM   10  C   UNL     1     -10.544  12.469  69.117  1.00  0.00    -0.000 A  
HETATM   11  C   UNL     1     -11.768  12.750  69.725  1.00  0.00    -0.352 A  
HETATM   12  C   UNL     1     -12.571  13.774  69.235  1.00  0.00     0.227 A  
HETATM   13  C   UNL     1     -12.145  14.520  68.138  1.00  0.00    -0.232 A  
HETATM   14  C   UNL     1     -10.911  14.246  67.529  1.00  0.00    -0.297 A  
HETATM   15  C   UNL     1     -10.440  15.065  66.362  1.00  0.00    -0.296 C  
HETATM   16  C   UNL     1      -9.252  15.941  66.742  1.00  0.00    -0.264 C  
HETATM   17  C   UNL     1      -7.945  15.282  67.145  1.00  0.00    -0.251 A  
HETATM   18  C   UNL     1      -6.839  16.164  67.219  1.00  0.00    -0.236 A  
HETATM   19  C   UNL     1      -5.572  15.721  67.581  1.00  0.00    -0.138 A  
HETATM   20  C   UNL     1      -5.385  14.386  67.892  1.00  0.00    -0.076 A  
HETATM   21  C   UNL     1      -6.467  13.503  67.830  1.00  0.00    -0.175 A  
HETATM   22  C   UNL     1      -7.764  13.912  67.447  1.00  0.00    -0.148 A  
ENDBRANCH   3   8
TORSDOF 2
ENDMDL
MODEL       83
REMARK 921   NORMALIZED FREE ENERGY PREDICTED BY IDOCK:   -3.56 KCAL/MOL
REMARK 922        TOTAL FREE ENERGY PREDICTED BY IDOCK:   -4.88 KCAL/MOL
REMARK 923 INTER-LIGAND FREE ENERGY PREDICTED BY IDOCK:   -3.90 KCAL/MOL
REMARK 924 INTRA-LIGAND FREE ENERGY PREDICTED BY IDOCK:   -0.98 KCAL/MOL
REMARK 927      BINDING AFFINITY PREDICTED BY RF-SCORE:    0.00 PKD
ROOT
HETATM    1  C   UNL     1      -6.277   6.328  70.008  1.00  0.00    -0.031 C  
HETATM    2  C   UNL     1      -7.091   6.079  68.728  1.00  0.00    -0.081 C  
HETATM    3  C   UNL     1      -8.528   5.591  69.029  1.00  0.00    -0.101 C  
HETATM    4  C   UNL     1      -6.308   5.035  67.888  1.00  0.00    -0.040 C  
ENDROOT
BRANCH   4   5
HETATM    5  N   UNL     1      -6.882   4.656  66.585  1.00  0.00    -0.051 NA 
HETATM    6  C   UNL     1      -6.921   3.192  66.478  1.00  0.00    -0.054 C  
HETATM    7  C   UNL     1      -6.112   5.208  65.466  1.00  0.00    -0.033 C  
ENDBRANCH   4   5
BRANCH   3   8
HETATM    8  N   UNL     1      -9.314   6.603  69.785  1.00  0.00    -0.145 NA 
HETATM    9  C   UNL     1      -9.643   7.782  69.082  1.00  0.00    -0.155 A  
HETATM   10  C   UNL     1     -10.387   7.728  67.892  1.00  0.00    -0.276 A  
HETATM   11  C   UNL     1     -10.781   8.892  67.232  1.00  0.00    -0.219 A  
HETATM   12  C   UNL     1     -10.430  10.137  67.744  1.00  0.00    -0.277 A  
HETATM   13  C   UNL     1      -9.688  10.214  68.920  1.00  0.00    -0.189 A  
HETATM   14  C   UNL     1      -9.298   9.046  69.592  1.00  0.00    -0.169 A  
HETATM   15  C   UNL     1      -8.520   9.129  70.874  1.00  0.00    -0.251 C  
HETATM   16  C   UNL     1      -9.360   8.681  72.063  1.00  0.00    -0.362 C  
HETATM   17  C   UNL     1      -9.831   7.240  72.136  1.00  0.00    -0.185 A  
HETATM   18  C   UNL     1     -10.369   6.858  73.390  1.00  0.00    -0.337 A  
HETATM   19  C   UNL     1     -10.853   5.575  73.619  1.00  0.00    -0.294 A  
HETATM   20  C   UNL     1     -10.823   4.647  72.593  1.00  0.00    -0.221 A  
HETATM   21  C   UNL     1     -10.302   5.008  71.348  1.00  0.00    -0.251 A  
HETATM   22  C   UNL     1      -9.783   6.296  71.083  1.00  0.00    -0.175 A  
ENDBRANCH   3   8
TORSDOF 2
ENDMDL
MODEL       84
REMARK 921   NORMALIZED FREE ENERGY PREDICTED BY IDOCK:   -3.55 KCAL/MOL
REMARK 922        TOTAL FREE ENERGY PREDICTED BY IDOCK:   -4.87 KCAL/MOL
REMARK 923 INTER-LIGAND FREE ENERGY PREDICTED BY IDOCK:   -4.49 KCAL/MOL
REMARK 924 INTRA-LIGAND FREE ENERGY PREDICTED BY IDOCK:   -0.38 KCAL/MOL
REMARK 927      BINDING AFFINITY PREDICTED BY RF-SCORE:    0.00 PKD
ROOT
HETATM    1  C   UNL     1      -9.364   7.294  67.560  1.00  0.00    -0.144 C  
HETATM    2  C   UNL     1      -9.028   8.686  66.998  1.00  0.00    -0.152 C  
HETATM    3  C   UNL     1      -9.827   9.811  67.698  1.00  0.00    -0.165 C  
HETATM    4  C   UNL     1      -9.328   8.646  65.476  1.00  0.00    -0.035 C  
ENDROOT
BRANCH   4   5
HETATM    5  N   UNL     1      -9.050   9.871  64.706  1.00  0.00    -0.219 NA 
HETATM    6  C   UNL     1      -7.859  10.532  65.257  1.00  0.00    -0.100 C  
HETATM    7  C   UNL     1     -10.182  10.801  64.731  1.00  0.00    -0.334 C  
ENDBRANCH   4   5
BRANCH   3   8
HETATM    8  N   UNL     1      -9.510   9.903  69.149  1.00  0.00    -0.184 NA 
HETATM    9  C   UNL     1      -8.193  10.294  69.469  1.00  0.00    -0.155 A  
HETATM   10  C   UNL     1      -7.677  11.523  69.025  1.00  0.00    -0.034 A  
HETATM   11  C   UNL     1      -6.404  11.951  69.401  1.00  0.00    -0.115 A  
HETATM   12  C   UNL     1      -5.615  11.154  70.223  1.00  0.00    -0.115 A  
HETATM   13  C   UNL     1      -6.104   9.930  70.673  1.00  0.00    -0.095 A  
HETATM   14  C   UNL     1      -7.387   9.499  70.304  1.00  0.00    -0.135 A  
HETATM   15  C   UNL     1      -7.925   8.191  70.808  1.00  0.00    -0.097 C  
HETATM   16  C   UNL     1      -9.058   8.403  71.805  1.00  0.00    -0.283 C  
HETATM   17  C   UNL     1     -10.346   9.053  71.334  1.00  0.00    -0.396 A  
HETATM   18  C   UNL     1     -11.421   8.964  72.253  1.00  0.00    -0.307 A  
HETATM   19  C   UNL     1     -12.667   9.515  71.977  1.00  0.00    -0.479 A  
HETATM   20  C   UNL     1     -12.864  10.181  70.781  1.00  0.00    -0.388 A  
HETATM   21  C   UNL     1     -11.813  10.283  69.865  1.00  0.00    -0.267 A  
HETATM   22  C   UNL     1     -10.538   9.720  70.101  1.00  0.00    -0.285 A  
ENDBRANCH   3   8
TORSDOF 2
ENDMDL
MODEL       85
REMARK 921   NORMALIZED FREE ENERGY PREDICTED BY IDOCK:   -3.54 KCAL/MOL
REMARK 922        TOTAL FREE ENERGY PREDICTED BY IDOCK:   -4.87 KCAL/MOL
REMARK 923 INTER-LIGAND FREE ENERGY PREDICTED BY IDOCK:   -5.89 KCAL/MOL
REMARK 924 INTRA-LIGAND FREE ENERGY PREDICTED BY IDOCK:    1.03 KCAL/MOL
REMARK 927      BINDING AFFINITY PREDICTED BY RF-SCORE:    0.00 PKD
ROOT
HETATM    1  C   UNL     1      -7.131  15.796  69.431  1.00  0.00    -0.209 C  
HETATM    2  C   UNL     1      -8.267  16.631  68.818  1.00  0.00    -0.249 C  
HETATM    3  C   UNL     1      -8.944  15.917  67.625  1.00  0.00    -0.190 C  
HETATM    4  C   UNL     1      -7.651  17.988  68.385  1.00  0.00    -0.284 C  
ENDROOT
BRANCH   4   5
HETATM    5  N   UNL     1      -8.565  18.981  67.793  1.00  0.00    -0.292 NA 
HETATM    6  C   UNL     1      -9.898  18.833  68.391  1.00  0.00    -0.382 C  
HETATM    7  C   UNL     1      -8.662  18.834  66.338  1.00  0.00    -0.286 C  
ENDBRANCH   4   5
BRANCH   3   8
HETATM    8  N   UNL     1      -9.592  14.640  68.032  1.00  0.00    -0.207 NA 
HETATM    9  C   UNL     1      -9.063  13.467  67.451  1.00  0.00    -0.219 A  
HETATM   10  C   UNL     1      -7.712  13.124  67.620  1.00  0.00    -0.168 A  
HETATM   11  C   UNL     1      -7.200  11.929  67.114  1.00  0.00    -0.144 A  
HETATM   12  C   UNL     1      -8.029  11.055  66.420  1.00  0.00    -0.161 A  
HETATM   13  C   UNL     1      -9.372  11.376  66.236  1.00  0.00    -0.228 A  
HETATM   14  C   UNL     1      -9.893  12.573  66.751  1.00  0.00    -0.232 A  
HETATM   15  C   UNL     1     -11.345  12.909  66.575  1.00  0.00    -0.361 C  
HETATM   16  C   UNL     1     -12.094  12.845  67.901  1.00  0.00    -0.209 C  
HETATM   17  C   UNL     1     -11.731  13.821  69.005  1.00  0.00    -0.372 A  
HETATM   18  C   UNL     1     -12.649  13.859  70.083  1.00  0.00    -0.285 A  
HETATM   19  C   UNL     1     -12.459  14.694  71.178  1.00  0.00    -0.402 A  
HETATM   20  C   UNL     1     -11.336  15.501  71.226  1.00  0.00    -0.449 A  
HETATM   21  C   UNL     1     -10.417  15.472  70.174  1.00  0.00    -0.317 A  
HETATM   22  C   UNL     1     -10.586  14.651  69.036  1.00  0.00    -0.247 A  
ENDBRANCH   3   8
TORSDOF 2
ENDMDL
MODEL       86
REMARK 921   NORMALIZED FREE ENERGY PREDICTED BY IDOCK:   -3.54 KCAL/MOL
REMARK 922        TOTAL FREE ENERGY PREDICTED BY IDOCK:   -4.86 KCAL/MOL
REMARK 923 INTER-LIGAND FREE ENERGY PREDICTED BY IDOCK:   -3.90 KCAL/MOL
REMARK 924 INTRA-LIGAND FREE ENERGY PREDICTED BY IDOCK:   -0.95 KCAL/MOL
REMARK 927      BINDING AFFINITY PREDICTED BY RF-SCORE:    0.00 PKD
ROOT
HETATM    1  C   UNL     1      -7.348  10.324  69.566  1.00  0.00    -0.132 C  
HETATM    2  C   UNL     1      -8.799  10.305  69.058  1.00  0.00    -0.170 C  
HETATM    3  C   UNL     1      -9.188   8.940  68.442  1.00  0.00    -0.140 C  
HETATM    4  C   UNL     1      -8.933  11.449  68.019  1.00  0.00    -0.163 C  
ENDROOT
BRANCH   4   5
HETATM    5  N   UNL     1     -10.259  11.650  67.410  1.00  0.00    -0.201 NA 
HETATM    6  C   UNL     1     -10.110  12.400  66.156  1.00  0.00    -0.248 C  
HETATM    7  C   UNL     1     -11.168  12.371  68.306  1.00  0.00    -0.263 C  
ENDBRANCH   4   5
BRANCH   3   8
HETATM    8  N   UNL     1      -9.122   7.837  69.439  1.00  0.00    -0.146 NA 
HETATM    9  C   UNL     1     -10.002   7.944  70.537  1.00  0.00    -0.191 A  
HETATM   10  C   UNL     1     -11.391   8.020  70.344  1.00  0.00    -0.190 A  
HETATM   11  C   UNL     1     -12.271   8.048  71.426  1.00  0.00    -0.335 A  
HETATM   12  C   UNL     1     -11.779   8.011  72.726  1.00  0.00    -0.352 A  
HETATM   13  C   UNL     1     -10.405   7.940  72.942  1.00  0.00    -0.413 A  
HETATM   14  C   UNL     1      -9.517   7.902  71.857  1.00  0.00    -0.220 A  
HETATM   15  C   UNL     1      -8.037   7.800  72.088  1.00  0.00    -0.136 C  
HETATM   16  C   UNL     1      -7.499   6.441  71.658  1.00  0.00    -0.093 C  
HETATM   17  C   UNL     1      -7.564   6.048  70.193  1.00  0.00    -0.095 A  
HETATM   18  C   UNL     1      -6.808   4.898  69.857  1.00  0.00    -0.048 A  
HETATM   19  C   UNL     1      -6.767   4.402  68.560  1.00  0.00    -0.047 A  
HETATM   20  C   UNL     1      -7.493   5.038  67.569  1.00  0.00    -0.083 A  
HETATM   21  C   UNL     1      -8.249   6.171  67.883  1.00  0.00    -0.117 A  
HETATM   22  C   UNL     1      -8.300   6.716  69.186  1.00  0.00    -0.124 A  
ENDBRANCH   3   8
TORSDOF 2
ENDMDL
MODEL       87
REMARK 921   NORMALIZED FREE ENERGY PREDICTED BY IDOCK:   -3.48 KCAL/MOL
REMARK 922        TOTAL FREE ENERGY PREDICTED BY IDOCK:   -4.80 KCAL/MOL
REMARK 923 INTER-LIGAND FREE ENERGY PREDICTED BY IDOCK:   -4.27 KCAL/MOL
REMARK 924 INTRA-LIGAND FREE ENERGY PREDICTED BY IDOCK:   -0.53 KCAL/MOL
REMARK 927      BINDING AFFINITY PREDICTED BY RF-SCORE:    0.00 PKD
ROOT
HETATM    1  C   UNL     1     -10.097   7.097  68.126  1.00  0.00    -0.195 C  
HETATM    2  C   UNL     1      -9.864   6.910  69.634  1.00  0.00    -0.171 C  
HETATM    3  C   UNL     1      -8.799   7.885  70.189  1.00  0.00    -0.144 C  
HETATM    4  C   UNL     1      -9.439   5.433  69.848  1.00  0.00    -0.159 C  
ENDROOT
BRANCH   4   5
HETATM    5  N   UNL     1      -9.188   5.002  71.235  1.00  0.00    -0.142 NA 
HETATM    6  C   UNL     1      -7.744   4.827  71.436  1.00  0.00    -0.090 C  
HETATM    7  C   UNL     1      -9.881   3.750  71.552  1.00  0.00    -0.165 C  
ENDBRANCH   4   5
BRANCH   3   8
HETATM    8  N   UNL     1      -9.214   9.307  70.045  1.00  0.00    -0.192 NA 
HETATM    9  C   UNL     1     -10.546   9.601  70.407  1.00  0.00    -0.295 A  
HETATM   10  C   UNL     1     -11.017   9.336  71.704  1.00  0.00    -0.433 A  
HETATM   11  C   UNL     1     -12.308   9.694  72.092  1.00  0.00    -0.290 A  
HETATM   12  C   UNL     1     -13.160  10.318  71.187  1.00  0.00    -0.481 A  
HETATM   13  C   UNL     1     -12.716  10.586  69.894  1.00  0.00    -0.037 A  
HETATM   14  C   UNL     1     -11.415  10.236  69.502  1.00  0.00    -0.273 A  
HETATM   15  C   UNL     1     -10.928  10.548  68.117  1.00  0.00    -0.330 C  
HETATM   16  C   UNL     1      -9.864  11.638  68.135  1.00  0.00    -0.191 C  
HETATM   17  C   UNL     1      -8.539  11.369  68.825  1.00  0.00    -0.085 A  
HETATM   18  C   UNL     1      -7.531  12.328  68.560  1.00  0.00    -0.113 A  
HETATM   19  C   UNL     1      -6.263  12.232  69.122  1.00  0.00    -0.089 A  
HETATM   20  C   UNL     1      -5.977  11.180  69.973  1.00  0.00    -0.125 A  
HETATM   21  C   UNL     1      -6.962  10.227  70.249  1.00  0.00    -0.136 A  
HETATM   22  C   UNL     1      -8.255  10.281  69.683  1.00  0.00    -0.133 A  
ENDBRANCH   3   8
TORSDOF 2
ENDMDL
MODEL       88
REMARK 921   NORMALIZED FREE ENERGY PREDICTED BY IDOCK:   -3.38 KCAL/MOL
REMARK 922        TOTAL FREE ENERGY PREDICTED BY IDOCK:   -4.68 KCAL/MOL
REMARK 923 INTER-LIGAND FREE ENERGY PREDICTED BY IDOCK:   -3.73 KCAL/MOL
REMARK 924 INTRA-LIGAND FREE ENERGY PREDICTED BY IDOCK:   -0.95 KCAL/MOL
REMARK 927      BINDING AFFINITY PREDICTED BY RF-SCORE:    0.00 PKD
ROOT
HETATM    1  C   UNL     1      -7.604  10.329  68.924  1.00  0.00    -0.094 C  
HETATM    2  C   UNL     1      -9.128  10.193  68.779  1.00  0.00    -0.153 C  
HETATM    3  C   UNL     1      -9.526   9.156  67.702  1.00  0.00    -0.140 C  
HETATM    4  C   UNL     1      -9.680  11.602  68.435  1.00  0.00    -0.199 C  
ENDROOT
BRANCH   4   5
HETATM    5  N   UNL     1     -11.140  11.730  68.278  1.00  0.00    -0.221 NA 
HETATM    6  C   UNL     1     -11.445  12.162  66.908  1.00  0.00    -0.351 C  
HETATM    7  C   UNL     1     -11.710  12.685  69.231  1.00  0.00    -0.322 C  
ENDBRANCH   4   5
BRANCH   3   8
HETATM    8  N   UNL     1      -9.055   7.786  68.043  1.00  0.00    -0.129 NA 
HETATM    9  C   UNL     1      -9.641   7.198  69.185  1.00  0.00    -0.154 A  
HETATM   10  C   UNL     1     -11.030   7.010  69.267  1.00  0.00    -0.211 A  
HETATM   11  C   UNL     1     -11.608   6.361  70.358  1.00  0.00    -0.440 A  
HETATM   12  C   UNL     1     -10.809   5.894  71.395  1.00  0.00    -0.332 A  
HETATM   13  C   UNL     1      -9.429   6.073  71.337  1.00  0.00    -0.172 A  
HETATM   14  C   UNL     1      -8.842   6.717  70.238  1.00  0.00    -0.152 A  
HETATM   15  C   UNL     1      -7.352   6.890  70.162  1.00  0.00    -0.081 C  
HETATM   16  C   UNL     1      -6.747   6.018  69.069  1.00  0.00    -0.060 C  
HETATM   17  C   UNL     1      -7.116   6.284  67.621  1.00  0.00    -0.081 A  
HETATM   18  C   UNL     1      -6.309   5.607  66.673  1.00  0.00    -0.039 A  
HETATM   19  C   UNL     1      -6.520   5.737  65.306  1.00  0.00    -0.042 A  
HETATM   20  C   UNL     1      -7.553   6.537  64.853  1.00  0.00    -0.097 A  
HETATM   21  C   UNL     1      -8.363   7.208  65.774  1.00  0.00    -0.144 A  
HETATM   22  C   UNL     1      -8.167   7.116  67.171  1.00  0.00    -0.118 A  
ENDBRANCH   3   8
TORSDOF 2
ENDMDL
MODEL       89
REMARK 921   NORMALIZED FREE ENERGY PREDICTED BY IDOCK:   -3.36 KCAL/MOL
REMARK 922        TOTAL FREE ENERGY PREDICTED BY IDOCK:   -4.66 KCAL/MOL
REMARK 923 INTER-LIGAND FREE ENERGY PREDICTED BY IDOCK:   -4.33 KCAL/MOL
REMARK 924 INTRA-LIGAND FREE ENERGY PREDICTED BY IDOCK:   -0.33 KCAL/MOL
REMARK 927      BINDING AFFINITY PREDICTED BY RF-SCORE:    0.00 PKD
ROOT
HETATM    1  C   UNL     1      -8.069  11.009  68.253  1.00  0.00    -0.128 C  
HETATM    2  C   UNL     1      -9.279  10.169  68.693  1.00  0.00    -0.157 C  
HETATM    3  C   UNL     1     -10.296   9.958  67.546  1.00  0.00    -0.236 C  
HETATM    4  C   UNL     1      -9.931  10.905  69.894  1.00  0.00     0.446 C  
ENDROOT
BRANCH   4   5
HETATM    5  N   UNL     1     -11.105  10.266  70.514  1.00  0.00    -0.315 NA 
HETATM    6  C   UNL     1     -11.091   8.828  70.216  1.00  0.00    -0.222 C  
HETATM    7  C   UNL     1     -12.361  10.852  70.039  1.00  0.00    -0.313 C  
ENDBRANCH   4   5
BRANCH   3   8
HETATM    8  N   UNL     1      -9.706   9.203  66.408  1.00  0.00    -0.240 NA 
HETATM    9  C   UNL     1      -9.595   7.807  66.584  1.00  0.00    -0.220 A  
HETATM   10  C   UNL     1     -10.729   7.020  66.842  1.00  0.00    -0.376 A  
HETATM   11  C   UNL     1     -10.639   5.631  66.941  1.00  0.00    -0.367 A  
HETATM   12  C   UNL     1      -9.408   5.001  66.794  1.00  0.00    -0.136 A  
HETATM   13  C   UNL     1      -8.269   5.761  66.542  1.00  0.00    -0.106 A  
HETATM   14  C   UNL     1      -8.357   7.157  66.432  1.00  0.00    -0.125 A  
HETATM   15  C   UNL     1      -7.134   7.976  66.136  1.00  0.00    -0.062 C  
HETATM   16  C   UNL     1      -7.192   8.575  64.737  1.00  0.00    -0.085 C  
HETATM   17  C   UNL     1      -8.272   9.590  64.410  1.00  0.00    -0.148 A  
HETATM   18  C   UNL     1      -8.083  10.279  63.186  1.00  0.00    -0.158 A  
HETATM   19  C   UNL     1      -8.986  11.235  62.737  1.00  0.00    -0.288 A  
HETATM   20  C   UNL     1     -10.109  11.515  63.496  1.00  0.00    -0.446 A  
HETATM   21  C   UNL     1     -10.314  10.841  64.703  1.00  0.00    -0.394 A  
HETATM   22  C   UNL     1      -9.409   9.877  65.201  1.00  0.00    -0.258 A  
ENDBRANCH   3   8
TORSDOF 2
ENDMDL
MODEL       90
REMARK 921   NORMALIZED FREE ENERGY PREDICTED BY IDOCK:   -3.34 KCAL/MOL
REMARK 922        TOTAL FREE ENERGY PREDICTED BY IDOCK:   -4.64 KCAL/MOL
REMARK 923 INTER-LIGAND FREE ENERGY PREDICTED BY IDOCK:   -3.78 KCAL/MOL
REMARK 924 INTRA-LIGAND FREE ENERGY PREDICTED BY IDOCK:   -0.86 KCAL/MOL
REMARK 927      BINDING AFFINITY PREDICTED BY RF-SCORE:    0.00 PKD
ROOT
HETATM    1  C   UNL     1     -10.179   9.464  68.966  1.00  0.00    -0.216 C  
HETATM    2  C   UNL     1     -10.653   8.523  70.085  1.00  0.00    -0.238 C  
HETATM    3  C   UNL     1     -10.821   7.065  69.596  1.00  0.00    -0.247 C  
HETATM    4  C   UNL     1     -11.992   9.094  70.622  1.00  0.00    -0.124 C  
ENDROOT
BRANCH   4   5
HETATM    5  N   UNL     1     -12.631   8.370  71.736  1.00  0.00    -0.327 NA 
HETATM    6  C   UNL     1     -13.700   9.201  72.306  1.00  0.00    -0.487 C  
HETATM    7  C   UNL     1     -11.669   8.022  72.785  1.00  0.00    -0.290 C  
ENDBRANCH   4   5
BRANCH   3   8
HETATM    8  N   UNL     1      -9.534   6.480  69.130  1.00  0.00    -0.136 NA 
HETATM    9  C   UNL     1      -8.519   6.366  70.104  1.00  0.00    -0.135 A  
HETATM   10  C   UNL     1      -8.722   5.617  71.274  1.00  0.00    -0.134 A  
HETATM   11  C   UNL     1      -7.699   5.437  72.205  1.00  0.00    -0.101 A  
HETATM   12  C   UNL     1      -6.451   6.012  71.988  1.00  0.00    -0.054 A  
HETATM   13  C   UNL     1      -6.228   6.762  70.836  1.00  0.00    -0.040 A  
HETATM   14  C   UNL     1      -7.251   6.938  69.893  1.00  0.00    -0.076 A  
HETATM   15  C   UNL     1      -7.004   7.726  68.640  1.00  0.00    -0.067 C  
HETATM   16  C   UNL     1      -6.999   6.827  67.410  1.00  0.00    -0.082 C  
HETATM   17  C   UNL     1      -8.273   6.102  67.017  1.00  0.00    -0.106 A  
HETATM   18  C   UNL     1      -8.243   5.512  65.730  1.00  0.00    -0.124 A  
HETATM   19  C   UNL     1      -9.326   4.804  65.222  1.00  0.00    -0.148 A  
HETATM   20  C   UNL     1     -10.463   4.658  65.998  1.00  0.00    -0.303 A  
HETATM   21  C   UNL     1     -10.508   5.229  67.273  1.00  0.00    -0.236 A  
HETATM   22  C   UNL     1      -9.434   5.971  67.815  1.00  0.00    -0.112 A  
ENDBRANCH   3   8
TORSDOF 2
ENDMDL
MODEL       91
REMARK 921   NORMALIZED FREE ENERGY PREDICTED BY IDOCK:   -3.31 KCAL/MOL
REMARK 922        TOTAL FREE ENERGY PREDICTED BY IDOCK:   -4.60 KCAL/MOL
REMARK 923 INTER-LIGAND FREE ENERGY PREDICTED BY IDOCK:   -5.05 KCAL/MOL
REMARK 924 INTRA-LIGAND FREE ENERGY PREDICTED BY IDOCK:    0.45 KCAL/MOL
REMARK 927      BINDING AFFINITY PREDICTED BY RF-SCORE:    0.00 PKD
ROOT
HETATM    1  C   UNL     1     -13.286   7.542  71.484  1.00  0.00    -0.409 C  
HETATM    2  C   UNL     1     -12.336   8.719  71.210  1.00  0.00    -0.313 C  
HETATM    3  C   UNL     1     -10.962   8.538  71.896  1.00  0.00    -0.324 C  
HETATM    4  C   UNL     1     -13.050  10.004  71.709  1.00  0.00    -0.457 C  
ENDROOT
BRANCH   4   5
HETATM    5  N   UNL     1     -12.339  11.281  71.522  1.00  0.00    -0.195 NA 
HETATM    6  C   UNL     1     -13.119  12.366  72.133  1.00  0.00    -0.314 C  
HETATM    7  C   UNL     1     -12.113  11.578  70.105  1.00  0.00    -0.351 C  
ENDBRANCH   4   5
BRANCH   3   8
HETATM    8  N   UNL     1     -10.237   7.342  71.388  1.00  0.00    -0.188 NA 
HETATM    9  C   UNL     1     -10.134   6.255  72.282  1.00  0.00    -0.177 A  
HETATM   10  C   UNL     1     -11.283   5.643  72.808  1.00  0.00    -0.347 A  
HETATM   11  C   UNL     1     -11.193   4.521  73.632  1.00  0.00    -0.346 A  
HETATM   12  C   UNL     1      -9.947   3.993  73.956  1.00  0.00    -0.176 A  
HETATM   13  C   UNL     1      -8.794   4.586  73.449  1.00  0.00    -0.102 A  
HETATM   14  C   UNL     1      -8.881   5.709  72.613  1.00  0.00    -0.123 A  
HETATM   15  C   UNL     1      -7.639   6.335  72.047  1.00  0.00    -0.096 C  
HETATM   16  C   UNL     1      -7.540   6.109  70.543  1.00  0.00    -0.096 C  
HETATM   17  C   UNL     1      -8.584   6.727  69.631  1.00  0.00    -0.133 A  
HETATM   18  C   UNL     1      -8.260   6.686  68.252  1.00  0.00    -0.114 A  
HETATM   19  C   UNL     1      -9.114   7.202  67.284  1.00  0.00    -0.130 A  
HETATM   20  C   UNL     1     -10.319   7.759  67.672  1.00  0.00    -0.305 A  
HETATM   21  C   UNL     1     -10.657   7.802  69.027  1.00  0.00    -0.179 A  
HETATM   22  C   UNL     1      -9.808   7.306  70.041  1.00  0.00    -0.175 A  
ENDBRANCH   3   8
TORSDOF 2
ENDMDL
MODEL       92
REMARK 921   NORMALIZED FREE ENERGY PREDICTED BY IDOCK:   -3.28 KCAL/MOL
REMARK 922        TOTAL FREE ENERGY PREDICTED BY IDOCK:   -4.57 KCAL/MOL
REMARK 923 INTER-LIGAND FREE ENERGY PREDICTED BY IDOCK:   -3.81 KCAL/MOL
REMARK 924 INTRA-LIGAND FREE ENERGY PREDICTED BY IDOCK:   -0.76 KCAL/MOL
REMARK 927      BINDING AFFINITY PREDICTED BY RF-SCORE:    0.00 PKD
ROOT
HETATM    1  C   UNL     1     -13.741  15.269  69.819  1.00  0.00     1.642 C  
HETATM    2  C   UNL     1     -12.519  15.389  70.743  1.00  0.00    -0.476 C  
HETATM    3  C   UNL     1     -11.637  14.118  70.720  1.00  0.00    -0.063 C  
HETATM    4  C   UNL     1     -13.055  15.676  72.171  1.00  0.00    -0.458 C  
ENDROOT
BRANCH   4   5
HETATM    5  N   UNL     1     -12.056  15.864  73.237  1.00  0.00    -0.478 NA 
HETATM    6  C   UNL     1     -12.372  14.975  74.363  1.00  0.00    -0.308 C  
HETATM    7  C   UNL     1     -12.013  17.252  73.707  1.00  0.00     0.328 C  
ENDBRANCH   4   5
BRANCH   3   8
HETATM    8  N   UNL     1     -11.066  13.858  69.371  1.00  0.00    -0.219 NA 
HETATM    9  C   UNL     1     -10.421  14.951  68.752  1.00  0.00    -0.242 A  
HETATM   10  C   UNL     1      -9.328  15.585  69.366  1.00  0.00    -0.279 A  
HETATM   11  C   UNL     1      -8.638  16.615  68.727  1.00  0.00    -0.261 A  
HETATM   12  C   UNL     1      -9.032  17.039  67.463  1.00  0.00    -0.220 A  
HETATM   13  C   UNL     1     -10.116  16.427  66.837  1.00  0.00    -0.281 A  
HETATM   14  C   UNL     1     -10.807  15.385  67.472  1.00  0.00    -0.305 A  
HETATM   15  C   UNL     1     -11.960  14.709  66.788  1.00  0.00    -0.297 C  
HETATM   16  C   UNL     1     -11.610  13.280  66.392  1.00  0.00    -0.387 C  
HETATM   17  C   UNL     1     -11.315  12.261  67.478  1.00  0.00    -0.388 A  
HETATM   18  C   UNL     1     -11.264  10.918  67.029  1.00  0.00    -0.211 A  
HETATM   19  C   UNL     1     -10.997   9.866  67.896  1.00  0.00    -0.281 A  
HETATM   20  C   UNL     1     -10.760  10.133  69.232  1.00  0.00    -0.259 A  
HETATM   21  C   UNL     1     -10.800  11.452  69.692  1.00  0.00    -0.107 A  
HETATM   22  C   UNL     1     -11.088  12.546  68.844  1.00  0.00    -0.260 A  
ENDBRANCH   3   8
TORSDOF 2
ENDMDL
MODEL       93
REMARK 921   NORMALIZED FREE ENERGY PREDICTED BY IDOCK:   -3.24 KCAL/MOL
REMARK 922        TOTAL FREE ENERGY PREDICTED BY IDOCK:   -4.53 KCAL/MOL
REMARK 923 INTER-LIGAND FREE ENERGY PREDICTED BY IDOCK:   -3.60 KCAL/MOL
REMARK 924 INTRA-LIGAND FREE ENERGY PREDICTED BY IDOCK:   -0.93 KCAL/MOL
REMARK 927      BINDING AFFINITY PREDICTED BY RF-SCORE:    0.00 PKD
ROOT
HETATM    1  C   UNL     1      -9.123   7.169  69.438  1.00  0.00    -0.145 C  
HETATM    2  C   UNL     1      -8.939   5.643  69.402  1.00  0.00    -0.124 C  
HETATM    3  C   UNL     1      -7.970   5.142  70.499  1.00  0.00    -0.090 C  
HETATM    4  C   UNL     1      -8.420   5.281  67.985  1.00  0.00    -0.097 C  
ENDROOT
BRANCH   4   5
HETATM    5  N   UNL     1      -8.196   3.853  67.698  1.00  0.00    -0.093 NA 
HETATM    6  C   UNL     1      -6.869   3.681  67.092  1.00  0.00    -0.050 C  
HETATM    7  C   UNL     1      -9.218   3.310  66.799  1.00  0.00    -0.167 C  
ENDBRANCH   4   5
BRANCH   3   8
HETATM    8  N   UNL     1      -8.479   5.429  71.867  1.00  0.00    -0.126 NA 
HETATM    9  C   UNL     1      -9.431   4.520  72.376  1.00  0.00    -0.135 A  
HETATM   10  C   UNL     1      -9.128   3.155  72.506  1.00  0.00    -0.128 A  
HETATM   11  C   UNL     1     -10.035   2.263  73.077  1.00  0.00    -0.182 A  
HETATM   12  C   UNL     1     -11.271   2.717  73.524  1.00  0.00    -0.300 A  
HETATM   13  C   UNL     1     -11.596   4.066  73.402  1.00  0.00    -0.133 A  
HETATM   14  C   UNL     1     -10.683   4.968  72.835  1.00  0.00    -0.299 A  
HETATM   15  C   UNL     1     -11.021   6.427  72.725  1.00  0.00    -0.289 C  
HETATM   16  C   UNL     1     -10.173   7.267  73.672  1.00  0.00    -0.393 C  
HETATM   17  C   UNL     1      -8.671   7.330  73.463  1.00  0.00    -0.197 A  
HETATM   18  C   UNL     1      -8.013   8.333  74.217  1.00  0.00    -0.293 A  
HETATM   19  C   UNL     1      -6.637   8.517  74.146  1.00  0.00    -0.150 A  
HETATM   20  C   UNL     1      -5.885   7.693  73.329  1.00  0.00    -0.048 A  
HETATM   21  C   UNL     1      -6.517   6.694  72.583  1.00  0.00    -0.059 A  
HETATM   22  C   UNL     1      -7.915   6.489  72.614  1.00  0.00    -0.103 A  
ENDBRANCH   3   8
TORSDOF 2
ENDMDL
MODEL       94
REMARK 921   NORMALIZED FREE ENERGY PREDICTED BY IDOCK:   -3.22 KCAL/MOL
REMARK 922        TOTAL FREE ENERGY PREDICTED BY IDOCK:   -4.51 KCAL/MOL
REMARK 923 INTER-LIGAND FREE ENERGY PREDICTED BY IDOCK:   -4.14 KCAL/MOL
REMARK 924 INTRA-LIGAND FREE ENERGY PREDICTED BY IDOCK:   -0.37 KCAL/MOL
REMARK 927      BINDING AFFINITY PREDICTED BY RF-SCORE:    0.00 PKD
ROOT
HETATM    1  C   UNL     1     -11.323   9.872  69.583  1.00  0.00    -0.212 C  
HETATM    2  C   UNL     1      -9.916   9.866  68.963  1.00  0.00    -0.193 C  
HETATM    3  C   UNL     1      -8.856   9.266  69.917  1.00  0.00    -0.185 C  
HETATM    4  C   UNL     1      -9.575  11.335  68.596  1.00  0.00    -0.190 C  
ENDROOT
BRANCH   4   5
HETATM    5  N   UNL     1      -8.273  11.579  67.950  1.00  0.00    -0.128 NA 
HETATM    6  C   UNL     1      -7.917  10.421  67.119  1.00  0.00    -0.115 C  
HETATM    7  C   UNL     1      -7.213  11.822  68.932  1.00  0.00    -0.107 C  
ENDBRANCH   4   5
BRANCH   3   8
HETATM    8  N   UNL     1      -9.134   7.839  70.235  1.00  0.00    -0.152 NA 
HETATM    9  C   UNL     1      -9.121   6.948  69.141  1.00  0.00    -0.136 A  
HETATM   10  C   UNL     1      -7.975   6.804  68.341  1.00  0.00    -0.115 A  
HETATM   11  C   UNL     1      -7.928   5.871  67.306  1.00  0.00    -0.102 A  
HETATM   12  C   UNL     1      -9.032   5.067  67.042  1.00  0.00    -0.112 A  
HETATM   13  C   UNL     1     -10.180   5.195  67.819  1.00  0.00    -0.190 A  
HETATM   14  C   UNL     1     -10.229   6.126  68.867  1.00  0.00    -0.232 A  
HETATM   15  C   UNL     1     -11.457   6.248  69.721  1.00  0.00    -0.449 C  
HETATM   16  C   UNL     1     -11.204   5.738  71.135  1.00  0.00    -0.211 C  
HETATM   17  C   UNL     1     -10.200   6.462  72.014  1.00  0.00    -0.216 A  
HETATM   18  C   UNL     1     -10.231   6.083  73.379  1.00  0.00    -0.226 A  
HETATM   19  C   UNL     1      -9.371   6.646  74.315  1.00  0.00    -0.247 A  
HETATM   20  C   UNL     1      -8.449   7.592  73.904  1.00  0.00    -0.270 A  
HETATM   21  C   UNL     1      -8.401   7.974  72.561  1.00  0.00    -0.211 A  
HETATM   22  C   UNL     1      -9.272   7.439  71.584  1.00  0.00    -0.142 A  
ENDBRANCH   3   8
TORSDOF 2
ENDMDL
MODEL       95
REMARK 921   NORMALIZED FREE ENERGY PREDICTED BY IDOCK:   -3.21 KCAL/MOL
REMARK 922        TOTAL FREE ENERGY PREDICTED BY IDOCK:   -4.50 KCAL/MOL
REMARK 923 INTER-LIGAND FREE ENERGY PREDICTED BY IDOCK:   -4.97 KCAL/MOL
REMARK 924 INTRA-LIGAND FREE ENERGY PREDICTED BY IDOCK:    0.48 KCAL/MOL
REMARK 927      BINDING AFFINITY PREDICTED BY RF-SCORE:    0.00 PKD
ROOT
HETATM    1  C   UNL     1      -7.369   9.533  67.661  1.00  0.00    -0.083 C  
HETATM    2  C   UNL     1      -8.439  10.037  66.679  1.00  0.00    -0.126 C  
HETATM    3  C   UNL     1      -9.875   9.823  67.212  1.00  0.00    -0.181 C  
HETATM    4  C   UNL     1      -8.218   9.283  65.340  1.00  0.00    -0.127 C  
ENDROOT
BRANCH   4   5
HETATM    5  N   UNL     1      -9.115   9.626  64.222  1.00  0.00    -0.239 NA 
HETATM    6  C   UNL     1      -8.659   8.940  63.006  1.00  0.00    -0.130 C  
HETATM    7  C   UNL     1      -9.160  11.071  63.981  1.00  0.00    -0.102 C  
ENDBRANCH   4   5
BRANCH   3   8
HETATM    8  N   UNL     1     -10.125  10.585  68.466  1.00  0.00    -0.166 NA 
HETATM    9  C   UNL     1     -10.268   9.814  69.639  1.00  0.00    -0.233 A  
HETATM   10  C   UNL     1      -9.241   8.959  70.071  1.00  0.00    -0.183 A  
HETATM   11  C   UNL     1      -9.343   8.252  71.269  1.00  0.00    -0.218 A  
HETATM   12  C   UNL     1     -10.481   8.379  72.058  1.00  0.00    -0.384 A  
HETATM   13  C   UNL     1     -11.515   9.218  71.648  1.00  0.00    -0.468 A  
HETATM   14  C   UNL     1     -11.412   9.938  70.448  1.00  0.00    -0.372 A  
HETATM   15  C   UNL     1     -12.514  10.862  70.018  1.00  0.00    -0.332 C  
HETATM   16  C   UNL     1     -12.081  12.320  70.100  1.00  0.00    -0.364 C  
HETATM   17  C   UNL     1     -10.961  12.812  69.201  1.00  0.00    -0.185 A  
HETATM   18  C   UNL     1     -10.814  14.220  69.159  1.00  0.00    -0.264 A  
HETATM   19  C   UNL     1      -9.831  14.831  68.390  1.00  0.00    -0.220 A  
HETATM   20  C   UNL     1      -8.961  14.046  67.655  1.00  0.00    -0.194 A  
HETATM   21  C   UNL     1      -9.088  12.655  67.689  1.00  0.00    -0.192 A  
HETATM   22  C   UNL     1     -10.086  11.998  68.444  1.00  0.00    -0.210 A  
ENDBRANCH   3   8
TORSDOF 2
ENDMDL
MODEL       96
REMARK 921   NORMALIZED FREE ENERGY PREDICTED BY IDOCK:   -3.21 KCAL/MOL
REMARK 922        TOTAL FREE ENERGY PREDICTED BY IDOCK:   -4.49 KCAL/MOL
REMARK 923 INTER-LIGAND FREE ENERGY PREDICTED BY IDOCK:   -6.46 KCAL/MOL
REMARK 924 INTRA-LIGAND FREE ENERGY PREDICTED BY IDOCK:    1.96 KCAL/MOL
REMARK 927      BINDING AFFINITY PREDICTED BY RF-SCORE:    0.00 PKD
ROOT
HETATM    1  C   UNL     1     -10.606  12.120  68.907  1.00  0.00    -0.179 C  
HETATM    2  C   UNL     1     -11.596  13.278  69.116  1.00  0.00    -0.370 C  
HETATM    3  C   UNL     1     -10.938  14.661  68.898  1.00  0.00    -0.253 C  
HETATM    4  C   UNL     1     -12.157  13.143  70.557  1.00  0.00    -0.306 C  
ENDROOT
BRANCH   4   5
HETATM    5  N   UNL     1     -13.161  14.134  70.981  1.00  0.00    -0.328 NA 
HETATM    6  C   UNL     1     -12.482  15.373  71.381  1.00  0.00    -0.392 C  
HETATM    7  C   UNL     1     -13.978  13.642  72.094  1.00  0.00    -0.514 C  
ENDBRANCH   4   5
BRANCH   3   8
HETATM    8  N   UNL     1     -10.446  14.832  67.504  1.00  0.00    -0.243 NA 
HETATM    9  C   UNL     1      -9.170  15.421  67.368  1.00  0.00    -0.197 A  
HETATM   10  C   UNL     1      -8.039  14.837  67.960  1.00  0.00    -0.140 A  
HETATM   11  C   UNL     1      -6.764  15.369  67.767  1.00  0.00    -0.187 A  
HETATM   12  C   UNL     1      -6.595  16.506  66.983  1.00  0.00    -0.234 A  
HETATM   13  C   UNL     1      -7.704  17.105  66.389  1.00  0.00    -0.345 A  
HETATM   14  C   UNL     1      -8.986  16.567  66.574  1.00  0.00    -0.312 A  
HETATM   15  C   UNL     1     -10.178  17.198  65.914  1.00  0.00    -0.290 C  
HETATM   16  C   UNL     1     -10.739  16.307  64.813  1.00  0.00    -0.150 C  
HETATM   17  C   UNL     1     -11.327  14.957  65.179  1.00  0.00    -0.379 A  
HETATM   18  C   UNL     1     -12.054  14.328  64.139  1.00  0.00    -0.423 A  
HETATM   19  C   UNL     1     -12.649  13.083  64.309  1.00  0.00    -0.326 A  
HETATM   20  C   UNL     1     -12.517  12.431  65.522  1.00  0.00    -0.086 A  
HETATM   21  C   UNL     1     -11.798  13.033  66.558  1.00  0.00    -0.464 A  
HETATM   22  C   UNL     1     -11.196  14.306  66.429  1.00  0.00    -0.337 A  
ENDBRANCH   3   8
TORSDOF 2
ENDMDL
MODEL       97
REMARK 921   NORMALIZED FREE ENERGY PREDICTED BY IDOCK:   -3.08 KCAL/MOL
REMARK 922        TOTAL FREE ENERGY PREDICTED BY IDOCK:   -4.35 KCAL/MOL
REMARK 923 INTER-LIGAND FREE ENERGY PREDICTED BY IDOCK:   -4.77 KCAL/MOL
REMARK 924 INTRA-LIGAND FREE ENERGY PREDICTED BY IDOCK:    0.42 KCAL/MOL
REMARK 927      BINDING AFFINITY PREDICTED BY RF-SCORE:    0.00 PKD
ROOT
HETATM    1  C   UNL     1     -10.582   8.836  67.532  1.00  0.00    -0.298 C  
HETATM    2  C   UNL     1     -10.638   9.675  68.820  1.00  0.00    -0.242 C  
HETATM    3  C   UNL     1      -9.285  10.355  69.138  1.00  0.00    -0.191 C  
HETATM    4  C   UNL     1     -11.071   8.722  69.965  1.00  0.00    -0.162 C  
ENDROOT
BRANCH   4   5
HETATM    5  N   UNL     1     -11.227   9.312  71.306  1.00  0.00    -0.324 NA 
HETATM    6  C   UNL     1     -10.813   8.333  72.320  1.00  0.00    -0.338 C  
HETATM    7  C   UNL     1     -12.608   9.729  71.563  1.00  0.00    -0.398 C  
ENDBRANCH   4   5
BRANCH   3   8
HETATM    8  N   UNL     1      -8.880  11.317  68.078  1.00  0.00    -0.143 NA 
HETATM    9  C   UNL     1      -7.722  10.978  67.345  1.00  0.00    -0.114 A  
HETATM   10  C   UNL     1      -7.650   9.774  66.626  1.00  0.00    -0.098 A  
HETATM   11  C   UNL     1      -6.541   9.467  65.838  1.00  0.00    -0.076 A  
HETATM   12  C   UNL     1      -5.474  10.355  65.760  1.00  0.00    -0.086 A  
HETATM   13  C   UNL     1      -5.521  11.554  66.468  1.00  0.00    -0.117 A  
HETATM   14  C   UNL     1      -6.639  11.871  67.254  1.00  0.00    -0.141 A  
HETATM   15  C   UNL     1      -6.702  13.174  67.998  1.00  0.00    -0.119 C  
HETATM   16  C   UNL     1      -7.749  14.105  67.399  1.00  0.00    -0.189 C  
HETATM   17  C   UNL     1      -9.212  13.703  67.450  1.00  0.00    -0.222 A  
HETATM   18  C   UNL     1     -10.119  14.739  67.115  1.00  0.00    -0.240 A  
HETATM   19  C   UNL     1     -11.494  14.533  67.105  1.00  0.00    -0.383 A  
HETATM   20  C   UNL     1     -11.994  13.281  67.416  1.00  0.00    -0.383 A  
HETATM   21  C   UNL     1     -11.113  12.247  67.743  1.00  0.00    -0.304 A  
HETATM   22  C   UNL     1      -9.711  12.422  67.783  1.00  0.00    -0.201 A  
ENDBRANCH   3   8
TORSDOF 2
ENDMDL
MODEL       98
REMARK 921   NORMALIZED FREE ENERGY PREDICTED BY IDOCK:   -3.05 KCAL/MOL
REMARK 922        TOTAL FREE ENERGY PREDICTED BY IDOCK:   -4.31 KCAL/MOL
REMARK 923 INTER-LIGAND FREE ENERGY PREDICTED BY IDOCK:   -3.64 KCAL/MOL
REMARK 924 INTRA-LIGAND FREE ENERGY PREDICTED BY IDOCK:   -0.67 KCAL/MOL
REMARK 927      BINDING AFFINITY PREDICTED BY RF-SCORE:    0.00 PKD
ROOT
HETATM    1  C   UNL     1      -9.913  12.649  67.548  1.00  0.00    -0.205 C  
HETATM    2  C   UNL     1      -8.377  12.648  67.479  1.00  0.00    -0.177 C  
HETATM    3  C   UNL     1      -7.746  11.618  68.446  1.00  0.00    -0.130 C  
HETATM    4  C   UNL     1      -7.907  14.090  67.807  1.00  0.00    -0.171 C  
ENDROOT
BRANCH   4   5
HETATM    5  N   UNL     1      -6.456  14.346  67.771  1.00  0.00    -0.167 NA 
HETATM    6  C   UNL     1      -5.896  14.164  69.117  1.00  0.00    -0.087 C  
HETATM    7  C   UNL     1      -6.152  15.698  67.294  1.00  0.00     0.060 C  
ENDBRANCH   4   5
BRANCH   3   8
HETATM    8  N   UNL     1      -8.139  10.223  68.111  1.00  0.00    -0.108 NA 
HETATM    9  C   UNL     1      -7.609   9.702  66.911  1.00  0.00    -0.095 A  
HETATM   10  C   UNL     1      -6.221   9.623  66.709  1.00  0.00    -0.065 A  
HETATM   11  C   UNL     1      -5.690   9.041  65.559  1.00  0.00    -0.050 A  
HETATM   12  C   UNL     1      -6.536   8.532  64.580  1.00  0.00    -0.066 A  
HETATM   13  C   UNL     1      -7.916   8.604  64.756  1.00  0.00    -0.141 A  
HETATM   14  C   UNL     1      -8.455   9.181  65.916  1.00  0.00    -0.150 A  
HETATM   15  C   UNL     1      -9.942   9.236  66.118  1.00  0.00    -0.348 C  
HETATM   16  C   UNL     1     -10.385   8.300  67.236  1.00  0.00    -0.372 C  
HETATM   17  C   UNL     1      -9.917   8.568  68.655  1.00  0.00    -0.197 A  
HETATM   18  C   UNL     1     -10.588   7.813  69.649  1.00  0.00    -0.242 A  
HETATM   19  C   UNL     1     -10.273   7.934  70.997  1.00  0.00    -0.217 A  
HETATM   20  C   UNL     1      -9.268   8.804  71.382  1.00  0.00    -0.325 A  
HETATM   21  C   UNL     1      -8.591   9.552  70.414  1.00  0.00    -0.246 A  
HETATM   22  C   UNL     1      -8.897   9.470  69.037  1.00  0.00    -0.143 A  
ENDBRANCH   3   8
TORSDOF 2
ENDMDL
MODEL       99
REMARK 921   NORMALIZED FREE ENERGY PREDICTED BY IDOCK:   -3.02 KCAL/MOL
REMARK 922        TOTAL FREE ENERGY PREDICTED BY IDOCK:   -4.28 KCAL/MOL
REMARK 923 INTER-LIGAND FREE ENERGY PREDICTED BY IDOCK:   -3.32 KCAL/MOL
REMARK 924 INTRA-LIGAND FREE ENERGY PREDICTED BY IDOCK:   -0.96 KCAL/MOL
REMARK 927      BINDING AFFINITY PREDICTED BY RF-SCORE:    0.00 PKD
ROOT
HETATM    1  C   UNL     1     -10.417  10.277  67.857  1.00  0.00    -0.253 C  
HETATM    2  C   UNL     1     -10.002  10.566  66.405  1.00  0.00    -0.271 C  
HETATM    3  C   UNL     1      -8.465  10.633  66.236  1.00  0.00    -0.155 C  
HETATM    4  C   UNL     1     -10.671  11.906  66.000  1.00  0.00    -0.285 C  
ENDROOT
BRANCH   4   5
HETATM    5  N   UNL     1     -10.441  12.381  64.624  1.00  0.00    -0.296 NA 
HETATM    6  C   UNL     1     -10.558  13.845  64.588  1.00  0.00    -0.412 C  
HETATM    7  C   UNL     1     -11.391  11.791  63.677  1.00  0.00    -0.436 C  
ENDBRANCH   4   5
BRANCH   3   8
HETATM    8  N   UNL     1      -7.810   9.338  66.565  1.00  0.00    -0.100 NA 
HETATM    9  C   UNL     1      -7.944   8.316  65.602  1.00  0.00    -0.113 A  
HETATM   10  C   UNL     1      -7.484   8.498  64.287  1.00  0.00    -0.111 A  
HETATM   11  C   UNL     1      -7.543   7.467  63.350  1.00  0.00    -0.114 A  
HETATM   12  C   UNL     1      -8.072   6.231  63.706  1.00  0.00    -0.050 A  
HETATM   13  C   UNL     1      -8.538   6.028  65.003  1.00  0.00    -0.043 A  
HETATM   14  C   UNL     1      -8.472   7.060  65.951  1.00  0.00    -0.151 A  
HETATM   15  C   UNL     1      -8.951   6.835  67.356  1.00  0.00    -0.115 C  
HETATM   16  C   UNL     1      -7.790   6.819  68.343  1.00  0.00    -0.114 C  
HETATM   17  C   UNL     1      -6.972   8.081  68.544  1.00  0.00    -0.072 A  
HETATM   18  C   UNL     1      -6.099   8.047  69.660  1.00  0.00    -0.030 A  
HETATM   19  C   UNL     1      -5.275   9.119  69.978  1.00  0.00    -0.028 A  
HETATM   20  C   UNL     1      -5.294  10.249  69.179  1.00  0.00    -0.038 A  
HETATM   21  C   UNL     1      -6.145  10.298  68.071  1.00  0.00    -0.051 A  
HETATM   22  C   UNL     1      -7.011   9.235  67.727  1.00  0.00    -0.081 A  
ENDBRANCH   3   8
TORSDOF 2
ENDMDL
MODEL      100
REMARK 921   NORMALIZED FREE ENERGY PREDICTED BY IDOCK:   -3.01 KCAL/MOL
REMARK 922        TOTAL FREE ENERGY PREDICTED BY IDOCK:   -4.27 KCAL/MOL
REMARK 923 INTER-LIGAND FREE ENERGY PREDICTED BY IDOCK:   -3.46 KCAL/MOL
REMARK 924 INTRA-LIGAND FREE ENERGY PREDICTED BY IDOCK:   -0.81 KCAL/MOL
REMARK 927      BINDING AFFINITY PREDICTED BY RF-SCORE:    0.00 PKD
ROOT
HETATM    1  C   UNL     1     -10.941   5.992  69.408  1.00  0.00    -0.455 C  
HETATM    2  C   UNL     1     -11.162   6.812  70.690  1.00  0.00    -0.361 C  
HETATM    3  C   UNL     1     -10.884   5.988  71.969  1.00  0.00    -0.252 C  
HETATM    4  C   UNL     1     -12.628   7.321  70.656  1.00  0.00     0.000 C  
ENDROOT
BRANCH   4   5
HETATM    5  N   UNL     1     -13.069   8.167  71.779  1.00  0.00    -0.339 NA 
HETATM    6  C   UNL     1     -14.404   8.706  71.486  1.00  0.00    -0.320 C  
HETATM    7  C   UNL     1     -12.140   9.272  72.029  1.00  0.00    -0.336 C  
ENDBRANCH   4   5
BRANCH   3   8
HETATM    8  N   UNL     1      -9.467   5.539  72.048  1.00  0.00    -0.150 NA 
HETATM    9  C   UNL     1      -8.492   6.557  71.974  1.00  0.00    -0.114 A  
HETATM   10  C   UNL     1      -8.471   7.607  72.906  1.00  0.00    -0.185 A  
HETATM   11  C   UNL     1      -7.466   8.573  72.885  1.00  0.00    -0.049 A  
HETATM   12  C   UNL     1      -6.463   8.515  71.923  1.00  0.00    -0.071 A  
HETATM   13  C   UNL     1      -6.466   7.486  70.985  1.00  0.00    -0.039 A  
HETATM   14  C   UNL     1      -7.470   6.506  71.008  1.00  0.00    -0.085 A  
HETATM   15  C   UNL     1      -7.460   5.382  70.013  1.00  0.00    -0.069 C  
HETATM   16  C   UNL     1      -7.138   4.051  70.682  1.00  0.00    -0.037 C  
HETATM   17  C   UNL     1      -8.103   3.485  71.708  1.00  0.00    -0.062 A  
HETATM   18  C   UNL     1      -7.856   2.138  72.069  1.00  0.00    -0.045 A  
HETATM   19  C   UNL     1      -8.643   1.474  73.002  1.00  0.00    -0.061 A  
HETATM   20  C   UNL     1      -9.690   2.146  73.606  1.00  0.00    -0.122 A  
HETATM   21  C   UNL     1      -9.945   3.478  73.266  1.00  0.00    -0.189 A  
HETATM   22  C   UNL     1      -9.179   4.180  72.308  1.00  0.00    -0.121 A  
ENDBRANCH   3   8
TORSDOF 2
ENDMDL
MODEL      101
REMARK 921   NORMALIZED FREE ENERGY PREDICTED BY IDOCK:   -3.01 KCAL/MOL
REMARK 922        TOTAL FREE ENERGY PREDICTED BY IDOCK:   -4.26 KCAL/MOL
REMARK 923 INTER-LIGAND FREE ENERGY PREDICTED BY IDOCK:   -3.28 KCAL/MOL
REMARK 924 INTRA-LIGAND FREE ENERGY PREDICTED BY IDOCK:   -0.98 KCAL/MOL
REMARK 927      BINDING AFFINITY PREDICTED BY RF-SCORE:    0.00 PKD
ROOT
HETATM    1  C   UNL     1      -9.178   9.617  64.345  1.00  0.00    -0.258 C  
HETATM    2  C   UNL     1      -8.261   8.586  65.023  1.00  0.00    -0.160 C  
HETATM    3  C   UNL     1      -7.336   9.229  66.082  1.00  0.00    -0.095 C  
HETATM    4  C   UNL     1      -7.438   7.902  63.898  1.00  0.00    -0.110 C  
ENDROOT
BRANCH   4   5
HETATM    5  N   UNL     1      -6.499   6.841  64.305  1.00  0.00    -0.038 NA 
HETATM    6  C   UNL     1      -5.177   7.113  63.725  1.00  0.00    -0.029 C  
HETATM    7  C   UNL     1      -6.956   5.515  63.882  1.00  0.00    -0.047 C  
ENDBRANCH   4   5
BRANCH   3   8
HETATM    8  N   UNL     1      -8.105   9.841  67.199  1.00  0.00    -0.116 NA 
HETATM    9  C   UNL     1      -8.747   8.938  68.074  1.00  0.00    -0.133 A  
HETATM   10  C   UNL     1      -8.012   7.972  68.780  1.00  0.00    -0.119 A  
HETATM   11  C   UNL     1      -8.627   7.127  69.704  1.00  0.00    -0.137 A  
HETATM   12  C   UNL     1      -9.995   7.224  69.934  1.00  0.00    -0.183 A  
HETATM   13  C   UNL     1     -10.745   8.172  69.242  1.00  0.00    -0.141 A  
HETATM   14  C   UNL     1     -10.129   9.030  68.319  1.00  0.00    -0.223 A  
HETATM   15  C   UNL     1     -10.932  10.069  67.591  1.00  0.00    -0.297 C  
HETATM   16  C   UNL     1     -10.575  11.475  68.058  1.00  0.00    -0.222 C  
HETATM   17  C   UNL     1      -9.175  12.004  67.809  1.00  0.00    -0.190 A  
HETATM   18  C   UNL     1      -9.022  13.395  68.034  1.00  0.00    -0.190 A  
HETATM   19  C   UNL     1      -7.801  14.035  67.860  1.00  0.00    -0.161 A  
HETATM   20  C   UNL     1      -6.699  13.296  67.469  1.00  0.00    -0.156 A  
HETATM   21  C   UNL     1      -6.830  11.922  67.247  1.00  0.00    -0.142 A  
HETATM   22  C   UNL     1      -8.059  11.240  67.396  1.00  0.00    -0.135 A  
ENDBRANCH   3   8
TORSDOF 2
ENDMDL
MODEL      102
REMARK 921   NORMALIZED FREE ENERGY PREDICTED BY IDOCK:   -2.99 KCAL/MOL
REMARK 922        TOTAL FREE ENERGY PREDICTED BY IDOCK:   -4.25 KCAL/MOL
REMARK 923 INTER-LIGAND FREE ENERGY PREDICTED BY IDOCK:   -3.50 KCAL/MOL
REMARK 924 INTRA-LIGAND FREE ENERGY PREDICTED BY IDOCK:   -0.75 KCAL/MOL
REMARK 927      BINDING AFFINITY PREDICTED BY RF-SCORE:    0.00 PKD
ROOT
HETATM    1  C   UNL     1      -8.102   8.962  71.096  1.00  0.00    -0.201 C  
HETATM    2  C   UNL     1      -9.551   8.451  71.026  1.00  0.00    -0.212 C  
HETATM    3  C   UNL     1      -9.790   7.526  69.809  1.00  0.00    -0.180 C  
HETATM    4  C   UNL     1     -10.470   9.700  70.972  1.00  0.00    -0.257 C  
ENDROOT
BRANCH   4   5
HETATM    5  N   UNL     1     -11.924   9.461  70.933  1.00  0.00    -0.291 NA 
HETATM    6  C   UNL     1     -12.631  10.706  71.264  1.00  0.00    -0.427 C  
HETATM    7  C   UNL     1     -12.330   8.405  71.864  1.00  0.00    -0.347 C  
ENDBRANCH   4   5
BRANCH   3   8
HETATM    8  N   UNL     1      -8.958   6.294  69.872  1.00  0.00    -0.140 NA 
HETATM    9  C   UNL     1      -9.105   5.508  71.035  1.00  0.00    -0.144 A  
HETATM   10  C   UNL     1     -10.356   4.981  71.397  1.00  0.00    -0.251 A  
HETATM   11  C   UNL     1     -10.495   4.141  72.502  1.00  0.00    -0.205 A  
HETATM   12  C   UNL     1      -9.386   3.817  73.275  1.00  0.00    -0.121 A  
HETATM   13  C   UNL     1      -8.136   4.332  72.938  1.00  0.00    -0.090 A  
HETATM   14  C   UNL     1      -7.990   5.169  71.822  1.00  0.00    -0.111 A  
HETATM   15  C   UNL     1      -6.639   5.705  71.444  1.00  0.00    -0.045 C  
HETATM   16  C   UNL     1      -6.138   5.080  70.148  1.00  0.00    -0.021 C  
HETATM   17  C   UNL     1      -6.894   5.341  68.858  1.00  0.00    -0.055 A  
HETATM   18  C   UNL     1      -6.210   4.945  67.683  1.00  0.00    -0.039 A  
HETATM   19  C   UNL     1      -6.768   5.107  66.420  1.00  0.00    -0.057 A  
HETATM   20  C   UNL     1      -8.032   5.658  66.305  1.00  0.00    -0.102 A  
HETATM   21  C   UNL     1      -8.724   6.050  67.454  1.00  0.00    -0.104 A  
HETATM   22  C   UNL     1      -8.181   5.918  68.753  1.00  0.00    -0.103 A  
ENDBRANCH   3   8
TORSDOF 2
ENDMDL
MODEL      103
REMARK 921   NORMALIZED FREE ENERGY PREDICTED BY IDOCK:   -2.99 KCAL/MOL
REMARK 922        TOTAL FREE ENERGY PREDICTED BY IDOCK:   -4.25 KCAL/MOL
REMARK 923 INTER-LIGAND FREE ENERGY PREDICTED BY IDOCK:   -3.32 KCAL/MOL
REMARK 924 INTRA-LIGAND FREE ENERGY PREDICTED BY IDOCK:   -0.93 KCAL/MOL
REMARK 927      BINDING AFFINITY PREDICTED BY RF-SCORE:    0.00 PKD
ROOT
HETATM    1  C   UNL     1      -8.828   7.643  65.745  1.00  0.00    -0.134 C  
HETATM    2  C   UNL     1      -8.774   6.317  66.520  1.00  0.00    -0.131 C  
HETATM    3  C   UNL     1      -7.795   6.374  67.716  1.00  0.00    -0.104 C  
HETATM    4  C   UNL     1      -8.361   5.215  65.508  1.00  0.00    -0.126 C  
ENDROOT
BRANCH   4   5
HETATM    5  N   UNL     1      -8.272   3.836  66.017  1.00  0.00    -0.100 NA 
HETATM    6  C   UNL     1      -7.936   2.929  64.911  1.00  0.00    -0.082 C  
HETATM    7  C   UNL     1      -9.524   3.402  66.643  1.00  0.00    -0.127 C  
ENDBRANCH   4   5
BRANCH   3   8
HETATM    8  N   UNL     1      -8.206   7.386  68.727  1.00  0.00    -0.128 NA 
HETATM    9  C   UNL     1      -9.311   7.038  69.534  1.00  0.00    -0.148 A  
HETATM   10  C   UNL     1      -9.285   5.885  70.335  1.00  0.00    -0.174 A  
HETATM   11  C   UNL     1     -10.340   5.575  71.192  1.00  0.00    -0.300 A  
HETATM   12  C   UNL     1     -11.450   6.410  71.261  1.00  0.00    -0.371 A  
HETATM   13  C   UNL     1     -11.500   7.558  70.473  1.00  0.00    -0.259 A  
HETATM   14  C   UNL     1     -10.437   7.877  69.616  1.00  0.00    -0.226 A  
HETATM   15  C   UNL     1     -10.478   9.127  68.784  1.00  0.00    -0.236 C  
HETATM   16  C   UNL     1      -9.459  10.150  69.269  1.00  0.00    -0.231 C  
HETATM   17  C   UNL     1      -7.980   9.824  69.178  1.00  0.00    -0.104 A  
HETATM   18  C   UNL     1      -7.117  10.926  69.399  1.00  0.00    -0.131 A  
HETATM   19  C   UNL     1      -5.734  10.793  69.359  1.00  0.00    -0.038 A  
HETATM   20  C   UNL     1      -5.180   9.551  69.109  1.00  0.00    -0.036 A  
HETATM   21  C   UNL     1      -6.016   8.451  68.894  1.00  0.00    -0.043 A  
HETATM   22  C   UNL     1      -7.425   8.550  68.908  1.00  0.00    -0.091 A  
ENDBRANCH   3   8
TORSDOF 2
ENDMDL
MODEL      104
REMARK 921   NORMALIZED FREE ENERGY PREDICTED BY IDOCK:   -2.97 KCAL/MOL
REMARK 922        TOTAL FREE ENERGY PREDICTED BY IDOCK:   -4.23 KCAL/MOL
REMARK 923 INTER-LIGAND FREE ENERGY PREDICTED BY IDOCK:   -4.75 KCAL/MOL
REMARK 924 INTRA-LIGAND FREE ENERGY PREDICTED BY IDOCK:    0.52 KCAL/MOL
REMARK 927      BINDING AFFINITY PREDICTED BY RF-SCORE:    0.00 PKD
ROOT
HETATM    1  C   UNL     1      -9.087   9.177  65.251  1.00  0.00    -0.252 C  
HETATM    2  C   UNL     1      -9.622  10.380  66.046  1.00  0.00    -0.251 C  
HETATM    3  C   UNL     1     -10.405   9.949  67.308  1.00  0.00    -0.245 C  
HETATM    4  C   UNL     1     -10.520  11.199  65.080  1.00  0.00    -0.277 C  
ENDROOT
BRANCH   4   5
HETATM    5  N   UNL     1     -11.127  12.432  65.613  1.00  0.00    -0.295 NA 
HETATM    6  C   UNL     1     -12.392  12.692  64.915  1.00  0.00    -0.498 C  
HETATM    7  C   UNL     1     -10.238  13.588  65.464  1.00  0.00    -0.295 C  
ENDBRANCH   4   5
BRANCH   3   8
HETATM    8  N   UNL     1      -9.546   9.211  68.274  1.00  0.00    -0.146 NA 
HETATM    9  C   UNL     1      -9.954   7.896  68.584  1.00  0.00    -0.191 A  
HETATM   10  C   UNL     1     -10.087   6.925  67.579  1.00  0.00    -0.222 A  
HETATM   11  C   UNL     1     -10.416   5.605  67.886  1.00  0.00    -0.274 A  
HETATM   12  C   UNL     1     -10.629   5.230  69.208  1.00  0.00    -0.188 A  
HETATM   13  C   UNL     1     -10.507   6.177  70.222  1.00  0.00    -0.288 A  
HETATM   14  C   UNL     1     -10.167   7.504  69.918  1.00  0.00    -0.210 A  
HETATM   15  C   UNL     1     -10.012   8.520  71.012  1.00  0.00    -0.255 C  
HETATM   16  C   UNL     1      -8.556   8.936  71.181  1.00  0.00    -0.263 C  
HETATM   17  C   UNL     1      -7.858   9.663  70.046  1.00  0.00    -0.173 A  
HETATM   18  C   UNL     1      -6.610  10.237  70.394  1.00  0.00    -0.126 A  
HETATM   19  C   UNL     1      -5.839  10.930  69.467  1.00  0.00    -0.045 A  
HETATM   20  C   UNL     1      -6.293  11.055  68.167  1.00  0.00    -0.056 A  
HETATM   21  C   UNL     1      -7.520  10.490  67.805  1.00  0.00    -0.087 A  
HETATM   22  C   UNL     1      -8.339   9.795  68.723  1.00  0.00    -0.113 A  
ENDBRANCH   3   8
TORSDOF 2
ENDMDL
MODEL      105
REMARK 921   NORMALIZED FREE ENERGY PREDICTED BY IDOCK:   -2.95 KCAL/MOL
REMARK 922        TOTAL FREE ENERGY PREDICTED BY IDOCK:   -4.21 KCAL/MOL
REMARK 923 INTER-LIGAND FREE ENERGY PREDICTED BY IDOCK:   -3.24 KCAL/MOL
REMARK 924 INTRA-LIGAND FREE ENERGY PREDICTED BY IDOCK:   -0.96 KCAL/MOL
REMARK 927      BINDING AFFINITY PREDICTED BY RF-SCORE:    0.00 PKD
ROOT
HETATM    1  C   UNL     1     -10.661   8.336  67.792  1.00  0.00    -0.236 C  
HETATM    2  C   UNL     1     -10.281   9.628  67.050  1.00  0.00    -0.308 C  
HETATM    3  C   UNL     1      -8.795  10.007  67.252  1.00  0.00    -0.135 C  
HETATM    4  C   UNL     1     -11.223  10.746  67.573  1.00  0.00    -0.274 C  
ENDROOT
BRANCH   4   5
HETATM    5  N   UNL     1     -11.069  12.085  66.979  1.00  0.00    -0.280 NA 
HETATM    6  C   UNL     1     -11.831  13.059  67.770  1.00  0.00    -0.347 C  
HETATM    7  C   UNL     1     -11.525  12.121  65.587  1.00  0.00    -0.355 C  
ENDBRANCH   4   5
BRANCH   3   8
HETATM    8  N   UNL     1      -7.875   8.974  66.705  1.00  0.00    -0.099 NA 
HETATM    9  C   UNL     1      -7.787   8.909  65.298  1.00  0.00    -0.104 A  
HETATM   10  C   UNL     1      -7.381  10.024  64.547  1.00  0.00    -0.142 A  
HETATM   11  C   UNL     1      -7.218   9.945  63.164  1.00  0.00    -0.128 A  
HETATM   12  C   UNL     1      -7.467   8.749  62.500  1.00  0.00    -0.102 A  
HETATM   13  C   UNL     1      -7.876   7.631  63.223  1.00  0.00    -0.134 A  
HETATM   14  C   UNL     1      -8.032   7.703  64.615  1.00  0.00    -0.136 A  
HETATM   15  C   UNL     1      -8.448   6.492  65.399  1.00  0.00    -0.119 C  
HETATM   16  C   UNL     1      -7.309   5.975  66.268  1.00  0.00    -0.081 C  
HETATM   17  C   UNL     1      -6.782   6.846  67.394  1.00  0.00    -0.067 A  
HETATM   18  C   UNL     1      -5.920   6.181  68.300  1.00  0.00    -0.016 A  
HETATM   19  C   UNL     1      -5.346   6.840  69.382  1.00  0.00    -0.014 A  
HETATM   20  C   UNL     1      -5.610   8.184  69.574  1.00  0.00    -0.026 A  
HETATM   21  C   UNL     1      -6.453   8.857  68.686  1.00  0.00    -0.054 A  
HETATM   22  C   UNL     1      -7.070   8.218  67.587  1.00  0.00    -0.083 A  
ENDBRANCH   3   8
TORSDOF 2
ENDMDL
MODEL      106
REMARK 921   NORMALIZED FREE ENERGY PREDICTED BY IDOCK:   -2.95 KCAL/MOL
REMARK 922        TOTAL FREE ENERGY PREDICTED BY IDOCK:   -4.20 KCAL/MOL
REMARK 923 INTER-LIGAND FREE ENERGY PREDICTED BY IDOCK:   -4.66 KCAL/MOL
REMARK 924 INTRA-LIGAND FREE ENERGY PREDICTED BY IDOCK:    0.47 KCAL/MOL
REMARK 927      BINDING AFFINITY PREDICTED BY RF-SCORE:    0.00 PKD
ROOT
HETATM    1  C   UNL     1     -12.267  11.619  68.937  1.00  0.00    -0.112 C  
HETATM    2  C   UNL     1     -11.193  12.412  68.173  1.00  0.00    -0.313 C  
HETATM    3  C   UNL     1      -9.772  12.167  68.734  1.00  0.00     0.012 C  
HETATM    4  C   UNL     1     -11.584  13.911  68.265  1.00  0.00    -0.337 C  
ENDROOT
BRANCH   4   5
HETATM    5  N   UNL     1     -10.711  14.874  67.572  1.00  0.00    -0.271 NA 
HETATM    6  C   UNL     1     -10.982  16.227  68.078  1.00  0.00    -0.328 C  
HETATM    7  C   UNL     1     -10.908  14.846  66.120  1.00  0.00    -0.327 C  
ENDBRANCH   4   5
BRANCH   3   8
HETATM    8  N   UNL     1      -9.356  10.745  68.602  1.00  0.00    -0.177 NA 
HETATM    9  C   UNL     1      -9.305  10.002  69.801  1.00  0.00    -0.202 A  
HETATM   10  C   UNL     1     -10.445   9.853  70.607  1.00  0.00    -0.301 A  
HETATM   11  C   UNL     1     -10.422   9.058  71.753  1.00  0.00    -0.418 A  
HETATM   12  C   UNL     1      -9.253   8.403  72.123  1.00  0.00    -0.313 A  
HETATM   13  C   UNL     1      -8.108   8.540  71.342  1.00  0.00    -0.176 A  
HETATM   14  C   UNL     1      -8.129   9.331  70.183  1.00  0.00    -0.152 A  
HETATM   15  C   UNL     1      -6.903   9.460  69.327  1.00  0.00    -0.049 C  
HETATM   16  C   UNL     1      -7.084   8.753  67.989  1.00  0.00    -0.079 C  
HETATM   17  C   UNL     1      -8.135   9.261  67.019  1.00  0.00    -0.112 A  
HETATM   18  C   UNL     1      -8.046   8.716  65.714  1.00  0.00    -0.114 A  
HETATM   19  C   UNL     1      -8.939   9.071  64.710  1.00  0.00    -0.146 A  
HETATM   20  C   UNL     1      -9.952   9.970  64.991  1.00  0.00    -0.320 A  
HETATM   21  C   UNL     1     -10.059  10.513  66.275  1.00  0.00    -0.290 A  
HETATM   22  C   UNL     1      -9.159  10.191  67.316  1.00  0.00    -0.138 A  
ENDBRANCH   3   8
TORSDOF 2
ENDMDL
MODEL      107
REMARK 921   NORMALIZED FREE ENERGY PREDICTED BY IDOCK:   -2.92 KCAL/MOL
REMARK 922        TOTAL FREE ENERGY PREDICTED BY IDOCK:   -4.17 KCAL/MOL
REMARK 923 INTER-LIGAND FREE ENERGY PREDICTED BY IDOCK:   -3.40 KCAL/MOL
REMARK 924 INTRA-LIGAND FREE ENERGY PREDICTED BY IDOCK:   -0.77 KCAL/MOL
REMARK 927      BINDING AFFINITY PREDICTED BY RF-SCORE:    0.00 PKD
ROOT
HETATM    1  C   UNL     1     -10.675   6.487  68.311  1.00  0.00    -0.341 C  
HETATM    2  C   UNL     1     -10.805   6.560  69.841  1.00  0.00    -0.341 C  
HETATM    3  C   UNL     1     -10.398   5.236  70.529  1.00  0.00    -0.266 C  
HETATM    4  C   UNL     1     -12.280   6.928  70.155  1.00  0.00     0.057 C  
ENDROOT
BRANCH   4   5
HETATM    5  N   UNL     1     -12.643   7.087  71.574  1.00  0.00    -0.377 NA 
HETATM    6  C   UNL     1     -14.080   7.372  71.679  1.00  0.00    -0.421 C  
HETATM    7  C   UNL     1     -11.883   8.164  72.216  1.00  0.00    -0.382 C  
ENDBRANCH   4   5
BRANCH   3   8
HETATM    8  N   UNL     1      -8.970   4.896  70.288  1.00  0.00    -0.105 NA 
HETATM    9  C   UNL     1      -8.056   5.335  71.269  1.00  0.00    -0.114 A  
HETATM   10  C   UNL     1      -8.183   4.929  72.607  1.00  0.00    -0.115 A  
HETATM   11  C   UNL     1      -7.241   5.296  73.568  1.00  0.00    -0.086 A  
HETATM   12  C   UNL     1      -6.154   6.087  73.211  1.00  0.00    -0.057 A  
HETATM   13  C   UNL     1      -6.009   6.505  71.890  1.00  0.00    -0.038 A  
HETATM   14  C   UNL     1      -6.949   6.130  70.919  1.00  0.00    -0.068 A  
HETATM   15  C   UNL     1      -6.781   6.560  69.491  1.00  0.00    -0.053 C  
HETATM   16  C   UNL     1      -6.440   5.377  68.592  1.00  0.00    -0.039 C  
HETATM   17  C   UNL     1      -7.458   4.265  68.413  1.00  0.00    -0.064 A  
HETATM   18  C   UNL     1      -7.162   3.359  67.366  1.00  0.00    -0.059 A  
HETATM   19  C   UNL     1      -7.989   2.279  67.076  1.00  0.00    -0.071 A  
HETATM   20  C   UNL     1      -9.125   2.074  67.838  1.00  0.00    -0.210 A  
HETATM   21  C   UNL     1      -9.430   2.955  68.879  1.00  0.00    -0.174 A  
HETATM   22  C   UNL     1      -8.624   4.074  69.191  1.00  0.00    -0.079 A  
ENDBRANCH   3   8
TORSDOF 2
ENDMDL
MODEL      108
REMARK 921   NORMALIZED FREE ENERGY PREDICTED BY IDOCK:   -2.90 KCAL/MOL
REMARK 922        TOTAL FREE ENERGY PREDICTED BY IDOCK:   -4.15 KCAL/MOL
REMARK 923 INTER-LIGAND FREE ENERGY PREDICTED BY IDOCK:   -4.58 KCAL/MOL
REMARK 924 INTRA-LIGAND FREE ENERGY PREDICTED BY IDOCK:    0.44 KCAL/MOL
REMARK 927      BINDING AFFINITY PREDICTED BY RF-SCORE:    0.00 PKD
ROOT
HETATM    1  C   UNL     1      -6.692  10.638  65.963  1.00  0.00    -0.128 C  
HETATM    2  C   UNL     1      -7.879   9.700  66.236  1.00  0.00    -0.101 C  
HETATM    3  C   UNL     1      -8.788  10.219  67.375  1.00  0.00    -0.131 C  
HETATM    4  C   UNL     1      -7.287   8.307  66.579  1.00  0.00    -0.081 C  
ENDROOT
BRANCH   4   5
HETATM    5  N   UNL     1      -8.245   7.221  66.851  1.00  0.00    -0.115 NA 
HETATM    6  C   UNL     1      -7.517   6.041  67.337  1.00  0.00    -0.081 C  
HETATM    7  C   UNL     1      -9.018   6.862  65.659  1.00  0.00     0.056 C  
ENDBRANCH   4   5
BRANCH   3   8
HETATM    8  N   UNL     1      -9.411  11.528  67.041  1.00  0.00    -0.180 NA 
HETATM    9  C   UNL     1      -8.936  12.642  67.767  1.00  0.00    -0.189 A  
HETATM   10  C   UNL     1      -7.578  12.999  67.733  1.00  0.00    -0.152 A  
HETATM   11  C   UNL     1      -7.114  14.141  68.385  1.00  0.00    -0.104 A  
HETATM   12  C   UNL     1      -7.999  14.947  69.093  1.00  0.00    -0.165 A  
HETATM   13  C   UNL     1      -9.349  14.611  69.144  1.00  0.00    -0.051 A  
HETATM   14  C   UNL     1      -9.822  13.467  68.482  1.00  0.00    -0.189 A  
HETATM   15  C   UNL     1     -11.281  13.117  68.515  1.00  0.00    -0.307 C  
HETATM   16  C   UNL     1     -11.929  13.305  67.149  1.00  0.00    -0.400 C  
HETATM   17  C   UNL     1     -11.477  12.436  65.990  1.00  0.00    -0.431 A  
HETATM   18  C   UNL     1     -12.311  12.498  64.846  1.00  0.00    -0.539 A  
HETATM   19  C   UNL     1     -12.033  11.769  63.696  1.00  0.00    -0.490 A  
HETATM   20  C   UNL     1     -10.905  10.970  63.658  1.00  0.00    -0.179 A  
HETATM   21  C   UNL     1     -10.068  10.900  64.775  1.00  0.00    -0.383 A  
HETATM   22  C   UNL     1     -10.328  11.612  65.968  1.00  0.00    -0.243 A  
ENDBRANCH   3   8
TORSDOF 2
ENDMDL
MODEL      109
REMARK 921   NORMALIZED FREE ENERGY PREDICTED BY IDOCK:   -2.84 KCAL/MOL
REMARK 922        TOTAL FREE ENERGY PREDICTED BY IDOCK:   -4.08 KCAL/MOL
REMARK 923 INTER-LIGAND FREE ENERGY PREDICTED BY IDOCK:   -4.51 KCAL/MOL
REMARK 924 INTRA-LIGAND FREE ENERGY PREDICTED BY IDOCK:    0.42 KCAL/MOL
REMARK 927      BINDING AFFINITY PREDICTED BY RF-SCORE:    0.00 PKD
ROOT
HETATM    1  C   UNL     1      -9.785  15.809  70.564  1.00  0.00     0.822 C  
HETATM    2  C   UNL     1     -11.105  15.172  70.097  1.00  0.00    -0.298 C  
HETATM    3  C   UNL     1     -11.780  15.982  68.965  1.00  0.00    -0.318 C  
HETATM    4  C   UNL     1     -12.026  15.070  71.342  1.00  0.00    -0.341 C  
ENDROOT
BRANCH   4   5
HETATM    5  N   UNL     1     -13.351  14.455  71.147  1.00  0.00    -0.351 NA 
HETATM    6  C   UNL     1     -14.311  15.063  72.078  1.00  0.00    -0.573 C  
HETATM    7  C   UNL     1     -13.317  13.005  71.355  1.00  0.00    -0.101 C  
ENDBRANCH   4   5
BRANCH   3   8
HETATM    8  N   UNL     1     -10.936  16.043  67.741  1.00  0.00    -0.326 NA 
HETATM    9  C   UNL     1     -10.397  17.309  67.424  1.00  0.00    -0.338 A  
HETATM   10  C   UNL     1      -9.567  17.988  68.330  1.00  0.00    -0.338 A  
HETATM   11  C   UNL     1      -8.970  19.203  67.994  1.00  0.00    -0.356 A  
HETATM   12  C   UNL     1      -9.199  19.770  66.745  1.00  0.00    -0.457 A  
HETATM   13  C   UNL     1     -10.022  19.116  65.831  1.00  0.00    -0.245 A  
HETATM   14  C   UNL     1     -10.617  17.890  66.162  1.00  0.00    -0.243 A  
HETATM   15  C   UNL     1     -11.485  17.173  65.169  1.00  0.00     0.886 C  
HETATM   16  C   UNL     1     -10.816  15.900  64.663  1.00  0.00    -0.234 C  
HETATM   17  C   UNL     1     -10.544  14.769  65.638  1.00  0.00    -0.353 A  
HETATM   18  C   UNL     1     -10.170  13.545  65.031  1.00  0.00    -0.345 A  
HETATM   19  C   UNL     1      -9.879  12.413  65.784  1.00  0.00    -0.253 A  
HETATM   20  C   UNL     1      -9.941  12.484  67.164  1.00  0.00    -0.217 A  
HETATM   21  C   UNL     1     -10.302  13.685  67.780  1.00  0.00    -0.241 A  
HETATM   22  C   UNL     1     -10.624  14.851  67.048  1.00  0.00    -0.289 A  
ENDBRANCH   3   8
TORSDOF 2
ENDMDL
MODEL      110
REMARK 921   NORMALIZED FREE ENERGY PREDICTED BY IDOCK:   -2.84 KCAL/MOL
REMARK 922        TOTAL FREE ENERGY PREDICTED BY IDOCK:   -4.08 KCAL/MOL
REMARK 923 INTER-LIGAND FREE ENERGY PREDICTED BY IDOCK:   -3.10 KCAL/MOL
REMARK 924 INTRA-LIGAND FREE ENERGY PREDICTED BY IDOCK:   -0.97 KCAL/MOL
REMARK 927      BINDING AFFINITY PREDICTED BY RF-SCORE:    0.00 PKD
ROOT
HETATM    1  C   UNL     1     -10.814   7.062  67.587  1.00  0.00    -0.312 C  
HETATM    2  C   UNL     1      -9.964   7.870  66.593  1.00  0.00    -0.316 C  
HETATM    3  C   UNL     1      -8.451   7.583  66.745  1.00  0.00    -0.124 C  
HETATM    4  C   UNL     1     -10.279   9.369  66.839  1.00  0.00    -0.248 C  
ENDROOT
BRANCH   4   5
HETATM    5  N   UNL     1      -9.599  10.348  65.973  1.00  0.00    -0.190 NA 
HETATM    6  C   UNL     1      -8.929  11.354  66.808  1.00  0.00    -0.176 C  
HETATM    7  C   UNL     1     -10.533  11.014  65.061  1.00  0.00    -0.277 C  
ENDBRANCH   4   5
BRANCH   3   8
HETATM    8  N   UNL     1      -8.120   6.162  66.456  1.00  0.00    -0.108 NA 
HETATM    9  C   UNL     1      -8.334   5.735  65.128  1.00  0.00    -0.146 A  
HETATM   10  C   UNL     1      -7.683   6.363  64.054  1.00  0.00    -0.104 A  
HETATM   11  C   UNL     1      -7.830   5.899  62.747  1.00  0.00    -0.093 A  
HETATM   12  C   UNL     1      -8.640   4.799  62.485  1.00  0.00    -0.116 A  
HETATM   13  C   UNL     1      -9.299   4.163  63.534  1.00  0.00    -0.140 A  
HETATM   14  C   UNL     1      -9.147   4.621  64.851  1.00  0.00    -0.154 A  
HETATM   15  C   UNL     1      -9.838   3.920  65.985  1.00  0.00    -0.133 C  
HETATM   16  C   UNL     1      -8.840   3.193  66.878  1.00  0.00    -0.156 C  
HETATM   17  C   UNL     1      -7.815   4.001  67.654  1.00  0.00    -0.090 A  
HETATM   18  C   UNL     1      -7.117   3.270  68.647  1.00  0.00    -0.049 A  
HETATM   19  C   UNL     1      -6.140   3.860  69.440  1.00  0.00    -0.027 A  
HETATM   20  C   UNL     1      -5.827   5.194  69.248  1.00  0.00    -0.016 A  
HETATM   21  C   UNL     1      -6.501   5.929  68.269  1.00  0.00    -0.046 A  
HETATM   22  C   UNL     1      -7.514   5.369  67.457  1.00  0.00    -0.084 A  
ENDBRANCH   3   8
TORSDOF 2
ENDMDL
MODEL      111
REMARK 921   NORMALIZED FREE ENERGY PREDICTED BY IDOCK:   -2.82 KCAL/MOL
REMARK 922        TOTAL FREE ENERGY PREDICTED BY IDOCK:   -4.06 KCAL/MOL
REMARK 923 INTER-LIGAND FREE ENERGY PREDICTED BY IDOCK:   -3.12 KCAL/MOL
REMARK 924 INTRA-LIGAND FREE ENERGY PREDICTED BY IDOCK:   -0.94 KCAL/MOL
REMARK 927      BINDING AFFINITY PREDICTED BY RF-SCORE:    0.00 PKD
ROOT
HETATM    1  C   UNL     1      -6.767  10.860  66.916  1.00  0.00    -0.106 C  
HETATM    2  C   UNL     1      -8.300  10.812  67.013  1.00  0.00    -0.129 C  
HETATM    3  C   UNL     1      -8.931   9.915  65.921  1.00  0.00    -0.152 C  
HETATM    4  C   UNL     1      -8.809  12.274  66.902  1.00  0.00    -0.207 C  
ENDROOT
BRANCH   4   5
HETATM    5  N   UNL     1     -10.263  12.488  67.001  1.00  0.00    -0.221 NA 
HETATM    6  C   UNL     1     -10.548  13.928  66.953  1.00  0.00    -0.280 C  
HETATM    7  C   UNL     1     -10.816  11.921  68.234  1.00  0.00    -0.224 C  
ENDBRANCH   4   5
BRANCH   3   8
HETATM    8  N   UNL     1      -8.500   8.496  66.046  1.00  0.00    -0.132 NA 
HETATM    9  C   UNL     1      -8.967   7.808  67.187  1.00  0.00    -0.126 A  
HETATM   10  C   UNL     1     -10.342   7.672  67.435  1.00  0.00    -0.347 A  
HETATM   11  C   UNL     1     -10.812   6.928  68.517  1.00  0.00    -0.234 A  
HETATM   12  C   UNL     1      -9.913   6.311  69.381  1.00  0.00    -0.192 A  
HETATM   13  C   UNL     1      -8.544   6.436  69.157  1.00  0.00    -0.125 A  
HETATM   14  C   UNL     1      -8.068   7.175  68.065  1.00  0.00    -0.120 A  
HETATM   15  C   UNL     1      -6.593   7.290  67.808  1.00  0.00    -0.053 C  
HETATM   16  C   UNL     1      -6.186   6.523  66.555  1.00  0.00    -0.040 C  
HETATM   17  C   UNL     1      -6.722   6.969  65.207  1.00  0.00    -0.051 A  
HETATM   18  C   UNL     1      -6.085   6.371  64.092  1.00  0.00    -0.026 A  
HETATM   19  C   UNL     1      -6.464   6.665  62.788  1.00  0.00    -0.039 A  
HETATM   20  C   UNL     1      -7.499   7.556  62.568  1.00  0.00    -0.100 A  
HETATM   21  C   UNL     1      -8.142   8.152  63.656  1.00  0.00    -0.115 A  
HETATM   22  C   UNL     1      -7.773   7.892  64.995  1.00  0.00    -0.106 A  
ENDBRANCH   3   8
TORSDOF 2
ENDMDL
MODEL      112
REMARK 921   NORMALIZED FREE ENERGY PREDICTED BY IDOCK:   -2.81 KCAL/MOL
REMARK 922        TOTAL FREE ENERGY PREDICTED BY IDOCK:   -4.04 KCAL/MOL
REMARK 923 INTER-LIGAND FREE ENERGY PREDICTED BY IDOCK:   -3.08 KCAL/MOL
REMARK 924 INTRA-LIGAND FREE ENERGY PREDICTED BY IDOCK:   -0.96 KCAL/MOL
REMARK 927      BINDING AFFINITY PREDICTED BY RF-SCORE:    0.00 PKD
ROOT
HETATM    1  C   UNL     1     -11.101   6.031  69.579  1.00  0.00    -0.468 C  
HETATM    2  C   UNL     1      -9.958   6.384  70.545  1.00  0.00    -0.214 C  
HETATM    3  C   UNL     1      -8.712   5.492  70.333  1.00  0.00    -0.131 C  
HETATM    4  C   UNL     1     -10.518   6.234  71.985  1.00  0.00    -0.207 C  
ENDROOT
BRANCH   4   5
HETATM    5  N   UNL     1      -9.605   6.553  73.096  1.00  0.00    -0.149 NA 
HETATM    6  C   UNL     1     -10.240   6.185  74.369  1.00  0.00    -0.316 C  
HETATM    7  C   UNL     1      -9.250   7.975  73.120  1.00  0.00    -0.279 C  
ENDBRANCH   4   5
BRANCH   3   8
HETATM    8  N   UNL     1      -8.125   5.666  68.976  1.00  0.00    -0.096 NA 
HETATM    9  C   UNL     1      -7.575   6.935  68.699  1.00  0.00    -0.105 A  
HETATM   10  C   UNL     1      -6.538   7.460  69.486  1.00  0.00    -0.037 A  
HETATM   11  C   UNL     1      -5.937   8.680  69.172  1.00  0.00    -0.042 A  
HETATM   12  C   UNL     1      -6.370   9.406  68.068  1.00  0.00    -0.057 A  
HETATM   13  C   UNL     1      -7.401   8.907  67.275  1.00  0.00    -0.080 A  
HETATM   14  C   UNL     1      -8.001   7.677  67.581  1.00  0.00    -0.121 A  
HETATM   15  C   UNL     1      -9.096   7.126  66.714  1.00  0.00    -0.169 C  
HETATM   16  C   UNL     1      -8.628   5.898  65.943  1.00  0.00    -0.145 C  
HETATM   17  C   UNL     1      -8.246   4.644  66.709  1.00  0.00    -0.106 A  
HETATM   18  C   UNL     1      -8.085   3.488  65.906  1.00  0.00    -0.093 A  
HETATM   19  C   UNL     1      -7.728   2.261  66.452  1.00  0.00    -0.071 A  
HETATM   20  C   UNL     1      -7.510   2.164  67.815  1.00  0.00    -0.055 A  
HETATM   21  C   UNL     1      -7.659   3.295  68.621  1.00  0.00    -0.052 A  
HETATM   22  C   UNL     1      -8.039   4.555  68.106  1.00  0.00    -0.087 A  
ENDBRANCH   3   8
TORSDOF 2
ENDMDL
MODEL      113
REMARK 921   NORMALIZED FREE ENERGY PREDICTED BY IDOCK:   -2.77 KCAL/MOL
REMARK 922        TOTAL FREE ENERGY PREDICTED BY IDOCK:   -4.00 KCAL/MOL
REMARK 923 INTER-LIGAND FREE ENERGY PREDICTED BY IDOCK:   -4.43 KCAL/MOL
REMARK 924 INTRA-LIGAND FREE ENERGY PREDICTED BY IDOCK:    0.42 KCAL/MOL
REMARK 927      BINDING AFFINITY PREDICTED BY RF-SCORE:    0.00 PKD
ROOT
HETATM    1  C   UNL     1      -9.172   8.801  71.557  1.00  0.00    -0.332 C  
HETATM    2  C   UNL     1     -10.512   8.500  70.866  1.00  0.00    -0.248 C  
HETATM    3  C   UNL     1     -10.726   9.360  69.597  1.00  0.00    -0.235 C  
HETATM    4  C   UNL     1     -11.630   8.755  71.912  1.00  0.00    -0.361 C  
ENDROOT
BRANCH   4   5
HETATM    5  N   UNL     1     -13.017   8.500  71.486  1.00  0.00    -0.320 NA 
HETATM    6  C   UNL     1     -13.935   9.280  72.328  1.00  0.00    -0.369 C  
HETATM    7  C   UNL     1     -13.363   7.079  71.572  1.00  0.00    -0.294 C  
ENDBRANCH   4   5
BRANCH   3   8
HETATM    8  N   UNL     1      -9.696   9.088  68.558  1.00  0.00    -0.156 NA 
HETATM    9  C   UNL     1      -8.792  10.139  68.294  1.00  0.00    -0.124 A  
HETATM   10  C   UNL     1      -7.982  10.668  69.312  1.00  0.00    -0.139 A  
HETATM   11  C   UNL     1      -7.033  11.653  69.043  1.00  0.00    -0.111 A  
HETATM   12  C   UNL     1      -6.880  12.139  67.748  1.00  0.00    -0.106 A  
HETATM   13  C   UNL     1      -7.676  11.633  66.723  1.00  0.00    -0.116 A  
HETATM   14  C   UNL     1      -8.625  10.635  66.988  1.00  0.00    -0.128 A  
HETATM   15  C   UNL     1      -9.466  10.071  65.879  1.00  0.00    -0.260 C  
HETATM   16  C   UNL     1      -9.084   8.629  65.571  1.00  0.00    -0.190 C  
HETATM   17  C   UNL     1      -9.299   7.563  66.631  1.00  0.00    -0.222 A  
HETATM   18  C   UNL     1      -9.166   6.232  66.164  1.00  0.00    -0.143 A  
HETATM   19  C   UNL     1      -9.324   5.140  67.009  1.00  0.00    -0.127 A  
HETATM   20  C   UNL     1      -9.604   5.355  68.347  1.00  0.00    -0.166 A  
HETATM   21  C   UNL     1      -9.733   6.661  68.826  1.00  0.00    -0.130 A  
HETATM   22  C   UNL     1      -9.598   7.795  67.994  1.00  0.00    -0.150 A  
ENDBRANCH   3   8
TORSDOF 2
ENDMDL
MODEL      114
REMARK 921   NORMALIZED FREE ENERGY PREDICTED BY IDOCK:   -2.76 KCAL/MOL
REMARK 922        TOTAL FREE ENERGY PREDICTED BY IDOCK:   -3.99 KCAL/MOL
REMARK 923 INTER-LIGAND FREE ENERGY PREDICTED BY IDOCK:   -3.12 KCAL/MOL
REMARK 924 INTRA-LIGAND FREE ENERGY PREDICTED BY IDOCK:   -0.87 KCAL/MOL
REMARK 927      BINDING AFFINITY PREDICTED BY RF-SCORE:    0.00 PKD
ROOT
HETATM    1  C   UNL     1     -11.082  16.787  68.799  1.00  0.00    -0.220 C  
HETATM    2  C   UNL     1     -11.045  15.534  69.689  1.00  0.00    -0.280 C  
HETATM    3  C   UNL     1     -11.542  14.271  68.947  1.00  0.00    -0.305 C  
HETATM    4  C   UNL     1     -11.919  15.835  70.935  1.00  0.00    -0.413 C  
ENDROOT
BRANCH   4   5
HETATM    5  N   UNL     1     -12.011  14.781  71.960  1.00  0.00    -0.331 NA 
HETATM    6  C   UNL     1     -13.365  14.211  71.951  1.00  0.00    -0.393 C  
HETATM    7  C   UNL     1     -11.704  15.292  73.299  1.00  0.00    -0.252 C  
ENDBRANCH   4   5
BRANCH   3   8
HETATM    8  N   UNL     1     -10.681  13.932  67.781  1.00  0.00    -0.244 NA 
HETATM    9  C   UNL     1      -9.339  13.610  68.078  1.00  0.00    -0.208 A  
HETATM   10  C   UNL     1      -9.025  12.544  68.935  1.00  0.00     0.312 A  
HETATM   11  C   UNL     1      -7.702  12.171  69.172  1.00  0.00     0.230 A  
HETATM   12  C   UNL     1      -6.663  12.865  68.562  1.00  0.00    -0.091 A  
HETATM   13  C   UNL     1      -6.950  13.929  67.711  1.00  0.00    -0.181 A  
HETATM   14  C   UNL     1      -8.280  14.301  67.463  1.00  0.00    -0.201 A  
HETATM   15  C   UNL     1      -8.592  15.433  66.526  1.00  0.00    -0.294 C  
HETATM   16  C   UNL     1      -9.242  14.928  65.244  1.00  0.00     0.793 C  
HETATM   17  C   UNL     1     -10.605  14.264  65.316  1.00  0.00    -0.396 A  
HETATM   18  C   UNL     1     -11.235  14.075  64.061  1.00  0.00     0.038 A  
HETATM   19  C   UNL     1     -12.484  13.473  63.952  1.00  0.00    -0.295 A  
HETATM   20  C   UNL     1     -13.126  13.035  65.096  1.00  0.00     0.073 A  
HETATM   21  C   UNL     1     -12.516  13.209  66.342  1.00  0.00    -0.148 A  
HETATM   22  C   UNL     1     -11.257  13.832  66.494  1.00  0.00    -0.312 A  
ENDBRANCH   3   8
TORSDOF 2
ENDMDL
MODEL      115
REMARK 921   NORMALIZED FREE ENERGY PREDICTED BY IDOCK:   -2.74 KCAL/MOL
REMARK 922        TOTAL FREE ENERGY PREDICTED BY IDOCK:   -3.96 KCAL/MOL
REMARK 923 INTER-LIGAND FREE ENERGY PREDICTED BY IDOCK:   -3.02 KCAL/MOL
REMARK 924 INTRA-LIGAND FREE ENERGY PREDICTED BY IDOCK:   -0.95 KCAL/MOL
REMARK 927      BINDING AFFINITY PREDICTED BY RF-SCORE:    0.00 PKD
ROOT
HETATM    1  C   UNL     1      -7.393   7.995  66.814  1.00  0.00    -0.089 C  
HETATM    2  C   UNL     1      -8.778   7.607  67.357  1.00  0.00    -0.124 C  
HETATM    3  C   UNL     1      -8.861   7.731  68.897  1.00  0.00    -0.135 C  
HETATM    4  C   UNL     1      -9.056   6.152  66.894  1.00  0.00    -0.127 C  
ENDROOT
BRANCH   4   5
HETATM    5  N   UNL     1     -10.354   5.565  67.272  1.00  0.00    -0.221 NA 
HETATM    6  C   UNL     1     -10.125   4.365  68.088  1.00  0.00     0.084 C  
HETATM    7  C   UNL     1     -11.157   5.213  66.098  1.00  0.00     0.206 C  
ENDBRANCH   4   5
BRANCH   3   8
HETATM    8  N   UNL     1      -8.654   9.130  69.357  1.00  0.00    -0.133 NA 
HETATM    9  C   UNL     1      -9.746  10.007  69.180  1.00  0.00    -0.209 A  
HETATM   10  C   UNL     1     -10.992   9.735  69.768  1.00  0.00    -0.287 A  
HETATM   11  C   UNL     1     -12.054  10.633  69.661  1.00  0.00    -0.312 A  
HETATM   12  C   UNL     1     -11.894  11.821  68.955  1.00  0.00    -0.381 A  
HETATM   13  C   UNL     1     -10.668  12.110  68.360  1.00  0.00    -0.252 A  
HETATM   14  C   UNL     1      -9.595  11.213  68.473  1.00  0.00    -0.193 A  
HETATM   15  C   UNL     1      -8.266  11.535  67.853  1.00  0.00    -0.134 C  
HETATM   16  C   UNL     1      -7.212  11.819  68.916  1.00  0.00    -0.107 C  
HETATM   17  C   UNL     1      -6.797  10.709  69.864  1.00  0.00    -0.149 A  
HETATM   18  C   UNL     1      -5.638  10.989  70.628  1.00  0.00    -0.132 A  
HETATM   19  C   UNL     1      -5.131  10.080  71.549  1.00  0.00    -0.076 A  
HETATM   20  C   UNL     1      -5.780   8.873  71.737  1.00  0.00    -0.060 A  
HETATM   21  C   UNL     1      -6.928   8.582  70.995  1.00  0.00    -0.062 A  
HETATM   22  C   UNL     1      -7.463   9.473  70.037  1.00  0.00    -0.126 A  
ENDBRANCH   3   8
TORSDOF 2
ENDMDL
MODEL      116
REMARK 921   NORMALIZED FREE ENERGY PREDICTED BY IDOCK:   -2.70 KCAL/MOL
REMARK 922        TOTAL FREE ENERGY PREDICTED BY IDOCK:   -3.93 KCAL/MOL
REMARK 923 INTER-LIGAND FREE ENERGY PREDICTED BY IDOCK:   -2.97 KCAL/MOL
REMARK 924 INTRA-LIGAND FREE ENERGY PREDICTED BY IDOCK:   -0.96 KCAL/MOL
REMARK 927      BINDING AFFINITY PREDICTED BY RF-SCORE:    0.00 PKD
ROOT
HETATM    1  C   UNL     1     -11.170   6.265  66.803  1.00  0.00    -0.098 C  
HETATM    2  C   UNL     1      -9.992   7.252  66.834  1.00  0.00    -0.302 C  
HETATM    3  C   UNL     1      -9.057   7.014  68.043  1.00  0.00    -0.127 C  
HETATM    4  C   UNL     1     -10.596   8.681  66.863  1.00  0.00    -0.200 C  
ENDROOT
BRANCH   4   5
HETATM    5  N   UNL     1      -9.649   9.809  66.863  1.00  0.00    -0.172 NA 
HETATM    6  C   UNL     1     -10.307  10.996  67.425  1.00  0.00    -0.207 C  
HETATM    7  C   UNL     1      -9.160  10.113  65.515  1.00  0.00    -0.178 C  
ENDBRANCH   4   5
BRANCH   3   8
HETATM    8  N   UNL     1      -8.421   5.669  68.002  1.00  0.00    -0.103 NA 
HETATM    9  C   UNL     1      -7.357   5.516  67.088  1.00  0.00    -0.080 A  
HETATM   10  C   UNL     1      -6.213   6.327  67.170  1.00  0.00    -0.032 A  
HETATM   11  C   UNL     1      -5.125   6.131  66.319  1.00  0.00    -0.012 A  
HETATM   12  C   UNL     1      -5.162   5.124  65.361  1.00  0.00    -0.012 A  
HETATM   13  C   UNL     1      -6.287   4.310  65.258  1.00  0.00    -0.035 A  
HETATM   14  C   UNL     1      -7.380   4.497  66.118  1.00  0.00    -0.077 A  
HETATM   15  C   UNL     1      -8.584   3.605  66.025  1.00  0.00    -0.115 C  
HETATM   16  C   UNL     1      -8.694   2.693  67.241  1.00  0.00    -0.136 C  
HETATM   17  C   UNL     1      -8.929   3.308  68.608  1.00  0.00    -0.185 A  
HETATM   18  C   UNL     1      -9.281   2.380  69.619  1.00  0.00    -0.192 A  
HETATM   19  C   UNL     1      -9.521   2.780  70.929  1.00  0.00    -0.224 A  
HETATM   20  C   UNL     1      -9.403   4.117  71.261  1.00  0.00    -0.218 A  
HETATM   21  C   UNL     1      -9.051   5.046  70.277  1.00  0.00    -0.164 A  
HETATM   22  C   UNL     1      -8.818   4.681  68.932  1.00  0.00    -0.099 A  
ENDBRANCH   3   8
TORSDOF 2
ENDMDL
MODEL      117
REMARK 921   NORMALIZED FREE ENERGY PREDICTED BY IDOCK:   -2.70 KCAL/MOL
REMARK 922        TOTAL FREE ENERGY PREDICTED BY IDOCK:   -3.92 KCAL/MOL
REMARK 923 INTER-LIGAND FREE ENERGY PREDICTED BY IDOCK:   -2.95 KCAL/MOL
REMARK 924 INTRA-LIGAND FREE ENERGY PREDICTED BY IDOCK:   -0.97 KCAL/MOL
REMARK 927      BINDING AFFINITY PREDICTED BY RF-SCORE:    0.00 PKD
ROOT
HETATM    1  C   UNL     1     -10.777   7.362  67.125  1.00  0.00    -0.400 C  
HETATM    2  C   UNL     1      -9.945   8.556  66.629  1.00  0.00    -0.363 C  
HETATM    3  C   UNL     1      -8.489   8.514  67.150  1.00  0.00    -0.118 C  
HETATM    4  C   UNL     1     -10.673   9.844  67.098  1.00  0.00    -0.207 C  
ENDROOT
BRANCH   4   5
HETATM    5  N   UNL     1     -10.073  11.132  66.710  1.00  0.00    -0.211 NA 
HETATM    6  C   UNL     1     -10.710  12.215  67.472  1.00  0.00    -0.232 C  
HETATM    7  C   UNL     1     -10.219  11.392  65.275  1.00  0.00    -0.270 C  
ENDBRANCH   4   5
BRANCH   3   8
HETATM    8  N   UNL     1      -7.755   7.314  66.662  1.00  0.00    -0.099 NA 
HETATM    9  C   UNL     1      -7.511   7.262  65.273  1.00  0.00    -0.089 A  
HETATM   10  C   UNL     1      -6.783   8.275  64.629  1.00  0.00    -0.068 A  
HETATM   11  C   UNL     1      -6.472   8.192  63.272  1.00  0.00    -0.080 A  
HETATM   12  C   UNL     1      -6.892   7.096  62.527  1.00  0.00    -0.060 A  
HETATM   13  C   UNL     1      -7.620   6.080  63.143  1.00  0.00    -0.088 A  
HETATM   14  C   UNL     1      -7.927   6.155  64.510  1.00  0.00    -0.123 A  
HETATM   15  C   UNL     1      -8.689   5.050  65.181  1.00  0.00    -0.150 C  
HETATM   16  C   UNL     1      -7.806   4.274  66.150  1.00  0.00    -0.095 C  
HETATM   17  C   UNL     1      -7.244   4.983  67.369  1.00  0.00    -0.070 A  
HETATM   18  C   UNL     1      -6.666   4.124  68.336  1.00  0.00    -0.047 A  
HETATM   19  C   UNL     1      -6.099   4.615  69.507  1.00  0.00    -0.022 A  
HETATM   20  C   UNL     1      -6.086   5.980  69.732  1.00  0.00    -0.026 A  
HETATM   21  C   UNL     1      -6.647   6.842  68.786  1.00  0.00    -0.047 A  
HETATM   22  C   UNL     1      -7.249   6.380  67.594  1.00  0.00    -0.086 A  
ENDBRANCH   3   8
TORSDOF 2
ENDMDL
MODEL      118
REMARK 921   NORMALIZED FREE ENERGY PREDICTED BY IDOCK:   -2.63 KCAL/MOL
REMARK 922        TOTAL FREE ENERGY PREDICTED BY IDOCK:   -3.85 KCAL/MOL
REMARK 923 INTER-LIGAND FREE ENERGY PREDICTED BY IDOCK:   -4.30 KCAL/MOL
REMARK 924 INTRA-LIGAND FREE ENERGY PREDICTED BY IDOCK:    0.46 KCAL/MOL
REMARK 927      BINDING AFFINITY PREDICTED BY RF-SCORE:    0.00 PKD
ROOT
HETATM    1  C   UNL     1     -10.822   7.074  68.019  1.00  0.00    -0.229 C  
HETATM    2  C   UNL     1     -10.328   7.767  69.300  1.00  0.00    -0.220 C  
HETATM    3  C   UNL     1      -8.978   8.493  69.092  1.00  0.00    -0.146 C  
HETATM    4  C   UNL     1     -10.215   6.672  70.394  1.00  0.00    -0.188 C  
ENDROOT
BRANCH   4   5
HETATM    5  N   UNL     1      -9.785   7.106  71.735  1.00  0.00    -0.158 NA 
HETATM    6  C   UNL     1      -9.752   5.946  72.634  1.00  0.00    -0.153 C  
HETATM    7  C   UNL     1     -10.675   8.130  72.289  1.00  0.00    -0.313 C  
ENDBRANCH   4   5
BRANCH   3   8
HETATM    8  N   UNL     1      -9.080   9.585  68.087  1.00  0.00    -0.127 NA 
HETATM    9  C   UNL     1      -8.429   9.355  66.856  1.00  0.00    -0.127 A  
HETATM   10  C   UNL     1      -8.767   8.252  66.056  1.00  0.00    -0.181 A  
HETATM   11  C   UNL     1      -8.183   8.059  64.804  1.00  0.00    -0.124 A  
HETATM   12  C   UNL     1      -7.240   8.964  64.329  1.00  0.00    -0.091 A  
HETATM   13  C   UNL     1      -6.885  10.064  65.106  1.00  0.00    -0.130 A  
HETATM   14  C   UNL     1      -7.477  10.266  66.362  1.00  0.00    -0.114 A  
HETATM   15  C   UNL     1      -7.114  11.464  67.191  1.00  0.00    -0.134 C  
HETATM   16  C   UNL     1      -8.273  12.450  67.279  1.00  0.00    -0.184 C  
HETATM   17  C   UNL     1      -9.553  12.027  67.976  1.00  0.00    -0.199 A  
HETATM   18  C   UNL     1     -10.459  13.085  68.239  1.00  0.00    -0.258 A  
HETATM   19  C   UNL     1     -11.680  12.865  68.864  1.00  0.00    -0.370 A  
HETATM   20  C   UNL     1     -12.032  11.577  69.228  1.00  0.00    -0.397 A  
HETATM   21  C   UNL     1     -11.154  10.521  68.972  1.00  0.00    -0.300 A  
HETATM   22  C   UNL     1      -9.896  10.708  68.356  1.00  0.00    -0.161 A  
ENDBRANCH   3   8
TORSDOF 2
ENDMDL
MODEL      119
REMARK 921   NORMALIZED FREE ENERGY PREDICTED BY IDOCK:   -2.63 KCAL/MOL
REMARK 922        TOTAL FREE ENERGY PREDICTED BY IDOCK:   -3.85 KCAL/MOL
REMARK 923 INTER-LIGAND FREE ENERGY PREDICTED BY IDOCK:   -3.61 KCAL/MOL
REMARK 924 INTRA-LIGAND FREE ENERGY PREDICTED BY IDOCK:   -0.24 KCAL/MOL
REMARK 927      BINDING AFFINITY PREDICTED BY RF-SCORE:    0.00 PKD
ROOT
HETATM    1  C   UNL     1     -10.776   6.135  66.891  1.00  0.00    -0.413 C  
HETATM    2  C   UNL     1      -9.410   5.447  67.040  1.00  0.00    -0.121 C  
HETATM    3  C   UNL     1      -8.382   6.334  67.782  1.00  0.00    -0.117 C  
HETATM    4  C   UNL     1      -8.920   5.096  65.610  1.00  0.00    -0.154 C  
ENDROOT
BRANCH   4   5
HETATM    5  N   UNL     1      -7.630   4.392  65.497  1.00  0.00    -0.084 NA 
HETATM    6  C   UNL     1      -7.422   3.563  66.691  1.00  0.00    -0.076 C  
HETATM    7  C   UNL     1      -6.510   5.325  65.348  1.00  0.00    -0.039 C  
ENDBRANCH   4   5
BRANCH   3   8
HETATM    8  N   UNL     1      -8.807   6.634  69.177  1.00  0.00    -0.129 NA 
HETATM    9  C   UNL     1      -8.411   5.700  70.158  1.00  0.00    -0.119 A  
HETATM   10  C   UNL     1      -7.054   5.407  70.370  1.00  0.00    -0.061 A  
HETATM   11  C   UNL     1      -6.651   4.543  71.388  1.00  0.00    -0.027 A  
HETATM   12  C   UNL     1      -7.600   3.945  72.211  1.00  0.00    -0.070 A  
HETATM   13  C   UNL     1      -8.952   4.217  72.016  1.00  0.00    -0.145 A  
HETATM   14  C   UNL     1      -9.361   5.093  70.999  1.00  0.00    -0.198 A  
HETATM   15  C   UNL     1     -10.816   5.406  70.804  1.00  0.00    -0.190 C  
HETATM   16  C   UNL     1     -11.131   6.845  71.191  1.00  0.00    -0.297 C  
HETATM   17  C   UNL     1     -10.511   7.979  70.396  1.00  0.00    -0.218 A  
HETATM   18  C   UNL     1     -11.066   9.256  70.657  1.00  0.00    -0.335 A  
HETATM   19  C   UNL     1     -10.604  10.400  70.018  1.00  0.00    -0.282 A  
HETATM   20  C   UNL     1      -9.565  10.296  69.111  1.00  0.00    -0.229 A  
HETATM   21  C   UNL     1      -9.001   9.045  68.845  1.00  0.00    -0.140 A  
HETATM   22  C   UNL     1      -9.456   7.857  69.461  1.00  0.00    -0.160 A  
ENDBRANCH   3   8
TORSDOF 2
ENDMDL
MODEL      120
REMARK 921   NORMALIZED FREE ENERGY PREDICTED BY IDOCK:   -2.63 KCAL/MOL
REMARK 922        TOTAL FREE ENERGY PREDICTED BY IDOCK:   -3.85 KCAL/MOL
REMARK 923 INTER-LIGAND FREE ENERGY PREDICTED BY IDOCK:   -4.34 KCAL/MOL
REMARK 924 INTRA-LIGAND FREE ENERGY PREDICTED BY IDOCK:    0.49 KCAL/MOL
REMARK 927      BINDING AFFINITY PREDICTED BY RF-SCORE:    0.00 PKD
ROOT
HETATM    1  C   UNL     1      -8.918  14.818  69.329  1.00  0.00    -0.028 C  
HETATM    2  C   UNL     1      -8.665  15.328  67.901  1.00  0.00    -0.164 C  
HETATM    3  C   UNL     1      -7.958  14.274  67.017  1.00  0.00     0.017 C  
HETATM    4  C   UNL     1      -7.814  16.620  68.025  1.00  0.00    -0.170 C  
ENDROOT
BRANCH   4   5
HETATM    5  N   UNL     1      -7.468  17.317  66.774  1.00  0.00    -0.199 NA 
HETATM    6  C   UNL     1      -6.039  17.659  66.787  1.00  0.00    -0.171 C  
HETATM    7  C   UNL     1      -8.261  18.536  66.589  1.00  0.00    -0.274 C  
ENDBRANCH   4   5
BRANCH   3   8
HETATM    8  N   UNL     1      -8.783  13.049  66.838  1.00  0.00    -0.189 NA 
HETATM    9  C   UNL     1      -8.215  11.847  67.313  1.00  0.00    -0.170 A  
HETATM   10  C   UNL     1      -7.850  11.705  68.661  1.00  0.00    -0.132 A  
HETATM   11  C   UNL     1      -7.359  10.495  69.154  1.00  0.00    -0.109 A  
HETATM   12  C   UNL     1      -7.216   9.404  68.304  1.00  0.00    -0.077 A  
HETATM   13  C   UNL     1      -7.568   9.523  66.962  1.00  0.00    -0.091 A  
HETATM   14  C   UNL     1      -8.070  10.735  66.464  1.00  0.00    -0.146 A  
HETATM   15  C   UNL     1      -8.473  10.857  65.023  1.00  0.00    -0.009 C  
HETATM   16  C   UNL     1      -9.984  10.993  64.879  1.00  0.00    -0.343 C  
HETATM   17  C   UNL     1     -10.675  12.218  65.450  1.00  0.00    -0.320 A  
HETATM   18  C   UNL     1     -12.020  12.382  65.037  1.00  0.00    -0.458 A  
HETATM   19  C   UNL     1     -12.796  13.448  65.477  1.00  0.00    -0.361 A  
HETATM   20  C   UNL     1     -12.248  14.370  66.351  1.00  0.00    -0.363 A  
HETATM   21  C   UNL     1     -10.924  14.221  66.773  1.00  0.00    -0.304 A  
HETATM   22  C   UNL     1     -10.099  13.161  66.333  1.00  0.00    -0.281 A  
ENDBRANCH   3   8
TORSDOF 2
ENDMDL
MODEL      121
REMARK 921   NORMALIZED FREE ENERGY PREDICTED BY IDOCK:   -2.62 KCAL/MOL
REMARK 922        TOTAL FREE ENERGY PREDICTED BY IDOCK:   -3.84 KCAL/MOL
REMARK 923 INTER-LIGAND FREE ENERGY PREDICTED BY IDOCK:   -2.95 KCAL/MOL
REMARK 924 INTRA-LIGAND FREE ENERGY PREDICTED BY IDOCK:   -0.89 KCAL/MOL
REMARK 927      BINDING AFFINITY PREDICTED BY RF-SCORE:    0.00 PKD
ROOT
HETATM    1  C   UNL     1      -7.649   7.282  67.999  1.00  0.00    -0.115 C  
HETATM    2  C   UNL     1      -8.868   6.925  68.866  1.00  0.00    -0.129 C  
HETATM    3  C   UNL     1      -9.816   5.925  68.163  1.00  0.00    -0.133 C  
HETATM    4  C   UNL     1      -9.597   8.255  69.193  1.00  0.00    -0.160 C  
ENDROOT
BRANCH   4   5
HETATM    5  N   UNL     1     -10.793   8.171  70.049  1.00  0.00    -0.247 NA 
HETATM    6  C   UNL     1     -11.230   9.526  70.410  1.00  0.00    -0.270 C  
HETATM    7  C   UNL     1     -10.540   7.398  71.268  1.00  0.00    -0.216 C  
ENDBRANCH   4   5
BRANCH   3   8
HETATM    8  N   UNL     1      -9.152   4.621  67.892  1.00  0.00    -0.114 NA 
HETATM    9  C   UNL     1      -8.721   3.900  69.026  1.00  0.00    -0.093 A  
HETATM   10  C   UNL     1      -9.630   3.511  70.023  1.00  0.00    -0.226 A  
HETATM   11  C   UNL     1      -9.226   2.733  71.108  1.00  0.00    -0.197 A  
HETATM   12  C   UNL     1      -7.899   2.335  71.224  1.00  0.00    -0.040 A  
HETATM   13  C   UNL     1      -6.978   2.712  70.250  1.00  0.00    -0.033 A  
HETATM   14  C   UNL     1      -7.382   3.487  69.152  1.00  0.00    -0.049 A  
HETATM   15  C   UNL     1      -6.395   3.873  68.089  1.00  0.00    -0.037 C  
HETATM   16  C   UNL     1      -6.681   3.151  66.777  1.00  0.00    -0.045 C  
HETATM   17  C   UNL     1      -7.980   3.433  66.045  1.00  0.00    -0.092 A  
HETATM   18  C   UNL     1      -8.033   2.926  64.723  1.00  0.00    -0.082 A  
HETATM   19  C   UNL     1      -9.155   3.092  63.920  1.00  0.00    -0.102 A  
HETATM   20  C   UNL     1     -10.258   3.757  64.425  1.00  0.00    -0.227 A  
HETATM   21  C   UNL     1     -10.225   4.260  65.729  1.00  0.00    -0.207 A  
HETATM   22  C   UNL     1      -9.095   4.128  66.569  1.00  0.00    -0.134 A  
ENDBRANCH   3   8
TORSDOF 2
ENDMDL
MODEL      122
REMARK 921   NORMALIZED FREE ENERGY PREDICTED BY IDOCK:   -2.59 KCAL/MOL
REMARK 922        TOTAL FREE ENERGY PREDICTED BY IDOCK:   -3.80 KCAL/MOL
REMARK 923 INTER-LIGAND FREE ENERGY PREDICTED BY IDOCK:   -4.28 KCAL/MOL
REMARK 924 INTRA-LIGAND FREE ENERGY PREDICTED BY IDOCK:    0.48 KCAL/MOL
REMARK 927      BINDING AFFINITY PREDICTED BY RF-SCORE:    0.00 PKD
ROOT
HETATM    1  C   UNL     1     -10.762   7.015  66.995  1.00  0.00    -0.423 C  
HETATM    2  C   UNL     1      -9.256   6.752  67.158  1.00  0.00    -0.145 C  
HETATM    3  C   UNL     1      -8.767   7.008  68.603  1.00  0.00    -0.123 C  
HETATM    4  C   UNL     1      -8.522   7.672  66.146  1.00  0.00    -0.143 C  
ENDROOT
BRANCH   4   5
HETATM    5  N   UNL     1      -7.053   7.574  66.093  1.00  0.00    -0.068 NA 
HETATM    6  C   UNL     1      -6.509   8.764  65.425  1.00  0.00    -0.067 C  
HETATM    7  C   UNL     1      -6.610   6.370  65.385  1.00  0.00    -0.043 C  
ENDBRANCH   4   5
BRANCH   3   8
HETATM    8  N   UNL     1      -9.417   6.095  69.582  1.00  0.00    -0.144 NA 
HETATM    9  C   UNL     1     -10.193   6.716  70.584  1.00  0.00    -0.189 A  
HETATM   10  C   UNL     1     -11.283   7.535  70.249  1.00  0.00    -0.253 A  
HETATM   11  C   UNL     1     -12.101   8.090  71.234  1.00  0.00    -0.314 A  
HETATM   12  C   UNL     1     -11.840   7.844  72.577  1.00  0.00    -0.390 A  
HETATM   13  C   UNL     1     -10.761   7.038  72.934  1.00  0.00    -0.320 A  
HETATM   14  C   UNL     1      -9.942   6.470  71.946  1.00  0.00    -0.192 A  
HETATM   15  C   UNL     1      -8.794   5.581  72.329  1.00  0.00    -0.132 C  
HETATM   16  C   UNL     1      -9.058   4.133  71.934  1.00  0.00    -0.165 C  
HETATM   17  C   UNL     1      -9.187   3.778  70.464  1.00  0.00    -0.210 A  
HETATM   18  C   UNL     1      -9.164   2.389  70.188  1.00  0.00    -0.193 A  
HETATM   19  C   UNL     1      -9.279   1.896  68.894  1.00  0.00    -0.209 A  
HETATM   20  C   UNL     1      -9.433   2.783  67.843  1.00  0.00    -0.196 A  
HETATM   21  C   UNL     1      -9.464   4.158  68.097  1.00  0.00    -0.215 A  
HETATM   22  C   UNL     1      -9.331   4.696  69.397  1.00  0.00    -0.141 A  
ENDBRANCH   3   8
TORSDOF 2
ENDMDL
MODEL      123
REMARK 921   NORMALIZED FREE ENERGY PREDICTED BY IDOCK:   -2.52 KCAL/MOL
REMARK 922        TOTAL FREE ENERGY PREDICTED BY IDOCK:   -3.72 KCAL/MOL
REMARK 923 INTER-LIGAND FREE ENERGY PREDICTED BY IDOCK:   -4.16 KCAL/MOL
REMARK 924 INTRA-LIGAND FREE ENERGY PREDICTED BY IDOCK:    0.44 KCAL/MOL
REMARK 927      BINDING AFFINITY PREDICTED BY RF-SCORE:    0.00 PKD
ROOT
HETATM    1  C   UNL     1      -7.020   6.334  69.330  1.00  0.00    -0.064 C  
HETATM    2  C   UNL     1      -8.085   6.514  68.235  1.00  0.00    -0.110 C  
HETATM    3  C   UNL     1      -9.518   6.580  68.814  1.00  0.00    -0.128 C  
HETATM    4  C   UNL     1      -7.930   5.324  67.251  1.00  0.00    -0.101 C  
ENDROOT
BRANCH   4   5
HETATM    5  N   UNL     1      -8.833   5.295  66.087  1.00  0.00    -0.131 NA 
HETATM    6  C   UNL     1      -8.936   3.919  65.585  1.00  0.00    -0.133 C  
HETATM    7  C   UNL     1      -8.365   6.175  65.012  1.00  0.00    -0.112 C  
ENDBRANCH   4   5
BRANCH   3   8
HETATM    8  N   UNL     1      -9.703   7.749  69.716  1.00  0.00    -0.175 NA 
HETATM    9  C   UNL     1      -9.844   7.454  71.089  1.00  0.00    -0.174 A  
HETATM   10  C   UNL     1      -8.841   6.761  71.785  1.00  0.00    -0.128 A  
HETATM   11  C   UNL     1      -8.938   6.532  73.158  1.00  0.00    -0.137 A  
HETATM   12  C   UNL     1     -10.048   6.985  73.862  1.00  0.00    -0.386 A  
HETATM   13  C   UNL     1     -11.059   7.671  73.192  1.00  0.00    -0.373 A  
HETATM   14  C   UNL     1     -10.960   7.911  71.813  1.00  0.00    -0.290 A  
HETATM   15  C   UNL     1     -12.037   8.671  71.094  1.00  0.00    -0.297 C  
HETATM   16  C   UNL     1     -11.543  10.041  70.646  1.00  0.00    -0.422 C  
HETATM   17  C   UNL     1     -10.430  10.128  69.618  1.00  0.00    -0.282 A  
HETATM   18  C   UNL     1     -10.228  11.421  69.075  1.00  0.00    -0.137 A  
HETATM   19  C   UNL     1      -9.243  11.672  68.128  1.00  0.00    -0.184 A  
HETATM   20  C   UNL     1      -8.425  10.636  67.711  1.00  0.00    -0.116 A  
HETATM   21  C   UNL     1      -8.606   9.356  68.241  1.00  0.00    -0.120 A  
HETATM   22  C   UNL     1      -9.609   9.058  69.191  1.00  0.00    -0.161 A  
ENDBRANCH   3   8
TORSDOF 2
ENDMDL
MODEL      124
REMARK 921   NORMALIZED FREE ENERGY PREDICTED BY IDOCK:   -2.51 KCAL/MOL
REMARK 922        TOTAL FREE ENERGY PREDICTED BY IDOCK:   -3.71 KCAL/MOL
REMARK 923 INTER-LIGAND FREE ENERGY PREDICTED BY IDOCK:   -4.18 KCAL/MOL
REMARK 924 INTRA-LIGAND FREE ENERGY PREDICTED BY IDOCK:    0.47 KCAL/MOL
REMARK 927      BINDING AFFINITY PREDICTED BY RF-SCORE:    0.00 PKD
ROOT
HETATM    1  C   UNL     1      -7.522  10.263  66.077  1.00  0.00    -0.128 C  
HETATM    2  C   UNL     1      -8.875  10.660  66.691  1.00  0.00    -0.149 C  
HETATM    3  C   UNL     1      -9.933   9.540  66.553  1.00  0.00    -0.261 C  
HETATM    4  C   UNL     1      -9.334  11.959  65.977  1.00  0.00    -0.206 C  
ENDROOT
BRANCH   4   5
HETATM    5  N   UNL     1     -10.605  12.555  66.424  1.00  0.00    -0.244 NA 
HETATM    6  C   UNL     1     -10.791  13.855  65.764  1.00  0.00    -0.289 C  
HETATM    7  C   UNL     1     -10.645  12.734  67.878  1.00  0.00    -0.221 C  
ENDBRANCH   4   5
BRANCH   3   8
HETATM    8  N   UNL     1      -9.537   8.304  67.280  1.00  0.00    -0.156 NA 
HETATM    9  C   UNL     1      -9.250   7.180  66.476  1.00  0.00    -0.162 A  
HETATM   10  C   UNL     1      -8.240   7.228  65.502  1.00  0.00    -0.139 A  
HETATM   11  C   UNL     1      -7.899   6.100  64.757  1.00  0.00    -0.109 A  
HETATM   12  C   UNL     1      -8.569   4.899  64.964  1.00  0.00    -0.147 A  
HETATM   13  C   UNL     1      -9.577   4.828  65.921  1.00  0.00    -0.188 A  
HETATM   14  C   UNL     1      -9.918   5.958  66.680  1.00  0.00    -0.214 A  
HETATM   15  C   UNL     1     -10.988   5.877  67.729  1.00  0.00    -0.245 C  
HETATM   16  C   UNL     1     -10.401   5.994  69.131  1.00  0.00    -0.289 C  
HETATM   17  C   UNL     1      -9.726   7.288  69.545  1.00  0.00    -0.158 A  
HETATM   18  C   UNL     1      -9.455   7.394  70.932  1.00  0.00    -0.165 A  
HETATM   19  C   UNL     1      -8.833   8.513  71.473  1.00  0.00    -0.260 A  
HETATM   20  C   UNL     1      -8.454   9.548  70.637  1.00  0.00    -0.166 A  
HETATM   21  C   UNL     1      -8.708   9.458  69.265  1.00  0.00    -0.145 A  
HETATM   22  C   UNL     1      -9.355   8.345  68.681  1.00  0.00    -0.143 A  
ENDBRANCH   3   8
TORSDOF 2
ENDMDL
MODEL      125
REMARK 921   NORMALIZED FREE ENERGY PREDICTED BY IDOCK:   -2.50 KCAL/MOL
REMARK 922        TOTAL FREE ENERGY PREDICTED BY IDOCK:   -3.70 KCAL/MOL
REMARK 923 INTER-LIGAND FREE ENERGY PREDICTED BY IDOCK:   -4.20 KCAL/MOL
REMARK 924 INTRA-LIGAND FREE ENERGY PREDICTED BY IDOCK:    0.49 KCAL/MOL
REMARK 927      BINDING AFFINITY PREDICTED BY RF-SCORE:    0.00 PKD
ROOT
HETATM    1  C   UNL     1     -11.018   6.385  68.500  1.00  0.00    -0.396 C  
HETATM    2  C   UNL     1     -10.766   7.538  69.485  1.00  0.00    -0.222 C  
HETATM    3  C   UNL     1      -9.281   7.972  69.515  1.00  0.00    -0.152 C  
HETATM    4  C   UNL     1     -11.238   7.054  70.882  1.00  0.00    -0.282 C  
ENDROOT
BRANCH   4   5
HETATM    5  N   UNL     1     -11.124   8.011  71.997  1.00  0.00    -0.273 NA 
HETATM    6  C   UNL     1     -10.466   7.356  73.135  1.00  0.00    -0.356 C  
HETATM    7  C   UNL     1     -12.433   8.521  72.416  1.00  0.00    -0.353 C  
ENDBRANCH   4   5
BRANCH   3   8
HETATM    8  N   UNL     1      -8.825   8.493  68.198  1.00  0.00    -0.142 NA 
HETATM    9  C   UNL     1      -7.960   7.651  67.466  1.00  0.00    -0.120 A  
HETATM   10  C   UNL     1      -8.357   6.357  67.095  1.00  0.00    -0.112 A  
HETATM   11  C   UNL     1      -7.539   5.547  66.307  1.00  0.00    -0.091 A  
HETATM   12  C   UNL     1      -6.300   6.013  65.880  1.00  0.00    -0.042 A  
HETATM   13  C   UNL     1      -5.883   7.292  66.240  1.00  0.00    -0.036 A  
HETATM   14  C   UNL     1      -6.707   8.113  67.025  1.00  0.00    -0.065 A  
HETATM   15  C   UNL     1      -6.269   9.502  67.392  1.00  0.00    -0.060 C  
HETATM   16  C   UNL     1      -7.108  10.555  66.679  1.00  0.00    -0.118 C  
HETATM   17  C   UNL     1      -8.590  10.657  66.989  1.00  0.00    -0.128 A  
HETATM   18  C   UNL     1      -9.219  11.822  66.486  1.00  0.00    -0.206 A  
HETATM   19  C   UNL     1     -10.575  12.063  66.676  1.00  0.00    -0.266 A  
HETATM   20  C   UNL     1     -11.337  11.136  67.364  1.00  0.00    -0.329 A  
HETATM   21  C   UNL     1     -10.734   9.978  67.863  1.00  0.00    -0.322 A  
HETATM   22  C   UNL     1      -9.356   9.707  67.706  1.00  0.00    -0.127 A  
ENDBRANCH   3   8
TORSDOF 2
ENDMDL
MODEL      126
REMARK 921   NORMALIZED FREE ENERGY PREDICTED BY IDOCK:   -2.50 KCAL/MOL
REMARK 922        TOTAL FREE ENERGY PREDICTED BY IDOCK:   -3.70 KCAL/MOL
REMARK 923 INTER-LIGAND FREE ENERGY PREDICTED BY IDOCK:   -2.74 KCAL/MOL
REMARK 924 INTRA-LIGAND FREE ENERGY PREDICTED BY IDOCK:   -0.96 KCAL/MOL
REMARK 927      BINDING AFFINITY PREDICTED BY RF-SCORE:    0.00 PKD
ROOT
HETATM    1  C   UNL     1     -10.881   7.915  67.634  1.00  0.00    -0.125 C  
HETATM    2  C   UNL     1     -10.162   9.265  67.478  1.00  0.00    -0.300 C  
HETATM    3  C   UNL     1      -9.003   9.434  68.489  1.00  0.00    -0.128 C  
HETATM    4  C   UNL     1     -11.233  10.373  67.659  1.00  0.00    -0.213 C  
ENDROOT
BRANCH   4   5
HETATM    5  N   UNL     1     -10.783  11.769  67.520  1.00  0.00    -0.213 NA 
HETATM    6  C   UNL     1     -11.712  12.654  68.235  1.00  0.00    -0.342 C  
HETATM    7  C   UNL     1     -10.700  12.179  66.115  1.00  0.00    -0.272 C  
ENDBRANCH   4   5
BRANCH   3   8
HETATM    8  N   UNL     1      -7.937   8.414  68.293  1.00  0.00    -0.117 NA 
HETATM    9  C   UNL     1      -7.081   8.620  67.190  1.00  0.00    -0.075 A  
HETATM   10  C   UNL     1      -6.322   9.796  67.074  1.00  0.00    -0.065 A  
HETATM   11  C   UNL     1      -5.417   9.973  66.028  1.00  0.00    -0.054 A  
HETATM   12  C   UNL     1      -5.258   8.980  65.068  1.00  0.00    -0.038 A  
HETATM   13  C   UNL     1      -6.003   7.806  65.160  1.00  0.00    -0.038 A  
HETATM   14  C   UNL     1      -6.908   7.620  66.216  1.00  0.00    -0.062 A  
HETATM   15  C   UNL     1      -7.694   6.346  66.329  1.00  0.00    -0.099 C  
HETATM   16  C   UNL     1      -7.233   5.514  67.520  1.00  0.00    -0.075 C  
HETATM   17  C   UNL     1      -7.419   6.063  68.923  1.00  0.00    -0.086 A  
HETATM   18  C   UNL     1      -7.210   5.118  69.958  1.00  0.00    -0.059 A  
HETATM   19  C   UNL     1      -7.332   5.462  71.299  1.00  0.00    -0.084 A  
HETATM   20  C   UNL     1      -7.654   6.764  71.637  1.00  0.00    -0.088 A  
HETATM   21  C   UNL     1      -7.859   7.710  70.629  1.00  0.00    -0.097 A  
HETATM   22  C   UNL     1      -7.762   7.394  69.255  1.00  0.00    -0.107 A  
ENDBRANCH   3   8
TORSDOF 2
ENDMDL
MODEL      127
REMARK 921   NORMALIZED FREE ENERGY PREDICTED BY IDOCK:   -2.44 KCAL/MOL
REMARK 922        TOTAL FREE ENERGY PREDICTED BY IDOCK:   -3.63 KCAL/MOL
REMARK 923 INTER-LIGAND FREE ENERGY PREDICTED BY IDOCK:   -3.10 KCAL/MOL
REMARK 924 INTRA-LIGAND FREE ENERGY PREDICTED BY IDOCK:   -0.53 KCAL/MOL
REMARK 927      BINDING AFFINITY PREDICTED BY RF-SCORE:    0.00 PKD
ROOT
HETATM    1  C   UNL     1     -10.954   6.041  68.582  1.00  0.00    -0.361 C  
HETATM    2  C   UNL     1     -11.021   6.911  69.848  1.00  0.00    -0.318 C  
HETATM    3  C   UNL     1     -10.082   6.397  70.965  1.00  0.00    -0.182 C  
HETATM    4  C   UNL     1     -12.500   6.919  70.316  1.00  0.00     0.204 C  
ENDROOT
BRANCH   4   5
HETATM    5  N   UNL     1     -12.821   7.723  71.509  1.00  0.00    -0.334 NA 
HETATM    6  C   UNL     1     -14.280   7.797  71.668  1.00  0.00    -0.457 C  
HETATM    7  C   UNL     1     -12.270   9.078  71.419  1.00  0.00    -0.323 C  
ENDBRANCH   4   5
BRANCH   3   8
HETATM    8  N   UNL     1      -8.652   6.436  70.555  1.00  0.00    -0.141 NA 
HETATM    9  C   UNL     1      -8.234   7.603  69.880  1.00  0.00    -0.130 A  
HETATM   10  C   UNL     1      -8.354   8.866  70.481  1.00  0.00    -0.177 A  
HETATM   11  C   UNL     1      -7.874  10.015  69.852  1.00  0.00    -0.185 A  
HETATM   12  C   UNL     1      -7.271   9.925  68.602  1.00  0.00    -0.072 A  
HETATM   13  C   UNL     1      -7.146   8.683  67.984  1.00  0.00    -0.082 A  
HETATM   14  C   UNL     1      -7.619   7.524  68.617  1.00  0.00    -0.110 A  
HETATM   15  C   UNL     1      -7.462   6.182  67.964  1.00  0.00    -0.089 C  
HETATM   16  C   UNL     1      -6.452   5.317  68.707  1.00  0.00    -0.039 C  
HETATM   17  C   UNL     1      -6.754   4.882  70.130  1.00  0.00    -0.037 A  
HETATM   18  C   UNL     1      -5.895   3.875  70.634  1.00  0.00    -0.014 A  
HETATM   19  C   UNL     1      -6.032   3.372  71.922  1.00  0.00    -0.013 A  
HETATM   20  C   UNL     1      -7.025   3.875  72.743  1.00  0.00    -0.052 A  
HETATM   21  C   UNL     1      -7.879   4.873  72.264  1.00  0.00    -0.099 A  
HETATM   22  C   UNL     1      -7.783   5.395  70.954  1.00  0.00    -0.090 A  
ENDBRANCH   3   8
TORSDOF 2
ENDMDL
MODEL      128
REMARK 921   NORMALIZED FREE ENERGY PREDICTED BY IDOCK:   -2.40 KCAL/MOL
REMARK 922        TOTAL FREE ENERGY PREDICTED BY IDOCK:   -3.59 KCAL/MOL
REMARK 923 INTER-LIGAND FREE ENERGY PREDICTED BY IDOCK:   -4.02 KCAL/MOL
REMARK 924 INTRA-LIGAND FREE ENERGY PREDICTED BY IDOCK:    0.43 KCAL/MOL
REMARK 927      BINDING AFFINITY PREDICTED BY RF-SCORE:    0.00 PKD
ROOT
HETATM    1  C   UNL     1     -12.635  14.251  68.759  1.00  0.00     0.375 C  
HETATM    2  C   UNL     1     -11.762  14.863  69.867  1.00  0.00    -0.347 C  
HETATM    3  C   UNL     1     -10.344  14.246  69.906  1.00  0.00     0.432 C  
HETATM    4  C   UNL     1     -12.509  14.642  71.209  1.00  0.00    -0.339 C  
ENDROOT
BRANCH   4   5
HETATM    5  N   UNL     1     -11.874  15.178  72.426  1.00  0.00    -0.395 NA 
HETATM    6  C   UNL     1     -12.634  14.740  73.604  1.00  0.00    -0.394 C  
HETATM    7  C   UNL     1     -11.802  16.641  72.406  1.00  0.00    -0.169 C  
ENDBRANCH   4   5
BRANCH   3   8
HETATM    8  N   UNL     1      -9.589  14.498  68.649  1.00  0.00    -0.218 NA 
HETATM    9  C   UNL     1      -9.254  13.356  67.890  1.00  0.00    -0.216 A  
HETATM   10  C   UNL     1     -10.251  12.490  67.411  1.00  0.00    -0.217 A  
HETATM   11  C   UNL     1      -9.934  11.403  66.597  1.00  0.00    -0.239 A  
HETATM   12  C   UNL     1      -8.610  11.153  66.251  1.00  0.00    -0.180 A  
HETATM   13  C   UNL     1      -7.605  11.996  66.718  1.00  0.00     0.008 A  
HETATM   14  C   UNL     1      -7.920  13.096  67.530  1.00  0.00    -0.179 A  
HETATM   15  C   UNL     1      -6.839  14.019  68.013  1.00  0.00    -0.148 C  
HETATM   16  C   UNL     1      -6.938  15.387  67.348  1.00  0.00    -0.222 C  
HETATM   17  C   UNL     1      -8.158  16.251  67.610  1.00  0.00    -0.161 A  
HETATM   18  C   UNL     1      -8.037  17.592  67.169  1.00  0.00    -0.229 A  
HETATM   19  C   UNL     1      -9.068  18.511  67.327  1.00  0.00    -0.282 A  
HETATM   20  C   UNL     1     -10.251  18.106  67.917  1.00  0.00    -0.391 A  
HETATM   21  C   UNL     1     -10.391  16.785  68.352  1.00  0.00    -0.319 A  
HETATM   22  C   UNL     1      -9.359  15.828  68.227  1.00  0.00    -0.193 A  
ENDBRANCH   3   8
TORSDOF 2
ENDMDL
MODEL      129
REMARK 921   NORMALIZED FREE ENERGY PREDICTED BY IDOCK:   -2.36 KCAL/MOL
REMARK 922        TOTAL FREE ENERGY PREDICTED BY IDOCK:   -3.54 KCAL/MOL
REMARK 923 INTER-LIGAND FREE ENERGY PREDICTED BY IDOCK:   -3.20 KCAL/MOL
REMARK 924 INTRA-LIGAND FREE ENERGY PREDICTED BY IDOCK:   -0.34 KCAL/MOL
REMARK 927      BINDING AFFINITY PREDICTED BY RF-SCORE:    0.00 PKD
ROOT
HETATM    1  C   UNL     1      -6.005  11.718  66.977  1.00  0.00    -0.153 C  
HETATM    2  C   UNL     1      -7.465  11.298  66.739  1.00  0.00    -0.146 C  
HETATM    3  C   UNL     1      -8.370  11.602  67.957  1.00  0.00    -0.148 C  
HETATM    4  C   UNL     1      -7.454   9.781  66.412  1.00  0.00    -0.099 C  
ENDROOT
BRANCH   4   5
HETATM    5  N   UNL     1      -8.751   9.150  66.112  1.00  0.00    -0.141 NA 
HETATM    6  C   UNL     1      -8.626   7.693  66.248  1.00  0.00    -0.144 C  
HETATM    7  C   UNL     1      -9.219   9.477  64.762  1.00  0.00    -0.205 C  
ENDBRANCH   4   5
BRANCH   3   8
HETATM    8  N   UNL     1      -8.440  13.059  68.251  1.00  0.00    -0.168 NA 
HETATM    9  C   UNL     1      -9.671  13.688  67.967  1.00  0.00    -0.226 A  
HETATM   10  C   UNL     1     -10.861  13.255  68.575  1.00  0.00    -0.286 A  
HETATM   11  C   UNL     1     -12.068  13.919  68.358  1.00  0.00    -0.327 A  
HETATM   12  C   UNL     1     -12.112  15.027  67.519  1.00  0.00     0.065 A  
HETATM   13  C   UNL     1     -10.946  15.472  66.901  1.00  0.00    -0.268 A  
HETATM   14  C   UNL     1      -9.728  14.812  67.124  1.00  0.00    -0.234 A  
HETATM   15  C   UNL     1      -8.466  15.306  66.478  1.00  0.00    -0.202 C  
HETATM   16  C   UNL     1      -7.513  15.903  67.506  1.00  0.00    -0.194 C  
HETATM   17  C   UNL     1      -6.925  15.006  68.579  1.00  0.00    -0.106 A  
HETATM   18  C   UNL     1      -5.859  15.584  69.312  1.00  0.00    -0.106 A  
HETATM   19  C   UNL     1      -5.217  14.898  70.336  1.00  0.00    -0.116 A  
HETATM   20  C   UNL     1      -5.635  13.619  70.660  1.00  0.00    -0.165 A  
HETATM   21  C   UNL     1      -6.688  13.035  69.951  1.00  0.00     0.233 A  
HETATM   22  C   UNL     1      -7.353  13.694  68.892  1.00  0.00    -0.060 A  
ENDBRANCH   3   8
TORSDOF 2
ENDMDL
MODEL      130
REMARK 921   NORMALIZED FREE ENERGY PREDICTED BY IDOCK:   -2.35 KCAL/MOL
REMARK 922        TOTAL FREE ENERGY PREDICTED BY IDOCK:   -3.54 KCAL/MOL
REMARK 923 INTER-LIGAND FREE ENERGY PREDICTED BY IDOCK:   -2.95 KCAL/MOL
REMARK 924 INTRA-LIGAND FREE ENERGY PREDICTED BY IDOCK:   -0.59 KCAL/MOL
REMARK 927      BINDING AFFINITY PREDICTED BY RF-SCORE:    0.00 PKD
ROOT
HETATM    1  C   UNL     1     -10.944   6.158  68.995  1.00  0.00    -0.436 C  
HETATM    2  C   UNL     1     -10.852   7.063  70.236  1.00  0.00    -0.283 C  
HETATM    3  C   UNL     1      -9.863   6.513  71.291  1.00  0.00    -0.181 C  
HETATM    4  C   UNL     1     -12.285   7.184  70.817  1.00  0.00    -0.264 C  
ENDROOT
BRANCH   4   5
HETATM    5  N   UNL     1     -12.456   8.038  72.006  1.00  0.00    -0.318 NA 
HETATM    6  C   UNL     1     -13.886   8.157  72.318  1.00  0.00    -0.167 C  
HETATM    7  C   UNL     1     -11.886   9.373  71.806  1.00  0.00    -0.382 C  
ENDBRANCH   4   5
BRANCH   3   8
HETATM    8  N   UNL     1      -8.471   6.444  70.770  1.00  0.00    -0.133 NA 
HETATM    9  C   UNL     1      -7.616   7.501  71.149  1.00  0.00    -0.081 A  
HETATM   10  C   UNL     1      -7.360   7.773  72.503  1.00  0.00    -0.098 A  
HETATM   11  C   UNL     1      -6.458   8.766  72.884  1.00  0.00    -0.005 A  
HETATM   12  C   UNL     1      -5.798   9.516  71.916  1.00  0.00     0.027 A  
HETATM   13  C   UNL     1      -6.039   9.267  70.567  1.00  0.00    -0.050 A  
HETATM   14  C   UNL     1      -6.939   8.263  70.180  1.00  0.00    -0.040 A  
HETATM   15  C   UNL     1      -7.181   7.978  68.726  1.00  0.00    -0.083 C  
HETATM   16  C   UNL     1      -6.605   6.626  68.322  1.00  0.00    -0.059 C  
HETATM   17  C   UNL     1      -7.180   5.363  68.937  1.00  0.00    -0.066 A  
HETATM   18  C   UNL     1      -6.768   4.161  68.308  1.00  0.00    -0.047 A  
HETATM   19  C   UNL     1      -7.198   2.917  68.754  1.00  0.00    -0.048 A  
HETATM   20  C   UNL     1      -8.040   2.844  69.850  1.00  0.00    -0.056 A  
HETATM   21  C   UNL     1      -8.451   4.019  70.485  1.00  0.00    -0.097 A  
HETATM   22  C   UNL     1      -8.051   5.302  70.049  1.00  0.00    -0.084 A  
ENDBRANCH   3   8
TORSDOF 2
ENDMDL
MODEL      131
REMARK 921   NORMALIZED FREE ENERGY PREDICTED BY IDOCK:   -2.28 KCAL/MOL
REMARK 922        TOTAL FREE ENERGY PREDICTED BY IDOCK:   -3.45 KCAL/MOL
REMARK 923 INTER-LIGAND FREE ENERGY PREDICTED BY IDOCK:   -4.10 KCAL/MOL
REMARK 924 INTRA-LIGAND FREE ENERGY PREDICTED BY IDOCK:    0.65 KCAL/MOL
REMARK 927      BINDING AFFINITY PREDICTED BY RF-SCORE:    0.00 PKD
ROOT
HETATM    1  C   UNL     1      -7.772   9.840  70.193  1.00  0.00    -0.188 C  
HETATM    2  C   UNL     1      -8.656   9.205  69.106  1.00  0.00    -0.133 C  
HETATM    3  C   UNL     1      -8.743   7.667  69.244  1.00  0.00    -0.136 C  
HETATM    4  C   UNL     1      -8.055   9.614  67.735  1.00  0.00    -0.113 C  
ENDROOT
BRANCH   4   5
HETATM    5  N   UNL     1      -8.758   9.145  66.528  1.00  0.00    -0.126 NA 
HETATM    6  C   UNL     1      -8.043   9.616  65.335  1.00  0.00    -0.127 C  
HETATM    7  C   UNL     1     -10.145   9.616  66.486  1.00  0.00    -0.244 C  
ENDBRANCH   4   5
BRANCH   3   8
HETATM    8  N   UNL     1      -9.371   7.255  70.529  1.00  0.00    -0.158 NA 
HETATM    9  C   UNL     1      -8.602   6.397  71.345  1.00  0.00    -0.130 A  
HETATM   10  C   UNL     1      -7.332   6.783  71.802  1.00  0.00    -0.085 A  
HETATM   11  C   UNL     1      -6.599   5.974  72.671  1.00  0.00    -0.068 A  
HETATM   12  C   UNL     1      -7.118   4.755  73.093  1.00  0.00    -0.079 A  
HETATM   13  C   UNL     1      -8.375   4.349  72.648  1.00  0.00    -0.106 A  
HETATM   14  C   UNL     1      -9.119   5.164  71.782  1.00  0.00    -0.157 A  
HETATM   15  C   UNL     1     -10.483   4.740  71.322  1.00  0.00    -0.121 C  
HETATM   16  C   UNL     1     -11.572   5.614  71.932  1.00  0.00    -0.096 C  
HETATM   17  C   UNL     1     -11.623   7.089  71.576  1.00  0.00    -0.322 A  
HETATM   18  C   UNL     1     -12.811   7.751  71.974  1.00  0.00    -0.265 A  
HETATM   19  C   UNL     1     -13.012   9.104  71.731  1.00  0.00    -0.448 A  
HETATM   20  C   UNL     1     -12.022   9.832  71.096  1.00  0.00    -0.463 A  
HETATM   21  C   UNL     1     -10.841   9.197  70.701  1.00  0.00    -0.321 A  
HETATM   22  C   UNL     1     -10.609   7.819  70.914  1.00  0.00    -0.213 A  
ENDBRANCH   3   8
TORSDOF 2
ENDMDL
MODEL      132
REMARK 921   NORMALIZED FREE ENERGY PREDICTED BY IDOCK:   -2.25 KCAL/MOL
REMARK 922        TOTAL FREE ENERGY PREDICTED BY IDOCK:   -3.42 KCAL/MOL
REMARK 923 INTER-LIGAND FREE ENERGY PREDICTED BY IDOCK:   -3.31 KCAL/MOL
REMARK 924 INTRA-LIGAND FREE ENERGY PREDICTED BY IDOCK:   -0.11 KCAL/MOL
REMARK 927      BINDING AFFINITY PREDICTED BY RF-SCORE:    0.00 PKD
ROOT
HETATM    1  C   UNL     1      -7.933  14.564  69.779  1.00  0.00     0.327 C  
HETATM    2  C   UNL     1      -7.739  15.280  68.432  1.00  0.00    -0.124 C  
HETATM    3  C   UNL     1      -7.175  14.338  67.341  1.00  0.00    -0.112 C  
HETATM    4  C   UNL     1      -6.786  16.478  68.687  1.00  0.00    -0.160 C  
ENDROOT
BRANCH   4   5
HETATM    5  N   UNL     1      -6.474  17.343  67.536  1.00  0.00    -0.136 NA 
HETATM    6  C   UNL     1      -7.485  17.144  66.489  1.00  0.00    -0.283 C  
HETATM    7  C   UNL     1      -5.143  17.065  66.989  1.00  0.00    -0.151 C  
ENDBRANCH   4   5
BRANCH   3   8
HETATM    8  N   UNL     1      -8.102  13.213  67.041  1.00  0.00    -0.085 NA 
HETATM    9  C   UNL     1      -9.438  13.571  66.760  1.00  0.00    -0.269 A  
HETATM   10  C   UNL     1      -9.745  14.436  65.697  1.00  0.00    -0.258 A  
HETATM   11  C   UNL     1     -11.067  14.734  65.366  1.00  0.00    -0.359 A  
HETATM   12  C   UNL     1     -12.111  14.180  66.099  1.00  0.00    -0.454 A  
HETATM   13  C   UNL     1     -11.830  13.324  67.161  1.00  0.00    -0.424 A  
HETATM   14  C   UNL     1     -10.503  13.014  67.491  1.00  0.00    -0.229 A  
HETATM   15  C   UNL     1     -10.199  12.071  68.620  1.00  0.00    -0.189 C  
HETATM   16  C   UNL     1      -9.629  10.755  68.106  1.00  0.00    -0.167 C  
HETATM   17  C   UNL     1      -8.287  10.756  67.397  1.00  0.00    -0.119 A  
HETATM   18  C   UNL     1      -7.724   9.471  67.198  1.00  0.00    -0.091 A  
HETATM   19  C   UNL     1      -6.503   9.298  66.557  1.00  0.00    -0.067 A  
HETATM   20  C   UNL     1      -5.821  10.406  66.088  1.00  0.00    -0.087 A  
HETATM   21  C   UNL     1      -6.364  11.681  66.270  1.00  0.00     0.219 A  
HETATM   22  C   UNL     1      -7.593  11.899  66.934  1.00  0.00    -0.093 A  
ENDBRANCH   3   8
TORSDOF 2
ENDMDL
MODEL      133
REMARK 921   NORMALIZED FREE ENERGY PREDICTED BY IDOCK:   -2.24 KCAL/MOL
REMARK 922        TOTAL FREE ENERGY PREDICTED BY IDOCK:   -3.40 KCAL/MOL
REMARK 923 INTER-LIGAND FREE ENERGY PREDICTED BY IDOCK:   -2.63 KCAL/MOL
REMARK 924 INTRA-LIGAND FREE ENERGY PREDICTED BY IDOCK:   -0.78 KCAL/MOL
REMARK 927      BINDING AFFINITY PREDICTED BY RF-SCORE:    0.00 PKD
ROOT
HETATM    1  C   UNL     1      -8.028   6.750  69.861  1.00  0.00    -0.120 C  
HETATM    2  C   UNL     1      -9.202   6.185  70.677  1.00  0.00    -0.163 C  
HETATM    3  C   UNL     1      -9.848   4.952  70.001  1.00  0.00    -0.233 C  
HETATM    4  C   UNL     1     -10.231   7.334  70.849  1.00  0.00    -0.196 C  
ENDROOT
BRANCH   4   5
HETATM    5  N   UNL     1     -11.442   7.038  71.634  1.00  0.00    -0.255 NA 
HETATM    6  C   UNL     1     -12.560   6.767  70.720  1.00  0.00    -0.064 C  
HETATM    7  C   UNL     1     -11.798   8.143  72.528  1.00  0.00    -0.376 C  
ENDBRANCH   4   5
BRANCH   3   8
HETATM    8  N   UNL     1      -8.892   3.818  69.879  1.00  0.00    -0.080 NA 
HETATM    9  C   UNL     1      -8.564   3.154  71.081  1.00  0.00    -0.068 A  
HETATM   10  C   UNL     1      -9.560   2.556  71.870  1.00  0.00    -0.208 A  
HETATM   11  C   UNL     1      -9.236   1.833  73.018  1.00  0.00    -0.087 A  
HETATM   12  C   UNL     1      -7.907   1.702  73.408  1.00  0.00    -0.041 A  
HETATM   13  C   UNL     1      -6.903   2.291  72.643  1.00  0.00    -0.023 A  
HETATM   14  C   UNL     1      -7.224   3.011  71.482  1.00  0.00    -0.032 A  
HETATM   15  C   UNL     1      -6.140   3.625  70.644  1.00  0.00    -0.018 C  
HETATM   16  C   UNL     1      -6.002   2.911  69.305  1.00  0.00    -0.024 C  
HETATM   17  C   UNL     1      -7.155   2.957  68.319  1.00  0.00    -0.049 A  
HETATM   18  C   UNL     1      -6.835   2.499  67.017  1.00  0.00    -0.041 A  
HETATM   19  C   UNL     1      -7.780   2.468  65.998  1.00  0.00    -0.080 A  
HETATM   20  C   UNL     1      -9.073   2.882  66.262  1.00  0.00    -0.140 A  
HETATM   21  C   UNL     1      -9.408   3.332  67.543  1.00  0.00    -0.250 A  
HETATM   22  C   UNL     1      -8.470   3.395  68.598  1.00  0.00    -0.079 A  
ENDBRANCH   3   8
TORSDOF 2
ENDMDL
MODEL      134
REMARK 921   NORMALIZED FREE ENERGY PREDICTED BY IDOCK:   -2.22 KCAL/MOL
REMARK 922        TOTAL FREE ENERGY PREDICTED BY IDOCK:   -3.39 KCAL/MOL
REMARK 923 INTER-LIGAND FREE ENERGY PREDICTED BY IDOCK:   -4.47 KCAL/MOL
REMARK 924 INTRA-LIGAND FREE ENERGY PREDICTED BY IDOCK:    1.08 KCAL/MOL
REMARK 927      BINDING AFFINITY PREDICTED BY RF-SCORE:    0.00 PKD
ROOT
HETATM    1  C   UNL     1     -11.102  11.595  64.238  1.00  0.00    -0.406 C  
HETATM    2  C   UNL     1      -9.920  10.613  64.172  1.00  0.00    -0.406 C  
HETATM    3  C   UNL     1      -8.722  11.078  65.033  1.00  0.00    -0.034 C  
HETATM    4  C   UNL     1      -9.522  10.482  62.678  1.00  0.00    -0.296 C  
ENDROOT
BRANCH   4   5
HETATM    5  N   UNL     1      -8.419   9.560  62.357  1.00  0.00    -0.164 NA 
HETATM    6  C   UNL     1      -8.523   8.364  63.203  1.00  0.00    -0.017 C  
HETATM    7  C   UNL     1      -7.108  10.186  62.552  1.00  0.00    -0.133 C  
ENDBRANCH   4   5
BRANCH   3   8
HETATM    8  N   UNL     1      -9.068  11.154  66.478  1.00  0.00    -0.176 NA 
HETATM    9  C   UNL     1      -9.204  12.453  67.013  1.00  0.00    -0.208 A  
HETATM   10  C   UNL     1     -10.141  13.356  66.486  1.00  0.00    -0.280 A  
HETATM   11  C   UNL     1     -10.334  14.614  67.058  1.00  0.00    -0.263 A  
HETATM   12  C   UNL     1      -9.585  14.999  68.165  1.00  0.00    -0.207 A  
HETATM   13  C   UNL     1      -8.647  14.121  68.702  1.00  0.00    -0.126 A  
HETATM   14  C   UNL     1      -8.456  12.851  68.136  1.00  0.00    -0.176 A  
HETATM   15  C   UNL     1      -7.462  11.895  68.729  1.00  0.00    -0.100 C  
HETATM   16  C   UNL     1      -8.157  10.711  69.390  1.00  0.00    -0.102 C  
HETATM   17  C   UNL     1      -8.964   9.753  68.534  1.00  0.00    -0.124 A  
HETATM   18  C   UNL     1      -9.343   8.554  69.187  1.00  0.00    -0.153 A  
HETATM   19  C   UNL     1     -10.092   7.576  68.544  1.00  0.00    -0.198 A  
HETATM   20  C   UNL     1     -10.492   7.779  67.236  1.00  0.00    -0.392 A  
HETATM   21  C   UNL     1     -10.132   8.958  66.577  1.00  0.00    -0.356 A  
HETATM   22  C   UNL     1      -9.355   9.967  67.191  1.00  0.00    -0.149 A  
ENDBRANCH   3   8
TORSDOF 2
ENDMDL
MODEL      135
REMARK 921   NORMALIZED FREE ENERGY PREDICTED BY IDOCK:   -2.20 KCAL/MOL
REMARK 922        TOTAL FREE ENERGY PREDICTED BY IDOCK:   -3.36 KCAL/MOL
REMARK 923 INTER-LIGAND FREE ENERGY PREDICTED BY IDOCK:   -2.57 KCAL/MOL
REMARK 924 INTRA-LIGAND FREE ENERGY PREDICTED BY IDOCK:   -0.79 KCAL/MOL
REMARK 927      BINDING AFFINITY PREDICTED BY RF-SCORE:    0.00 PKD
ROOT
HETATM    1  C   UNL     1      -8.536   6.049  67.329  1.00  0.00    -0.106 C  
HETATM    2  C   UNL     1      -8.173   4.671  67.905  1.00  0.00    -0.099 C  
HETATM    3  C   UNL     1      -7.256   4.775  69.146  1.00  0.00    -0.053 C  
HETATM    4  C   UNL     1      -7.489   3.869  66.766  1.00  0.00    -0.076 C  
ENDROOT
BRANCH   4   5
HETATM    5  N   UNL     1      -7.075   2.488  67.073  1.00  0.00    -0.048 NA 
HETATM    6  C   UNL     1      -6.261   1.967  65.967  1.00  0.00    -0.023 C  
HETATM    7  C   UNL     1      -8.226   1.608  67.291  1.00  0.00    -0.073 C  
ENDBRANCH   4   5
BRANCH   3   8
HETATM    8  N   UNL     1      -7.916   5.491  70.271  1.00  0.00    -0.099 NA 
HETATM    9  C   UNL     1      -8.595   4.680  71.206  1.00  0.00    -0.113 A  
HETATM   10  C   UNL     1      -7.918   3.675  71.916  1.00  0.00    -0.063 A  
HETATM   11  C   UNL     1      -8.564   2.922  72.895  1.00  0.00    -0.080 A  
HETATM   12  C   UNL     1      -9.906   3.151  73.180  1.00  0.00    -0.176 A  
HETATM   13  C   UNL     1     -10.599   4.139  72.485  1.00  0.00    -0.162 A  
HETATM   14  C   UNL     1      -9.951   4.906  71.505  1.00  0.00    -0.260 A  
HETATM   15  C   UNL     1     -10.690   5.989  70.773  1.00  0.00    -0.340 C  
HETATM   16  C   UNL     1     -10.188   7.371  71.171  1.00  0.00    -0.199 C  
HETATM   17  C   UNL     1      -8.759   7.762  70.844  1.00  0.00    -0.137 A  
HETATM   18  C   UNL     1      -8.472   9.140  71.010  1.00  0.00    -0.221 A  
HETATM   19  C   UNL     1      -7.207   9.660  70.760  1.00  0.00    -0.072 A  
HETATM   20  C   UNL     1      -6.195   8.811  70.351  1.00  0.00    -0.038 A  
HETATM   21  C   UNL     1      -6.459   7.448  70.187  1.00  0.00    -0.035 A  
HETATM   22  C   UNL     1      -7.735   6.886  70.413  1.00  0.00    -0.100 A  
ENDBRANCH   3   8
TORSDOF 2
ENDMDL
MODEL      136
REMARK 921   NORMALIZED FREE ENERGY PREDICTED BY IDOCK:   -2.14 KCAL/MOL
REMARK 922        TOTAL FREE ENERGY PREDICTED BY IDOCK:   -3.30 KCAL/MOL
REMARK 923 INTER-LIGAND FREE ENERGY PREDICTED BY IDOCK:   -2.32 KCAL/MOL
REMARK 924 INTRA-LIGAND FREE ENERGY PREDICTED BY IDOCK:   -0.98 KCAL/MOL
REMARK 927      BINDING AFFINITY PREDICTED BY RF-SCORE:    0.00 PKD
ROOT
HETATM    1  C   UNL     1      -5.764   6.809  67.896  1.00  0.00    -0.016 C  
HETATM    2  C   UNL     1      -6.904   7.277  66.977  1.00  0.00    -0.076 C  
HETATM    3  C   UNL     1      -8.232   7.478  67.743  1.00  0.00    -0.119 C  
HETATM    4  C   UNL     1      -7.055   6.208  65.861  1.00  0.00    -0.070 C  
ENDROOT
BRANCH   4   5
HETATM    5  N   UNL     1      -8.077   6.456  64.829  1.00  0.00    -0.127 NA 
HETATM    6  C   UNL     1      -8.817   5.215  64.570  1.00  0.00    -0.060 C  
HETATM    7  C   UNL     1      -7.485   6.943  63.580  1.00  0.00    -0.088 C  
ENDBRANCH   4   5
BRANCH   3   8
HETATM    8  N   UNL     1      -8.124   8.540  68.780  1.00  0.00    -0.119 NA 
HETATM    9  C   UNL     1      -8.024   9.864  68.300  1.00  0.00    -0.100 A  
HETATM   10  C   UNL     1      -9.027  10.414  67.485  1.00  0.00    -0.138 A  
HETATM   11  C   UNL     1      -8.972  11.744  67.070  1.00  0.00    -0.186 A  
HETATM   12  C   UNL     1      -7.907  12.551  67.454  1.00  0.00    -0.175 A  
HETATM   13  C   UNL     1      -6.898  12.026  68.258  1.00  0.00    -0.068 A  
HETATM   14  C   UNL     1      -6.954  10.691  68.685  1.00  0.00    -0.072 A  
HETATM   15  C   UNL     1      -5.880  10.130  69.572  1.00  0.00    -0.038 C  
HETATM   16  C   UNL     1      -6.406   9.856  70.976  1.00  0.00    -0.007 C  
HETATM   17  C   UNL     1      -7.483   8.804  71.170  1.00  0.00    -0.115 A  
HETATM   18  C   UNL     1      -7.711   8.437  72.519  1.00  0.00    -0.145 A  
HETATM   19  C   UNL     1      -8.669   7.493  72.869  1.00  0.00    -0.181 A  
HETATM   20  C   UNL     1      -9.432   6.902  71.878  1.00  0.00    -0.146 A  
HETATM   21  C   UNL     1      -9.224   7.257  70.542  1.00  0.00    -0.158 A  
HETATM   22  C   UNL     1      -8.247   8.198  70.146  1.00  0.00    -0.119 A  
ENDBRANCH   3   8
TORSDOF 2
ENDMDL
MODEL      137
REMARK 921   NORMALIZED FREE ENERGY PREDICTED BY IDOCK:   -2.07 KCAL/MOL
REMARK 922        TOTAL FREE ENERGY PREDICTED BY IDOCK:   -3.22 KCAL/MOL
REMARK 923 INTER-LIGAND FREE ENERGY PREDICTED BY IDOCK:   -4.12 KCAL/MOL
REMARK 924 INTRA-LIGAND FREE ENERGY PREDICTED BY IDOCK:    0.90 KCAL/MOL
REMARK 927      BINDING AFFINITY PREDICTED BY RF-SCORE:    0.00 PKD
ROOT
HETATM    1  C   UNL     1      -7.769  12.374  67.833  1.00  0.00    -0.135 C  
HETATM    2  C   UNL     1      -8.703  11.322  67.211  1.00  0.00    -0.145 C  
HETATM    3  C   UNL     1      -8.509   9.922  67.838  1.00  0.00    -0.121 C  
HETATM    4  C   UNL     1      -8.412  11.301  65.686  1.00  0.00     0.022 C  
ENDROOT
BRANCH   4   5
HETATM    5  N   UNL     1      -9.216  10.382  64.863  1.00  0.00    -0.201 NA 
HETATM    6  C   UNL     1      -9.513  11.017  63.572  1.00  0.00    -0.292 C  
HETATM    7  C   UNL     1     -10.469  10.010  65.525  1.00  0.00     0.063 C  
ENDBRANCH   4   5
BRANCH   3   8
HETATM    8  N   UNL     1      -8.840   9.908  69.288  1.00  0.00    -0.161 NA 
HETATM    9  C   UNL     1      -7.768   9.625  70.163  1.00  0.00    -0.170 A  
HETATM   10  C   UNL     1      -6.618  10.431  70.179  1.00  0.00    -0.146 A  
HETATM   11  C   UNL     1      -5.589  10.204  71.092  1.00  0.00    -0.074 A  
HETATM   12  C   UNL     1      -5.685   9.159  72.005  1.00  0.00    -0.069 A  
HETATM   13  C   UNL     1      -6.814   8.344  72.005  1.00  0.00    -0.095 A  
HETATM   14  C   UNL     1      -7.856   8.575  71.094  1.00  0.00    -0.133 A  
HETATM   15  C   UNL     1      -9.085   7.713  71.110  1.00  0.00    -0.152 C  
HETATM   16  C   UNL     1     -10.301   8.488  71.603  1.00  0.00    -0.333 C  
HETATM   17  C   UNL     1     -10.813   9.660  70.786  1.00  0.00    -0.400 A  
HETATM   18  C   UNL     1     -12.086  10.141  71.179  1.00  0.00    -0.485 A  
HETATM   19  C   UNL     1     -12.693  11.215  70.538  1.00  0.00    -0.302 A  
HETATM   20  C   UNL     1     -12.034  11.843  69.497  1.00  0.00    -0.355 A  
HETATM   21  C   UNL     1     -10.774  11.385  69.099  1.00  0.00    -0.229 A  
HETATM   22  C   UNL     1     -10.134  10.285  69.714  1.00  0.00    -0.203 A  
ENDBRANCH   3   8
TORSDOF 2
ENDMDL
MODEL      138
REMARK 921   NORMALIZED FREE ENERGY PREDICTED BY IDOCK:   -2.00 KCAL/MOL
REMARK 922        TOTAL FREE ENERGY PREDICTED BY IDOCK:   -3.14 KCAL/MOL
REMARK 923 INTER-LIGAND FREE ENERGY PREDICTED BY IDOCK:   -3.58 KCAL/MOL
REMARK 924 INTRA-LIGAND FREE ENERGY PREDICTED BY IDOCK:    0.44 KCAL/MOL
REMARK 927      BINDING AFFINITY PREDICTED BY RF-SCORE:    0.00 PKD
ROOT
HETATM    1  C   UNL     1     -10.971   6.523  67.997  1.00  0.00    -0.368 C  
HETATM    2  C   UNL     1      -9.903   7.600  67.743  1.00  0.00    -0.196 C  
HETATM    3  C   UNL     1      -9.422   8.271  69.052  1.00  0.00    -0.155 C  
HETATM    4  C   UNL     1     -10.528   8.640  66.775  1.00  0.00    -0.228 C  
ENDROOT
BRANCH   4   5
HETATM    5  N   UNL     1      -9.673   9.764  66.356  1.00  0.00    -0.200 NA 
HETATM    6  C   UNL     1     -10.336  11.031  66.691  1.00  0.00    -0.240 C  
HETATM    7  C   UNL     1      -9.386   9.726  64.919  1.00  0.00    -0.265 C  
ENDBRANCH   4   5
BRANCH   3   8
HETATM    8  N   UNL     1      -8.767   7.300  69.970  1.00  0.00    -0.140 NA 
HETATM    9  C   UNL     1      -9.421   7.076  71.200  1.00  0.00    -0.165 A  
HETATM   10  C   UNL     1     -10.742   6.602  71.240  1.00  0.00    -0.269 A  
HETATM   11  C   UNL     1     -11.368   6.306  72.451  1.00  0.00    -0.333 A  
HETATM   12  C   UNL     1     -10.688   6.487  73.650  1.00  0.00    -0.245 A  
HETATM   13  C   UNL     1      -9.379   6.961  73.635  1.00  0.00    -0.207 A  
HETATM   14  C   UNL     1      -8.742   7.251  72.420  1.00  0.00    -0.138 A  
HETATM   15  C   UNL     1      -7.322   7.738  72.401  1.00  0.00    -0.094 C  
HETATM   16  C   UNL     1      -6.381   6.688  71.824  1.00  0.00    -0.042 C  
HETATM   17  C   UNL     1      -6.535   6.274  70.372  1.00  0.00    -0.040 A  
HETATM   18  C   UNL     1      -5.462   5.502  69.862  1.00  0.00    -0.004 A  
HETATM   19  C   UNL     1      -5.452   5.036  68.553  1.00  0.00    -0.014 A  
HETATM   20  C   UNL     1      -6.524   5.320  67.725  1.00  0.00    -0.048 A  
HETATM   21  C   UNL     1      -7.594   6.076  68.213  1.00  0.00    -0.091 A  
HETATM   22  C   UNL     1      -7.631   6.582  69.532  1.00  0.00    -0.095 A  
ENDBRANCH   3   8
TORSDOF 2
ENDMDL
MODEL      139
REMARK 921   NORMALIZED FREE ENERGY PREDICTED BY IDOCK:   -1.95 KCAL/MOL
REMARK 922        TOTAL FREE ENERGY PREDICTED BY IDOCK:   -3.09 KCAL/MOL
REMARK 923 INTER-LIGAND FREE ENERGY PREDICTED BY IDOCK:   -3.65 KCAL/MOL
REMARK 924 INTRA-LIGAND FREE ENERGY PREDICTED BY IDOCK:    0.56 KCAL/MOL
REMARK 927      BINDING AFFINITY PREDICTED BY RF-SCORE:    0.00 PKD
ROOT
HETATM    1  C   UNL     1      -8.219   8.859  71.913  1.00  0.00    -0.008 C  
HETATM    2  C   UNL     1      -9.271   7.767  71.657  1.00  0.00    -0.168 C  
HETATM    3  C   UNL     1     -10.714   8.326  71.673  1.00  0.00    -0.256 C  
HETATM    4  C   UNL     1      -9.076   6.682  72.748  1.00  0.00    -0.136 C  
ENDROOT
BRANCH   4   5
HETATM    5  N   UNL     1      -9.960   5.505  72.689  1.00  0.00    -0.165 NA 
HETATM    6  C   UNL     1     -11.257   5.899  72.122  1.00  0.00    -0.287 C  
HETATM    7  C   UNL     1     -10.165   4.908  74.012  1.00  0.00    -0.226 C  
ENDBRANCH   4   5
BRANCH   3   8
HETATM    8  N   UNL     1     -10.938   9.327  70.596  1.00  0.00    -0.254 NA 
HETATM    9  C   UNL     1     -10.517   8.948  69.303  1.00  0.00    -0.224 A  
HETATM   10  C   UNL     1     -11.034   7.799  68.684  1.00  0.00     0.119 A  
HETATM   11  C   UNL     1     -10.681   7.460  67.378  1.00  0.00    -0.348 A  
HETATM   12  C   UNL     1      -9.794   8.260  66.665  1.00  0.00    -0.337 A  
HETATM   13  C   UNL     1      -9.265   9.403  67.260  1.00  0.00    -0.151 A  
HETATM   14  C   UNL     1      -9.625   9.752  68.571  1.00  0.00    -0.155 A  
HETATM   15  C   UNL     1      -9.074  10.997  69.204  1.00  0.00    -0.006 C  
HETATM   16  C   UNL     1     -10.157  12.054  69.385  1.00  0.00     0.503 C  
HETATM   17  C   UNL     1     -11.317  11.773  70.323  1.00  0.00     0.095 A  
HETATM   18  C   UNL     1     -12.118  12.902  70.626  1.00  0.00    -0.321 A  
HETATM   19  C   UNL     1     -13.224  12.812  71.463  1.00  0.00    -0.330 A  
HETATM   20  C   UNL     1     -13.564  11.587  72.007  1.00  0.00    -0.138 A  
HETATM   21  C   UNL     1     -12.788  10.461  71.714  1.00  0.00    -0.561 A  
HETATM   22  C   UNL     1     -11.647  10.516  70.883  1.00  0.00    -0.292 A  
ENDBRANCH   3   8
TORSDOF 2
ENDMDL
MODEL      140
REMARK 921   NORMALIZED FREE ENERGY PREDICTED BY IDOCK:   -1.90 KCAL/MOL
REMARK 922        TOTAL FREE ENERGY PREDICTED BY IDOCK:   -3.03 KCAL/MOL
REMARK 923 INTER-LIGAND FREE ENERGY PREDICTED BY IDOCK:   -2.40 KCAL/MOL
REMARK 924 INTRA-LIGAND FREE ENERGY PREDICTED BY IDOCK:   -0.63 KCAL/MOL
REMARK 927      BINDING AFFINITY PREDICTED BY RF-SCORE:    0.00 PKD
ROOT
HETATM    1  C   UNL     1      -6.429   9.327  65.390  1.00  0.00    -0.069 C  
HETATM    2  C   UNL     1      -7.228   8.210  66.081  1.00  0.00    -0.066 C  
HETATM    3  C   UNL     1      -6.982   8.170  67.608  1.00  0.00    -0.078 C  
HETATM    4  C   UNL     1      -6.815   6.873  65.410  1.00  0.00    -0.052 C  
ENDROOT
BRANCH   4   5
HETATM    5  N   UNL     1      -7.481   5.649  65.889  1.00  0.00    -0.077 NA 
HETATM    6  C   UNL     1      -6.495   4.563  65.978  1.00  0.00    -0.040 C  
HETATM    7  C   UNL     1      -8.578   5.242  65.007  1.00  0.00    -0.150 C  
ENDBRANCH   4   5
BRANCH   3   8
HETATM    8  N   UNL     1      -7.426   9.422  68.279  1.00  0.00    -0.078 NA 
HETATM    9  C   UNL     1      -8.688   9.918  67.889  1.00  0.00    -0.129 A  
HETATM   10  C   UNL     1      -9.847   9.137  68.033  1.00  0.00    -0.197 A  
HETATM   11  C   UNL     1     -11.107   9.647  67.721  1.00  0.00    -0.089 A  
HETATM   12  C   UNL     1     -11.234  10.949  67.249  1.00  0.00    -0.307 A  
HETATM   13  C   UNL     1     -10.099  11.741  67.094  1.00  0.00    -0.224 A  
HETATM   14  C   UNL     1      -8.831  11.235  67.415  1.00  0.00    -0.145 A  
HETATM   15  C   UNL     1      -7.609  12.096  67.272  1.00  0.00    -0.156 C  
HETATM   16  C   UNL     1      -7.023  12.458  68.631  1.00  0.00    -0.091 C  
HETATM   17  C   UNL     1      -6.466  11.358  69.516  1.00  0.00    -0.122 A  
HETATM   18  C   UNL     1      -5.713  11.816  70.624  1.00  0.00    -0.123 A  
HETATM   19  C   UNL     1      -5.141  10.936  71.535  1.00  0.00    -0.050 A  
HETATM   20  C   UNL     1      -5.321   9.575  71.367  1.00  0.00    -0.063 A  
HETATM   21  C   UNL     1      -6.066   9.105  70.282  1.00  0.00    -0.040 A  
HETATM   22  C   UNL     1      -6.647   9.968  69.325  1.00  0.00    -0.051 A  
ENDBRANCH   3   8
TORSDOF 2
ENDMDL
MODEL      141
REMARK 921   NORMALIZED FREE ENERGY PREDICTED BY IDOCK:   -1.86 KCAL/MOL
REMARK 922        TOTAL FREE ENERGY PREDICTED BY IDOCK:   -2.99 KCAL/MOL
REMARK 923 INTER-LIGAND FREE ENERGY PREDICTED BY IDOCK:   -3.52 KCAL/MOL
REMARK 924 INTRA-LIGAND FREE ENERGY PREDICTED BY IDOCK:    0.53 KCAL/MOL
REMARK 927      BINDING AFFINITY PREDICTED BY RF-SCORE:    0.00 PKD
ROOT
HETATM    1  C   UNL     1      -8.811  10.020  68.658  1.00  0.00    -0.132 C  
HETATM    2  C   UNL     1     -10.114  10.792  68.925  1.00  0.00    -0.217 C  
HETATM    3  C   UNL     1      -9.884  12.319  69.019  1.00  0.00     0.240 C  
HETATM    4  C   UNL     1     -10.713  10.232  70.242  1.00  0.00    -0.250 C  
ENDROOT
BRANCH   4   5
HETATM    5  N   UNL     1     -11.995  10.801  70.691  1.00  0.00    -0.339 NA 
HETATM    6  C   UNL     1     -12.560   9.954  71.750  1.00  0.00    -0.414 C  
HETATM    7  C   UNL     1     -12.957  10.916  69.591  1.00  0.00     0.515 C  
ENDBRANCH   4   5
BRANCH   3   8
HETATM    8  N   UNL     1      -9.363  12.886  67.745  1.00  0.00    -0.195 NA 
HETATM    9  C   UNL     1      -8.036  13.365  67.779  1.00  0.00    -0.173 A  
HETATM   10  C   UNL     1      -6.971  12.518  68.125  1.00  0.00    -0.089 A  
HETATM   11  C   UNL     1      -5.650  12.963  68.087  1.00  0.00    -0.088 A  
HETATM   12  C   UNL     1      -5.366  14.271  67.709  1.00  0.00    -0.009 A  
HETATM   13  C   UNL     1      -6.406  15.131  67.365  1.00  0.00    -0.005 A  
HETATM   14  C   UNL     1      -7.736  14.684  67.394  1.00  0.00    -0.226 A  
HETATM   15  C   UNL     1      -8.856  15.603  66.999  1.00  0.00    -0.250 C  
HETATM   16  C   UNL     1      -9.489  15.173  65.681  1.00  0.00    -0.208 C  
HETATM   17  C   UNL     1     -10.206  13.838  65.605  1.00  0.00    -0.326 A  
HETATM   18  C   UNL     1     -10.979  13.650  64.433  1.00  0.00    -0.379 A  
HETATM   19  C   UNL     1     -11.691  12.479  64.205  1.00  0.00    -0.471 A  
HETATM   20  C   UNL     1     -11.635  11.459  65.138  1.00  0.00     0.092 A  
HETATM   21  C   UNL     1     -10.872  11.625  66.297  1.00  0.00    -0.333 A  
HETATM   22  C   UNL     1     -10.150  12.808  66.573  1.00  0.00    -0.258 A  
ENDBRANCH   3   8
TORSDOF 2
ENDMDL
MODEL      142
REMARK 921   NORMALIZED FREE ENERGY PREDICTED BY IDOCK:   -1.81 KCAL/MOL
REMARK 922        TOTAL FREE ENERGY PREDICTED BY IDOCK:   -2.93 KCAL/MOL
REMARK 923 INTER-LIGAND FREE ENERGY PREDICTED BY IDOCK:   -4.09 KCAL/MOL
REMARK 924 INTRA-LIGAND FREE ENERGY PREDICTED BY IDOCK:    1.16 KCAL/MOL
REMARK 927      BINDING AFFINITY PREDICTED BY RF-SCORE:    0.00 PKD
ROOT
HETATM    1  C   UNL     1     -11.374  14.847  69.591  1.00  0.00    -0.311 C  
HETATM    2  C   UNL     1     -11.415  13.310  69.610  1.00  0.00    -0.267 C  
HETATM    3  C   UNL     1     -11.927  12.719  68.275  1.00  0.00    -0.229 C  
HETATM    4  C   UNL     1     -12.326  12.894  70.795  1.00  0.00    -0.299 C  
ENDROOT
BRANCH   4   5
HETATM    5  N   UNL     1     -12.495  11.450  71.036  1.00  0.00    -0.398 NA 
HETATM    6  C   UNL     1     -12.880  10.789  69.782  1.00  0.00     0.204 C  
HETATM    7  C   UNL     1     -13.507  11.182  72.062  1.00  0.00    -0.174 C  
ENDBRANCH   4   5
BRANCH   3   8
HETATM    8  N   UNL     1     -11.034  13.059  67.134  1.00  0.00    -0.264 NA 
HETATM    9  C   UNL     1      -9.689  13.332  67.463  1.00  0.00    -0.224 A  
HETATM   10  C   UNL     1      -8.898  12.375  68.119  1.00  0.00    -0.191 A  
HETATM   11  C   UNL     1      -7.547  12.608  68.379  1.00  0.00    -0.132 A  
HETATM   12  C   UNL     1      -6.960  13.808  67.995  1.00  0.00    -0.137 A  
HETATM   13  C   UNL     1      -7.726  14.774  67.346  1.00  0.00    -0.230 A  
HETATM   14  C   UNL     1      -9.083  14.541  67.075  1.00  0.00    -0.254 A  
HETATM   15  C   UNL     1      -9.903  15.571  66.354  1.00  0.00    -0.298 C  
HETATM   16  C   UNL     1     -10.276  15.102  64.953  1.00  0.00    -0.231 C  
HETATM   17  C   UNL     1     -11.176  13.891  64.792  1.00  0.00    -0.369 A  
HETATM   18  C   UNL     1     -11.676  13.698  63.481  1.00  0.00    -0.094 A  
HETATM   19  C   UNL     1     -12.508  12.630  63.164  1.00  0.00    -0.215 A  
HETATM   20  C   UNL     1     -12.848  11.721  64.149  1.00  0.00    -0.070 A  
HETATM   21  C   UNL     1     -12.359  11.893  65.447  1.00  0.00     0.429 A  
HETATM   22  C   UNL     1     -11.527  12.976  65.812  1.00  0.00    -0.332 A  
ENDBRANCH   3   8
TORSDOF 2
ENDMDL
MODEL      143
REMARK 921   NORMALIZED FREE ENERGY PREDICTED BY IDOCK:   -1.76 KCAL/MOL
REMARK 922        TOTAL FREE ENERGY PREDICTED BY IDOCK:   -2.87 KCAL/MOL
REMARK 923 INTER-LIGAND FREE ENERGY PREDICTED BY IDOCK:   -4.35 KCAL/MOL
REMARK 924 INTRA-LIGAND FREE ENERGY PREDICTED BY IDOCK:    1.47 KCAL/MOL
REMARK 927      BINDING AFFINITY PREDICTED BY RF-SCORE:    0.00 PKD
ROOT
HETATM    1  C   UNL     1     -10.518  13.026  65.309  1.00  0.00    -0.318 C  
HETATM    2  C   UNL     1      -9.816  12.439  66.545  1.00  0.00    -0.244 C  
HETATM    3  C   UNL     1      -9.157  13.531  67.420  1.00  0.00    -0.219 C  
HETATM    4  C   UNL     1      -8.765  11.421  66.029  1.00  0.00    -0.131 C  
ENDROOT
BRANCH   4   5
HETATM    5  N   UNL     1      -7.979  10.697  67.044  1.00  0.00    -0.118 NA 
HETATM    6  C   UNL     1      -6.637  11.287  67.131  1.00  0.00    -0.106 C  
HETATM    7  C   UNL     1      -7.867   9.269  66.733  1.00  0.00    -0.104 C  
ENDBRANCH   4   5
BRANCH   3   8
HETATM    8  N   UNL     1     -10.156  14.485  67.971  1.00  0.00    -0.222 NA 
HETATM    9  C   UNL     1     -10.421  15.627  67.184  1.00  0.00    -0.303 A  
HETATM   10  C   UNL     1     -10.898  15.501  65.869  1.00  0.00    -0.317 A  
HETATM   11  C   UNL     1     -11.234  16.623  65.111  1.00  0.00     0.020 A  
HETATM   12  C   UNL     1     -11.091  17.897  65.651  1.00  0.00     0.490 A  
HETATM   13  C   UNL     1     -10.616  18.046  66.952  1.00  0.00    -0.291 A  
HETATM   14  C   UNL     1     -10.285  16.920  67.720  1.00  0.00    -0.308 A  
HETATM   15  C   UNL     1      -9.796  17.078  69.131  1.00  0.00    -0.198 C  
HETATM   16  C   UNL     1     -10.827  16.577  70.135  1.00  0.00    -0.208 C  
HETATM   17  C   UNL     1     -11.193  15.104  70.148  1.00  0.00    -0.299 A  
HETATM   18  C   UNL     1     -11.947  14.694  71.276  1.00  0.00    -0.401 A  
HETATM   19  C   UNL     1     -12.369  13.379  71.435  1.00  0.00    -0.214 A  
HETATM   20  C   UNL     1     -12.059  12.446  70.463  1.00  0.00    -0.363 A  
HETATM   21  C   UNL     1     -11.321  12.834  69.341  1.00  0.00    -0.267 A  
HETATM   22  C   UNL     1     -10.858  14.156  69.153  1.00  0.00    -0.229 A  
ENDBRANCH   3   8
TORSDOF 2
ENDMDL
MODEL      144
REMARK 921   NORMALIZED FREE ENERGY PREDICTED BY IDOCK:   -1.69 KCAL/MOL
REMARK 922        TOTAL FREE ENERGY PREDICTED BY IDOCK:   -2.79 KCAL/MOL
REMARK 923 INTER-LIGAND FREE ENERGY PREDICTED BY IDOCK:   -3.91 KCAL/MOL
REMARK 924 INTRA-LIGAND FREE ENERGY PREDICTED BY IDOCK:    1.12 KCAL/MOL
REMARK 927      BINDING AFFINITY PREDICTED BY RF-SCORE:    0.00 PKD
ROOT
HETATM    1  C   UNL     1      -7.278   6.279  69.352  1.00  0.00    -0.082 C  
HETATM    2  C   UNL     1      -7.898   6.179  67.949  1.00  0.00    -0.106 C  
HETATM    3  C   UNL     1      -9.285   6.861  67.869  1.00  0.00    -0.124 C  
HETATM    4  C   UNL     1      -7.993   4.670  67.601  1.00  0.00    -0.093 C  
ENDROOT
BRANCH   4   5
HETATM    5  N   UNL     1      -8.534   4.320  66.275  1.00  0.00    -0.112 NA 
HETATM    6  C   UNL     1      -8.105   5.325  65.294  1.00  0.00    -0.123 C  
HETATM    7  C   UNL     1      -9.997   4.240  66.286  1.00  0.00    -0.211 C  
ENDBRANCH   4   5
BRANCH   3   8
HETATM    8  N   UNL     1      -9.206   8.321  68.143  1.00  0.00    -0.134 NA 
HETATM    9  C   UNL     1      -9.968   8.786  69.237  1.00  0.00    -0.194 A  
HETATM   10  C   UNL     1      -9.757   8.280  70.530  1.00  0.00    -0.185 A  
HETATM   11  C   UNL     1     -10.452   8.788  71.628  1.00  0.00    -0.387 A  
HETATM   12  C   UNL     1     -11.380   9.809  71.453  1.00  0.00    -0.407 A  
HETATM   13  C   UNL     1     -11.608  10.324  70.179  1.00  0.00    -0.376 A  
HETATM   14  C   UNL     1     -10.905   9.822  69.074  1.00  0.00    -0.223 A  
HETATM   15  C   UNL     1     -11.133  10.393  67.704  1.00  0.00    -0.361 C  
HETATM   16  C   UNL     1      -9.918  11.176  67.220  1.00  0.00    -0.211 C  
HETATM   17  C   UNL     1      -8.610  10.443  66.985  1.00  0.00    -0.130 A  
HETATM   18  C   UNL     1      -7.630  11.194  66.291  1.00  0.00    -0.075 A  
HETATM   19  C   UNL     1      -6.374  10.671  66.003  1.00  0.00    -0.132 A  
HETATM   20  C   UNL     1      -6.065   9.387  66.416  1.00  0.00    -0.060 A  
HETATM   21  C   UNL     1      -7.018   8.634  67.107  1.00  0.00    -0.074 A  
HETATM   22  C   UNL     1      -8.310   9.124  67.401  1.00  0.00    -0.115 A  
ENDBRANCH   3   8
TORSDOF 2
ENDMDL
MODEL      145
REMARK 921   NORMALIZED FREE ENERGY PREDICTED BY IDOCK:   -1.59 KCAL/MOL
REMARK 922        TOTAL FREE ENERGY PREDICTED BY IDOCK:   -2.68 KCAL/MOL
REMARK 923 INTER-LIGAND FREE ENERGY PREDICTED BY IDOCK:   -3.26 KCAL/MOL
REMARK 924 INTRA-LIGAND FREE ENERGY PREDICTED BY IDOCK:    0.57 KCAL/MOL
REMARK 927      BINDING AFFINITY PREDICTED BY RF-SCORE:    0.00 PKD
ROOT
HETATM    1  C   UNL     1     -10.320   8.596  66.368  1.00  0.00    -0.127 C  
HETATM    2  C   UNL     1      -8.788   8.512  66.276  1.00  0.00    -0.187 C  
HETATM    3  C   UNL     1      -8.100   8.830  67.625  1.00  0.00    -0.106 C  
HETATM    4  C   UNL     1      -8.344   9.507  65.171  1.00  0.00    -0.142 C  
ENDROOT
BRANCH   4   5
HETATM    5  N   UNL     1      -6.903   9.582  64.875  1.00  0.00    -0.097 NA 
HETATM    6  C   UNL     1      -6.704  10.283  63.599  1.00  0.00    -0.079 C  
HETATM    7  C   UNL     1      -6.290   8.253  64.804  1.00  0.00    -0.064 C  
ENDBRANCH   4   5
BRANCH   3   8
HETATM    8  N   UNL     1      -8.468   7.852  68.684  1.00  0.00    -0.128 NA 
HETATM    9  C   UNL     1      -9.311   8.336  69.706  1.00  0.00    -0.158 A  
HETATM   10  C   UNL     1     -10.577   8.865  69.408  1.00  0.00    -0.226 A  
HETATM   11  C   UNL     1     -11.447   9.275  70.418  1.00  0.00    -0.255 A  
HETATM   12  C   UNL     1     -11.064   9.174  71.751  1.00  0.00    -0.437 A  
HETATM   13  C   UNL     1      -9.811   8.657  72.071  1.00  0.00    -0.396 A  
HETATM   14  C   UNL     1      -8.937   8.234  71.058  1.00  0.00    -0.183 A  
HETATM   15  C   UNL     1      -7.596   7.654  71.403  1.00  0.00    -0.080 C  
HETATM   16  C   UNL     1      -7.539   6.164  71.091  1.00  0.00    -0.093 C  
HETATM   17  C   UNL     1      -7.660   5.704  69.650  1.00  0.00    -0.075 A  
HETATM   18  C   UNL     1      -7.332   4.343  69.435  1.00  0.00    -0.051 A  
HETATM   19  C   UNL     1      -7.399   3.763  68.174  1.00  0.00    -0.058 A  
HETATM   20  C   UNL     1      -7.811   4.528  67.098  1.00  0.00    -0.097 A  
HETATM   21  C   UNL     1      -8.145   5.872  67.292  1.00  0.00    -0.102 A  
HETATM   22  C   UNL     1      -8.070   6.501  68.555  1.00  0.00    -0.114 A  
ENDBRANCH   3   8
TORSDOF 2
ENDMDL
MODEL      146
REMARK 921   NORMALIZED FREE ENERGY PREDICTED BY IDOCK:   -1.57 KCAL/MOL
REMARK 922        TOTAL FREE ENERGY PREDICTED BY IDOCK:   -2.66 KCAL/MOL
REMARK 923 INTER-LIGAND FREE ENERGY PREDICTED BY IDOCK:   -3.51 KCAL/MOL
REMARK 924 INTRA-LIGAND FREE ENERGY PREDICTED BY IDOCK:    0.85 KCAL/MOL
REMARK 927      BINDING AFFINITY PREDICTED BY RF-SCORE:    0.00 PKD
ROOT
HETATM    1  C   UNL     1      -6.486  13.910  69.807  1.00  0.00    -0.095 C  
HETATM    2  C   UNL     1      -6.774  13.360  68.401  1.00  0.00    -0.096 C  
HETATM    3  C   UNL     1      -8.269  13.479  68.019  1.00  0.00    -0.163 C  
HETATM    4  C   UNL     1      -6.306  11.881  68.386  1.00  0.00    -0.052 C  
ENDROOT
BRANCH   4   5
HETATM    5  N   UNL     1      -6.453  11.143  67.119  1.00  0.00    -0.081 NA 
HETATM    6  C   UNL     1      -7.335   9.987  67.329  1.00  0.00    -0.090 C  
HETATM    7  C   UNL     1      -5.162  10.686  66.599  1.00  0.00    -0.052 C  
ENDBRANCH   4   5
BRANCH   3   8
HETATM    8  N   UNL     1      -8.723  14.895  67.971  1.00  0.00    -0.161 NA 
HETATM    9  C   UNL     1      -9.881  15.198  68.719  1.00  0.00    -0.223 A  
HETATM   10  C   UNL     1      -9.926  14.971  70.104  1.00  0.00     0.119 A  
HETATM   11  C   UNL     1     -11.038  15.338  70.862  1.00  0.00    -0.343 A  
HETATM   12  C   UNL     1     -12.134  15.933  70.247  1.00  0.00    -0.294 A  
HETATM   13  C   UNL     1     -12.114  16.164  68.874  1.00  0.00     0.133 A  
HETATM   14  C   UNL     1     -10.994  15.805  68.109  1.00  0.00    -0.330 A  
HETATM   15  C   UNL     1     -10.961  16.076  66.633  1.00  0.00    -0.092 C  
HETATM   16  C   UNL     1      -9.955  17.168  66.291  1.00  0.00    -0.316 C  
HETATM   17  C   UNL     1      -8.479  16.921  66.546  1.00  0.00    -0.307 A  
HETATM   18  C   UNL     1      -7.612  17.874  65.956  1.00  0.00    -0.249 A  
HETATM   19  C   UNL     1      -6.232  17.796  66.101  1.00  0.00    -0.276 A  
HETATM   20  C   UNL     1      -5.687  16.770  66.851  1.00  0.00    -0.168 A  
HETATM   21  C   UNL     1      -6.528  15.824  67.444  1.00  0.00    -0.193 A  
HETATM   22  C   UNL     1      -7.933  15.859  67.304  1.00  0.00    -0.182 A  
ENDBRANCH   3   8
TORSDOF 2
ENDMDL
MODEL      147
REMARK 921   NORMALIZED FREE ENERGY PREDICTED BY IDOCK:   -1.56 KCAL/MOL
REMARK 922        TOTAL FREE ENERGY PREDICTED BY IDOCK:   -2.65 KCAL/MOL
REMARK 923 INTER-LIGAND FREE ENERGY PREDICTED BY IDOCK:   -3.07 KCAL/MOL
REMARK 924 INTRA-LIGAND FREE ENERGY PREDICTED BY IDOCK:    0.42 KCAL/MOL
REMARK 927      BINDING AFFINITY PREDICTED BY RF-SCORE:    0.00 PKD
ROOT
HETATM    1  C   UNL     1      -8.620   6.250  67.581  1.00  0.00    -0.114 C  
HETATM    2  C   UNL     1      -8.564   5.198  68.701  1.00  0.00    -0.088 C  
HETATM    3  C   UNL     1      -7.575   5.588  69.825  1.00  0.00    -0.074 C  
HETATM    4  C   UNL     1      -8.162   3.852  68.040  1.00  0.00    -0.091 C  
ENDROOT
BRANCH   4   5
HETATM    5  N   UNL     1      -8.073   2.673  68.920  1.00  0.00    -0.052 NA 
HETATM    6  C   UNL     1      -7.566   1.529  68.151  1.00  0.00    -0.046 C  
HETATM    7  C   UNL     1      -9.372   2.331  69.508  1.00  0.00    -0.091 C  
ENDBRANCH   4   5
BRANCH   3   8
HETATM    8  N   UNL     1      -7.975   6.846  70.510  1.00  0.00    -0.112 NA 
HETATM    9  C   UNL     1      -7.102   7.943  70.346  1.00  0.00    -0.046 A  
HETATM   10  C   UNL     1      -6.802   8.442  69.068  1.00  0.00    -0.056 A  
HETATM   11  C   UNL     1      -6.002   9.572  68.902  1.00  0.00    -0.042 A  
HETATM   12  C   UNL     1      -5.476  10.223  70.013  1.00  0.00    -0.045 A  
HETATM   13  C   UNL     1      -5.757   9.744  71.290  1.00  0.00    -0.068 A  
HETATM   14  C   UNL     1      -6.569   8.613  71.462  1.00  0.00    -0.075 A  
HETATM   15  C   UNL     1      -6.892   8.110  72.839  1.00  0.00    -0.111 C  
HETATM   16  C   UNL     1      -8.359   8.336  73.182  1.00  0.00    -0.253 C  
HETATM   17  C   UNL     1      -9.427   7.612  72.382  1.00  0.00    -0.217 A  
HETATM   18  C   UNL     1     -10.727   7.676  72.940  1.00  0.00    -0.428 A  
HETATM   19  C   UNL     1     -11.818   7.073  72.326  1.00  0.00    -0.272 A  
HETATM   20  C   UNL     1     -11.637   6.401  71.130  1.00  0.00    -0.378 A  
HETATM   21  C   UNL     1     -10.361   6.333  70.562  1.00  0.00    -0.255 A  
HETATM   22  C   UNL     1      -9.225   6.917  71.166  1.00  0.00    -0.154 A  
ENDBRANCH   3   8
TORSDOF 2
ENDMDL
MODEL      148
REMARK 921   NORMALIZED FREE ENERGY PREDICTED BY IDOCK:   -1.53 KCAL/MOL
REMARK 922        TOTAL FREE ENERGY PREDICTED BY IDOCK:   -2.62 KCAL/MOL
REMARK 923 INTER-LIGAND FREE ENERGY PREDICTED BY IDOCK:   -2.40 KCAL/MOL
REMARK 924 INTRA-LIGAND FREE ENERGY PREDICTED BY IDOCK:   -0.22 KCAL/MOL
REMARK 927      BINDING AFFINITY PREDICTED BY RF-SCORE:    0.00 PKD
ROOT
HETATM    1  C   UNL     1      -7.264  13.555  68.233  1.00  0.00    -0.111 C  
HETATM    2  C   UNL     1      -8.650  13.123  68.739  1.00  0.00     0.148 C  
HETATM    3  C   UNL     1      -9.208  11.909  67.959  1.00  0.00    -0.190 C  
HETATM    4  C   UNL     1      -9.585  14.355  68.606  1.00  0.00    -0.208 C  
ENDROOT
BRANCH   4   5
HETATM    5  N   UNL     1     -10.976  14.192  69.064  1.00  0.00    -0.256 NA 
HETATM    6  C   UNL     1     -11.044  13.090  70.033  1.00  0.00     0.441 C  
HETATM    7  C   UNL     1     -11.890  13.922  67.951  1.00  0.00    -0.378 C  
ENDBRANCH   4   5
BRANCH   3   8
HETATM    8  N   UNL     1      -8.355  10.701  68.121  1.00  0.00    -0.117 NA 
HETATM    9  C   UNL     1      -8.660   9.872  69.221  1.00  0.00    -0.167 A  
HETATM   10  C   UNL     1      -9.933   9.295  69.359  1.00  0.00    -0.184 A  
HETATM   11  C   UNL     1     -10.220   8.414  70.401  1.00  0.00    -0.212 A  
HETATM   12  C   UNL     1      -9.240   8.098  71.335  1.00  0.00    -0.195 A  
HETATM   13  C   UNL     1      -7.971   8.661  71.221  1.00  0.00    -0.167 A  
HETATM   14  C   UNL     1      -7.676   9.540  70.169  1.00  0.00    -0.161 A  
HETATM   15  C   UNL     1      -6.301  10.128  70.031  1.00  0.00    -0.088 C  
HETATM   16  C   UNL     1      -5.575   9.563  68.817  1.00  0.00    -0.036 C  
HETATM   17  C   UNL     1      -6.121   9.846  67.429  1.00  0.00    -0.058 A  
HETATM   18  C   UNL     1      -5.243   9.511  66.370  1.00  0.00    -0.043 A  
HETATM   19  C   UNL     1      -5.595   9.699  65.038  1.00  0.00    -0.062 A  
HETATM   20  C   UNL     1      -6.842  10.216  64.735  1.00  0.00    -0.121 A  
HETATM   21  C   UNL     1      -7.724  10.547  65.767  1.00  0.00    -0.145 A  
HETATM   22  C   UNL     1      -7.394  10.387  67.132  1.00  0.00    -0.092 A  
ENDBRANCH   3   8
TORSDOF 2
ENDMDL
MODEL      149
REMARK 921   NORMALIZED FREE ENERGY PREDICTED BY IDOCK:   -1.49 KCAL/MOL
REMARK 922        TOTAL FREE ENERGY PREDICTED BY IDOCK:   -2.57 KCAL/MOL
REMARK 923 INTER-LIGAND FREE ENERGY PREDICTED BY IDOCK:   -2.70 KCAL/MOL
REMARK 924 INTRA-LIGAND FREE ENERGY PREDICTED BY IDOCK:    0.13 KCAL/MOL
REMARK 927      BINDING AFFINITY PREDICTED BY RF-SCORE:    0.00 PKD
ROOT
HETATM    1  C   UNL     1     -10.782   6.822  67.407  1.00  0.00    -0.405 C  
HETATM    2  C   UNL     1     -10.234   7.412  68.717  1.00  0.00    -0.199 C  
HETATM    3  C   UNL     1      -9.986   6.328  69.792  1.00  0.00    -0.168 C  
HETATM    4  C   UNL     1     -11.263   8.465  69.207  1.00  0.00     0.296 C  
ENDROOT
BRANCH   4   5
HETATM    5  N   UNL     1     -10.937   9.197  70.444  1.00  0.00    -0.239 NA 
HETATM    6  C   UNL     1     -11.677   8.607  71.567  1.00  0.00    -0.305 C  
HETATM    7  C   UNL     1     -11.262  10.622  70.338  1.00  0.00    -0.252 C  
ENDBRANCH   4   5
BRANCH   3   8
HETATM    8  N   UNL     1      -8.959   5.340  69.364  1.00  0.00    -0.099 NA 
HETATM    9  C   UNL     1      -8.002   5.807  68.437  1.00  0.00    -0.104 A  
HETATM   10  C   UNL     1      -7.180   6.905  68.740  1.00  0.00    -0.091 A  
HETATM   11  C   UNL     1      -6.181   7.324  67.861  1.00  0.00    -0.046 A  
HETATM   12  C   UNL     1      -5.989   6.659  66.655  1.00  0.00    -0.025 A  
HETATM   13  C   UNL     1      -6.795   5.570  66.332  1.00  0.00    -0.059 A  
HETATM   14  C   UNL     1      -7.795   5.139  67.217  1.00  0.00    -0.096 A  
HETATM   15  C   UNL     1      -8.649   3.951  66.880  1.00  0.00    -0.107 C  
HETATM   16  C   UNL     1      -8.333   2.767  67.785  1.00  0.00    -0.094 C  
HETATM   17  C   UNL     1      -8.612   2.877  69.273  1.00  0.00    -0.114 A  
HETATM   18  C   UNL     1      -8.539   1.651  69.979  1.00  0.00    -0.091 A  
HETATM   19  C   UNL     1      -8.759   1.580  71.350  1.00  0.00    -0.088 A  
HETATM   20  C   UNL     1      -9.045   2.739  72.050  1.00  0.00    -0.142 A  
HETATM   21  C   UNL     1      -9.116   3.958  71.371  1.00  0.00    -0.174 A  
HETATM   22  C   UNL     1      -8.917   4.067  69.976  1.00  0.00    -0.097 A  
ENDBRANCH   3   8
TORSDOF 2
ENDMDL
MODEL      150
REMARK 921   NORMALIZED FREE ENERGY PREDICTED BY IDOCK:   -1.44 KCAL/MOL
REMARK 922        TOTAL FREE ENERGY PREDICTED BY IDOCK:   -2.51 KCAL/MOL
REMARK 923 INTER-LIGAND FREE ENERGY PREDICTED BY IDOCK:   -2.95 KCAL/MOL
REMARK 924 INTRA-LIGAND FREE ENERGY PREDICTED BY IDOCK:    0.44 KCAL/MOL
REMARK 927      BINDING AFFINITY PREDICTED BY RF-SCORE:    0.00 PKD
ROOT
HETATM    1  C   UNL     1     -11.120   6.576  67.796  1.00  0.00    -0.366 C  
HETATM    2  C   UNL     1     -10.155   7.194  68.821  1.00  0.00    -0.175 C  
HETATM    3  C   UNL     1      -8.800   6.449  68.877  1.00  0.00    -0.125 C  
HETATM    4  C   UNL     1     -10.871   7.162  70.197  1.00  0.00    -0.257 C  
ENDROOT
BRANCH   4   5
HETATM    5  N   UNL     1     -10.147   7.738  71.344  1.00  0.00    -0.181 NA 
HETATM    6  C   UNL     1     -10.955   7.578  72.560  1.00  0.00    -0.313 C  
HETATM    7  C   UNL     1      -9.841   9.157  71.142  1.00  0.00    -0.301 C  
ENDBRANCH   4   5
BRANCH   3   8
HETATM    8  N   UNL     1      -8.071   6.518  67.582  1.00  0.00    -0.117 NA 
HETATM    9  C   UNL     1      -7.877   5.288  66.916  1.00  0.00    -0.100 A  
HETATM   10  C   UNL     1      -8.969   4.489  66.542  1.00  0.00    -0.114 A  
HETATM   11  C   UNL     1      -8.790   3.311  65.817  1.00  0.00    -0.136 A  
HETATM   12  C   UNL     1      -7.510   2.902  65.459  1.00  0.00    -0.072 A  
HETATM   13  C   UNL     1      -6.411   3.675  65.822  1.00  0.00    -0.032 A  
HETATM   14  C   UNL     1      -6.588   4.866  66.544  1.00  0.00    -0.046 A  
HETATM   15  C   UNL     1      -5.405   5.713  66.915  1.00  0.00    -0.008 C  
HETATM   16  C   UNL     1      -5.395   7.023  66.136  1.00  0.00    -0.023 C  
HETATM   17  C   UNL     1      -6.514   8.024  66.355  1.00  0.00    -0.047 A  
HETATM   18  C   UNL     1      -6.278   9.305  65.796  1.00  0.00    -0.056 A  
HETATM   19  C   UNL     1      -7.208  10.332  65.901  1.00  0.00    -0.131 A  
HETATM   20  C   UNL     1      -8.404  10.099  66.557  1.00  0.00    -0.124 A  
HETATM   21  C   UNL     1      -8.656   8.840  67.109  1.00  0.00    -0.119 A  
HETATM   22  C   UNL     1      -7.728   7.777  67.040  1.00  0.00    -0.104 A  
ENDBRANCH   3   8
TORSDOF 2
ENDMDL
MODEL      151
REMARK 921   NORMALIZED FREE ENERGY PREDICTED BY IDOCK:   -1.30 KCAL/MOL
REMARK 922        TOTAL FREE ENERGY PREDICTED BY IDOCK:   -2.35 KCAL/MOL
REMARK 923 INTER-LIGAND FREE ENERGY PREDICTED BY IDOCK:   -3.37 KCAL/MOL
REMARK 924 INTRA-LIGAND FREE ENERGY PREDICTED BY IDOCK:    1.02 KCAL/MOL
REMARK 927      BINDING AFFINITY PREDICTED BY RF-SCORE:    0.00 PKD
ROOT
HETATM    1  C   UNL     1      -5.700   8.514  64.732  1.00  0.00    -0.048 C  
HETATM    2  C   UNL     1      -6.921   7.698  64.275  1.00  0.00    -0.060 C  
HETATM    3  C   UNL     1      -7.943   7.482  65.415  1.00  0.00    -0.124 C  
HETATM    4  C   UNL     1      -6.386   6.345  63.735  1.00  0.00    -0.029 C  
ENDROOT
BRANCH   4   5
HETATM    5  N   UNL     1      -7.381   5.395  63.204  1.00  0.00    -0.048 NA 
HETATM    6  C   UNL     1      -8.528   6.140  62.669  1.00  0.00     0.058 C  
HETATM    7  C   UNL     1      -7.842   4.457  64.231  1.00  0.00    -0.085 C  
ENDBRANCH   4   5
BRANCH   3   8
HETATM    8  N   UNL     1      -8.510   8.766  65.908  1.00  0.00    -0.135 NA 
HETATM    9  C   UNL     1      -8.208   9.103  67.245  1.00  0.00    -0.114 A  
HETATM   10  C   UNL     1      -6.877   9.241  67.671  1.00  0.00    -0.076 A  
HETATM   11  C   UNL     1      -6.571   9.647  68.970  1.00  0.00    -0.049 A  
HETATM   12  C   UNL     1      -7.592   9.916  69.874  1.00  0.00    -0.167 A  
HETATM   13  C   UNL     1      -8.920   9.781  69.476  1.00  0.00    -0.215 A  
HETATM   14  C   UNL     1      -9.232   9.381  68.168  1.00  0.00    -0.135 A  
HETATM   15  C   UNL     1     -10.663   9.260  67.730  1.00  0.00    -0.270 C  
HETATM   16  C   UNL     1     -11.030  10.345  66.725  1.00  0.00    -0.116 C  
HETATM   17  C   UNL     1     -10.342  10.364  65.372  1.00  0.00    -0.270 A  
HETATM   18  C   UNL     1     -10.934  11.233  64.422  1.00  0.00    -0.331 A  
HETATM   19  C   UNL     1     -10.421  11.374  63.138  1.00  0.00    -0.323 A  
HETATM   20  C   UNL     1      -9.294  10.657  62.778  1.00  0.00    -0.348 A  
HETATM   21  C   UNL     1      -8.693   9.799  63.704  1.00  0.00    -0.235 A  
HETATM   22  C   UNL     1      -9.197   9.616  65.011  1.00  0.00    -0.250 A  
ENDBRANCH   3   8
TORSDOF 2
ENDMDL
MODEL      152
REMARK 921   NORMALIZED FREE ENERGY PREDICTED BY IDOCK:   -1.09 KCAL/MOL
REMARK 922        TOTAL FREE ENERGY PREDICTED BY IDOCK:   -2.12 KCAL/MOL
REMARK 923 INTER-LIGAND FREE ENERGY PREDICTED BY IDOCK:   -3.24 KCAL/MOL
REMARK 924 INTRA-LIGAND FREE ENERGY PREDICTED BY IDOCK:    1.11 KCAL/MOL
REMARK 927      BINDING AFFINITY PREDICTED BY RF-SCORE:    0.00 PKD
ROOT
HETATM    1  C   UNL     1      -6.584   6.932  67.277  1.00  0.00    -0.051 C  
HETATM    2  C   UNL     1      -7.519   6.432  66.163  1.00  0.00    -0.082 C  
HETATM    3  C   UNL     1      -8.881   7.166  66.165  1.00  0.00    -0.150 C  
HETATM    4  C   UNL     1      -7.702   4.905  66.375  1.00  0.00    -0.092 C  
ENDROOT
BRANCH   4   5
HETATM    5  N   UNL     1      -8.543   4.190  65.399  1.00  0.00    -0.116 NA 
HETATM    6  C   UNL     1      -8.259   4.695  64.049  1.00  0.00    -0.114 C  
HETATM    7  C   UNL     1      -9.971   4.345  65.689  1.00  0.00    -0.236 C  
ENDBRANCH   4   5
BRANCH   3   8
HETATM    8  N   UNL     1      -8.731   8.623  65.906  1.00  0.00    -0.162 NA 
HETATM    9  C   UNL     1      -9.190   9.483  66.927  1.00  0.00    -0.143 A  
HETATM   10  C   UNL     1      -8.661   9.407  68.226  1.00  0.00    -0.124 A  
HETATM   11  C   UNL     1      -9.054  10.302  69.221  1.00  0.00    -0.206 A  
HETATM   12  C   UNL     1      -9.993  11.289  68.939  1.00  0.00    -0.169 A  
HETATM   13  C   UNL     1     -10.534  11.381  67.659  1.00  0.00    -0.225 A  
HETATM   14  C   UNL     1     -10.135  10.488  66.653  1.00  0.00    -0.275 A  
HETATM   15  C   UNL     1     -10.699  10.601  65.267  1.00  0.00    -0.100 C  
HETATM   16  C   UNL     1      -9.644  11.075  64.275  1.00  0.00    -0.303 C  
HETATM   17  C   UNL     1      -8.440  10.194  63.997  1.00  0.00    -0.185 A  
HETATM   18  C   UNL     1      -7.665  10.590  62.879  1.00  0.00    -0.096 A  
HETATM   19  C   UNL     1      -6.525   9.894  62.495  1.00  0.00    -0.111 A  
HETATM   20  C   UNL     1      -6.125   8.792  63.228  1.00  0.00    -0.085 A  
HETATM   21  C   UNL     1      -6.875   8.390  64.337  1.00  0.00    -0.069 A  
HETATM   22  C   UNL     1      -8.049   9.060  64.747  1.00  0.00    -0.144 A  
ENDBRANCH   3   8
TORSDOF 2
ENDMDL
MODEL      153
REMARK 921   NORMALIZED FREE ENERGY PREDICTED BY IDOCK:   -0.92 KCAL/MOL
REMARK 922        TOTAL FREE ENERGY PREDICTED BY IDOCK:   -1.93 KCAL/MOL
REMARK 923 INTER-LIGAND FREE ENERGY PREDICTED BY IDOCK:   -2.98 KCAL/MOL
REMARK 924 INTRA-LIGAND FREE ENERGY PREDICTED BY IDOCK:    1.05 KCAL/MOL
REMARK 927      BINDING AFFINITY PREDICTED BY RF-SCORE:    0.00 PKD
ROOT
HETATM    1  C   UNL     1      -7.198  11.393  68.800  1.00  0.00    -0.107 C  
HETATM    2  C   UNL     1      -7.304  12.926  68.761  1.00  0.00    -0.066 C  
HETATM    3  C   UNL     1      -7.888  13.442  67.425  1.00  0.00    -0.146 C  
HETATM    4  C   UNL     1      -5.877  13.486  69.004  1.00  0.00    -0.078 C  
ENDROOT
BRANCH   4   5
HETATM    5  N   UNL     1      -5.729  14.951  69.043  1.00  0.00    -0.095 NA 
HETATM    6  C   UNL     1      -6.940  15.547  69.624  1.00  0.00    -0.173 C  
HETATM    7  C   UNL     1      -5.498  15.514  67.710  1.00  0.00    -0.112 C  
ENDBRANCH   4   5
BRANCH   3   8
HETATM    8  N   UNL     1      -9.279  12.963  67.202  1.00  0.00    -0.217 NA 
HETATM    9  C   UNL     1      -9.442  11.987  66.195  1.00  0.00    -0.232 A  
HETATM   10  C   UNL     1      -8.765  10.758  66.264  1.00  0.00    -0.175 A  
HETATM   11  C   UNL     1      -8.979   9.760  65.314  1.00  0.00    -0.233 A  
HETATM   12  C   UNL     1      -9.869   9.973  64.267  1.00  0.00    -0.152 A  
HETATM   13  C   UNL     1     -10.549  11.185  64.175  1.00  0.00    -0.436 A  
HETATM   14  C   UNL     1     -10.343  12.189  65.134  1.00  0.00    -0.311 A  
HETATM   15  C   UNL     1     -11.093  13.487  65.050  1.00  0.00    -0.338 C  
HETATM   16  C   UNL     1     -12.113  13.613  66.175  1.00  0.00    -0.477 C  
HETATM   17  C   UNL     1     -11.626  13.684  67.611  1.00  0.00    -0.381 A  
HETATM   18  C   UNL     1     -12.616  14.064  68.551  1.00  0.00     0.511 A  
HETATM   19  C   UNL     1     -12.336  14.168  69.908  1.00  0.00    -0.382 A  
HETATM   20  C   UNL     1     -11.060  13.881  70.360  1.00  0.00     0.375 A  
HETATM   21  C   UNL     1     -10.073  13.498  69.447  1.00  0.00     0.487 A  
HETATM   22  C   UNL     1     -10.315  13.400  68.059  1.00  0.00    -0.241 A  
ENDBRANCH   3   8
TORSDOF 2
ENDMDL
MODEL      154
REMARK 921   NORMALIZED FREE ENERGY PREDICTED BY IDOCK:   -0.83 KCAL/MOL
REMARK 922        TOTAL FREE ENERGY PREDICTED BY IDOCK:   -1.84 KCAL/MOL
REMARK 923 INTER-LIGAND FREE ENERGY PREDICTED BY IDOCK:   -3.59 KCAL/MOL
REMARK 924 INTRA-LIGAND FREE ENERGY PREDICTED BY IDOCK:    1.75 KCAL/MOL
REMARK 927      BINDING AFFINITY PREDICTED BY RF-SCORE:    0.00 PKD
ROOT
HETATM    1  C   UNL     1      -6.942  13.707  69.879  1.00  0.00     0.308 C  
HETATM    2  C   UNL     1      -6.676  13.151  68.470  1.00  0.00    -0.092 C  
HETATM    3  C   UNL     1      -7.984  12.818  67.713  1.00  0.00    -0.157 C  
HETATM    4  C   UNL     1      -5.788  11.890  68.640  1.00  0.00    -0.049 C  
ENDROOT
BRANCH   4   5
HETATM    5  N   UNL     1      -5.371  11.194  67.410  1.00  0.00    -0.040 NA 
HETATM    6  C   UNL     1      -6.331  11.484  66.337  1.00  0.00     0.012 C  
HETATM    7  C   UNL     1      -5.280   9.744  67.606  1.00  0.00    -0.036 C  
ENDBRANCH   4   5
BRANCH   3   8
HETATM    8  N   UNL     1      -8.824  14.026  67.490  1.00  0.00    -0.187 NA 
HETATM    9  C   UNL     1      -8.182  15.269  67.681  1.00  0.00    -0.161 A  
HETATM   10  C   UNL     1      -7.045  15.616  66.934  1.00  0.00     0.003 A  
HETATM   11  C   UNL     1      -6.450  16.872  67.063  1.00  0.00    -0.235 A  
HETATM   12  C   UNL     1      -6.977  17.804  67.950  1.00  0.00    -0.194 A  
HETATM   13  C   UNL     1      -8.102  17.480  68.705  1.00  0.00    -0.263 A  
HETATM   14  C   UNL     1      -8.708  16.222  68.572  1.00  0.00    -0.211 A  
HETATM   15  C   UNL     1      -9.935  15.880  69.367  1.00  0.00    -0.274 C  
HETATM   16  C   UNL     1     -11.164  15.776  68.472  1.00  0.00    -0.354 C  
HETATM   17  C   UNL     1     -11.223  14.686  67.418  1.00  0.00    -0.351 A  
HETATM   18  C   UNL     1     -12.498  14.505  66.827  1.00  0.00     0.051 A  
HETATM   19  C   UNL     1     -12.719  13.553  65.839  1.00  0.00    -0.382 A  
HETATM   20  C   UNL     1     -11.664  12.767  65.408  1.00  0.00    -0.425 A  
HETATM   21  C   UNL     1     -10.398  12.936  65.976  1.00  0.00    -0.294 A  
HETATM   22  C   UNL     1     -10.140  13.880  66.995  1.00  0.00    -0.256 A  
ENDBRANCH   3   8
TORSDOF 2
ENDMDL
MODEL      155
REMARK 921   NORMALIZED FREE ENERGY PREDICTED BY IDOCK:   -0.82 KCAL/MOL
REMARK 922        TOTAL FREE ENERGY PREDICTED BY IDOCK:   -1.83 KCAL/MOL
REMARK 923 INTER-LIGAND FREE ENERGY PREDICTED BY IDOCK:   -2.89 KCAL/MOL
REMARK 924 INTRA-LIGAND FREE ENERGY PREDICTED BY IDOCK:    1.06 KCAL/MOL
REMARK 927      BINDING AFFINITY PREDICTED BY RF-SCORE:    0.00 PKD
ROOT
HETATM    1  C   UNL     1     -10.649  14.326  66.589  1.00  0.00    -0.278 C  
HETATM    2  C   UNL     1     -10.873  14.385  68.109  1.00  0.00    -0.251 C  
HETATM    3  C   UNL     1     -11.065  12.981  68.730  1.00  0.00    -0.270 C  
HETATM    4  C   UNL     1     -12.117  15.281  68.350  1.00  0.00    -0.038 C  
ENDROOT
BRANCH   4   5
HETATM    5  N   UNL     1     -12.514  15.515  69.749  1.00  0.00    -0.245 NA 
HETATM    6  C   UNL     1     -11.450  16.257  70.439  1.00  0.00    -0.248 C  
HETATM    7  C   UNL     1     -12.775  14.260  70.461  1.00  0.00    -0.328 C  
ENDBRANCH   4   5
BRANCH   3   8
HETATM    8  N   UNL     1      -9.859  12.125  68.559  1.00  0.00    -0.195 NA 
HETATM    9  C   UNL     1      -8.647  12.807  68.317  1.00  0.00    -0.166 A  
HETATM   10  C   UNL     1      -8.154  13.749  69.233  1.00  0.00     0.418 A  
HETATM   11  C   UNL     1      -6.920  14.370  69.038  1.00  0.00    -0.114 A  
HETATM   12  C   UNL     1      -6.157  14.068  67.916  1.00  0.00    -0.155 A  
HETATM   13  C   UNL     1      -6.628  13.139  66.991  1.00  0.00     0.515 A  
HETATM   14  C   UNL     1      -7.864  12.505  67.188  1.00  0.00    -0.123 A  
HETATM   15  C   UNL     1      -8.362  11.486  66.205  1.00  0.00    -0.018 C  
HETATM   16  C   UNL     1      -8.354  10.085  66.805  1.00  0.00    -0.125 C  
HETATM   17  C   UNL     1      -9.261   9.779  67.982  1.00  0.00    -0.131 A  
HETATM   18  C   UNL     1      -9.379   8.402  68.293  1.00  0.00    -0.139 A  
HETATM   19  C   UNL     1     -10.165   7.953  69.348  1.00  0.00    -0.206 A  
HETATM   20  C   UNL     1     -10.842   8.875  70.127  1.00  0.00    -0.251 A  
HETATM   21  C   UNL     1     -10.733  10.238  69.838  1.00  0.00    -0.344 A  
HETATM   22  C   UNL     1      -9.959  10.730  68.763  1.00  0.00    -0.193 A  
ENDBRANCH   3   8
TORSDOF 2
ENDMDL
MODEL      156
REMARK 921   NORMALIZED FREE ENERGY PREDICTED BY IDOCK:   -0.67 KCAL/MOL
REMARK 922        TOTAL FREE ENERGY PREDICTED BY IDOCK:   -1.66 KCAL/MOL
REMARK 923 INTER-LIGAND FREE ENERGY PREDICTED BY IDOCK:   -1.90 KCAL/MOL
REMARK 924 INTRA-LIGAND FREE ENERGY PREDICTED BY IDOCK:    0.24 KCAL/MOL
REMARK 927      BINDING AFFINITY PREDICTED BY RF-SCORE:    0.00 PKD
ROOT
HETATM    1  C   UNL     1      -9.760   4.960  67.183  1.00  0.00    -0.194 C  
HETATM    2  C   UNL     1      -9.330   6.433  67.282  1.00  0.00    -0.125 C  
HETATM    3  C   UNL     1      -7.793   6.600  67.239  1.00  0.00    -0.112 C  
HETATM    4  C   UNL     1      -9.920   6.991  68.604  1.00  0.00    -0.156 C  
ENDROOT
BRANCH   4   5
HETATM    5  N   UNL     1      -9.665   8.410  68.905  1.00  0.00    -0.164 NA 
HETATM    6  C   UNL     1     -10.673   9.240  68.232  1.00  0.00    -0.145 C  
HETATM    7  C   UNL     1      -8.326   8.827  68.481  1.00  0.00    -0.129 C  
ENDBRANCH   4   5
BRANCH   3   8
HETATM    8  N   UNL     1      -7.214   6.123  65.954  1.00  0.00    -0.073 NA 
HETATM    9  C   UNL     1      -7.201   7.059  64.897  1.00  0.00    -0.078 A  
HETATM   10  C   UNL     1      -6.533   8.287  65.029  1.00  0.00    -0.052 A  
HETATM   11  C   UNL     1      -6.451   9.184  63.963  1.00  0.00    -0.088 A  
HETATM   12  C   UNL     1      -7.045   8.875  62.745  1.00  0.00    -0.095 A  
HETATM   13  C   UNL     1      -7.717   7.664  62.592  1.00  0.00    -0.122 A  
HETATM   14  C   UNL     1      -7.794   6.755  63.658  1.00  0.00    -0.106 A  
HETATM   15  C   UNL     1      -8.497   5.440  63.487  1.00  0.00    -0.060 C  
HETATM   16  C   UNL     1      -7.511   4.278  63.502  1.00  0.00    -0.055 C  
HETATM   17  C   UNL     1      -6.722   3.991  64.766  1.00  0.00    -0.044 A  
HETATM   18  C   UNL     1      -6.042   2.748  64.768  1.00  0.00    -0.019 A  
HETATM   19  C   UNL     1      -5.268   2.339  65.848  1.00  0.00    -0.005 A  
HETATM   20  C   UNL     1      -5.145   3.170  66.946  1.00  0.00    -0.004 A  
HETATM   21  C   UNL     1      -5.804   4.402  66.959  1.00  0.00    -0.023 A  
HETATM   22  C   UNL     1      -6.615   4.845  65.890  1.00  0.00    -0.045 A  
ENDBRANCH   3   8
TORSDOF 2
ENDMDL
MODEL      157
REMARK 921   NORMALIZED FREE ENERGY PREDICTED BY IDOCK:   -0.65 KCAL/MOL
REMARK 922        TOTAL FREE ENERGY PREDICTED BY IDOCK:   -1.63 KCAL/MOL
REMARK 923 INTER-LIGAND FREE ENERGY PREDICTED BY IDOCK:   -0.67 KCAL/MOL
REMARK 924 INTRA-LIGAND FREE ENERGY PREDICTED BY IDOCK:   -0.95 KCAL/MOL
REMARK 927      BINDING AFFINITY PREDICTED BY RF-SCORE:    0.00 PKD
ROOT
HETATM    1  C   UNL     1      -7.248  14.455  70.653  1.00  0.00     0.897 C  
HETATM    2  C   UNL     1      -7.264  13.643  69.348  1.00  0.00     0.149 C  
HETATM    3  C   UNL     1      -8.654  13.033  69.051  1.00  0.00     0.476 C  
HETATM    4  C   UNL     1      -6.183  12.538  69.487  1.00  0.00    -0.120 C  
ENDROOT
BRANCH   4   5
HETATM    5  N   UNL     1      -5.988  11.642  68.334  1.00  0.00    -0.049 NA 
HETATM    6  C   UNL     1      -5.301  10.421  68.777  1.00  0.00    -0.038 C  
HETATM    7  C   UNL     1      -5.210  12.282  67.270  1.00  0.00    -0.087 C  
ENDBRANCH   4   5
BRANCH   3   8
HETATM    8  N   UNL     1      -9.694  14.080  68.857  1.00  0.00    -0.111 NA 
HETATM    9  C   UNL     1      -9.498  14.950  67.763  1.00  0.00    -0.203 A  
HETATM   10  C   UNL     1      -9.401  14.451  66.453  1.00  0.00    -0.284 A  
HETATM   11  C   UNL     1      -9.284  15.309  65.360  1.00  0.00     0.398 A  
HETATM   12  C   UNL     1      -9.252  16.686  65.554  1.00  0.00     0.414 A  
HETATM   13  C   UNL     1      -9.342  17.203  66.844  1.00  0.00    -0.260 A  
HETATM   14  C   UNL     1      -9.469  16.344  67.946  1.00  0.00    -0.223 A  
HETATM   15  C   UNL     1      -9.591  16.901  69.335  1.00  0.00     0.029 C  
HETATM   16  C   UNL     1     -10.987  16.676  69.902  1.00  0.00    -0.194 C  
HETATM   17  C   UNL     1     -11.469  15.258  70.145  1.00  0.00    -0.319 A  
HETATM   18  C   UNL     1     -12.656  15.161  70.913  1.00  0.00    -0.441 A  
HETATM   19  C   UNL     1     -13.233  13.934  71.218  1.00  0.00    -0.352 A  
HETATM   20  C   UNL     1     -12.643  12.774  70.750  1.00  0.00    -0.308 A  
HETATM   21  C   UNL     1     -11.475  12.850  69.987  1.00  0.00    -0.082 A  
HETATM   22  C   UNL     1     -10.848  14.078  69.673  1.00  0.00     0.030 A  
ENDBRANCH   3   8
TORSDOF 2
ENDMDL
MODEL      158
REMARK 921   NORMALIZED FREE ENERGY PREDICTED BY IDOCK:   -0.59 KCAL/MOL
REMARK 922        TOTAL FREE ENERGY PREDICTED BY IDOCK:   -1.57 KCAL/MOL
REMARK 923 INTER-LIGAND FREE ENERGY PREDICTED BY IDOCK:   -2.98 KCAL/MOL
REMARK 924 INTRA-LIGAND FREE ENERGY PREDICTED BY IDOCK:    1.42 KCAL/MOL
REMARK 927      BINDING AFFINITY PREDICTED BY RF-SCORE:    0.00 PKD
ROOT
HETATM    1  C   UNL     1      -7.206   8.869  70.024  1.00  0.00    -0.054 C  
HETATM    2  C   UNL     1      -8.504   8.169  69.589  1.00  0.00    -0.126 C  
HETATM    3  C   UNL     1      -8.548   6.686  70.027  1.00  0.00    -0.140 C  
HETATM    4  C   UNL     1      -8.597   8.302  68.045  1.00  0.00    -0.132 C  
ENDROOT
BRANCH   4   5
HETATM    5  N   UNL     1      -9.787   7.729  67.393  1.00  0.00    -0.161 NA 
HETATM    6  C   UNL     1      -9.377   7.005  66.182  1.00  0.00    -0.040 C  
HETATM    7  C   UNL     1     -10.766   8.760  67.039  1.00  0.00    -0.116 C  
ENDBRANCH   4   5
BRANCH   3   8
HETATM    8  N   UNL     1      -8.519   6.540  71.508  1.00  0.00    -0.124 NA 
HETATM    9  C   UNL     1      -9.458   5.641  72.058  1.00  0.00    -0.150 A  
HETATM   10  C   UNL     1      -9.473   4.290  71.676  1.00  0.00    -0.211 A  
HETATM   11  C   UNL     1     -10.347   3.380  72.272  1.00  0.00    -0.116 A  
HETATM   12  C   UNL     1     -11.231   3.805  73.257  1.00  0.00    -0.230 A  
HETATM   13  C   UNL     1     -11.237   5.142  73.648  1.00  0.00    -0.198 A  
HETATM   14  C   UNL     1     -10.354   6.059  73.059  1.00  0.00    -0.224 A  
HETATM   15  C   UNL     1     -10.342   7.494  73.498  1.00  0.00    -0.373 C  
HETATM   16  C   UNL     1      -9.063   7.834  74.253  1.00  0.00    -0.018 C  
HETATM   17  C   UNL     1      -7.734   7.772  73.523  1.00  0.00    -0.179 A  
HETATM   18  C   UNL     1      -6.649   8.354  74.224  1.00  0.00    -0.165 A  
HETATM   19  C   UNL     1      -5.362   8.373  73.698  1.00  0.00    -0.065 A  
HETATM   20  C   UNL     1      -5.128   7.796  72.463  1.00  0.00    -0.036 A  
HETATM   21  C   UNL     1      -6.185   7.211  71.760  1.00  0.00    -0.037 A  
HETATM   22  C   UNL     1      -7.509   7.190  72.254  1.00  0.00    -0.084 A  
ENDBRANCH   3   8
TORSDOF 2
ENDMDL
MODEL      159
REMARK 921   NORMALIZED FREE ENERGY PREDICTED BY IDOCK:   -0.10 KCAL/MOL
REMARK 922        TOTAL FREE ENERGY PREDICTED BY IDOCK:   -1.01 KCAL/MOL
REMARK 923 INTER-LIGAND FREE ENERGY PREDICTED BY IDOCK:   -2.60 KCAL/MOL
REMARK 924 INTRA-LIGAND FREE ENERGY PREDICTED BY IDOCK:    1.58 KCAL/MOL
REMARK 927      BINDING AFFINITY PREDICTED BY RF-SCORE:    0.00 PKD
ROOT
HETATM    1  C   UNL     1      -8.593   9.443  68.443  1.00  0.00    -0.124 C  
HETATM    2  C   UNL     1      -8.884   8.093  67.767  1.00  0.00    -0.130 C  
HETATM    3  C   UNL     1      -7.882   6.994  68.193  1.00  0.00    -0.118 C  
HETATM    4  C   UNL     1      -8.838   8.333  66.234  1.00  0.00    -0.161 C  
ENDROOT
BRANCH   4   5
HETATM    5  N   UNL     1      -9.120   7.176  65.366  1.00  0.00     0.207 NA 
HETATM    6  C   UNL     1      -9.353   5.988  66.198  1.00  0.00    -0.118 C  
HETATM    7  C   UNL     1      -8.022   6.912  64.432  1.00  0.00    -0.093 C  
ENDBRANCH   4   5
BRANCH   3   8
HETATM    8  N   UNL     1      -7.952   6.709  69.652  1.00  0.00    -0.122 NA 
HETATM    9  C   UNL     1      -9.062   7.250  70.334  1.00  0.00    -0.155 A  
HETATM   10  C   UNL     1     -10.373   6.919  69.954  1.00  0.00    -0.223 A  
HETATM   11  C   UNL     1     -11.474   7.388  70.671  1.00  0.00    -0.307 A  
HETATM   12  C   UNL     1     -11.287   8.207  71.779  1.00  0.00    -0.333 A  
HETATM   13  C   UNL     1      -9.996   8.551  72.172  1.00  0.00    -0.387 A  
HETATM   14  C   UNL     1      -8.885   8.074  71.460  1.00  0.00    -0.178 A  
HETATM   15  C   UNL     1      -7.493   8.425  71.897  1.00  0.00    -0.129 C  
HETATM   16  C   UNL     1      -6.762   7.208  72.452  1.00  0.00    -0.056 C  
HETATM   17  C   UNL     1      -6.462   6.040  71.531  1.00  0.00    -0.050 A  
HETATM   18  C   UNL     1      -5.558   5.087  72.062  1.00  0.00    -0.008 A  
HETATM   19  C   UNL     1      -5.185   3.954  71.348  1.00  0.00     0.000 A  
HETATM   20  C   UNL     1      -5.718   3.741  70.090  1.00  0.00    -0.017 A  
HETATM   21  C   UNL     1      -6.616   4.668  69.552  1.00  0.00    -0.036 A  
HETATM   22  C   UNL     1      -7.004   5.840  70.239  1.00  0.00    -0.058 A  
ENDBRANCH   3   8
TORSDOF 2
ENDMDL
MODEL      160
REMARK 921   NORMALIZED FREE ENERGY PREDICTED BY IDOCK:    0.04 KCAL/MOL
REMARK 922        TOTAL FREE ENERGY PREDICTED BY IDOCK:   -0.86 KCAL/MOL
REMARK 923 INTER-LIGAND FREE ENERGY PREDICTED BY IDOCK:   -2.00 KCAL/MOL
REMARK 924 INTRA-LIGAND FREE ENERGY PREDICTED BY IDOCK:    1.14 KCAL/MOL
REMARK 927      BINDING AFFINITY PREDICTED BY RF-SCORE:    0.00 PKD
ROOT
HETATM    1  C   UNL     1      -6.802   8.299  67.164  1.00  0.00    -0.070 C  
HETATM    2  C   UNL     1      -8.049   8.833  66.440  1.00  0.00    -0.103 C  
HETATM    3  C   UNL     1      -9.362   8.411  67.141  1.00  0.00    -0.153 C  
HETATM    4  C   UNL     1      -7.992   8.299  64.984  1.00  0.00    -0.141 C  
ENDROOT
BRANCH   4   5
HETATM    5  N   UNL     1      -9.078   8.709  64.077  1.00  0.00     0.421 NA 
HETATM    6  C   UNL     1      -8.953   7.982  62.807  1.00  0.00     0.739 C  
HETATM    7  C   UNL     1      -9.060  10.152  63.818  1.00  0.00    -0.261 C  
ENDBRANCH   4   5
BRANCH   3   8
HETATM    8  N   UNL     1      -9.461   8.962  68.520  1.00  0.00    -0.147 NA 
HETATM    9  C   UNL     1      -8.987   8.127  69.554  1.00  0.00    -0.151 A  
HETATM   10  C   UNL     1      -7.658   7.674  69.564  1.00  0.00    -0.098 A  
HETATM   11  C   UNL     1      -7.161   6.912  70.622  1.00  0.00    -0.069 A  
HETATM   12  C   UNL     1      -7.988   6.578  71.689  1.00  0.00    -0.104 A  
HETATM   13  C   UNL     1      -9.311   7.012  71.698  1.00  0.00    -0.158 A  
HETATM   14  C   UNL     1      -9.812   7.787  70.641  1.00  0.00    -0.182 A  
HETATM   15  C   UNL     1     -11.231   8.276  70.663  1.00  0.00    -0.270 C  
HETATM   16  C   UNL     1     -11.295   9.786  70.857  1.00  0.00    -0.439 C  
HETATM   17  C   UNL     1     -10.720  10.696  69.787  1.00  0.00    -0.283 A  
HETATM   18  C   UNL     1     -11.061  12.063  69.929  1.00  0.00     0.124 A  
HETATM   19  C   UNL     1     -10.608  13.028  69.037  1.00  0.00    -0.079 A  
HETATM   20  C   UNL     1      -9.791  12.649  67.988  1.00  0.00    -0.218 A  
HETATM   21  C   UNL     1      -9.439  11.305  67.835  1.00  0.00    -0.179 A  
HETATM   22  C   UNL     1      -9.895  10.293  68.710  1.00  0.00    -0.180 A  
ENDBRANCH   3   8
TORSDOF 2
ENDMDL
MODEL      161
REMARK 921   NORMALIZED FREE ENERGY PREDICTED BY IDOCK:    0.22 KCAL/MOL
REMARK 922        TOTAL FREE ENERGY PREDICTED BY IDOCK:   -0.66 KCAL/MOL
REMARK 923 INTER-LIGAND FREE ENERGY PREDICTED BY IDOCK:   -2.63 KCAL/MOL
REMARK 924 INTRA-LIGAND FREE ENERGY PREDICTED BY IDOCK:    1.97 KCAL/MOL
REMARK 927      BINDING AFFINITY PREDICTED BY RF-SCORE:    0.00 PKD
ROOT
HETATM    1  C   UNL     1      -7.385   8.525  72.212  1.00  0.00    -0.095 C  
HETATM    2  C   UNL     1      -7.111   7.132  71.621  1.00  0.00    -0.069 C  
HETATM    3  C   UNL     1      -8.412   6.329  71.383  1.00  0.00    -0.127 C  
HETATM    4  C   UNL     1      -6.169   6.396  72.610  1.00  0.00    -0.054 C  
ENDROOT
BRANCH   4   5
HETATM    5  N   UNL     1      -5.736   5.037  72.239  1.00  0.00    -0.019 NA 
HETATM    6  C   UNL     1      -6.881   4.293  71.698  1.00  0.00    -0.031 C  
HETATM    7  C   UNL     1      -5.176   4.310  73.381  1.00  0.00    -0.007 C  
ENDBRANCH   4   5
BRANCH   3   8
HETATM    8  N   UNL     1      -9.304   6.990  70.392  1.00  0.00    -0.159 NA 
HETATM    9  C   UNL     1     -10.625   7.241  70.822  1.00  0.00    -0.223 A  
HETATM   10  C   UNL     1     -10.877   8.037  71.952  1.00  0.00    -0.316 A  
HETATM   11  C   UNL     1     -12.180   8.353  72.338  1.00  0.00    -0.430 A  
HETATM   12  C   UNL     1     -13.260   7.871  71.606  1.00  0.00    -0.367 A  
HETATM   13  C   UNL     1     -13.034   7.077  70.484  1.00  0.00     0.316 A  
HETATM   14  C   UNL     1     -11.725   6.764  70.087  1.00  0.00    -0.370 A  
HETATM   15  C   UNL     1     -11.480   5.929  68.864  1.00  0.00     0.356 C  
HETATM   16  C   UNL     1     -10.862   6.754  67.742  1.00  0.00    -0.339 C  
HETATM   17  C   UNL     1      -9.479   7.349  67.935  1.00  0.00    -0.150 A  
HETATM   18  C   UNL     1      -8.889   7.865  66.755  1.00  0.00    -0.154 A  
HETATM   19  C   UNL     1      -7.629   8.451  66.762  1.00  0.00    -0.090 A  
HETATM   20  C   UNL     1      -6.934   8.547  67.954  1.00  0.00    -0.074 A  
HETATM   21  C   UNL     1      -7.503   8.049  69.129  1.00  0.00    -0.095 A  
HETATM   22  C   UNL     1      -8.773   7.429  69.158  1.00  0.00    -0.136 A  
ENDBRANCH   3   8
TORSDOF 2
ENDMDL
MODEL      162
REMARK 921   NORMALIZED FREE ENERGY PREDICTED BY IDOCK:    0.27 KCAL/MOL
REMARK 922        TOTAL FREE ENERGY PREDICTED BY IDOCK:   -0.61 KCAL/MOL
REMARK 923 INTER-LIGAND FREE ENERGY PREDICTED BY IDOCK:   -1.87 KCAL/MOL
REMARK 924 INTRA-LIGAND FREE ENERGY PREDICTED BY IDOCK:    1.27 KCAL/MOL
REMARK 927      BINDING AFFINITY PREDICTED BY RF-SCORE:    0.00 PKD
ROOT
HETATM    1  C   UNL     1      -8.533   6.128  67.512  1.00  0.00    -0.108 C  
HETATM    2  C   UNL     1      -8.571   4.631  67.863  1.00  0.00    -0.106 C  
HETATM    3  C   UNL     1      -7.519   4.251  68.932  1.00  0.00    -0.055 C  
HETATM    4  C   UNL     1      -8.339   3.849  66.543  1.00  0.00    -0.104 C  
ENDROOT
BRANCH   4   5
HETATM    5  N   UNL     1      -8.365   2.378  66.622  1.00  0.00    -0.087 NA 
HETATM    6  C   UNL     1      -7.953   1.814  65.330  1.00  0.00    -0.074 C  
HETATM    7  C   UNL     1      -9.694   1.872  66.976  1.00  0.00     0.493 C  
ENDBRANCH   4   5
BRANCH   3   8
HETATM    8  N   UNL     1      -7.759   4.948  70.225  1.00  0.00    -0.061 NA 
HETATM    9  C   UNL     1      -8.898   5.780  70.276  1.00  0.00    -0.141 A  
HETATM   10  C   UNL     1     -10.181   5.263  70.032  1.00  0.00    -0.358 A  
HETATM   11  C   UNL     1     -11.318   6.060  70.156  1.00  0.00    -0.351 A  
HETATM   12  C   UNL     1     -11.195   7.398  70.518  1.00  0.00    -0.296 A  
HETATM   13  C   UNL     1      -9.933   7.934  70.760  1.00  0.00    -0.192 A  
HETATM   14  C   UNL     1      -8.787   7.132  70.646  1.00  0.00    -0.149 A  
HETATM   15  C   UNL     1      -7.428   7.703  70.931  1.00  0.00    -0.071 C  
HETATM   16  C   UNL     1      -6.838   7.120  72.210  1.00  0.00    -0.060 C  
HETATM   17  C   UNL     1      -6.519   5.638  72.270  1.00  0.00    -0.053 A  
HETATM   18  C   UNL     1      -5.738   5.248  73.386  1.00  0.00    -0.023 A  
HETATM   19  C   UNL     1      -5.365   3.925  73.593  1.00  0.00    -0.003 A  
HETATM   20  C   UNL     1      -5.777   2.957  72.694  1.00  0.00    -0.008 A  
HETATM   21  C   UNL     1      -6.553   3.323  71.590  1.00  0.00    -0.022 A  
HETATM   22  C   UNL     1      -6.935   4.660  71.336  1.00  0.00    -0.042 A  
ENDBRANCH   3   8
TORSDOF 2
ENDMDL
MODEL      163
REMARK 921   NORMALIZED FREE ENERGY PREDICTED BY IDOCK:    2.22 KCAL/MOL
REMARK 922        TOTAL FREE ENERGY PREDICTED BY IDOCK:    1.57 KCAL/MOL
REMARK 923 INTER-LIGAND FREE ENERGY PREDICTED BY IDOCK:    1.26 KCAL/MOL
REMARK 924 INTRA-LIGAND FREE ENERGY PREDICTED BY IDOCK:    0.30 KCAL/MOL
REMARK 927      BINDING AFFINITY PREDICTED BY RF-SCORE:    0.00 PKD
ROOT
HETATM    1  C   UNL     1     -10.509  11.150  67.181  1.00  0.00    -0.270 C  
HETATM    2  C   UNL     1     -10.403  11.949  65.871  1.00  0.00    -0.277 C  
HETATM    3  C   UNL     1     -11.189  13.281  65.931  1.00  0.00    -0.290 C  
HETATM    4  C   UNL     1     -10.934  11.034  64.736  1.00  0.00    -0.072 C  
ENDROOT
BRANCH   4   5
HETATM    5  N   UNL     1     -10.902  11.577  63.367  1.00  0.00    -0.384 NA 
HETATM    6  C   UNL     1      -9.752  11.014  62.647  1.00  0.00    -0.202 C  
HETATM    7  C   UNL     1     -10.814  13.040  63.361  1.00  0.00     0.201 C  
ENDBRANCH   4   5
BRANCH   3   8
HETATM    8  N   UNL     1     -10.658  14.197  66.976  1.00  0.00    -0.275 NA 
HETATM    9  C   UNL     1      -9.677  15.118  66.550  1.00  0.00    -0.271 A  
HETATM   10  C   UNL     1      -9.949  16.041  65.527  1.00  0.00    -0.282 A  
HETATM   11  C   UNL     1      -9.012  17.003  65.153  1.00  0.00     2.199 A  
HETATM   12  C   UNL     1      -7.776  17.057  65.789  1.00  0.00     0.344 A  
HETATM   13  C   UNL     1      -7.482  16.149  66.803  1.00  0.00    -0.246 A  
HETATM   14  C   UNL     1      -8.425  15.185  67.189  1.00  0.00    -0.238 A  
HETATM   15  C   UNL     1      -8.119  14.221  68.299  1.00  0.00    -0.143 C  
HETATM   16  C   UNL     1      -8.964  14.510  69.533  1.00  0.00     0.326 C  
HETATM   17  C   UNL     1     -10.471  14.348  69.454  1.00  0.00    -0.097 A  
HETATM   18  C   UNL     1     -11.134  14.378  70.706  1.00  0.00     0.230 A  
HETATM   19  C   UNL     1     -12.514  14.251  70.806  1.00  0.00    -0.428 A  
HETATM   20  C   UNL     1     -13.267  14.105  69.655  1.00  0.00     1.175 A  
HETATM   21  C   UNL     1     -12.630  14.079  68.411  1.00  0.00     0.536 A  
HETATM   22  C   UNL     1     -11.228  14.185  68.270  1.00  0.00    -0.272 A  
ENDBRANCH   3   8
TORSDOF 2
ENDMDL
MODEL      164
REMARK 921   NORMALIZED FREE ENERGY PREDICTED BY IDOCK:    2.25 KCAL/MOL
REMARK 922        TOTAL FREE ENERGY PREDICTED BY IDOCK:    1.61 KCAL/MOL
REMARK 923 INTER-LIGAND FREE ENERGY PREDICTED BY IDOCK:    1.79 KCAL/MOL
REMARK 924 INTRA-LIGAND FREE ENERGY PREDICTED BY IDOCK:   -0.17 KCAL/MOL
REMARK 927      BINDING AFFINITY PREDICTED BY RF-SCORE:    0.00 PKD
ROOT
HETATM    1  C   UNL     1      -6.719  20.312  68.567  1.00  0.00    -0.305 C  
HETATM    2  C   UNL     1      -8.109  19.674  68.729  1.00  0.00    -0.301 C  
HETATM    3  C   UNL     1      -8.840  19.506  67.376  1.00  0.00    -0.308 C  
HETATM    4  C   UNL     1      -8.915  20.581  69.695  1.00  0.00     1.411 C  
ENDROOT
BRANCH   4   5
HETATM    5  N   UNL     1     -10.284  20.152  70.032  1.00  0.00     0.239 NA 
HETATM    6  C   UNL     1     -10.381  18.692  69.905  1.00  0.00     1.068 C  
HETATM    7  C   UNL     1     -11.284  20.786  69.168  1.00  0.00     1.886 C  
ENDBRANCH   4   5
BRANCH   3   8
HETATM    8  N   UNL     1      -8.110  18.593  66.455  1.00  0.00    -0.276 NA 
HETATM    9  C   UNL     1      -8.495  17.235  66.499  1.00  0.00    -0.271 A  
HETATM   10  C   UNL     1      -9.819  16.852  66.230  1.00  0.00    -0.320 A  
HETATM   11  C   UNL     1     -10.190  15.508  66.196  1.00  0.00    -0.322 A  
HETATM   12  C   UNL     1      -9.245  14.517  66.439  1.00  0.00    -0.264 A  
HETATM   13  C   UNL     1      -7.927  14.874  66.713  1.00  0.00     0.066 A  
HETATM   14  C   UNL     1      -7.547  16.224  66.739  1.00  0.00    -0.285 A  
HETATM   15  C   UNL     1      -6.121  16.609  67.009  1.00  0.00    -0.199 C  
HETATM   16  C   UNL     1      -5.456  17.184  65.765  1.00  0.00     0.568 C  
HETATM   17  C   UNL     1      -5.973  18.486  65.182  1.00  0.00    -0.270 A  
HETATM   18  C   UNL     1      -5.133  19.069  64.202  1.00  0.00    -0.248 A  
HETATM   19  C   UNL     1      -5.466  20.258  63.565  1.00  0.00    -0.274 A  
HETATM   20  C   UNL     1      -6.656  20.887  63.885  1.00  0.00    -0.136 A  
HETATM   21  C   UNL     1      -7.500  20.324  64.846  1.00  0.00     0.423 A  
HETATM   22  C   UNL     1      -7.187  19.127  65.528  1.00  0.00    -0.098 A  
ENDBRANCH   3   8
TORSDOF 2
ENDMDL
MODEL      165
REMARK 921   NORMALIZED FREE ENERGY PREDICTED BY IDOCK:    2.58 KCAL/MOL
REMARK 922        TOTAL FREE ENERGY PREDICTED BY IDOCK:    1.98 KCAL/MOL
REMARK 923 INTER-LIGAND FREE ENERGY PREDICTED BY IDOCK:   -2.85 KCAL/MOL
REMARK 924 INTRA-LIGAND FREE ENERGY PREDICTED BY IDOCK:    4.83 KCAL/MOL
REMARK 927      BINDING AFFINITY PREDICTED BY RF-SCORE:    0.00 PKD
ROOT
HETATM    1  C   UNL     1      -6.594   9.426  69.606  1.00  0.00    -0.044 C  
HETATM    2  C   UNL     1      -7.948   9.119  68.945  1.00  0.00    -0.099 C  
HETATM    3  C   UNL     1      -8.145   7.608  68.682  1.00  0.00    -0.127 C  
HETATM    4  C   UNL     1      -8.003   9.932  67.625  1.00  0.00    -0.109 C  
ENDROOT
BRANCH   4   5
HETATM    5  N   UNL     1      -9.234   9.824  66.822  1.00  0.00    -0.146 NA 
HETATM    6  C   UNL     1      -8.928   9.160  65.548  1.00  0.00    -0.205 C  
HETATM    7  C   UNL     1      -9.832  11.136  66.559  1.00  0.00    -0.208 C  
ENDBRANCH   4   5
BRANCH   3   8
HETATM    8  N   UNL     1      -8.152   6.817  69.942  1.00  0.00    -0.123 NA 
HETATM    9  C   UNL     1      -8.507   5.457  69.816  1.00  0.00    -0.100 A  
HETATM   10  C   UNL     1      -7.773   4.593  68.987  1.00  0.00    -0.071 A  
HETATM   11  C   UNL     1      -8.071   3.232  68.916  1.00  0.00    -0.072 A  
HETATM   12  C   UNL     1      -9.116   2.707  69.667  1.00  0.00    -0.186 A  
HETATM   13  C   UNL     1      -9.861   3.545  70.493  1.00  0.00    -0.076 A  
HETATM   14  C   UNL     1      -9.560   4.913  70.575  1.00  0.00    -0.253 A  
HETATM   15  C   UNL     1     -10.346   5.813  71.483  1.00  0.00    -0.274 C  
HETATM   16  C   UNL     1      -9.504   6.285  72.662  1.00  0.00    -0.148 C  
HETATM   17  C   UNL     1      -8.295   7.165  72.403  1.00  0.00    -0.119 A  
HETATM   18  C   UNL     1      -7.742   7.763  73.562  1.00  0.00    -0.179 A  
HETATM   19  C   UNL     1      -6.627   8.591  73.499  1.00  0.00    -0.097 A  
HETATM   20  C   UNL     1      -6.030   8.830  72.274  1.00  0.00    -0.076 A  
HETATM   21  C   UNL     1      -6.559   8.243  71.121  1.00  0.00    -0.046 A  
HETATM   22  C   UNL     1      -7.702   7.412  71.143  1.00  0.00    -0.090 A  
ENDBRANCH   3   8
TORSDOF 2
ENDMDL
MODEL      166
REMARK 921   NORMALIZED FREE ENERGY PREDICTED BY IDOCK:    3.31 KCAL/MOL
REMARK 922        TOTAL FREE ENERGY PREDICTED BY IDOCK:    2.79 KCAL/MOL
REMARK 923 INTER-LIGAND FREE ENERGY PREDICTED BY IDOCK:    3.73 KCAL/MOL
REMARK 924 INTRA-LIGAND FREE ENERGY PREDICTED BY IDOCK:   -0.94 KCAL/MOL
REMARK 927      BINDING AFFINITY PREDICTED BY RF-SCORE:    0.00 PKD
ROOT
HETATM    1  C   UNL     1      -7.486  15.739  68.252  1.00  0.00    -0.117 C  
HETATM    2  C   UNL     1      -8.550  16.235  67.258  1.00  0.00    -0.199 C  
HETATM    3  C   UNL     1      -9.209  17.558  67.715  1.00  0.00    -0.253 C  
HETATM    4  C   UNL     1      -9.601  15.103  67.115  1.00  0.00    -0.218 C  
ENDROOT
BRANCH   4   5
HETATM    5  N   UNL     1     -10.715  15.337  66.180  1.00  0.00    -0.314 NA 
HETATM    6  C   UNL     1     -11.867  14.518  66.580  1.00  0.00    -0.366 C  
HETATM    7  C   UNL     1     -10.345  15.019  64.798  1.00  0.00    -0.166 C  
ENDBRANCH   4   5
BRANCH   3   8
HETATM    8  N   UNL     1      -8.225  18.671  67.803  1.00  0.00    -0.252 NA 
HETATM    9  C   UNL     1      -7.872  19.281  66.580  1.00  0.00    -0.271 A  
HETATM   10  C   UNL     1      -8.847  19.876  65.762  1.00  0.00     0.001 A  
HETATM   11  C   UNL     1      -8.497  20.547  64.591  1.00  0.00     2.035 A  
HETATM   12  C   UNL     1      -7.163  20.630  64.207  1.00  0.00     0.573 A  
HETATM   13  C   UNL     1      -6.179  20.044  65.000  1.00  0.00    -0.308 A  
HETATM   14  C   UNL     1      -6.526  19.376  66.184  1.00  0.00    -0.215 A  
HETATM   15  C   UNL     1      -5.464  18.765  67.052  1.00  0.00    -0.147 C  
HETATM   16  C   UNL     1      -5.316  19.524  68.365  1.00  0.00    -0.204 C  
HETATM   17  C   UNL     1      -6.476  19.545  69.344  1.00  0.00    -0.364 A  
HETATM   18  C   UNL     1      -6.153  20.042  70.631  1.00  0.00    -0.350 A  
HETATM   19  C   UNL     1      -7.104  20.134  71.640  1.00  0.00     0.916 A  
HETATM   20  C   UNL     1      -8.406  19.744  71.382  1.00  0.00     2.843 A  
HETATM   21  C   UNL     1      -8.744  19.256  70.116  1.00  0.00     1.364 A  
HETATM   22  C   UNL     1      -7.801  19.130  69.071  1.00  0.00    -0.259 A  
ENDBRANCH   3   8
TORSDOF 2
ENDMDL
MODEL      167
REMARK 921   NORMALIZED FREE ENERGY PREDICTED BY IDOCK:    6.87 KCAL/MOL
REMARK 922        TOTAL FREE ENERGY PREDICTED BY IDOCK:    6.76 KCAL/MOL
REMARK 923 INTER-LIGAND FREE ENERGY PREDICTED BY IDOCK:    6.74 KCAL/MOL
REMARK 924 INTRA-LIGAND FREE ENERGY PREDICTED BY IDOCK:    0.02 KCAL/MOL
REMARK 927      BINDING AFFINITY PREDICTED BY RF-SCORE:    0.00 PKD
ROOT
HETATM    1  C   UNL     1     -11.796  13.967  68.643  1.00  0.00    -0.407 C  
HETATM    2  C   UNL     1     -10.470  14.628  68.229  1.00  0.00    -0.236 C  
HETATM    3  C   UNL     1      -9.409  13.591  67.790  1.00  0.00    -0.213 C  
HETATM    4  C   UNL     1      -9.977  15.457  69.445  1.00  0.00    -0.272 C  
ENDROOT
BRANCH   4   5
HETATM    5  N   UNL     1      -8.726  16.215  69.275  1.00  0.00    -0.231 NA 
HETATM    6  C   UNL     1      -8.834  17.074  68.088  1.00  0.00    -0.227 C  
HETATM    7  C   UNL     1      -7.565  15.331  69.136  1.00  0.00    -0.192 C  
ENDBRANCH   4   5
BRANCH   3   8
HETATM    8  N   UNL     1      -9.839  12.825  66.589  1.00  0.00    -0.244 NA 
HETATM    9  C   UNL     1     -10.334  13.592  65.512  1.00  0.00    -0.300 A  
HETATM   10  C   UNL     1      -9.541  14.579  64.904  1.00  0.00     0.563 A  
HETATM   11  C   UNL     1      -9.995  15.287  63.791  1.00  0.00     5.278 A  
HETATM   12  C   UNL     1     -11.257  15.029  63.267  1.00  0.00     2.978 A  
HETATM   13  C   UNL     1     -12.062  14.057  63.856  1.00  0.00    -0.350 A  
HETATM   14  C   UNL     1     -11.607  13.336  64.970  1.00  0.00    -0.342 A  
HETATM   15  C   UNL     1     -12.464  12.271  65.590  1.00  0.00     0.189 C  
HETATM   16  C   UNL     1     -11.887  10.882  65.348  1.00  0.00     1.521 C  
HETATM   17  C   UNL     1     -10.543  10.523  65.955  1.00  0.00    -0.164 A  
HETATM   18  C   UNL     1     -10.220   9.144  65.900  1.00  0.00     0.034 A  
HETATM   19  C   UNL     1      -9.023   8.652  66.405  1.00  0.00    -0.197 A  
HETATM   20  C   UNL     1      -8.112   9.529  66.965  1.00  0.00    -0.113 A  
HETATM   21  C   UNL     1      -8.411  10.893  67.023  1.00  0.00    -0.134 A  
HETATM   22  C   UNL     1      -9.626  11.429  66.538  1.00  0.00    -0.198 A  
ENDBRANCH   3   8
TORSDOF 2
ENDMDL
MODEL      168
REMARK 921   NORMALIZED FREE ENERGY PREDICTED BY IDOCK:    7.46 KCAL/MOL
REMARK 922        TOTAL FREE ENERGY PREDICTED BY IDOCK:    7.43 KCAL/MOL
REMARK 923 INTER-LIGAND FREE ENERGY PREDICTED BY IDOCK:    3.25 KCAL/MOL
REMARK 924 INTRA-LIGAND FREE ENERGY PREDICTED BY IDOCK:    4.18 KCAL/MOL
REMARK 927      BINDING AFFINITY PREDICTED BY RF-SCORE:    0.00 PKD
ROOT
HETATM    1  C   UNL     1      -8.245   5.685  71.364  1.00  0.00    -0.122 C  
HETATM    2  C   UNL     1      -9.227   6.841  71.616  1.00  0.00    -0.144 C  
HETATM    3  C   UNL     1      -8.698   8.190  71.072  1.00  0.00    -0.139 C  
HETATM    4  C   UNL     1      -9.467   6.908  73.148  1.00  0.00    -0.150 C  
ENDROOT
BRANCH   4   5
HETATM    5  N   UNL     1     -10.409   7.931  73.634  1.00  0.00    -0.000 NA 
HETATM    6  C   UNL     1     -11.461   8.140  72.631  1.00  0.00    -0.387 C  
HETATM    7  C   UNL     1      -9.738   9.204  73.913  1.00  0.00     4.627 C  
ENDBRANCH   4   5
BRANCH   3   8
HETATM    8  N   UNL     1      -8.516   8.164  69.595  1.00  0.00    -0.125 NA 
HETATM    9  C   UNL     1      -7.549   7.259  69.108  1.00  0.00    -0.102 A  
HETATM   10  C   UNL     1      -7.652   5.883  69.368  1.00  0.00    -0.092 A  
HETATM   11  C   UNL     1      -6.744   4.974  68.826  1.00  0.00    -0.050 A  
HETATM   12  C   UNL     1      -5.705   5.424  68.019  1.00  0.00    -0.016 A  
HETATM   13  C   UNL     1      -5.580   6.785  67.751  1.00  0.00    -0.015 A  
HETATM   14  C   UNL     1      -6.497   7.702  68.286  1.00  0.00    -0.049 A  
HETATM   15  C   UNL     1      -6.378   9.166  67.977  1.00  0.00    -0.055 C  
HETATM   16  C   UNL     1      -7.514   9.639  67.080  1.00  0.00    -0.091 C  
HETATM   17  C   UNL     1      -8.938   9.597  67.604  1.00  0.00    -0.131 A  
HETATM   18  C   UNL     1      -9.880  10.296  66.809  1.00  0.00    -0.246 A  
HETATM   19  C   UNL     1     -11.228  10.347  67.145  1.00  0.00    -0.086 A  
HETATM   20  C   UNL     1     -11.668   9.688  68.279  1.00  0.00     0.926 A  
HETATM   21  C   UNL     1     -10.754   8.988  69.072  1.00  0.00    -0.163 A  
HETATM   22  C   UNL     1      -9.374   8.929  68.773  1.00  0.00    -0.137 A  
ENDBRANCH   3   8
TORSDOF 2
ENDMDL
MODEL      169
REMARK 921   NORMALIZED FREE ENERGY PREDICTED BY IDOCK:   10.71 KCAL/MOL
REMARK 922        TOTAL FREE ENERGY PREDICTED BY IDOCK:   11.05 KCAL/MOL
REMARK 923 INTER-LIGAND FREE ENERGY PREDICTED BY IDOCK:    5.59 KCAL/MOL
REMARK 924 INTRA-LIGAND FREE ENERGY PREDICTED BY IDOCK:    5.46 KCAL/MOL
REMARK 927      BINDING AFFINITY PREDICTED BY RF-SCORE:    0.00 PKD
ROOT
HETATM    1  C   UNL     1      -8.332   5.855  71.541  1.00  0.00    -0.127 C  
HETATM    2  C   UNL     1      -9.322   7.009  71.773  1.00  0.00    -0.150 C  
HETATM    3  C   UNL     1      -8.867   8.319  71.089  1.00  0.00    -0.151 C  
HETATM    4  C   UNL     1      -9.455   7.192  73.308  1.00  0.00    -0.179 C  
ENDROOT
BRANCH   4   5
HETATM    5  N   UNL     1     -10.385   8.232  73.781  1.00  0.00     0.977 NA 
HETATM    6  C   UNL     1     -11.477   8.386  72.810  1.00  0.00    -0.165 C  
HETATM    7  C   UNL     1      -9.714   9.521  73.971  1.00  0.00     7.668 C  
ENDBRANCH   4   5
BRANCH   3   8
HETATM    8  N   UNL     1      -8.789   8.180  69.609  1.00  0.00    -0.142 NA 
HETATM    9  C   UNL     1      -8.498   9.361  68.893  1.00  0.00    -0.122 A  
HETATM   10  C   UNL     1      -7.316  10.080  69.136  1.00  0.00    -0.087 A  
HETATM   11  C   UNL     1      -6.985  11.204  68.380  1.00  0.00    -0.072 A  
HETATM   12  C   UNL     1      -7.834  11.639  67.368  1.00  0.00    -0.147 A  
HETATM   13  C   UNL     1      -9.014  10.944  67.111  1.00  0.00    -0.141 A  
HETATM   14  C   UNL     1      -9.347   9.808  67.864  1.00  0.00    -0.139 A  
HETATM   15  C   UNL     1     -10.605   9.043  67.572  1.00  0.00    -0.306 C  
HETATM   16  C   UNL     1     -10.299   7.678  66.969  1.00  0.00    -0.400 C  
HETATM   17  C   UNL     1      -9.556   6.650  67.802  1.00  0.00    -0.129 A  
HETATM   18  C   UNL     1      -9.554   5.341  67.260  1.00  0.00    -0.147 A  
HETATM   19  C   UNL     1      -8.911   4.286  67.895  1.00  0.00    -0.128 A  
HETATM   20  C   UNL     1      -8.241   4.518  69.083  1.00  0.00    -0.082 A  
HETATM   21  C   UNL     1      -8.227   5.805  69.629  1.00  0.00    -0.108 A  
HETATM   22  C   UNL     1      -8.885   6.898  69.022  1.00  0.00    -0.130 A  
ENDBRANCH   3   8
TORSDOF 2
ENDMDL
MODEL      170
REMARK 921   NORMALIZED FREE ENERGY PREDICTED BY IDOCK:   11.10 KCAL/MOL
REMARK 922        TOTAL FREE ENERGY PREDICTED BY IDOCK:   11.50 KCAL/MOL
REMARK 923 INTER-LIGAND FREE ENERGY PREDICTED BY IDOCK:   12.32 KCAL/MOL
REMARK 924 INTRA-LIGAND FREE ENERGY PREDICTED BY IDOCK:   -0.83 KCAL/MOL
REMARK 927      BINDING AFFINITY PREDICTED BY RF-SCORE:    0.00 PKD
ROOT
HETATM    1  C   UNL     1      -8.269  15.740  67.641  1.00  0.00    -0.166 C  
HETATM    2  C   UNL     1      -9.748  15.861  67.237  1.00  0.00    -0.224 C  
HETATM    3  C   UNL     1     -10.557  16.737  68.222  1.00  0.00    -0.352 C  
HETATM    4  C   UNL     1     -10.319  14.419  67.167  1.00  0.00    -0.262 C  
ENDROOT
BRANCH   4   5
HETATM    5  N   UNL     1     -11.729  14.276  66.763  1.00  0.00    -0.388 NA 
HETATM    6  C   UNL     1     -12.278  13.044  67.345  1.00  0.00    -0.097 C  
HETATM    7  C   UNL     1     -11.879  14.239  65.306  1.00  0.00    -0.374 C  
ENDBRANCH   4   5
BRANCH   3   8
HETATM    8  N   UNL     1     -10.060  18.139  68.260  1.00  0.00    -0.366 NA 
HETATM    9  C   UNL     1      -9.975  18.799  67.015  1.00  0.00    -0.341 A  
HETATM   10  C   UNL     1     -11.111  18.960  66.206  1.00  0.00     0.217 A  
HETATM   11  C   UNL     1     -11.052  19.677  65.011  1.00  0.00     0.890 A  
HETATM   12  C   UNL     1      -9.850  20.240  64.595  1.00  0.00     2.421 A  
HETATM   13  C   UNL     1      -8.709  20.089  65.379  1.00  0.00     0.648 A  
HETATM   14  C   UNL     1      -8.767  19.377  66.587  1.00  0.00    -0.361 A  
HETATM   15  C   UNL     1      -7.544  19.234  67.445  1.00  0.00    -0.260 C  
HETATM   16  C   UNL     1      -7.675  20.034  68.736  1.00  0.00    -0.108 C  
HETATM   17  C   UNL     1      -8.746  19.650  69.740  1.00  0.00     0.655 A  
HETATM   18  C   UNL     1      -8.617  20.271  71.006  1.00  0.00     1.966 A  
HETATM   19  C   UNL     1      -9.521  20.033  72.035  1.00  0.00     2.790 A  
HETATM   20  C   UNL     1     -10.586  19.177  71.815  1.00  0.00     3.514 A  
HETATM   21  C   UNL     1     -10.732  18.559  70.570  1.00  0.00     2.326 A  
HETATM   22  C   UNL     1      -9.823  18.762  69.507  1.00  0.00     0.197 A  
ENDBRANCH   3   8
TORSDOF 2
ENDMDL
MODEL      171
REMARK 921   NORMALIZED FREE ENERGY PREDICTED BY IDOCK:   11.52 KCAL/MOL
REMARK 922        TOTAL FREE ENERGY PREDICTED BY IDOCK:   11.96 KCAL/MOL
REMARK 923 INTER-LIGAND FREE ENERGY PREDICTED BY IDOCK:    7.57 KCAL/MOL
REMARK 924 INTRA-LIGAND FREE ENERGY PREDICTED BY IDOCK:    4.39 KCAL/MOL
REMARK 927      BINDING AFFINITY PREDICTED BY RF-SCORE:    0.00 PKD
ROOT
HETATM    1  C   UNL     1      -8.131  12.631  67.020  1.00  0.00    -0.088 C  
HETATM    2  C   UNL     1      -8.028  11.110  66.813  1.00  0.00    -0.156 C  
HETATM    3  C   UNL     1      -7.235  10.416  67.945  1.00  0.00    -0.085 C  
HETATM    4  C   UNL     1      -7.355  10.884  65.434  1.00  0.00     0.162 C  
ENDROOT
BRANCH   4   5
HETATM    5  N   UNL     1      -7.176   9.489  64.996  1.00  0.00    -0.105 NA 
HETATM    6  C   UNL     1      -5.874   8.995  65.466  1.00  0.00    -0.050 C  
HETATM    7  C   UNL     1      -7.252   9.358  63.539  1.00  0.00    -0.100 C  
ENDBRANCH   4   5
BRANCH   3   8
HETATM    8  N   UNL     1      -7.896  10.572  69.269  1.00  0.00    -0.138 NA 
HETATM    9  C   UNL     1      -7.550   9.617  70.249  1.00  0.00    -0.166 A  
HETATM   10  C   UNL     1      -6.216   9.452  70.657  1.00  0.00    -0.067 A  
HETATM   11  C   UNL     1      -5.876   8.565  71.678  1.00  0.00    -0.045 A  
HETATM   12  C   UNL     1      -6.864   7.816  72.308  1.00  0.00    -0.062 A  
HETATM   13  C   UNL     1      -8.193   7.960  71.918  1.00  0.00    -0.142 A  
HETATM   14  C   UNL     1      -8.541   8.858  70.897  1.00  0.00    -0.242 A  
HETATM   15  C   UNL     1      -9.976   9.032  70.492  1.00  0.00    -0.263 C  
HETATM   16  C   UNL     1     -10.506  10.401  70.901  1.00  0.00     0.654 C  
HETATM   17  C   UNL     1      -9.904  11.646  70.275  1.00  0.00     2.790 A  
HETATM   18  C   UNL     1     -10.633  12.837  70.513  1.00  0.00     2.935 A  
HETATM   19  C   UNL     1     -10.212  14.065  70.016  1.00  0.00     0.959 A  
HETATM   20  C   UNL     1      -9.043  14.132  69.280  1.00  0.00     0.350 A  
HETATM   21  C   UNL     1      -8.308  12.968  69.040  1.00  0.00     0.414 A  
HETATM   22  C   UNL     1      -8.714  11.699  69.512  1.00  0.00     1.017 A  
ENDBRANCH   3   8
TORSDOF 2
ENDMDL
MODEL      172
REMARK 921   NORMALIZED FREE ENERGY PREDICTED BY IDOCK:   14.30 KCAL/MOL
REMARK 922        TOTAL FREE ENERGY PREDICTED BY IDOCK:   15.07 KCAL/MOL
REMARK 923 INTER-LIGAND FREE ENERGY PREDICTED BY IDOCK:   14.99 KCAL/MOL
REMARK 924 INTRA-LIGAND FREE ENERGY PREDICTED BY IDOCK:    0.08 KCAL/MOL
REMARK 927      BINDING AFFINITY PREDICTED BY RF-SCORE:    0.00 PKD
ROOT
HETATM    1  C   UNL     1     -10.519   7.864  64.588  1.00  0.00     6.626 C  
HETATM    2  C   UNL     1     -10.407   7.908  66.120  1.00  0.00     0.557 C  
HETATM    3  C   UNL     1      -9.236   7.046  66.649  1.00  0.00    -0.158 C  
HETATM    4  C   UNL     1     -11.766   7.421  66.690  1.00  0.00     2.949 C  
ENDROOT
BRANCH   4   5
HETATM    5  N   UNL     1     -11.912   7.406  68.156  1.00  0.00     1.916 NA 
HETATM    6  C   UNL     1     -10.628   7.761  68.776  1.00  0.00    -0.135 C  
HETATM    7  C   UNL     1     -12.348   6.096  68.649  1.00  0.00     4.308 C  
ENDBRANCH   4   5
BRANCH   3   8
HETATM    8  N   UNL     1      -7.918   7.533  66.160  1.00  0.00    -0.106 NA 
HETATM    9  C   UNL     1      -7.446   8.728  66.743  1.00  0.00    -0.086 A  
HETATM   10  C   UNL     1      -7.246   8.824  68.130  1.00  0.00    -0.083 A  
HETATM   11  C   UNL     1      -6.708   9.975  68.705  1.00  0.00    -0.049 A  
HETATM   12  C   UNL     1      -6.366  11.060  67.905  1.00  0.00    -0.057 A  
HETATM   13  C   UNL     1      -6.560  10.989  66.527  1.00  0.00    -0.132 A  
HETATM   14  C   UNL     1      -7.092   9.830  65.943  1.00  0.00    -0.102 A  
HETATM   15  C   UNL     1      -7.278   9.743  64.456  1.00  0.00    -0.128 C  
HETATM   16  C   UNL     1      -6.304   8.751  63.832  1.00  0.00    -0.076 C  
HETATM   17  C   UNL     1      -6.409   7.281  64.196  1.00  0.00    -0.044 A  
HETATM   18  C   UNL     1      -5.647   6.414  63.374  1.00  0.00    -0.019 A  
HETATM   19  C   UNL     1      -5.628   5.040  63.579  1.00  0.00    -0.016 A  
HETATM   20  C   UNL     1      -6.360   4.500  64.622  1.00  0.00    -0.034 A  
HETATM   21  C   UNL     1      -7.112   5.341  65.446  1.00  0.00    -0.066 A  
HETATM   22  C   UNL     1      -7.172   6.740  65.257  1.00  0.00    -0.073 A  
ENDBRANCH   3   8
TORSDOF 2
ENDMDL
MODEL      173
REMARK 921   NORMALIZED FREE ENERGY PREDICTED BY IDOCK:   14.33 KCAL/MOL
REMARK 922        TOTAL FREE ENERGY PREDICTED BY IDOCK:   15.10 KCAL/MOL
REMARK 923 INTER-LIGAND FREE ENERGY PREDICTED BY IDOCK:   15.34 KCAL/MOL
REMARK 924 INTRA-LIGAND FREE ENERGY PREDICTED BY IDOCK:   -0.24 KCAL/MOL
REMARK 927      BINDING AFFINITY PREDICTED BY RF-SCORE:    0.00 PKD
ROOT
HETATM    1  C   UNL     1      -8.332   5.855  71.541  1.00  0.00    -0.127 C  
HETATM    2  C   UNL     1      -9.322   7.009  71.773  1.00  0.00    -0.150 C  
HETATM    3  C   UNL     1      -8.867   8.319  71.089  1.00  0.00    -0.151 C  
HETATM    4  C   UNL     1      -9.455   7.192  73.308  1.00  0.00    -0.179 C  
ENDROOT
BRANCH   4   5
HETATM    5  N   UNL     1     -10.385   8.232  73.781  1.00  0.00     0.977 NA 
HETATM    6  C   UNL     1     -11.477   8.386  72.810  1.00  0.00    -0.165 C  
HETATM    7  C   UNL     1      -9.714   9.521  73.971  1.00  0.00     7.668 C  
ENDBRANCH   4   5
BRANCH   3   8
HETATM    8  N   UNL     1      -8.789   8.180  69.609  1.00  0.00    -0.142 NA 
HETATM    9  C   UNL     1      -9.955   7.704  68.972  1.00  0.00    -0.181 A  
HETATM   10  C   UNL     1     -11.174   8.389  69.092  1.00  0.00     0.328 A  
HETATM   11  C   UNL     1     -12.312   7.968  68.403  1.00  0.00     4.743 A  
HETATM   12  C   UNL     1     -12.255   6.844  67.586  1.00  0.00     3.751 A  
HETATM   13  C   UNL     1     -11.057   6.146  67.455  1.00  0.00    -0.326 A  
HETATM   14  C   UNL     1      -9.908   6.572  68.138  1.00  0.00    -0.131 A  
HETATM   15  C   UNL     1      -8.610   5.835  67.978  1.00  0.00    -0.105 C  
HETATM   16  C   UNL     1      -7.592   6.664  67.206  1.00  0.00    -0.100 C  
HETATM   17  C   UNL     1      -7.084   7.962  67.809  1.00  0.00    -0.086 A  
HETATM   18  C   UNL     1      -5.959   8.517  67.151  1.00  0.00    -0.054 A  
HETATM   19  C   UNL     1      -5.377   9.706  67.572  1.00  0.00    -0.036 A  
HETATM   20  C   UNL     1      -5.916  10.377  68.655  1.00  0.00    -0.040 A  
HETATM   21  C   UNL     1      -7.030   9.847  69.313  1.00  0.00    -0.059 A  
HETATM   22  C   UNL     1      -7.637   8.631  68.925  1.00  0.00    -0.092 A  
ENDBRANCH   3   8
TORSDOF 2
ENDMDL
MODEL      174
REMARK 921   NORMALIZED FREE ENERGY PREDICTED BY IDOCK:   16.84 KCAL/MOL
REMARK 922        TOTAL FREE ENERGY PREDICTED BY IDOCK:   17.90 KCAL/MOL
REMARK 923 INTER-LIGAND FREE ENERGY PREDICTED BY IDOCK:   11.99 KCAL/MOL
REMARK 924 INTRA-LIGAND FREE ENERGY PREDICTED BY IDOCK:    5.91 KCAL/MOL
REMARK 927      BINDING AFFINITY PREDICTED BY RF-SCORE:    0.00 PKD
ROOT
HETATM    1  C   UNL     1      -6.185  15.288  72.860  1.00  0.00     1.733 C  
HETATM    2  C   UNL     1      -5.760  14.040  72.069  1.00  0.00    -0.133 C  
HETATM    3  C   UNL     1      -6.746  13.706  70.925  1.00  0.00     1.064 C  
HETATM    4  C   UNL     1      -5.658  12.871  73.084  1.00  0.00     0.941 C  
ENDROOT
BRANCH   4   5
HETATM    5  N   UNL     1      -5.230  11.563  72.559  1.00  0.00    -0.206 NA 
HETATM    6  C   UNL     1      -5.967  11.270  71.322  1.00  0.00     0.510 C  
HETATM    7  C   UNL     1      -5.453  10.486  73.527  1.00  0.00     0.668 C  
ENDBRANCH   4   5
BRANCH   3   8
HETATM    8  N   UNL     1      -6.814  14.791  69.910  1.00  0.00    -0.176 NA 
HETATM    9  C   UNL     1      -7.487  14.474  68.710  1.00  0.00    -0.132 A  
HETATM   10  C   UNL     1      -8.830  14.062  68.723  1.00  0.00    -0.031 A  
HETATM   11  C   UNL     1      -9.524  13.821  67.537  1.00  0.00    -0.220 A  
HETATM   12  C   UNL     1      -8.885  13.977  66.312  1.00  0.00     0.181 A  
HETATM   13  C   UNL     1      -7.552  14.380  66.275  1.00  0.00     2.244 A  
HETATM   14  C   UNL     1      -6.853  14.633  67.464  1.00  0.00    -0.174 A  
HETATM   15  C   UNL     1      -5.424  15.091  67.425  1.00  0.00     0.267 C  
HETATM   16  C   UNL     1      -5.293  16.540  67.876  1.00  0.00    -0.131 C  
HETATM   17  C   UNL     1      -5.646  16.905  69.307  1.00  0.00    -0.156 A  
HETATM   18  C   UNL     1      -5.242  18.205  69.700  1.00  0.00    -0.194 A  
HETATM   19  C   UNL     1      -5.497  18.696  70.975  1.00  0.00    -0.185 A  
HETATM   20  C   UNL     1      -6.175  17.903  71.884  1.00  0.00     2.550 A  
HETATM   21  C   UNL     1      -6.585  16.620  71.511  1.00  0.00     3.481 A  
HETATM   22  C   UNL     1      -6.328  16.079  70.231  1.00  0.00     0.095 A  
ENDBRANCH   3   8
TORSDOF 2
ENDMDL
MODEL      175
REMARK 921   NORMALIZED FREE ENERGY PREDICTED BY IDOCK:   21.67 KCAL/MOL
REMARK 922        TOTAL FREE ENERGY PREDICTED BY IDOCK:   23.29 KCAL/MOL
REMARK 923 INTER-LIGAND FREE ENERGY PREDICTED BY IDOCK:   18.72 KCAL/MOL
REMARK 924 INTRA-LIGAND FREE ENERGY PREDICTED BY IDOCK:    4.57 KCAL/MOL
REMARK 927      BINDING AFFINITY PREDICTED BY RF-SCORE:    0.00 PKD
ROOT
HETATM    1  C   UNL     1      -7.678  11.968  66.972  1.00  0.00    -0.129 C  
HETATM    2  C   UNL     1      -8.315  10.591  66.724  1.00  0.00    -0.128 C  
HETATM    3  C   UNL     1      -9.379  10.235  67.789  1.00  0.00    -0.144 C  
HETATM    4  C   UNL     1      -7.162   9.553  66.712  1.00  0.00    -0.086 C  
ENDROOT
BRANCH   4   5
HETATM    5  N   UNL     1      -7.527   8.148  66.457  1.00  0.00    -0.087 NA 
HETATM    6  C   UNL     1      -8.979   7.987  66.610  1.00  0.00    -0.150 C  
HETATM    7  C   UNL     1      -6.835   7.230  67.365  1.00  0.00    -0.077 C  
ENDBRANCH   4   5
BRANCH   3   8
HETATM    8  N   UNL     1     -10.523  11.187  67.778  1.00  0.00    -0.185 NA 
HETATM    9  C   UNL     1     -11.281  11.256  68.966  1.00  0.00    -0.258 A  
HETATM   10  C   UNL     1     -10.680  11.607  70.186  1.00  0.00     0.831 A  
HETATM   11  C   UNL     1     -11.435  11.752  71.349  1.00  0.00     2.133 A  
HETATM   12  C   UNL     1     -12.809  11.541  71.319  1.00  0.00    -0.463 A  
HETATM   13  C   UNL     1     -13.427  11.188  70.121  1.00  0.00     1.112 A  
HETATM   14  C   UNL     1     -12.672  11.049  68.947  1.00  0.00     0.977 A  
HETATM   15  C   UNL     1     -13.340  10.693  67.651  1.00  0.00    10.064 C  
HETATM   16  C   UNL     1     -13.322  11.864  66.676  1.00  0.00     6.928 C  
HETATM   17  C   UNL     1     -11.990  12.373  66.154  1.00  0.00    -0.397 A  
HETATM   18  C   UNL     1     -12.089  13.274  65.066  1.00  0.00    -0.447 A  
HETATM   19  C   UNL     1     -10.964  13.838  64.477  1.00  0.00    -0.399 A  
HETATM   20  C   UNL     1      -9.711  13.524  64.973  1.00  0.00     0.063 A  
HETATM   21  C   UNL     1      -9.595  12.641  66.050  1.00  0.00    -0.190 A  
HETATM   22  C   UNL     1     -10.714  12.034  66.662  1.00  0.00    -0.245 A  
ENDBRANCH   3   8
TORSDOF 2
ENDMDL
MODEL      176
REMARK 921   NORMALIZED FREE ENERGY PREDICTED BY IDOCK:   26.40 KCAL/MOL
REMARK 922        TOTAL FREE ENERGY PREDICTED BY IDOCK:   28.58 KCAL/MOL
REMARK 923 INTER-LIGAND FREE ENERGY PREDICTED BY IDOCK:   26.86 KCAL/MOL
REMARK 924 INTRA-LIGAND FREE ENERGY PREDICTED BY IDOCK:    1.72 KCAL/MOL
REMARK 927      BINDING AFFINITY PREDICTED BY RF-SCORE:    0.00 PKD
ROOT
HETATM    1  C   UNL     1      -8.002  14.453  70.139  1.00  0.00     0.960 C  
HETATM    2  C   UNL     1      -9.402  14.329  69.517  1.00  0.00     0.506 C  
HETATM    3  C   UNL     1     -10.067  15.707  69.286  1.00  0.00    -0.258 C  
HETATM    4  C   UNL     1     -10.249  13.450  70.475  1.00  0.00     3.412 C  
ENDROOT
BRANCH   4   5
HETATM    5  N   UNL     1     -11.636  13.161  70.070  1.00  0.00    -0.194 NA 
HETATM    6  C   UNL     1     -11.735  11.759  69.643  1.00  0.00    -0.344 C  
HETATM    7  C   UNL     1     -12.082  14.037  68.984  1.00  0.00    -0.323 C  
ENDBRANCH   4   5
BRANCH   3   8
HETATM    8  N   UNL     1      -9.299  16.543  68.324  1.00  0.00    -0.212 NA 
HETATM    9  C   UNL     1      -8.894  17.811  68.794  1.00  0.00    -0.202 A  
HETATM   10  C   UNL     1      -8.079  17.931  69.931  1.00  0.00     1.554 A  
HETATM   11  C   UNL     1      -7.611  19.175  70.358  1.00  0.00     1.374 A  
HETATM   12  C   UNL     1      -7.957  20.326  69.659  1.00  0.00     0.754 A  
HETATM   13  C   UNL     1      -8.768  20.231  68.530  1.00  0.00     0.182 A  
HETATM   14  C   UNL     1      -9.233  18.982  68.093  1.00  0.00    -0.371 A  
HETATM   15  C   UNL     1     -10.086  18.876  66.862  1.00  0.00    -0.416 C  
HETATM   16  C   UNL     1      -9.335  18.198  65.723  1.00  0.00     0.359 C  
HETATM   17  C   UNL     1      -8.911  16.749  65.873  1.00  0.00    -0.103 A  
HETATM   18  C   UNL     1      -8.464  16.138  64.676  1.00  0.00     6.499 A  
HETATM   19  C   UNL     1      -8.033  14.817  64.644  1.00  0.00    10.651 A  
HETATM   20  C   UNL     1      -8.025  14.079  65.815  1.00  0.00     3.482 A  
HETATM   21  C   UNL     1      -8.458  14.668  67.006  1.00  0.00    -0.237 A  
HETATM   22  C   UNL     1      -8.921  16.001  67.074  1.00  0.00    -0.214 A  
ENDBRANCH   3   8
TORSDOF 2
ENDMDL
MODEL      177
REMARK 921   NORMALIZED FREE ENERGY PREDICTED BY IDOCK:   27.23 KCAL/MOL
REMARK 922        TOTAL FREE ENERGY PREDICTED BY IDOCK:   29.51 KCAL/MOL
REMARK 923 INTER-LIGAND FREE ENERGY PREDICTED BY IDOCK:   27.97 KCAL/MOL
REMARK 924 INTRA-LIGAND FREE ENERGY PREDICTED BY IDOCK:    1.54 KCAL/MOL
REMARK 927      BINDING AFFINITY PREDICTED BY RF-SCORE:    0.00 PKD
ROOT
HETATM    1  C   UNL     1      -8.179  14.560  70.268  1.00  0.00     1.256 C  
HETATM    2  C   UNL     1      -8.237  15.059  68.814  1.00  0.00    -0.168 C  
HETATM    3  C   UNL     1      -9.397  16.055  68.581  1.00  0.00    -0.214 C  
HETATM    4  C   UNL     1      -8.380  13.806  67.909  1.00  0.00    -0.172 C  
ENDROOT
BRANCH   4   5
HETATM    5  N   UNL     1      -8.425  14.032  66.454  1.00  0.00     0.315 NA 
HETATM    6  C   UNL     1      -7.122  13.692  65.868  1.00  0.00     5.461 C  
HETATM    7  C   UNL     1      -8.761  15.421  66.127  1.00  0.00    -0.094 C  
ENDBRANCH   4   5
BRANCH   3   8
HETATM    8  N   UNL     1      -9.247  17.289  69.398  1.00  0.00     0.147 NA 
HETATM    9  C   UNL     1     -10.221  17.489  70.401  1.00  0.00     1.445 A  
HETATM   10  C   UNL     1     -10.413  16.540  71.418  1.00  0.00     1.892 A  
HETATM   11  C   UNL     1     -11.319  16.765  72.455  1.00  0.00     0.600 A  
HETATM   12  C   UNL     1     -12.059  17.942  72.490  1.00  0.00     4.135 A  
HETATM   13  C   UNL     1     -11.889  18.895  71.489  1.00  0.00     9.484 A  
HETATM   14  C   UNL     1     -10.972  18.677  70.450  1.00  0.00     2.963 A  
HETATM   15  C   UNL     1     -10.769  19.714  69.383  1.00  0.00     0.770 C  
HETATM   16  C   UNL     1      -9.398  20.367  69.498  1.00  0.00     0.799 C  
HETATM   17  C   UNL     1      -8.155  19.523  69.282  1.00  0.00    -0.075 A  
HETATM   18  C   UNL     1      -6.955  20.264  69.146  1.00  0.00    -0.097 A  
HETATM   19  C   UNL     1      -5.728  19.642  68.952  1.00  0.00    -0.249 A  
HETATM   20  C   UNL     1      -5.670  18.260  68.902  1.00  0.00    -0.206 A  
HETATM   21  C   UNL     1      -6.843  17.513  69.040  1.00  0.00    -0.242 A  
HETATM   22  C   UNL     1      -8.111  18.111  69.220  1.00  0.00     0.219 A  
ENDBRANCH   3   8
TORSDOF 2
ENDMDL
MODEL      178
REMARK 921   NORMALIZED FREE ENERGY PREDICTED BY IDOCK:   34.97 KCAL/MOL
REMARK 922        TOTAL FREE ENERGY PREDICTED BY IDOCK:   38.15 KCAL/MOL
REMARK 923 INTER-LIGAND FREE ENERGY PREDICTED BY IDOCK:   39.13 KCAL/MOL
REMARK 924 INTRA-LIGAND FREE ENERGY PREDICTED BY IDOCK:   -0.98 KCAL/MOL
REMARK 927      BINDING AFFINITY PREDICTED BY RF-SCORE:    0.00 PKD
ROOT
HETATM    1  C   UNL     1     -11.897  14.055  68.730  1.00  0.00    -0.396 C  
HETATM    2  C   UNL     1     -10.749  15.061  68.541  1.00  0.00    -0.244 C  
HETATM    3  C   UNL     1     -10.071  14.926  67.157  1.00  0.00    -0.240 C  
HETATM    4  C   UNL     1      -9.736  14.815  69.690  1.00  0.00     0.125 C  
ENDROOT
BRANCH   4   5
HETATM    5  N   UNL     1      -8.552  15.691  69.739  1.00  0.00    -0.091 NA 
HETATM    6  C   UNL     1      -7.337  14.865  69.762  1.00  0.00    -0.100 C  
HETATM    7  C   UNL     1      -8.569  16.569  70.912  1.00  0.00     4.759 C  
ENDBRANCH   4   5
BRANCH   3   8
HETATM    8  N   UNL     1     -11.014  15.215  66.042  1.00  0.00    -0.335 NA 
HETATM    9  C   UNL     1     -11.486  16.542  65.962  1.00  0.00     0.792 A  
HETATM   10  C   UNL     1     -10.596  17.618  65.818  1.00  0.00    -0.177 A  
HETATM   11  C   UNL     1     -11.058  18.925  65.661  1.00  0.00     0.310 A  
HETATM   12  C   UNL     1     -12.424  19.184  65.654  1.00  0.00     7.636 A  
HETATM   13  C   UNL     1     -13.327  18.133  65.800  1.00  0.00    14.656 A  
HETATM   14  C   UNL     1     -12.866  16.817  65.949  1.00  0.00     6.072 A  
HETATM   15  C   UNL     1     -13.838  15.680  66.081  1.00  0.00     5.328 C  
HETATM   16  C   UNL     1     -13.823  14.790  64.845  1.00  0.00     2.606 C  
HETATM   17  C   UNL     1     -12.561  14.017  64.504  1.00  0.00    -0.242 A  
HETATM   18  C   UNL     1     -12.728  13.026  63.505  1.00  0.00    -0.098 A  
HETATM   19  C   UNL     1     -11.670  12.237  63.073  1.00  0.00    -0.098 A  
HETATM   20  C   UNL     1     -10.414  12.429  63.619  1.00  0.00    -0.460 A  
HETATM   21  C   UNL     1     -10.229  13.407  64.601  1.00  0.00    -0.338 A  
HETATM   22  C   UNL     1     -11.285  14.215  65.080  1.00  0.00    -0.337 A  
ENDBRANCH   3   8
TORSDOF 2
ENDMDL
MODEL      179
REMARK 921   NORMALIZED FREE ENERGY PREDICTED BY IDOCK:   40.41 KCAL/MOL
REMARK 922        TOTAL FREE ENERGY PREDICTED BY IDOCK:   44.23 KCAL/MOL
REMARK 923 INTER-LIGAND FREE ENERGY PREDICTED BY IDOCK:   41.93 KCAL/MOL
REMARK 924 INTRA-LIGAND FREE ENERGY PREDICTED BY IDOCK:    2.30 KCAL/MOL
REMARK 927      BINDING AFFINITY PREDICTED BY RF-SCORE:    0.00 PKD
ROOT
HETATM    1  C   UNL     1      -9.337   8.864  67.752  1.00  0.00    -0.157 C  
HETATM    2  C   UNL     1     -10.569   8.494  66.910  1.00  0.00    -0.279 C  
HETATM    3  C   UNL     1     -10.205   8.193  65.436  1.00  0.00     2.196 C  
HETATM    4  C   UNL     1     -11.564   9.681  67.012  1.00  0.00     1.942 C  
ENDROOT
BRANCH   4   5
HETATM    5  N   UNL     1     -12.849   9.542  66.305  1.00  0.00    12.110 NA 
HETATM    6  C   UNL     1     -12.893   8.239  65.628  1.00  0.00    18.128 C  
HETATM    7  C   UNL     1     -13.050  10.610  65.322  1.00  0.00     8.596 C  
ENDBRANCH   4   5
BRANCH   3   8
HETATM    8  N   UNL     1      -9.297   7.021  65.313  1.00  0.00     0.580 NA 
HETATM    9  C   UNL     1      -8.215   7.170  64.419  1.00  0.00     0.020 A  
HETATM   10  C   UNL     1      -7.272   8.196  64.592  1.00  0.00    -0.083 A  
HETATM   11  C   UNL     1      -6.158   8.303  63.760  1.00  0.00    -0.071 A  
HETATM   12  C   UNL     1      -5.969   7.390  62.728  1.00  0.00    -0.050 A  
HETATM   13  C   UNL     1      -6.893   6.366  62.534  1.00  0.00    -0.038 A  
HETATM   14  C   UNL     1      -8.010   6.249  63.375  1.00  0.00    -0.095 A  
HETATM   15  C   UNL     1      -8.994   5.132  63.183  1.00  0.00     0.083 C  
HETATM   16  C   UNL     1      -8.921   4.125  64.324  1.00  0.00    -0.144 C  
HETATM   17  C   UNL     1      -9.296   4.566  65.727  1.00  0.00    -0.162 A  
HETATM   18  C   UNL     1      -9.452   3.508  66.656  1.00  0.00    -0.179 A  
HETATM   19  C   UNL     1      -9.786   3.743  67.985  1.00  0.00    -0.018 A  
HETATM   20  C   UNL     1      -9.960   5.045  68.419  1.00  0.00    -0.202 A  
HETATM   21  C   UNL     1      -9.804   6.102  67.517  1.00  0.00    -0.140 A  
HETATM   22  C   UNL     1      -9.483   5.901  66.155  1.00  0.00    -0.106 A  
ENDBRANCH   3   8
TORSDOF 2
ENDMDL
MODEL      180
REMARK 921   NORMALIZED FREE ENERGY PREDICTED BY IDOCK:   45.52 KCAL/MOL
REMARK 922        TOTAL FREE ENERGY PREDICTED BY IDOCK:   49.94 KCAL/MOL
REMARK 923 INTER-LIGAND FREE ENERGY PREDICTED BY IDOCK:   49.95 KCAL/MOL
REMARK 924 INTRA-LIGAND FREE ENERGY PREDICTED BY IDOCK:   -0.01 KCAL/MOL
REMARK 927      BINDING AFFINITY PREDICTED BY RF-SCORE:    0.00 PKD
ROOT
HETATM    1  C   UNL     1      -9.337   8.864  67.752  1.00  0.00    -0.157 C  
HETATM    2  C   UNL     1     -10.574   8.503  66.912  1.00  0.00    -0.279 C  
HETATM    3  C   UNL     1     -10.215   8.197  65.439  1.00  0.00     2.196 C  
HETATM    4  C   UNL     1     -11.557   9.700  67.014  1.00  0.00     1.942 C  
ENDROOT
BRANCH   4   5
HETATM    5  N   UNL     1     -12.845   9.571  66.309  1.00  0.00    12.110 NA 
HETATM    6  C   UNL     1     -12.902   8.267  65.635  1.00  0.00    18.128 C  
HETATM    7  C   UNL     1     -13.038  10.640  65.325  1.00  0.00     8.596 C  
ENDBRANCH   4   5
BRANCH   3   8
HETATM    8  N   UNL     1      -9.318   7.016  65.316  1.00  0.00     0.580 NA 
HETATM    9  C   UNL     1      -9.930   5.755  65.479  1.00  0.00     0.505 A  
HETATM   10  C   UNL     1     -10.986   5.352  64.645  1.00  0.00     2.253 A  
HETATM   11  C   UNL     1     -11.545   4.079  64.751  1.00  0.00     1.412 A  
HETATM   12  C   UNL     1     -11.066   3.183  65.701  1.00  0.00     3.166 A  
HETATM   13  C   UNL     1     -10.022   3.563  66.542  1.00  0.00     0.268 A  
HETATM   14  C   UNL     1      -9.451   4.840  66.433  1.00  0.00    -0.159 A  
HETATM   15  C   UNL     1      -8.310   5.241  67.323  1.00  0.00    -0.107 C  
HETATM   16  C   UNL     1      -7.012   5.373  66.536  1.00  0.00    -0.064 C  
HETATM   17  C   UNL     1      -6.900   6.444  65.466  1.00  0.00    -0.048 A  
HETATM   18  C   UNL     1      -5.585   6.660  64.984  1.00  0.00    -0.030 A  
HETATM   19  C   UNL     1      -5.313   7.600  63.997  1.00  0.00    -0.033 A  
HETATM   20  C   UNL     1      -6.352   8.337  63.459  1.00  0.00    -0.073 A  
HETATM   21  C   UNL     1      -7.656   8.133  63.919  1.00  0.00    -0.127 A  
HETATM   22  C   UNL     1      -7.969   7.201  64.934  1.00  0.00    -0.127 A  
ENDBRANCH   3   8
TORSDOF 2
ENDMDL
MODEL      181
REMARK 921   NORMALIZED FREE ENERGY PREDICTED BY IDOCK:   46.62 KCAL/MOL
REMARK 922        TOTAL FREE ENERGY PREDICTED BY IDOCK:   51.16 KCAL/MOL
REMARK 923 INTER-LIGAND FREE ENERGY PREDICTED BY IDOCK:   46.47 KCAL/MOL
REMARK 924 INTRA-LIGAND FREE ENERGY PREDICTED BY IDOCK:    4.69 KCAL/MOL
REMARK 927      BINDING AFFINITY PREDICTED BY RF-SCORE:    0.00 PKD
ROOT
HETATM    1  C   UNL     1      -9.337   8.864  67.752  1.00  0.00    -0.157 C  
HETATM    2  C   UNL     1     -10.574   8.503  66.912  1.00  0.00    -0.279 C  
HETATM    3  C   UNL     1     -10.215   8.197  65.439  1.00  0.00     2.196 C  
HETATM    4  C   UNL     1     -11.557   9.700  67.014  1.00  0.00     1.942 C  
ENDROOT
BRANCH   4   5
HETATM    5  N   UNL     1     -12.845   9.571  66.309  1.00  0.00    12.110 NA 
HETATM    6  C   UNL     1     -12.902   8.267  65.635  1.00  0.00    18.128 C  
HETATM    7  C   UNL     1     -13.038  10.640  65.325  1.00  0.00     8.596 C  
ENDBRANCH   4   5
BRANCH   3   8
HETATM    8  N   UNL     1      -9.318   7.016  65.316  1.00  0.00     0.580 NA 
HETATM    9  C   UNL     1      -8.049   7.139  65.922  1.00  0.00    -0.122 A  
HETATM   10  C   UNL     1      -7.927   7.400  67.296  1.00  0.00    -0.115 A  
HETATM   11  C   UNL     1      -6.679   7.447  67.916  1.00  0.00    -0.062 A  
HETATM   12  C   UNL     1      -5.523   7.243  67.171  1.00  0.00    -0.025 A  
HETATM   13  C   UNL     1      -5.618   6.987  65.805  1.00  0.00    -0.031 A  
HETATM   14  C   UNL     1      -6.872   6.930  65.179  1.00  0.00    -0.051 A  
HETATM   15  C   UNL     1      -6.978   6.630  63.712  1.00  0.00    -0.052 C  
HETATM   16  C   UNL     1      -7.588   5.255  63.469  1.00  0.00    -0.067 C  
HETATM   17  C   UNL     1      -9.022   4.995  63.894  1.00  0.00     0.027 A  
HETATM   18  C   UNL     1      -9.577   3.792  63.391  1.00  0.00    -0.142 A  
HETATM   19  C   UNL     1     -10.876   3.403  63.693  1.00  0.00    -0.206 A  
HETATM   20  C   UNL     1     -11.648   4.202  64.518  1.00  0.00     1.173 A  
HETATM   21  C   UNL     1     -11.115   5.389  65.027  1.00  0.00     1.710 A  
HETATM   22  C   UNL     1      -9.805   5.827  64.727  1.00  0.00     1.312 A  
ENDBRANCH   3   8
TORSDOF 2
ENDMDL
