MODEL        1
REMARK 921   NORMALIZED FREE ENERGY PREDICTED BY IDOCK:   -5.77 KCAL/MOL
REMARK 922        TOTAL FREE ENERGY PREDICTED BY IDOCK:   -8.04 KCAL/MOL
REMARK 923 INTER-LIGAND FREE ENERGY PREDICTED BY IDOCK:   -7.46 KCAL/MOL
REMARK 924 INTRA-LIGAND FREE ENERGY PREDICTED BY IDOCK:   -0.58 KCAL/MOL
REMARK 927      BINDING AFFINITY PREDICTED BY RF-SCORE:    0.00 PKD
ROOT
HETATM    1  C   UNL     1     -12.660  11.940  63.501  1.00  0.00    -0.459 C  
HETATM    2  O   UNL     1     -13.069  12.566  64.712  1.00  0.00    -0.853 OA 
ENDROOT
BRANCH   2   3
HETATM    3  C   UNL     1     -12.178  13.446  65.286  1.00  0.00    -0.440 A  
HETATM    4  C   UNL     1     -11.625  13.354  66.590  1.00  0.00    -0.362 A  
HETATM    5  C   UNL     1     -11.078  15.559  64.917  1.00  0.00    -0.428 A  
HETATM    6  C   UNL     1     -10.731  14.362  67.019  1.00  0.00    -0.285 A  
HETATM    7  C   UNL     1     -11.921  14.550  64.475  1.00  0.00    -0.482 A  
HETATM    8  C   UNL     1     -10.481  15.485  66.188  1.00  0.00    -0.323 A  
BRANCH   4   9
HETATM    9  O   UNL     1     -12.092  12.288  67.301  1.00  0.00    -0.548 OA 
HETATM   10  C   UNL     1     -11.316  11.149  67.599  1.00  0.00    -0.284 C  
ENDBRANCH   4   9
BRANCH   6  11
HETATM   11  O   UNL     1     -10.185  14.422  68.279  1.00  0.00    -0.229 OA 
HETATM   12  C   UNL     1     -11.101  14.752  69.322  1.00  0.00    -0.266 C  
ENDBRANCH   6  11
BRANCH   8  13
HETATM   13  C   UNL     1      -9.609  16.654  66.617  1.00  0.00    -0.263 C  
BRANCH  13  14
HETATM   14  N   UNL     1     -10.395  17.763  67.200  1.00  0.00    -0.347 NA 
HETATM   15  C   UNL     1      -9.860  18.205  68.509  1.00  0.00    -0.382 C  
HETATM   16  C   UNL     1      -8.539  19.003  68.434  1.00  0.00    -0.348 C  
HETATM   17  N   UNL     1      -8.616  20.158  67.520  1.00  0.00    -0.339 NA 
HETATM   18  C   UNL     1      -9.124  19.731  66.207  1.00  0.00    -0.379 C  
HETATM   19  H   UNL     1      -7.723  20.645  67.444  1.00  0.00     0.000 HD 
HETATM   20  C   UNL     1     -10.441  18.929  66.296  1.00  0.00    -0.445 C  
ENDBRANCH  13  14
ENDBRANCH   8  13
ENDBRANCH   2   3
TORSDOF 5
ENDMDL
MODEL        2
REMARK 921   NORMALIZED FREE ENERGY PREDICTED BY IDOCK:   -5.65 KCAL/MOL
REMARK 922        TOTAL FREE ENERGY PREDICTED BY IDOCK:   -7.87 KCAL/MOL
REMARK 923 INTER-LIGAND FREE ENERGY PREDICTED BY IDOCK:   -7.64 KCAL/MOL
REMARK 924 INTRA-LIGAND FREE ENERGY PREDICTED BY IDOCK:   -0.24 KCAL/MOL
REMARK 927      BINDING AFFINITY PREDICTED BY RF-SCORE:    0.00 PKD
ROOT
HETATM    1  C   UNL     1     -11.178   9.683  71.227  1.00  0.00    -0.376 C  
HETATM    2  O   UNL     1     -12.303  10.545  71.103  1.00  0.00    -0.340 OA 
ENDROOT
BRANCH   2   3
HETATM    3  C   UNL     1     -12.127  11.689  70.356  1.00  0.00    -0.373 A  
HETATM    4  C   UNL     1     -12.377  13.020  70.781  1.00  0.00    -0.310 A  
HETATM    5  C   UNL     1     -11.577  12.452  68.137  1.00  0.00    -0.395 A  
HETATM    6  C   UNL     1     -12.151  14.076  69.869  1.00  0.00    -0.345 A  
HETATM    7  C   UNL     1     -11.754  11.416  69.041  1.00  0.00    -0.409 A  
HETATM    8  C   UNL     1     -11.778  13.786  68.531  1.00  0.00    -0.391 A  
BRANCH   4   9
HETATM    9  O   UNL     1     -12.871  13.098  72.050  1.00  0.00    -0.273 OA 
HETATM   10  C   UNL     1     -14.154  13.593  72.360  1.00  0.00    -0.484 C  
ENDBRANCH   4   9
BRANCH   6  11
HETATM   11  O   UNL     1     -12.420  15.397  70.138  1.00  0.00    -0.368 OA 
HETATM   12  C   UNL     1     -11.562  16.006  71.102  1.00  0.00    -0.443 C  
ENDBRANCH   6  11
BRANCH   8  13
HETATM   13  C   UNL     1     -11.610  14.860  67.468  1.00  0.00    -0.339 C  
BRANCH  13  14
HETATM   14  N   UNL     1     -10.845  14.382  66.296  1.00  0.00    -0.308 NA 
HETATM   15  C   UNL     1     -11.726  13.966  65.179  1.00  0.00    -0.350 C  
HETATM   16  C   UNL     1     -12.410  15.128  64.426  1.00  0.00    -0.209 C  
HETATM   17  N   UNL     1     -11.455  16.144  63.945  1.00  0.00    -1.418 NA 
HETATM   18  C   UNL     1     -10.588  16.585  65.048  1.00  0.00    -0.144 C  
HETATM   19  H   UNL     1     -11.927  16.927  63.494  1.00  0.00     0.000 HD 
HETATM   20  C   UNL     1      -9.914  15.414  65.798  1.00  0.00    -0.362 C  
ENDBRANCH  13  14
ENDBRANCH   8  13
ENDBRANCH   2   3
TORSDOF 5
ENDMDL
MODEL        3
REMARK 921   NORMALIZED FREE ENERGY PREDICTED BY IDOCK:   -5.57 KCAL/MOL
REMARK 922        TOTAL FREE ENERGY PREDICTED BY IDOCK:   -7.77 KCAL/MOL
REMARK 923 INTER-LIGAND FREE ENERGY PREDICTED BY IDOCK:   -7.22 KCAL/MOL
REMARK 924 INTRA-LIGAND FREE ENERGY PREDICTED BY IDOCK:   -0.56 KCAL/MOL
REMARK 927      BINDING AFFINITY PREDICTED BY RF-SCORE:    0.00 PKD
ROOT
HETATM    1  C   UNL     1     -13.251   9.404  72.264  1.00  0.00    -0.446 C  
HETATM    2  O   UNL     1     -13.313  10.825  72.291  1.00  0.00    -0.385 OA 
ENDROOT
BRANCH   2   3
HETATM    3  C   UNL     1     -12.784  11.490  71.207  1.00  0.00    -0.364 A  
HETATM    4  C   UNL     1     -12.640  12.895  71.068  1.00  0.00    -0.287 A  
HETATM    5  C   UNL     1     -11.965  11.136  68.967  1.00  0.00    -0.389 A  
HETATM    6  C   UNL     1     -12.083  13.403  69.872  1.00  0.00    -0.322 A  
HETATM    7  C   UNL     1     -12.469  10.630  70.156  1.00  0.00    -0.342 A  
HETATM    8  C   UNL     1     -11.773  12.519  68.805  1.00  0.00    -0.371 A  
BRANCH   4   9
HETATM    9  O   UNL     1     -13.126  13.596  72.132  1.00  0.00    -0.378 OA 
HETATM   10  C   UNL     1     -14.349  14.295  72.113  1.00  0.00    -0.522 C  
ENDBRANCH   4   9
BRANCH   6  11
HETATM   11  O   UNL     1     -11.955  14.742  69.590  1.00  0.00    -0.290 OA 
HETATM   12  C   UNL     1     -10.896  15.408  70.276  1.00  0.00    -0.311 C  
ENDBRANCH   6  11
BRANCH   8  13
HETATM   13  C   UNL     1     -11.262  12.999  67.456  1.00  0.00    -0.284 C  
BRANCH  13  14
HETATM   14  N   UNL     1     -12.132  12.575  66.338  1.00  0.00    -0.597 NA 
HETATM   15  C   UNL     1     -12.895  13.706  65.759  1.00  0.00    -0.333 C  
HETATM   16  C   UNL     1     -12.057  14.687  64.910  1.00  0.00    -0.382 C  
HETATM   17  N   UNL     1     -11.290  14.016  63.844  1.00  0.00    -0.543 NA 
HETATM   18  C   UNL     1     -10.508  12.905  64.407  1.00  0.00    -0.396 C  
HETATM   19  H   UNL     1     -10.705  14.671  63.326  1.00  0.00     0.000 HD 
HETATM   20  C   UNL     1     -11.355  11.934  65.258  1.00  0.00    -0.275 C  
ENDBRANCH  13  14
ENDBRANCH   8  13
ENDBRANCH   2   3
TORSDOF 5
ENDMDL
MODEL        4
REMARK 921   NORMALIZED FREE ENERGY PREDICTED BY IDOCK:   -5.49 KCAL/MOL
REMARK 922        TOTAL FREE ENERGY PREDICTED BY IDOCK:   -7.67 KCAL/MOL
REMARK 923 INTER-LIGAND FREE ENERGY PREDICTED BY IDOCK:   -7.12 KCAL/MOL
REMARK 924 INTRA-LIGAND FREE ENERGY PREDICTED BY IDOCK:   -0.55 KCAL/MOL
REMARK 927      BINDING AFFINITY PREDICTED BY RF-SCORE:    0.00 PKD
ROOT
HETATM    1  C   UNL     1     -11.869  15.466  72.228  1.00  0.00    -0.458 C  
HETATM    2  O   UNL     1     -11.300  16.216  71.161  1.00  0.00    -0.387 OA 
ENDROOT
BRANCH   2   3
HETATM    3  C   UNL     1     -11.024  15.529  69.999  1.00  0.00    -0.319 A  
HETATM    4  C   UNL     1     -10.257  16.002  68.903  1.00  0.00    -0.231 A  
HETATM    5  C   UNL     1     -11.540  13.491  68.821  1.00  0.00    -0.362 A  
HETATM    6  C   UNL     1     -10.087  15.158  67.781  1.00  0.00    -0.230 A  
HETATM    7  C   UNL     1     -11.673  14.296  69.941  1.00  0.00    -0.373 A  
HETATM    8  C   UNL     1     -10.758  13.908  67.729  1.00  0.00    -0.252 A  
BRANCH   4   9
HETATM    9  O   UNL     1      -9.813  17.281  69.066  1.00  0.00    -0.280 OA 
HETATM   10  C   UNL     1     -10.359  18.390  68.389  1.00  0.00    -0.327 C  
ENDBRANCH   4   9
BRANCH   6  11
HETATM   11  O   UNL     1      -9.427  15.526  66.633  1.00  0.00    -0.229 OA 
HETATM   12  C   UNL     1      -8.005  15.572  66.740  1.00  0.00    -0.179 C  
ENDBRANCH   6  11
BRANCH   8  13
HETATM   13  C   UNL     1     -10.702  12.989  66.520  1.00  0.00    -0.278 C  
BRANCH  13  14
HETATM   14  N   UNL     1     -12.040  12.716  65.953  1.00  0.00    -0.563 NA 
HETATM   15  C   UNL     1     -12.768  13.958  65.600  1.00  0.00    -0.495 C  
HETATM   16  C   UNL     1     -12.238  14.684  64.344  1.00  0.00    -0.452 C  
HETATM   17  N   UNL     1     -12.163  13.807  63.161  1.00  0.00    -1.066 NA 
HETATM   18  C   UNL     1     -11.423  12.578  63.489  1.00  0.00    -0.496 C  
HETATM   19  H   UNL     1     -11.766  14.287  62.354  1.00  0.00     0.000 HD 
HETATM   20  C   UNL     1     -11.957  11.864  64.750  1.00  0.00    -0.145 C  
ENDBRANCH  13  14
ENDBRANCH   8  13
ENDBRANCH   2   3
TORSDOF 5
ENDMDL
MODEL        5
REMARK 921   NORMALIZED FREE ENERGY PREDICTED BY IDOCK:   -5.41 KCAL/MOL
REMARK 922        TOTAL FREE ENERGY PREDICTED BY IDOCK:   -7.57 KCAL/MOL
REMARK 923 INTER-LIGAND FREE ENERGY PREDICTED BY IDOCK:   -7.11 KCAL/MOL
REMARK 924 INTRA-LIGAND FREE ENERGY PREDICTED BY IDOCK:   -0.46 KCAL/MOL
REMARK 927      BINDING AFFINITY PREDICTED BY RF-SCORE:    0.00 PKD
ROOT
HETATM    1  C   UNL     1     -12.947  16.063  73.484  1.00  0.00    -0.586 C  
HETATM    2  O   UNL     1     -13.490  15.651  72.235  1.00  0.00    -0.456 OA 
ENDROOT
BRANCH   2   3
HETATM    3  C   UNL     1     -13.058  14.442  71.739  1.00  0.00    -0.354 A  
HETATM    4  C   UNL     1     -12.257  14.241  70.584  1.00  0.00    -0.357 A  
HETATM    5  C   UNL     1     -13.280  12.062  72.055  1.00  0.00    -0.481 A  
HETATM    6  C   UNL     1     -11.919  12.919  70.216  1.00  0.00    -0.283 A  
HETATM    7  C   UNL     1     -13.578  13.358  72.446  1.00  0.00    -0.708 A  
HETATM    8  C   UNL     1     -12.459  11.824  70.939  1.00  0.00    -0.416 A  
BRANCH   4   9
HETATM    9  O   UNL     1     -11.953  15.399  69.931  1.00  0.00    -0.318 OA 
HETATM   10  C   UNL     1     -10.752  16.111  70.122  1.00  0.00    -0.289 C  
ENDBRANCH   4   9
BRANCH   6  11
HETATM   11  O   UNL     1     -11.209  12.592  69.085  1.00  0.00    -0.259 OA 
HETATM   12  C   UNL     1     -11.905  12.790  67.855  1.00  0.00    -0.339 C  
ENDBRANCH   6  11
BRANCH   8  13
HETATM   13  C   UNL     1     -12.219  10.375  70.547  1.00  0.00    -0.323 C  
BRANCH  13  14
HETATM   14  N   UNL     1     -11.535   9.606  71.608  1.00  0.00    -0.367 NA 
HETATM   15  C   UNL     1     -12.395   8.543  72.179  1.00  0.00    -0.382 C  
HETATM   16  C   UNL     1     -12.619   7.325  71.256  1.00  0.00    -0.366 C  
HETATM   17  N   UNL     1     -11.359   6.729  70.774  1.00  0.00    -0.303 NA 
HETATM   18  C   UNL     1     -10.502   7.768  70.183  1.00  0.00    -0.231 C  
HETATM   19  H   UNL     1     -11.524   5.958  70.128  1.00  0.00     0.000 HD 
HETATM   20  C   UNL     1     -10.291   8.984  71.113  1.00  0.00    -0.291 C  
ENDBRANCH  13  14
ENDBRANCH   8  13
ENDBRANCH   2   3
TORSDOF 5
ENDMDL
MODEL        6
REMARK 921   NORMALIZED FREE ENERGY PREDICTED BY IDOCK:   -5.39 KCAL/MOL
REMARK 922        TOTAL FREE ENERGY PREDICTED BY IDOCK:   -7.54 KCAL/MOL
REMARK 923 INTER-LIGAND FREE ENERGY PREDICTED BY IDOCK:   -7.07 KCAL/MOL
REMARK 924 INTRA-LIGAND FREE ENERGY PREDICTED BY IDOCK:   -0.47 KCAL/MOL
REMARK 927      BINDING AFFINITY PREDICTED BY RF-SCORE:    0.00 PKD
ROOT
HETATM    1  C   UNL     1     -12.584  12.495  64.590  1.00  0.00    -0.426 C  
HETATM    2  O   UNL     1     -11.524  12.006  65.404  1.00  0.00    -0.340 OA 
ENDROOT
BRANCH   2   3
HETATM    3  C   UNL     1     -11.555  12.352  66.737  1.00  0.00    -0.379 A  
HETATM    4  C   UNL     1     -11.487  11.463  67.841  1.00  0.00    -0.291 A  
HETATM    5  C   UNL     1     -11.871  14.233  68.211  1.00  0.00    -0.370 A  
HETATM    6  C   UNL     1     -11.547  12.000  69.147  1.00  0.00    -0.312 A  
HETATM    7  C   UNL     1     -11.768  13.717  66.929  1.00  0.00    -0.424 A  
HETATM    8  C   UNL     1     -11.771  13.389  69.331  1.00  0.00    -0.382 A  
BRANCH   4   9
HETATM    9  O   UNL     1     -11.422  10.151  67.474  1.00  0.00    -0.249 OA 
HETATM   10  C   UNL     1     -10.243   9.381  67.537  1.00  0.00    -0.231 C  
ENDBRANCH   4   9
BRANCH   6  11
HETATM   11  O   UNL     1     -11.560  11.239  70.292  1.00  0.00    -0.311 OA 
HETATM   12  C   UNL     1     -12.800  10.592  70.576  1.00  0.00    -0.279 C  
ENDBRANCH   6  11
BRANCH   8  13
HETATM   13  C   UNL     1     -11.942  14.025  70.701  1.00  0.00    -0.305 C  
BRANCH  13  14
HETATM   14  N   UNL     1     -12.564  15.365  70.630  1.00  0.00    -0.416 NA 
HETATM   15  C   UNL     1     -13.998  15.342  71.001  1.00  0.00    -0.282 C  
HETATM   16  C   UNL     1     -14.275  15.147  72.508  1.00  0.00    -0.352 C  
HETATM   17  N   UNL     1     -13.565  16.125  73.354  1.00  0.00    -0.809 NA 
HETATM   18  C   UNL     1     -12.135  16.144  73.014  1.00  0.00    -0.533 C  
HETATM   19  H   UNL     1     -13.719  15.953  74.347  1.00  0.00     0.000 HD 
HETATM   20  C   UNL     1     -11.871  16.333  71.504  1.00  0.00    -0.380 C  
ENDBRANCH  13  14
ENDBRANCH   8  13
ENDBRANCH   2   3
TORSDOF 5
ENDMDL
MODEL        7
REMARK 921   NORMALIZED FREE ENERGY PREDICTED BY IDOCK:   -5.39 KCAL/MOL
REMARK 922        TOTAL FREE ENERGY PREDICTED BY IDOCK:   -7.54 KCAL/MOL
REMARK 923 INTER-LIGAND FREE ENERGY PREDICTED BY IDOCK:   -7.00 KCAL/MOL
REMARK 924 INTRA-LIGAND FREE ENERGY PREDICTED BY IDOCK:   -0.54 KCAL/MOL
REMARK 927      BINDING AFFINITY PREDICTED BY RF-SCORE:    0.00 PKD
ROOT
HETATM    1  C   UNL     1      -7.404  17.369  66.326  1.00  0.00    -0.312 C  
HETATM    2  O   UNL     1      -8.641  16.860  65.840  1.00  0.00    -0.514 OA 
ENDROOT
BRANCH   2   3
HETATM    3  C   UNL     1      -9.542  16.417  66.782  1.00  0.00    -0.248 A  
HETATM    4  C   UNL     1     -10.341  15.247  66.700  1.00  0.00    -0.280 A  
HETATM    5  C   UNL     1     -10.587  17.041  68.863  1.00  0.00    -0.328 A  
HETATM    6  C   UNL     1     -11.225  14.955  67.764  1.00  0.00    -0.321 A  
HETATM    7  C   UNL     1      -9.686  17.309  67.844  1.00  0.00    -0.273 A  
HETATM    8  C   UNL     1     -11.369  15.873  68.836  1.00  0.00    -0.377 A  
BRANCH   4   9
HETATM    9  O   UNL     1     -10.177  14.563  65.532  1.00  0.00    -0.327 OA 
HETATM   10  C   UNL     1     -11.217  14.333  64.608  1.00  0.00    -0.366 C  
ENDBRANCH   4   9
BRANCH   6  11
HETATM   11  O   UNL     1     -12.098  13.892  67.770  1.00  0.00    -0.371 OA 
HETATM   12  C   UNL     1     -11.507  12.624  68.053  1.00  0.00    -0.318 C  
ENDBRANCH   6  11
BRANCH   8  13
HETATM   13  C   UNL     1     -12.367  15.676  69.965  1.00  0.00    -0.276 C  
BRANCH  13  14
HETATM   14  N   UNL     1     -11.878  14.736  70.996  1.00  0.00    -0.318 NA 
HETATM   15  C   UNL     1     -11.427  15.432  72.225  1.00  0.00    -0.412 C  
HETATM   16  C   UNL     1     -12.564  16.006  73.099  1.00  0.00    -0.520 C  
HETATM   17  N   UNL     1     -13.584  15.000  73.450  1.00  0.00    -0.556 NA 
HETATM   18  C   UNL     1     -14.059  14.316  72.238  1.00  0.00    -0.526 C  
HETATM   19  H   UNL     1     -14.351  15.405  73.985  1.00  0.00     0.000 HD 
HETATM   20  C   UNL     1     -12.912  13.751  71.369  1.00  0.00    -0.355 C  
ENDBRANCH  13  14
ENDBRANCH   8  13
ENDBRANCH   2   3
TORSDOF 5
ENDMDL
MODEL        8
REMARK 921   NORMALIZED FREE ENERGY PREDICTED BY IDOCK:   -5.37 KCAL/MOL
REMARK 922        TOTAL FREE ENERGY PREDICTED BY IDOCK:   -7.52 KCAL/MOL
REMARK 923 INTER-LIGAND FREE ENERGY PREDICTED BY IDOCK:   -7.09 KCAL/MOL
REMARK 924 INTRA-LIGAND FREE ENERGY PREDICTED BY IDOCK:   -0.43 KCAL/MOL
REMARK 927      BINDING AFFINITY PREDICTED BY RF-SCORE:    0.00 PKD
ROOT
HETATM    1  C   UNL     1     -11.547  15.461  71.939  1.00  0.00    -0.442 C  
HETATM    2  O   UNL     1     -11.551  16.364  70.839  1.00  0.00    -0.358 OA 
ENDROOT
BRANCH   2   3
HETATM    3  C   UNL     1     -11.205  15.846  69.611  1.00  0.00    -0.331 A  
HETATM    4  C   UNL     1     -10.456  16.503  68.600  1.00  0.00    -0.304 A  
HETATM    5  C   UNL     1     -11.551  13.937  68.180  1.00  0.00    -0.370 A  
HETATM    6  C   UNL     1     -10.206  15.817  67.389  1.00  0.00    -0.270 A  
HETATM    7  C   UNL     1     -11.761  14.588  69.386  1.00  0.00    -0.361 A  
HETATM    8  C   UNL     1     -10.782  14.540  67.168  1.00  0.00    -0.286 A  
BRANCH   4   9
HETATM    9  O   UNL     1     -10.109  17.780  68.929  1.00  0.00    -0.360 OA 
HETATM   10  C   UNL     1     -10.449  18.907  68.153  1.00  0.00    -0.319 C  
ENDBRANCH   4   9
BRANCH   6  11
HETATM   11  O   UNL     1      -9.554  16.370  66.312  1.00  0.00    -0.273 OA 
HETATM   12  C   UNL     1      -8.129  16.358  66.394  1.00  0.00    -0.322 C  
ENDBRANCH   6  11
BRANCH   8  13
HETATM   13  C   UNL     1     -10.639  13.783  65.858  1.00  0.00    -0.289 C  
BRANCH  13  14
HETATM   14  N   UNL     1     -11.438  12.539  65.831  1.00  0.00    -0.353 NA 
HETATM   15  C   UNL     1     -12.564  12.613  64.871  1.00  0.00    -0.450 C  
HETATM   16  C   UNL     1     -12.154  12.539  63.384  1.00  0.00    -0.529 C  
HETATM   17  N   UNL     1     -11.323  11.361  63.074  1.00  0.00    -0.852 NA 
HETATM   18  C   UNL     1     -10.186  11.285  64.005  1.00  0.00    -0.348 C  
HETATM   19  H   UNL     1     -11.020  11.353  62.101  1.00  0.00     0.000 HD 
HETATM   20  C   UNL     1     -10.608  11.367  65.489  1.00  0.00    -0.271 C  
ENDBRANCH  13  14
ENDBRANCH   8  13
ENDBRANCH   2   3
TORSDOF 5
ENDMDL
MODEL        9
REMARK 921   NORMALIZED FREE ENERGY PREDICTED BY IDOCK:   -5.35 KCAL/MOL
REMARK 922        TOTAL FREE ENERGY PREDICTED BY IDOCK:   -7.49 KCAL/MOL
REMARK 923 INTER-LIGAND FREE ENERGY PREDICTED BY IDOCK:   -7.31 KCAL/MOL
REMARK 924 INTRA-LIGAND FREE ENERGY PREDICTED BY IDOCK:   -0.19 KCAL/MOL
REMARK 927      BINDING AFFINITY PREDICTED BY RF-SCORE:    0.00 PKD
ROOT
HETATM    1  C   UNL     1     -10.751  11.470  65.281  1.00  0.00    -0.279 C  
HETATM    2  O   UNL     1     -11.942  12.065  65.782  1.00  0.00    -0.514 OA 
ENDROOT
BRANCH   2   3
HETATM    3  C   UNL     1     -11.817  12.850  66.907  1.00  0.00    -0.379 A  
HETATM    4  C   UNL     1     -11.727  14.266  66.941  1.00  0.00    -0.408 A  
HETATM    5  C   UNL     1     -11.503  12.725  69.293  1.00  0.00    -0.349 A  
HETATM    6  C   UNL     1     -11.589  14.905  68.195  1.00  0.00    -0.334 A  
HETATM    7  C   UNL     1     -11.683  12.095  68.071  1.00  0.00    -0.409 A  
HETATM    8  C   UNL     1     -11.447  14.127  69.373  1.00  0.00    -0.337 A  
BRANCH   4   9
HETATM    9  O   UNL     1     -11.734  14.838  65.703  1.00  0.00    -0.335 OA 
HETATM   10  C   UNL     1     -10.565  15.192  64.999  1.00  0.00    -0.413 C  
ENDBRANCH   4   9
BRANCH   6  11
HETATM   11  O   UNL     1     -11.423  16.261  68.354  1.00  0.00    -0.357 OA 
HETATM   12  C   UNL     1     -10.099  16.740  68.126  1.00  0.00    -0.282 C  
ENDBRANCH   6  11
BRANCH   8  13
HETATM   13  C   UNL     1     -11.199  14.738  70.743  1.00  0.00    -0.114 C  
BRANCH  13  14
HETATM   14  N   UNL     1     -12.200  15.769  71.092  1.00  0.00    -0.402 NA 
HETATM   15  C   UNL     1     -13.573  15.218  71.170  1.00  0.00    -0.469 C  
HETATM   16  C   UNL     1     -13.850  14.339  72.410  1.00  0.00    -0.518 C  
HETATM   17  N   UNL     1     -13.519  15.015  73.679  1.00  0.00    -0.443 NA 
HETATM   18  C   UNL     1     -12.150  15.548  73.627  1.00  0.00    -0.508 C  
HETATM   19  H   UNL     1     -13.661  14.405  74.484  1.00  0.00     0.000 HD 
HETATM   20  C   UNL     1     -11.883  16.419  72.379  1.00  0.00    -0.458 C  
ENDBRANCH  13  14
ENDBRANCH   8  13
ENDBRANCH   2   3
TORSDOF 5
ENDMDL
MODEL       10
REMARK 921   NORMALIZED FREE ENERGY PREDICTED BY IDOCK:   -5.35 KCAL/MOL
REMARK 922        TOTAL FREE ENERGY PREDICTED BY IDOCK:   -7.49 KCAL/MOL
REMARK 923 INTER-LIGAND FREE ENERGY PREDICTED BY IDOCK:   -6.96 KCAL/MOL
REMARK 924 INTRA-LIGAND FREE ENERGY PREDICTED BY IDOCK:   -0.53 KCAL/MOL
REMARK 927      BINDING AFFINITY PREDICTED BY RF-SCORE:    0.00 PKD
ROOT
HETATM    1  C   UNL     1     -13.132  13.460  71.878  1.00  0.00    -0.383 C  
HETATM    2  O   UNL     1     -12.521  12.853  70.746  1.00  0.00    -0.349 OA 
ENDROOT
BRANCH   2   3
HETATM    3  C   UNL     1     -12.083  13.697  69.749  1.00  0.00    -0.334 A  
HETATM    4  C   UNL     1     -11.865  13.355  68.390  1.00  0.00    -0.366 A  
HETATM    5  C   UNL     1     -11.263  15.932  69.368  1.00  0.00    -0.336 A  
HETATM    6  C   UNL     1     -11.399  14.355  67.506  1.00  0.00    -0.328 A  
HETATM    7  C   UNL     1     -11.762  14.966  70.229  1.00  0.00    -0.352 A  
HETATM    8  C   UNL     1     -11.068  15.642  68.006  1.00  0.00    -0.335 A  
BRANCH   4   9
HETATM    9  O   UNL     1     -12.095  12.038  68.121  1.00  0.00    -0.480 OA 
HETATM   10  C   UNL     1     -11.071  11.082  67.963  1.00  0.00    -0.286 C  
ENDBRANCH   4   9
BRANCH   6  11
HETATM   11  O   UNL     1     -11.085  14.132  66.186  1.00  0.00    -0.305 OA 
HETATM   12  C   UNL     1     -12.205  13.965  65.317  1.00  0.00    -0.433 C  
ENDBRANCH   6  11
BRANCH   8  13
HETATM   13  C   UNL     1     -10.473  16.738  67.138  1.00  0.00    -0.299 C  
BRANCH  13  14
HETATM   14  N   UNL     1     -10.043  17.914  67.925  1.00  0.00    -0.330 NA 
HETATM   15  C   UNL     1      -8.589  18.174  67.800  1.00  0.00    -0.255 C  
HETATM   16  C   UNL     1      -8.150  18.759  66.439  1.00  0.00    -0.280 C  
HETATM   17  N   UNL     1      -8.900  19.972  66.065  1.00  0.00    -0.527 NA 
HETATM   18  C   UNL     1     -10.346  19.723  66.162  1.00  0.00    -0.524 C  
HETATM   19  H   UNL     1      -8.633  20.317  65.144  1.00  0.00     0.000 HD 
HETATM   20  C   UNL     1     -10.773  19.133  67.524  1.00  0.00    -0.458 C  
ENDBRANCH  13  14
ENDBRANCH   8  13
ENDBRANCH   2   3
TORSDOF 5
ENDMDL
MODEL       11
REMARK 921   NORMALIZED FREE ENERGY PREDICTED BY IDOCK:   -5.32 KCAL/MOL
REMARK 922        TOTAL FREE ENERGY PREDICTED BY IDOCK:   -7.45 KCAL/MOL
REMARK 923 INTER-LIGAND FREE ENERGY PREDICTED BY IDOCK:   -6.98 KCAL/MOL
REMARK 924 INTRA-LIGAND FREE ENERGY PREDICTED BY IDOCK:   -0.47 KCAL/MOL
REMARK 927      BINDING AFFINITY PREDICTED BY RF-SCORE:    0.00 PKD
ROOT
HETATM    1  C   UNL     1     -13.593  14.613  72.779  1.00  0.00    -0.437 C  
HETATM    2  O   UNL     1     -13.209  13.271  72.501  1.00  0.00    -0.485 OA 
ENDROOT
BRANCH   2   3
HETATM    3  C   UNL     1     -12.714  13.017  71.241  1.00  0.00    -0.293 A  
HETATM    4  C   UNL     1     -12.303  11.756  70.736  1.00  0.00    -0.337 A  
HETATM    5  C   UNL     1     -12.018  14.111  69.208  1.00  0.00    -0.382 A  
HETATM    6  C   UNL     1     -11.806  11.685  69.414  1.00  0.00    -0.342 A  
HETATM    7  C   UNL     1     -12.548  14.179  70.488  1.00  0.00    -0.410 A  
HETATM    8  C   UNL     1     -11.635  12.875  68.659  1.00  0.00    -0.353 A  
BRANCH   4   9
HETATM    9  O   UNL     1     -12.401  10.749  71.651  1.00  0.00    -0.315 OA 
HETATM   10  C   UNL     1     -13.303   9.673  71.534  1.00  0.00    -0.388 C  
ENDBRANCH   4   9
BRANCH   6  11
HETATM   11  O   UNL     1     -11.315  10.539  68.836  1.00  0.00    -0.251 OA 
HETATM   12  C   UNL     1     -10.052  10.101  69.337  1.00  0.00    -0.231 C  
ENDBRANCH   6  11
BRANCH   8  13
HETATM   13  C   UNL     1     -11.018  12.891  67.269  1.00  0.00    -0.261 C  
BRANCH  13  14
HETATM   14  N   UNL     1     -11.971  12.467  66.221  1.00  0.00    -0.607 NA 
HETATM   15  C   UNL     1     -12.732  13.606  65.657  1.00  0.00    -0.454 C  
HETATM   16  C   UNL     1     -11.917  14.533  64.728  1.00  0.00    -0.442 C  
HETATM   17  N   UNL     1     -11.243  13.805  63.637  1.00  0.00    -0.361 NA 
HETATM   18  C   UNL     1     -10.464  12.683  64.183  1.00  0.00    -0.413 C  
HETATM   19  H   UNL     1     -10.670  14.423  63.063  1.00  0.00     0.000 HD 
HETATM   20  C   UNL     1     -11.287  11.768  65.116  1.00  0.00    -0.218 C  
ENDBRANCH  13  14
ENDBRANCH   8  13
ENDBRANCH   2   3
TORSDOF 5
ENDMDL
MODEL       12
REMARK 921   NORMALIZED FREE ENERGY PREDICTED BY IDOCK:   -5.31 KCAL/MOL
REMARK 922        TOTAL FREE ENERGY PREDICTED BY IDOCK:   -7.44 KCAL/MOL
REMARK 923 INTER-LIGAND FREE ENERGY PREDICTED BY IDOCK:   -7.05 KCAL/MOL
REMARK 924 INTRA-LIGAND FREE ENERGY PREDICTED BY IDOCK:   -0.39 KCAL/MOL
REMARK 927      BINDING AFFINITY PREDICTED BY RF-SCORE:    0.00 PKD
ROOT
HETATM    1  C   UNL     1     -10.617  16.728  69.102  1.00  0.00    -0.343 C  
HETATM    2  O   UNL     1     -11.645  16.023  68.416  1.00  0.00    -0.364 OA 
ENDROOT
BRANCH   2   3
HETATM    3  C   UNL     1     -11.701  14.661  68.613  1.00  0.00    -0.329 A  
HETATM    4  C   UNL     1     -11.629  13.660  67.609  1.00  0.00    -0.346 A  
HETATM    5  C   UNL     1     -12.072  12.995  70.315  1.00  0.00    -0.388 A  
HETATM    6  C   UNL     1     -11.717  12.304  67.999  1.00  0.00    -0.356 A  
HETATM    7  C   UNL     1     -11.943  14.324  69.944  1.00  0.00    -0.397 A  
HETATM    8  C   UNL     1     -11.970  11.973  69.355  1.00  0.00    -0.334 A  
BRANCH   4   9
HETATM    9  O   UNL     1     -11.533  14.167  66.347  1.00  0.00    -0.331 OA 
HETATM   10  C   UNL     1     -12.559  14.068  65.385  1.00  0.00    -0.505 C  
ENDBRANCH   4   9
BRANCH   6  11
HETATM   11  O   UNL     1     -11.730  11.249  67.117  1.00  0.00    -0.533 OA 
HETATM   12  C   UNL     1     -10.476  10.962  66.497  1.00  0.00    -0.253 C  
ENDBRANCH   6  11
BRANCH   8  13
HETATM   13  C   UNL     1     -12.172  10.544  69.834  1.00  0.00    -0.218 C  
BRANCH  13  14
HETATM   14  N   UNL     1     -11.968  10.400  71.291  1.00  0.00    -0.354 NA 
HETATM   15  C   UNL     1     -13.244  10.223  72.024  1.00  0.00    -0.411 C  
HETATM   16  C   UNL     1     -13.906   8.839  71.846  1.00  0.00    -0.442 C  
HETATM   17  N   UNL     1     -12.998   7.721  72.164  1.00  0.00    -0.499 NA 
HETATM   18  C   UNL     1     -11.734   7.870  71.426  1.00  0.00    -0.281 C  
HETATM   19  H   UNL     1     -13.434   6.815  71.995  1.00  0.00     0.000 HD 
HETATM   20  C   UNL     1     -11.085   9.260  71.606  1.00  0.00    -0.368 C  
ENDBRANCH  13  14
ENDBRANCH   8  13
ENDBRANCH   2   3
TORSDOF 5
ENDMDL
MODEL       13
REMARK 921   NORMALIZED FREE ENERGY PREDICTED BY IDOCK:   -5.29 KCAL/MOL
REMARK 922        TOTAL FREE ENERGY PREDICTED BY IDOCK:   -7.42 KCAL/MOL
REMARK 923 INTER-LIGAND FREE ENERGY PREDICTED BY IDOCK:   -6.93 KCAL/MOL
REMARK 924 INTRA-LIGAND FREE ENERGY PREDICTED BY IDOCK:   -0.49 KCAL/MOL
REMARK 927      BINDING AFFINITY PREDICTED BY RF-SCORE:    0.00 PKD
ROOT
HETATM    1  C   UNL     1     -11.021  16.229  69.774  1.00  0.00    -0.354 C  
HETATM    2  O   UNL     1     -11.955  15.484  69.002  1.00  0.00    -0.354 OA 
ENDROOT
BRANCH   2   3
HETATM    3  C   UNL     1     -11.918  14.114  69.136  1.00  0.00    -0.349 A  
HETATM    4  C   UNL     1     -11.687  13.171  68.101  1.00  0.00    -0.355 A  
HETATM    5  C   UNL     1     -12.290  12.343  70.730  1.00  0.00    -0.377 A  
HETATM    6  C   UNL     1     -11.696  11.795  68.424  1.00  0.00    -0.325 A  
HETATM    7  C   UNL     1     -12.238  13.695  70.428  1.00  0.00    -0.434 A  
HETATM    8  C   UNL     1     -12.030  11.380  69.740  1.00  0.00    -0.422 A  
BRANCH   4   9
HETATM    9  O   UNL     1     -11.531  13.744  66.874  1.00  0.00    -0.319 OA 
HETATM   10  C   UNL     1     -12.532  13.751  65.882  1.00  0.00    -0.468 C  
ENDBRANCH   4   9
BRANCH   6  11
HETATM   11  O   UNL     1     -11.555  10.786  67.501  1.00  0.00    -0.510 OA 
HETATM   12  C   UNL     1     -10.219  10.559  67.051  1.00  0.00    -0.226 C  
ENDBRANCH   6  11
BRANCH   8  13
HETATM   13  C   UNL     1     -12.155   9.918  70.139  1.00  0.00    -0.025 C  
BRANCH  13  14
HETATM   14  N   UNL     1     -12.276   9.739  71.602  1.00  0.00    -0.393 NA 
HETATM   15  C   UNL     1     -13.622   9.266  72.002  1.00  0.00    -0.452 C  
HETATM   16  C   UNL     1     -13.917   7.788  71.663  1.00  0.00    -0.402 C  
HETATM   17  N   UNL     1     -12.896   6.863  72.188  1.00  0.00    -0.549 NA 
HETATM   18  C   UNL     1     -11.554   7.306  71.779  1.00  0.00    -0.275 C  
HETATM   19  H   UNL     1     -13.079   5.898  71.913  1.00  0.00     0.000 HD 
HETATM   20  C   UNL     1     -11.273   8.787  72.118  1.00  0.00    -0.338 C  
ENDBRANCH  13  14
ENDBRANCH   8  13
ENDBRANCH   2   3
TORSDOF 5
ENDMDL
MODEL       14
REMARK 921   NORMALIZED FREE ENERGY PREDICTED BY IDOCK:   -5.20 KCAL/MOL
REMARK 922        TOTAL FREE ENERGY PREDICTED BY IDOCK:   -7.29 KCAL/MOL
REMARK 923 INTER-LIGAND FREE ENERGY PREDICTED BY IDOCK:   -6.92 KCAL/MOL
REMARK 924 INTRA-LIGAND FREE ENERGY PREDICTED BY IDOCK:   -0.38 KCAL/MOL
REMARK 927      BINDING AFFINITY PREDICTED BY RF-SCORE:    0.00 PKD
ROOT
HETATM    1  C   UNL     1     -12.092  16.232  72.952  1.00  0.00    -0.527 C  
HETATM    2  O   UNL     1     -12.506  15.860  71.642  1.00  0.00    -0.435 OA 
ENDROOT
BRANCH   2   3
HETATM    3  C   UNL     1     -12.525  14.513  71.357  1.00  0.00    -0.353 A  
HETATM    4  C   UNL     1     -11.937  13.882  70.230  1.00  0.00    -0.331 A  
HETATM    5  C   UNL     1     -13.457  12.419  72.104  1.00  0.00    -0.481 A  
HETATM    6  C   UNL     1     -12.069  12.480  70.094  1.00  0.00    -0.292 A  
HETATM    7  C   UNL     1     -13.294  13.786  72.266  1.00  0.00    -0.617 A  
HETATM    8  C   UNL     1     -12.859  11.751  71.021  1.00  0.00    -0.309 A  
BRANCH   4   9
HETATM    9  O   UNL     1     -11.344  14.757  69.369  1.00  0.00    -0.256 OA 
HETATM   10  C   UNL     1     -11.753  14.935  68.032  1.00  0.00    -0.320 C  
ENDBRANCH   4   9
BRANCH   6  11
HETATM   11  O   UNL     1     -11.605  11.765  69.016  1.00  0.00    -0.257 OA 
HETATM   12  C   UNL     1     -10.304  11.201  69.177  1.00  0.00    -0.161 C  
ENDBRANCH   6  11
BRANCH   8  13
HETATM   13  C   UNL     1     -13.126  10.261  70.887  1.00  0.00    -0.344 C  
BRANCH  13  14
HETATM   14  N   UNL     1     -13.167   9.573  72.195  1.00  0.00    -0.435 NA 
HETATM   15  C   UNL     1     -14.328   8.660  72.315  1.00  0.00    -0.396 C  
HETATM   16  C   UNL     1     -14.220   7.361  71.486  1.00  0.00    -0.427 C  
HETATM   17  N   UNL     1     -12.978   6.612  71.750  1.00  0.00    -0.386 NA 
HETATM   18  C   UNL     1     -11.813   7.499  71.612  1.00  0.00    -0.291 C  
HETATM   19  H   UNL     1     -12.899   5.784  71.160  1.00  0.00     0.000 HD 
HETATM   20  C   UNL     1     -11.935   8.797  72.440  1.00  0.00    -0.299 C  
ENDBRANCH  13  14
ENDBRANCH   8  13
ENDBRANCH   2   3
TORSDOF 5
ENDMDL
MODEL       15
REMARK 921   NORMALIZED FREE ENERGY PREDICTED BY IDOCK:   -5.14 KCAL/MOL
REMARK 922        TOTAL FREE ENERGY PREDICTED BY IDOCK:   -7.21 KCAL/MOL
REMARK 923 INTER-LIGAND FREE ENERGY PREDICTED BY IDOCK:   -6.63 KCAL/MOL
REMARK 924 INTRA-LIGAND FREE ENERGY PREDICTED BY IDOCK:   -0.59 KCAL/MOL
REMARK 927      BINDING AFFINITY PREDICTED BY RF-SCORE:    0.00 PKD
ROOT
HETATM    1  C   UNL     1     -12.956  10.409  71.593  1.00  0.00    -0.475 C  
HETATM    2  O   UNL     1     -12.180  10.378  70.402  1.00  0.00    -0.288 OA 
ENDROOT
BRANCH   2   3
HETATM    3  C   UNL     1     -12.065  11.561  69.705  1.00  0.00    -0.306 A  
HETATM    4  C   UNL     1     -11.766  11.701  68.325  1.00  0.00    -0.304 A  
HETATM    5  C   UNL     1     -12.043  13.953  70.001  1.00  0.00    -0.411 A  
HETATM    6  C   UNL     1     -11.676  13.003  67.781  1.00  0.00    -0.359 A  
HETATM    7  C   UNL     1     -12.178  12.679  70.531  1.00  0.00    -0.383 A  
HETATM    8  C   UNL     1     -11.785  14.133  68.631  1.00  0.00    -0.385 A  
BRANCH   4   9
HETATM    9  O   UNL     1     -11.548  10.511  67.696  1.00  0.00    -0.447 OA 
HETATM   10  C   UNL     1     -10.269  10.037  67.342  1.00  0.00    -0.219 C  
ENDBRANCH   4   9
BRANCH   6  11
HETATM   11  O   UNL     1     -11.326  13.270  66.478  1.00  0.00    -0.304 OA 
HETATM   12  C   UNL     1     -12.361  13.062  65.518  1.00  0.00    -0.472 C  
ENDBRANCH   6  11
BRANCH   8  13
HETATM   13  C   UNL     1     -11.603  15.560  68.138  1.00  0.00    -0.304 C  
BRANCH  13  14
HETATM   14  N   UNL     1     -10.287  16.124  68.507  1.00  0.00    -0.243 NA 
HETATM   15  C   UNL     1      -9.207  15.677  67.595  1.00  0.00    -0.193 C  
HETATM   16  C   UNL     1      -9.237  16.319  66.191  1.00  0.00    -0.341 C  
HETATM   17  N   UNL     1      -9.266  17.793  66.232  1.00  0.00    -0.440 NA 
HETATM   18  C   UNL     1     -10.348  18.253  67.115  1.00  0.00    -0.384 C  
HETATM   19  H   UNL     1      -9.335  18.199  65.300  1.00  0.00     0.000 HD 
HETATM   20  C   UNL     1     -10.312  17.600  68.514  1.00  0.00    -0.370 C  
ENDBRANCH  13  14
ENDBRANCH   8  13
ENDBRANCH   2   3
TORSDOF 5
ENDMDL
MODEL       16
REMARK 921   NORMALIZED FREE ENERGY PREDICTED BY IDOCK:   -5.13 KCAL/MOL
REMARK 922        TOTAL FREE ENERGY PREDICTED BY IDOCK:   -7.21 KCAL/MOL
REMARK 923 INTER-LIGAND FREE ENERGY PREDICTED BY IDOCK:   -6.77 KCAL/MOL
REMARK 924 INTRA-LIGAND FREE ENERGY PREDICTED BY IDOCK:   -0.44 KCAL/MOL
REMARK 927      BINDING AFFINITY PREDICTED BY RF-SCORE:    0.00 PKD
ROOT
HETATM    1  C   UNL     1     -11.006  13.006  64.104  1.00  0.00    -0.408 C  
HETATM    2  O   UNL     1     -10.066  13.647  64.959  1.00  0.00    -0.328 OA 
ENDROOT
BRANCH   2   3
HETATM    3  C   UNL     1     -10.566  14.232  66.101  1.00  0.00    -0.293 A  
HETATM    4  C   UNL     1     -10.124  15.446  66.688  1.00  0.00    -0.265 A  
HETATM    5  C   UNL     1     -12.112  13.862  67.913  1.00  0.00    -0.318 A  
HETATM    6  C   UNL     1     -10.750  15.890  67.876  1.00  0.00    -0.312 A  
HETATM    7  C   UNL     1     -11.533  13.444  66.725  1.00  0.00    -0.376 A  
HETATM    8  C   UNL     1     -11.727  15.077  68.507  1.00  0.00    -0.345 A  
BRANCH   4   9
HETATM    9  O   UNL     1      -9.077  16.016  66.027  1.00  0.00    -0.331 OA 
HETATM   10  C   UNL     1      -7.806  16.217  66.602  1.00  0.00    -0.253 C  
ENDBRANCH   4   9
BRANCH   6  11
HETATM   11  O   UNL     1     -10.367  17.010  68.576  1.00  0.00    -0.313 OA 
HETATM   12  C   UNL     1     -10.743  18.253  67.984  1.00  0.00    -0.266 C  
ENDBRANCH   6  11
BRANCH   8  13
HETATM   13  C   UNL     1     -12.375  15.441  69.833  1.00  0.00    -0.293 C  
BRANCH  13  14
HETATM   14  N   UNL     1     -11.904  14.587  70.946  1.00  0.00    -0.313 NA 
HETATM   15  C   UNL     1     -11.464  15.381  72.118  1.00  0.00    -0.433 C  
HETATM   16  C   UNL     1     -12.608  16.033  72.925  1.00  0.00    -0.480 C  
HETATM   17  N   UNL     1     -13.639  15.066  73.346  1.00  0.00    -0.556 NA 
HETATM   18  C   UNL     1     -14.104  14.285  72.190  1.00  0.00    -0.540 C  
HETATM   19  H   UNL     1     -14.411  15.519  73.835  1.00  0.00     0.000 HD 
HETATM   20  C   UNL     1     -12.951  13.643  71.386  1.00  0.00    -0.347 C  
ENDBRANCH  13  14
ENDBRANCH   8  13
ENDBRANCH   2   3
TORSDOF 5
ENDMDL
MODEL       17
REMARK 921   NORMALIZED FREE ENERGY PREDICTED BY IDOCK:   -5.12 KCAL/MOL
REMARK 922        TOTAL FREE ENERGY PREDICTED BY IDOCK:   -7.19 KCAL/MOL
REMARK 923 INTER-LIGAND FREE ENERGY PREDICTED BY IDOCK:   -6.66 KCAL/MOL
REMARK 924 INTRA-LIGAND FREE ENERGY PREDICTED BY IDOCK:   -0.53 KCAL/MOL
REMARK 927      BINDING AFFINITY PREDICTED BY RF-SCORE:    0.00 PKD
ROOT
HETATM    1  C   UNL     1      -9.955   7.845  68.823  1.00  0.00    -0.187 C  
HETATM    2  O   UNL     1     -10.657   8.766  69.650  1.00  0.00    -0.219 OA 
ENDROOT
BRANCH   2   3
HETATM    3  C   UNL     1     -10.940   9.999  69.104  1.00  0.00    -0.220 A  
HETATM    4  C   UNL     1     -11.531  11.101  69.773  1.00  0.00    -0.312 A  
HETATM    5  C   UNL     1     -10.941  11.204  67.016  1.00  0.00    -0.348 A  
HETATM    6  C   UNL     1     -11.761  12.291  69.045  1.00  0.00    -0.324 A  
HETATM    7  C   UNL     1     -10.672  10.050  67.736  1.00  0.00    -0.333 A  
HETATM    8  C   UNL     1     -11.491  12.331  67.652  1.00  0.00    -0.401 A  
BRANCH   4   9
HETATM    9  O   UNL     1     -11.858  10.834  71.070  1.00  0.00    -0.323 OA 
HETATM   10  C   UNL     1     -13.161  10.502  71.494  1.00  0.00    -0.430 C  
ENDBRANCH   4   9
BRANCH   6  11
HETATM   11  O   UNL     1     -12.387  13.401  69.560  1.00  0.00    -0.238 OA 
HETATM   12  C   UNL     1     -11.576  14.218  70.404  1.00  0.00    -0.200 C  
ENDBRANCH   6  11
BRANCH   8  13
HETATM   13  C   UNL     1     -11.800  13.540  66.784  1.00  0.00    -0.406 C  
BRANCH  13  14
HETATM   14  N   UNL     1     -10.914  13.631  65.604  1.00  0.00    -0.288 NA 
HETATM   15  C   UNL     1     -11.672  13.662  64.330  1.00  0.00    -0.411 C  
HETATM   16  C   UNL     1     -12.409  14.989  64.046  1.00  0.00    -0.023 C  
HETATM   17  N   UNL     1     -11.522  16.166  64.118  1.00  0.00    -1.275 NA 
HETATM   18  C   UNL     1     -10.779  16.163  65.387  1.00  0.00    -0.358 C  
HETATM   19  H   UNL     1     -12.033  17.037  63.976  1.00  0.00     0.000 HD 
HETATM   20  C   UNL     1     -10.052  14.828  65.663  1.00  0.00    -0.366 C  
ENDBRANCH  13  14
ENDBRANCH   8  13
ENDBRANCH   2   3
TORSDOF 5
ENDMDL
MODEL       18
REMARK 921   NORMALIZED FREE ENERGY PREDICTED BY IDOCK:   -5.11 KCAL/MOL
REMARK 922        TOTAL FREE ENERGY PREDICTED BY IDOCK:   -7.18 KCAL/MOL
REMARK 923 INTER-LIGAND FREE ENERGY PREDICTED BY IDOCK:   -6.56 KCAL/MOL
REMARK 924 INTRA-LIGAND FREE ENERGY PREDICTED BY IDOCK:   -0.62 KCAL/MOL
REMARK 927      BINDING AFFINITY PREDICTED BY RF-SCORE:    0.00 PKD
ROOT
HETATM    1  C   UNL     1     -13.860   8.934  72.235  1.00  0.00    -0.474 C  
HETATM    2  O   UNL     1     -12.475   9.251  72.159  1.00  0.00    -0.370 OA 
ENDROOT
BRANCH   2   3
HETATM    3  C   UNL     1     -12.036   9.841  70.994  1.00  0.00    -0.346 A  
HETATM    4  C   UNL     1     -11.152   9.271  70.042  1.00  0.00    -0.205 A  
HETATM    5  C   UNL     1     -12.096  11.916  69.768  1.00  0.00    -0.321 A  
HETATM    6  C   UNL     1     -10.800  10.033  68.904  1.00  0.00    -0.220 A  
HETATM    7  C   UNL     1     -12.480  11.156  70.863  1.00  0.00    -0.509 A  
HETATM    8  C   UNL     1     -11.251  11.373  68.784  1.00  0.00    -0.308 A  
BRANCH   4   9
HETATM    9  O   UNL     1     -10.704   8.033  70.394  1.00  0.00    -0.225 OA 
HETATM   10  C   UNL     1     -11.317   6.833  69.980  1.00  0.00    -0.342 C  
ENDBRANCH   4   9
BRANCH   6  11
HETATM   11  O   UNL     1      -9.902   9.621  67.948  1.00  0.00    -0.146 OA 
HETATM   12  C   UNL     1     -10.424   8.712  66.979  1.00  0.00    -0.284 C  
ENDBRANCH   6  11
BRANCH   8  13
HETATM   13  C   UNL     1     -10.838  12.286  67.640  1.00  0.00    -0.225 C  
BRANCH  13  14
HETATM   14  N   UNL     1     -11.925  12.492  66.659  1.00  0.00    -0.574 NA 
HETATM   15  C   UNL     1     -12.307  13.918  66.532  1.00  0.00    -0.404 C  
HETATM   16  C   UNL     1     -11.283  14.799  65.783  1.00  0.00    -0.337 C  
HETATM   17  N   UNL     1     -10.928  14.266  64.454  1.00  0.00    -0.610 NA 
HETATM   18  C   UNL     1     -10.524  12.857  64.566  1.00  0.00    -0.377 C  
HETATM   19  H   UNL     1     -10.216  14.832  63.994  1.00  0.00     0.000 HD 
HETATM   20  C   UNL     1     -11.553  11.987  65.322  1.00  0.00    -0.279 C  
ENDBRANCH  13  14
ENDBRANCH   8  13
ENDBRANCH   2   3
TORSDOF 5
ENDMDL
MODEL       19
REMARK 921   NORMALIZED FREE ENERGY PREDICTED BY IDOCK:   -5.11 KCAL/MOL
REMARK 922        TOTAL FREE ENERGY PREDICTED BY IDOCK:   -7.18 KCAL/MOL
REMARK 923 INTER-LIGAND FREE ENERGY PREDICTED BY IDOCK:   -6.67 KCAL/MOL
REMARK 924 INTRA-LIGAND FREE ENERGY PREDICTED BY IDOCK:   -0.51 KCAL/MOL
REMARK 927      BINDING AFFINITY PREDICTED BY RF-SCORE:    0.00 PKD
ROOT
HETATM    1  C   UNL     1     -12.399   9.310  71.750  1.00  0.00    -0.379 C  
HETATM    2  O   UNL     1     -11.125   9.534  71.157  1.00  0.00    -0.322 OA 
ENDROOT
BRANCH   2   3
HETATM    3  C   UNL     1     -11.118  10.023  69.870  1.00  0.00    -0.288 A  
HETATM    4  C   UNL     1     -10.656   9.344  68.713  1.00  0.00    -0.208 A  
HETATM    5  C   UNL     1     -11.550  12.016  68.585  1.00  0.00    -0.372 A  
HETATM    6  C   UNL     1     -10.714  10.011  67.467  1.00  0.00    -0.281 A  
HETATM    7  C   UNL     1     -11.537  11.351  69.801  1.00  0.00    -0.407 A  
HETATM    8  C   UNL     1     -11.135  11.365  67.410  1.00  0.00    -0.349 A  
BRANCH   4   9
HETATM    9  O   UNL     1     -10.150   8.106  68.979  1.00  0.00    -0.194 OA 
HETATM   10  C   UNL     1     -10.749   6.907  68.545  1.00  0.00    -0.207 C  
ENDBRANCH   4   9
BRANCH   6  11
HETATM   11  O   UNL     1     -10.235   9.487  66.290  1.00  0.00    -0.271 OA 
HETATM   12  C   UNL     1      -8.814   9.401  66.199  1.00  0.00    -0.151 C  
ENDBRANCH   6  11
BRANCH   8  13
HETATM   13  C   UNL     1     -11.134  12.177  66.125  1.00  0.00    -0.312 C  
BRANCH  13  14
HETATM   14  N   UNL     1     -12.496  12.410  65.600  1.00  0.00    -0.562 NA 
HETATM   15  C   UNL     1     -12.853  13.849  65.577  1.00  0.00    -0.431 C  
HETATM   16  C   UNL     1     -12.146  14.674  64.480  1.00  0.00    -0.475 C  
HETATM   17  N   UNL     1     -12.317  14.104  63.130  1.00  0.00    -1.046 NA 
HETATM   18  C   UNL     1     -11.945  12.681  63.131  1.00  0.00    -0.274 C  
HETATM   19  H   UNL     1     -11.804  14.632  62.425  1.00  0.00     0.000 HD 
HETATM   20  C   UNL     1     -12.654  11.867  64.237  1.00  0.00    -0.142 C  
ENDBRANCH  13  14
ENDBRANCH   8  13
ENDBRANCH   2   3
TORSDOF 5
ENDMDL
MODEL       20
REMARK 921   NORMALIZED FREE ENERGY PREDICTED BY IDOCK:   -5.07 KCAL/MOL
REMARK 922        TOTAL FREE ENERGY PREDICTED BY IDOCK:   -7.13 KCAL/MOL
REMARK 923 INTER-LIGAND FREE ENERGY PREDICTED BY IDOCK:   -6.54 KCAL/MOL
REMARK 924 INTRA-LIGAND FREE ENERGY PREDICTED BY IDOCK:   -0.59 KCAL/MOL
REMARK 927      BINDING AFFINITY PREDICTED BY RF-SCORE:    0.00 PKD
ROOT
HETATM    1  C   UNL     1     -12.249  12.058  63.417  1.00  0.00    -0.519 C  
HETATM    2  O   UNL     1     -12.920  12.685  64.503  1.00  0.00    -0.744 OA 
ENDROOT
BRANCH   2   3
HETATM    3  C   UNL     1     -12.231  13.674  65.171  1.00  0.00    -0.433 A  
HETATM    4  C   UNL     1     -11.850  13.660  66.537  1.00  0.00    -0.404 A  
HETATM    5  C   UNL     1     -11.364  15.907  64.903  1.00  0.00    -0.259 A  
HETATM    6  C   UNL     1     -11.154  14.775  67.058  1.00  0.00    -0.333 A  
HETATM    7  C   UNL     1     -12.008  14.798  64.376  1.00  0.00    -0.433 A  
HETATM    8  C   UNL     1     -10.938  15.916  66.242  1.00  0.00    -0.112 A  
BRANCH   4   9
HETATM    9  O   UNL     1     -12.270  12.547  67.204  1.00  0.00    -0.474 OA 
HETATM   10  C   UNL     1     -11.437  11.446  67.489  1.00  0.00    -0.260 C  
ENDBRANCH   4   9
BRANCH   6  11
HETATM   11  O   UNL     1     -10.792  14.910  68.377  1.00  0.00    -0.239 OA 
HETATM   12  C   UNL     1     -11.869  15.169  69.277  1.00  0.00    -0.320 C  
ENDBRANCH   6  11
BRANCH   8  13
HETATM   13  C   UNL     1     -10.284  17.189  66.757  1.00  0.00    -0.311 C  
BRANCH  13  14
HETATM   14  N   UNL     1      -8.996  17.474  66.088  1.00  0.00    -0.491 NA 
HETATM   15  C   UNL     1      -8.570  18.883  66.264  1.00  0.00    -0.257 C  
HETATM   16  C   UNL     1      -8.064  19.235  67.680  1.00  0.00    -0.277 C  
HETATM   17  N   UNL     1      -6.993  18.336  68.148  1.00  0.00    -0.221 NA 
HETATM   18  C   UNL     1      -7.410  16.933  68.002  1.00  0.00    -0.171 C  
HETATM   19  H   UNL     1      -6.705  18.551  69.103  1.00  0.00     0.000 HD 
HETATM   20  C   UNL     1      -7.920  16.594  66.584  1.00  0.00    -0.280 C  
ENDBRANCH  13  14
ENDBRANCH   8  13
ENDBRANCH   2   3
TORSDOF 5
ENDMDL
MODEL       21
REMARK 921   NORMALIZED FREE ENERGY PREDICTED BY IDOCK:   -5.03 KCAL/MOL
REMARK 922        TOTAL FREE ENERGY PREDICTED BY IDOCK:   -7.07 KCAL/MOL
REMARK 923 INTER-LIGAND FREE ENERGY PREDICTED BY IDOCK:   -6.57 KCAL/MOL
REMARK 924 INTRA-LIGAND FREE ENERGY PREDICTED BY IDOCK:   -0.51 KCAL/MOL
REMARK 927      BINDING AFFINITY PREDICTED BY RF-SCORE:    0.00 PKD
ROOT
HETATM    1  C   UNL     1     -12.041  11.131  69.680  1.00  0.00    -0.336 C  
HETATM    2  O   UNL     1     -12.284  11.495  68.327  1.00  0.00    -0.561 OA 
ENDROOT
BRANCH   2   3
HETATM    3  C   UNL     1     -11.750  12.691  67.901  1.00  0.00    -0.358 A  
HETATM    4  C   UNL     1     -11.705  13.166  66.565  1.00  0.00    -0.382 A  
HETATM    5  C   UNL     1     -10.505  14.605  68.673  1.00  0.00    -0.244 A  
HETATM    6  C   UNL     1     -11.102  14.419  66.311  1.00  0.00    -0.331 A  
HETATM    7  C   UNL     1     -11.135  13.398  68.933  1.00  0.00    -0.307 A  
HETATM    8  C   UNL     1     -10.473  15.127  67.368  1.00  0.00    -0.264 A  
BRANCH   4   9
HETATM    9  O   UNL     1     -12.226  12.287  65.661  1.00  0.00    -0.605 OA 
HETATM   10  C   UNL     1     -11.472  11.683  64.635  1.00  0.00    -0.178 C  
ENDBRANCH   4   9
BRANCH   6  11
HETATM   11  O   UNL     1     -10.936  14.955  65.056  1.00  0.00    -0.370 OA 
HETATM   12  C   UNL     1     -12.138  15.376  64.413  1.00  0.00    -0.196 C  
ENDBRANCH   6  11
BRANCH   8  13
HETATM   13  C   UNL     1      -9.722  16.432  67.158  1.00  0.00    -0.239 C  
BRANCH  13  14
HETATM   14  N   UNL     1     -10.557  17.619  67.443  1.00  0.00    -0.346 NA 
HETATM   15  C   UNL     1     -10.154  18.305  68.693  1.00  0.00    -0.385 C  
HETATM   16  C   UNL     1      -8.829  19.094  68.601  1.00  0.00    -0.365 C  
HETATM   17  N   UNL     1      -8.810  20.057  67.485  1.00  0.00    -0.337 NA 
HETATM   18  C   UNL     1      -9.185  19.387  66.231  1.00  0.00    -0.348 C  
HETATM   19  H   UNL     1      -7.912  20.534  67.409  1.00  0.00     0.000 HD 
HETATM   20  C   UNL     1     -10.508  18.596  66.337  1.00  0.00    -0.418 C  
ENDBRANCH  13  14
ENDBRANCH   8  13
ENDBRANCH   2   3
TORSDOF 5
ENDMDL
MODEL       22
REMARK 921   NORMALIZED FREE ENERGY PREDICTED BY IDOCK:   -4.88 KCAL/MOL
REMARK 922        TOTAL FREE ENERGY PREDICTED BY IDOCK:   -6.88 KCAL/MOL
REMARK 923 INTER-LIGAND FREE ENERGY PREDICTED BY IDOCK:   -6.54 KCAL/MOL
REMARK 924 INTRA-LIGAND FREE ENERGY PREDICTED BY IDOCK:   -0.34 KCAL/MOL
REMARK 927      BINDING AFFINITY PREDICTED BY RF-SCORE:    0.00 PKD
ROOT
HETATM    1  C   UNL     1     -10.368   6.385  68.663  1.00  0.00    -0.199 C  
HETATM    2  O   UNL     1     -10.368   7.575  69.442  1.00  0.00    -0.203 OA 
ENDROOT
BRANCH   2   3
HETATM    3  C   UNL     1     -10.418   8.767  68.753  1.00  0.00    -0.191 A  
HETATM    4  C   UNL     1     -10.536  10.063  69.318  1.00  0.00    -0.227 A  
HETATM    5  C   UNL     1     -10.532   9.676  66.523  1.00  0.00    -0.213 A  
HETATM    6  C   UNL     1     -10.584  11.178  68.450  1.00  0.00    -0.193 A  
HETATM    7  C   UNL     1     -10.439   8.583  67.371  1.00  0.00    -0.351 A  
HETATM    8  C   UNL     1     -10.613  10.979  67.045  1.00  0.00    -0.303 A  
BRANCH   4   9
HETATM    9  O   UNL     1     -10.643  10.052  70.677  1.00  0.00    -0.295 OA 
HETATM   10  C   UNL     1     -11.850   9.809  71.364  1.00  0.00    -0.408 C  
ENDBRANCH   4   9
BRANCH   6  11
HETATM   11  O   UNL     1     -10.766  12.474  68.870  1.00  0.00    -0.227 OA 
HETATM   12  C   UNL     1     -12.013  12.733  69.515  1.00  0.00    -0.276 C  
ENDBRANCH   6  11
BRANCH   8  13
HETATM   13  C   UNL     1     -10.760  12.120  66.051  1.00  0.00    -0.273 C  
BRANCH  13  14
HETATM   14  N   UNL     1     -12.174  12.426  65.745  1.00  0.00    -0.638 NA 
HETATM   15  C   UNL     1     -12.471  13.875  65.839  1.00  0.00    -0.481 C  
HETATM   16  C   UNL     1     -11.898  14.730  64.687  1.00  0.00    -0.436 C  
HETATM   17  N   UNL     1     -12.289  14.235  63.354  1.00  0.00    -1.126 NA 
HETATM   18  C   UNL     1     -11.979  12.802  63.236  1.00  0.00    -0.443 C  
HETATM   19  H   UNL     1     -11.863  14.780  62.605  1.00  0.00     0.000 HD 
HETATM   20  C   UNL     1     -12.552  11.958  64.396  1.00  0.00    -0.055 C  
ENDBRANCH  13  14
ENDBRANCH   8  13
ENDBRANCH   2   3
TORSDOF 5
ENDMDL
MODEL       23
REMARK 921   NORMALIZED FREE ENERGY PREDICTED BY IDOCK:   -4.83 KCAL/MOL
REMARK 922        TOTAL FREE ENERGY PREDICTED BY IDOCK:   -6.82 KCAL/MOL
REMARK 923 INTER-LIGAND FREE ENERGY PREDICTED BY IDOCK:   -6.59 KCAL/MOL
REMARK 924 INTRA-LIGAND FREE ENERGY PREDICTED BY IDOCK:   -0.23 KCAL/MOL
REMARK 927      BINDING AFFINITY PREDICTED BY RF-SCORE:    0.00 PKD
ROOT
HETATM    1  C   UNL     1     -12.193  14.078  66.129  1.00  0.00    -0.465 C  
HETATM    2  O   UNL     1     -11.738  14.390  67.440  1.00  0.00    -0.362 OA 
ENDROOT
BRANCH   2   3
HETATM    3  C   UNL     1     -11.910  13.419  68.402  1.00  0.00    -0.366 A  
HETATM    4  C   UNL     1     -12.272  13.630  69.758  1.00  0.00    -0.291 A  
HETATM    5  C   UNL     1     -11.660  11.052  68.789  1.00  0.00    -0.386 A  
HETATM    6  C   UNL     1     -12.390  12.508  70.610  1.00  0.00    -0.282 A  
HETATM    7  C   UNL     1     -11.587  12.144  67.938  1.00  0.00    -0.413 A  
HETATM    8  C   UNL     1     -12.052  11.216  70.129  1.00  0.00    -0.443 A  
BRANCH   4   9
HETATM    9  O   UNL     1     -12.413  14.948  70.080  1.00  0.00    -0.327 OA 
HETATM   10  C   UNL     1     -11.475  15.670  70.845  1.00  0.00    -0.390 C  
ENDBRANCH   4   9
BRANCH   6  11
HETATM   11  O   UNL     1     -12.666  12.588  71.955  1.00  0.00    -0.211 OA 
HETATM   12  C   UNL     1     -13.894  13.236  72.283  1.00  0.00    -0.539 C  
ENDBRANCH   6  11
BRANCH   8  13
HETATM   13  C   UNL     1     -12.061   9.977  71.009  1.00  0.00    -0.373 C  
BRANCH  13  14
HETATM   14  N   UNL     1     -10.836   9.163  70.855  1.00  0.00    -0.253 NA 
HETATM   15  C   UNL     1     -10.254   8.767  72.159  1.00  0.00    -0.301 C  
HETATM   16  C   UNL     1     -11.043   7.677  72.916  1.00  0.00    -0.393 C  
HETATM   17  N   UNL     1     -11.286   6.472  72.101  1.00  0.00    -0.258 NA 
HETATM   18  C   UNL     1     -11.885   6.846  70.811  1.00  0.00    -0.377 C  
HETATM   19  H   UNL     1     -11.849   5.782  72.598  1.00  0.00     0.000 HD 
HETATM   20  C   UNL     1     -11.091   7.942  70.066  1.00  0.00    -0.162 C  
ENDBRANCH  13  14
ENDBRANCH   8  13
ENDBRANCH   2   3
TORSDOF 5
ENDMDL
MODEL       24
REMARK 921   NORMALIZED FREE ENERGY PREDICTED BY IDOCK:   -4.78 KCAL/MOL
REMARK 922        TOTAL FREE ENERGY PREDICTED BY IDOCK:   -6.75 KCAL/MOL
REMARK 923 INTER-LIGAND FREE ENERGY PREDICTED BY IDOCK:   -6.09 KCAL/MOL
REMARK 924 INTRA-LIGAND FREE ENERGY PREDICTED BY IDOCK:   -0.66 KCAL/MOL
REMARK 927      BINDING AFFINITY PREDICTED BY RF-SCORE:    0.00 PKD
ROOT
HETATM    1  C   UNL     1     -10.499   5.931  67.094  1.00  0.00    -0.272 C  
HETATM    2  O   UNL     1      -9.374   6.772  66.871  1.00  0.00    -0.139 OA 
ENDROOT
BRANCH   2   3
HETATM    3  C   UNL     1      -9.635   8.064  66.471  1.00  0.00    -0.226 A  
HETATM    4  C   UNL     1      -9.088   8.722  65.339  1.00  0.00    -0.134 A  
HETATM    5  C   UNL     1     -10.784  10.073  67.144  1.00  0.00    -0.279 A  
HETATM    6  C   UNL     1      -9.463  10.063  65.089  1.00  0.00    -0.270 A  
HETATM    7  C   UNL     1     -10.455   8.745  67.370  1.00  0.00    -0.349 A  
HETATM    8  C   UNL     1     -10.292  10.749  66.014  1.00  0.00    -0.300 A  
BRANCH   4   9
HETATM    9  O   UNL     1      -8.196   7.957  64.647  1.00  0.00    -0.144 OA 
HETATM   10  C   UNL     1      -6.798   8.075  64.778  1.00  0.00    -0.062 C  
ENDBRANCH   4   9
BRANCH   6  11
HETATM   11  O   UNL     1      -8.950  10.828  64.068  1.00  0.00    -0.187 OA 
HETATM   12  C   UNL     1      -9.351  10.436  62.756  1.00  0.00    -0.317 C  
ENDBRANCH   6  11
BRANCH   8  13
HETATM   13  C   UNL     1     -10.660  12.216  65.864  1.00  0.00    -0.258 C  
BRANCH  13  14
HETATM   14  N   UNL     1     -12.107  12.417  65.634  1.00  0.00    -0.584 NA 
HETATM   15  C   UNL     1     -12.515  13.830  65.815  1.00  0.00    -0.485 C  
HETATM   16  C   UNL     1     -12.068  14.783  64.685  1.00  0.00    -0.427 C  
HETATM   17  N   UNL     1     -12.479  14.321  63.346  1.00  0.00    -1.101 NA 
HETATM   18  C   UNL     1     -12.060  12.926  63.142  1.00  0.00    -0.270 C  
HETATM   19  H   UNL     1     -12.135  14.935  62.608  1.00  0.00     0.000 HD 
HETATM   20  C   UNL     1     -12.507  11.983  64.281  1.00  0.00    -0.286 C  
ENDBRANCH  13  14
ENDBRANCH   8  13
ENDBRANCH   2   3
TORSDOF 5
ENDMDL
MODEL       25
REMARK 921   NORMALIZED FREE ENERGY PREDICTED BY IDOCK:   -4.77 KCAL/MOL
REMARK 922        TOTAL FREE ENERGY PREDICTED BY IDOCK:   -6.74 KCAL/MOL
REMARK 923 INTER-LIGAND FREE ENERGY PREDICTED BY IDOCK:   -6.20 KCAL/MOL
REMARK 924 INTRA-LIGAND FREE ENERGY PREDICTED BY IDOCK:   -0.54 KCAL/MOL
REMARK 927      BINDING AFFINITY PREDICTED BY RF-SCORE:    0.00 PKD
ROOT
HETATM    1  C   UNL     1     -12.569   9.975  71.758  1.00  0.00    -0.409 C  
HETATM    2  O   UNL     1     -11.300   9.804  71.136  1.00  0.00    -0.344 OA 
ENDROOT
BRANCH   2   3
HETATM    3  C   UNL     1     -11.101  10.462  69.943  1.00  0.00    -0.305 A  
HETATM    4  C   UNL     1     -10.223  10.068  68.900  1.00  0.00    -0.193 A  
HETATM    5  C   UNL     1     -11.679  12.481  68.758  1.00  0.00    -0.371 A  
HETATM    6  C   UNL     1     -10.138  10.878  67.744  1.00  0.00    -0.177 A  
HETATM    7  C   UNL     1     -11.800  11.667  69.874  1.00  0.00    -0.434 A  
HETATM    8  C   UNL     1     -10.848  12.106  67.688  1.00  0.00    -0.272 A  
BRANCH   4   9
HETATM    9  O   UNL     1      -9.512   8.941  69.189  1.00  0.00    -0.154 OA 
HETATM   10  C   UNL     1      -8.166   8.952  69.605  1.00  0.00    -0.114 C  
ENDBRANCH   4   9
BRANCH   6  11
HETATM   11  O   UNL     1      -9.277  10.642  66.699  1.00  0.00    -0.160 OA 
HETATM   12  C   UNL     1      -9.697   9.629  65.786  1.00  0.00    -0.280 C  
ENDBRANCH   6  11
BRANCH   8  13
HETATM   13  C   UNL     1     -10.733  13.076  66.523  1.00  0.00    -0.278 C  
BRANCH  13  14
HETATM   14  N   UNL     1     -11.662  14.219  66.643  1.00  0.00    -0.384 NA 
HETATM   15  C   UNL     1     -10.965  15.524  66.554  1.00  0.00    -0.243 C  
HETATM   16  C   UNL     1     -10.473  15.901  65.139  1.00  0.00    -0.335 C  
HETATM   17  N   UNL     1     -11.543  15.846  64.125  1.00  0.00    -0.964 NA 
HETATM   18  C   UNL     1     -12.231  14.547  64.185  1.00  0.00    -0.342 C  
HETATM   19  H   UNL     1     -11.193  16.049  63.189  1.00  0.00     0.000 HD 
HETATM   20  C   UNL     1     -12.712  14.178  65.606  1.00  0.00    -0.441 C  
ENDBRANCH  13  14
ENDBRANCH   8  13
ENDBRANCH   2   3
TORSDOF 5
ENDMDL
MODEL       26
REMARK 921   NORMALIZED FREE ENERGY PREDICTED BY IDOCK:   -4.73 KCAL/MOL
REMARK 922        TOTAL FREE ENERGY PREDICTED BY IDOCK:   -6.69 KCAL/MOL
REMARK 923 INTER-LIGAND FREE ENERGY PREDICTED BY IDOCK:   -6.36 KCAL/MOL
REMARK 924 INTRA-LIGAND FREE ENERGY PREDICTED BY IDOCK:   -0.33 KCAL/MOL
REMARK 927      BINDING AFFINITY PREDICTED BY RF-SCORE:    0.00 PKD
ROOT
HETATM    1  C   UNL     1     -10.810  10.779  67.586  1.00  0.00    -0.279 C  
HETATM    2  O   UNL     1     -11.879  11.705  67.423  1.00  0.00    -0.603 OA 
ENDROOT
BRANCH   2   3
HETATM    3  C   UNL     1     -11.610  13.021  67.728  1.00  0.00    -0.340 A  
HETATM    4  C   UNL     1     -11.998  13.709  68.907  1.00  0.00    -0.356 A  
HETATM    5  C   UNL     1     -10.668  15.038  66.803  1.00  0.00    -0.308 A  
HETATM    6  C   UNL     1     -11.643  15.071  69.043  1.00  0.00    -0.319 A  
HETATM    7  C   UNL     1     -10.974  13.691  66.684  1.00  0.00    -0.295 A  
HETATM    8  C   UNL     1     -11.002  15.745  67.971  1.00  0.00    -0.330 A  
BRANCH   4   9
HETATM    9  O   UNL     1     -12.735  12.944  69.762  1.00  0.00     0.152 OA 
HETATM   10  C   UNL     1     -12.171  12.036  70.681  1.00  0.00    -0.316 C  
ENDBRANCH   4   9
BRANCH   6  11
HETATM   11  O   UNL     1     -12.018  15.862  70.103  1.00  0.00    -0.344 OA 
HETATM   12  C   UNL     1     -11.423  15.521  71.354  1.00  0.00    -0.414 C  
ENDBRANCH   6  11
BRANCH   8  13
HETATM   13  C   UNL     1     -10.675  17.230  68.005  1.00  0.00    -0.367 C  
BRANCH  13  14
HETATM   14  N   UNL     1      -9.684  17.615  66.978  1.00  0.00    -0.281 NA 
HETATM   15  C   UNL     1     -10.254  18.524  65.956  1.00  0.00    -0.345 C  
HETATM   16  C   UNL     1     -10.510  19.967  66.442  1.00  0.00    -0.417 C  
HETATM   17  N   UNL     1      -9.316  20.592  67.042  1.00  0.00    -0.621 NA 
HETATM   18  C   UNL     1      -8.750  19.713  68.076  1.00  0.00    -0.319 C  
HETATM   19  H   UNL     1      -9.514  21.525  67.402  1.00  0.00     0.000 HD 
HETATM   20  C   UNL     1      -8.505  18.270  67.580  1.00  0.00    -0.255 C  
ENDBRANCH  13  14
ENDBRANCH   8  13
ENDBRANCH   2   3
TORSDOF 5
ENDMDL
MODEL       27
REMARK 921   NORMALIZED FREE ENERGY PREDICTED BY IDOCK:   -4.72 KCAL/MOL
REMARK 922        TOTAL FREE ENERGY PREDICTED BY IDOCK:   -6.67 KCAL/MOL
REMARK 923 INTER-LIGAND FREE ENERGY PREDICTED BY IDOCK:   -6.20 KCAL/MOL
REMARK 924 INTRA-LIGAND FREE ENERGY PREDICTED BY IDOCK:   -0.47 KCAL/MOL
REMARK 927      BINDING AFFINITY PREDICTED BY RF-SCORE:    0.00 PKD
ROOT
HETATM    1  C   UNL     1      -7.948   6.724  68.036  1.00  0.00    -0.114 C  
HETATM    2  O   UNL     1      -7.924   7.973  68.716  1.00  0.00    -0.115 OA 
ENDROOT
BRANCH   2   3
HETATM    3  C   UNL     1      -8.786   8.945  68.259  1.00  0.00    -0.134 A  
HETATM    4  C   UNL     1     -10.020   9.322  68.849  1.00  0.00    -0.181 A  
HETATM    5  C   UNL     1      -9.150  10.459  66.418  1.00  0.00    -0.177 A  
HETATM    6  C   UNL     1     -10.785  10.338  68.230  1.00  0.00    -0.237 A  
HETATM    7  C   UNL     1      -8.375   9.495  67.045  1.00  0.00    -0.124 A  
HETATM    8  C   UNL     1     -10.360  10.886  66.992  1.00  0.00    -0.276 A  
BRANCH   4   9
HETATM    9  O   UNL     1     -10.338   8.587  69.953  1.00  0.00    -0.200 OA 
HETATM   10  C   UNL     1     -10.027   8.981  71.270  1.00  0.00    -0.311 C  
ENDBRANCH   4   9
BRANCH   6  11
HETATM   11  O   UNL     1     -12.024  10.742  68.666  1.00  0.00    -0.449 OA 
HETATM   12  C   UNL     1     -12.013  11.667  69.752  1.00  0.00    -0.332 C  
ENDBRANCH   6  11
BRANCH   8  13
HETATM   13  C   UNL     1     -11.175  11.911  66.219  1.00  0.00    -0.337 C  
BRANCH  13  14
HETATM   14  N   UNL     1     -10.464  12.415  65.024  1.00  0.00    -0.286 NA 
HETATM   15  C   UNL     1     -11.047  11.900  63.762  1.00  0.00    -0.436 C  
HETATM   16  C   UNL     1     -12.409  12.519  63.378  1.00  0.00    -0.477 C  
HETATM   17  N   UNL     1     -12.381  13.993  63.339  1.00  0.00    -1.154 NA 
HETATM   18  C   UNL     1     -11.826  14.521  64.595  1.00  0.00    -0.453 C  
HETATM   19  H   UNL     1     -13.299  14.386  63.132  1.00  0.00     0.000 HD 
HETATM   20  C   UNL     1     -10.468  13.890  64.973  1.00  0.00    -0.410 C  
ENDBRANCH  13  14
ENDBRANCH   8  13
ENDBRANCH   2   3
TORSDOF 5
ENDMDL
MODEL       28
REMARK 921   NORMALIZED FREE ENERGY PREDICTED BY IDOCK:   -4.72 KCAL/MOL
REMARK 922        TOTAL FREE ENERGY PREDICTED BY IDOCK:   -6.67 KCAL/MOL
REMARK 923 INTER-LIGAND FREE ENERGY PREDICTED BY IDOCK:   -6.20 KCAL/MOL
REMARK 924 INTRA-LIGAND FREE ENERGY PREDICTED BY IDOCK:   -0.47 KCAL/MOL
REMARK 927      BINDING AFFINITY PREDICTED BY RF-SCORE:    0.00 PKD
ROOT
HETATM    1  C   UNL     1      -6.183  18.511  69.365  1.00  0.00    -0.261 C  
HETATM    2  O   UNL     1      -7.001  18.781  68.233  1.00  0.00    -0.234 OA 
ENDROOT
BRANCH   2   3
HETATM    3  C   UNL     1      -7.861  17.780  67.837  1.00  0.00    -0.231 A  
HETATM    4  C   UNL     1      -9.243  17.685  68.143  1.00  0.00    -0.282 A  
HETATM    5  C   UNL     1      -7.914  15.645  66.718  1.00  0.00    -0.246 A  
HETATM    6  C   UNL     1      -9.969  16.573  67.658  1.00  0.00    -0.254 A  
HETATM    7  C   UNL     1      -7.207  16.756  67.152  1.00  0.00    -0.220 A  
HETATM    8  C   UNL     1      -9.293  15.534  66.969  1.00  0.00    -0.239 A  
BRANCH   4   9
HETATM    9  O   UNL     1      -9.690  18.698  68.939  1.00  0.00    -0.359 OA 
HETATM   10  C   UNL     1     -10.285  19.876  68.444  1.00  0.00    -0.433 C  
ENDBRANCH   4   9
BRANCH   6  11
HETATM   11  O   UNL     1     -11.293  16.334  67.944  1.00  0.00    -0.269 OA 
HETATM   12  C   UNL     1     -11.549  15.830  69.254  1.00  0.00    -0.373 C  
ENDBRANCH   6  11
BRANCH   8  13
HETATM   13  C   UNL     1      -9.986  14.263  66.502  1.00  0.00    -0.281 C  
BRANCH  13  14
HETATM   14  N   UNL     1     -10.348  14.309  65.069  1.00  0.00    -0.420 NA 
HETATM   15  C   UNL     1     -10.493  12.956  64.481  1.00  0.00    -0.377 C  
HETATM   16  C   UNL     1     -11.764  12.193  64.915  1.00  0.00    -0.313 C  
HETATM   17  N   UNL     1     -13.002  12.962  64.688  1.00  0.00    -0.747 NA 
HETATM   18  C   UNL     1     -12.884  14.300  65.286  1.00  0.00    -0.281 C  
HETATM   19  H   UNL     1     -13.826  12.465  65.024  1.00  0.00     0.000 HD 
HETATM   20  C   UNL     1     -11.606  15.051  64.850  1.00  0.00    -0.374 C  
ENDBRANCH  13  14
ENDBRANCH   8  13
ENDBRANCH   2   3
TORSDOF 5
ENDMDL
MODEL       29
REMARK 921   NORMALIZED FREE ENERGY PREDICTED BY IDOCK:   -4.61 KCAL/MOL
REMARK 922        TOTAL FREE ENERGY PREDICTED BY IDOCK:   -6.53 KCAL/MOL
REMARK 923 INTER-LIGAND FREE ENERGY PREDICTED BY IDOCK:   -6.25 KCAL/MOL
REMARK 924 INTRA-LIGAND FREE ENERGY PREDICTED BY IDOCK:   -0.28 KCAL/MOL
REMARK 927      BINDING AFFINITY PREDICTED BY RF-SCORE:    0.00 PKD
ROOT
HETATM    1  C   UNL     1     -10.097   6.805  69.548  1.00  0.00    -0.178 C  
HETATM    2  O   UNL     1      -9.550   8.093  69.807  1.00  0.00    -0.170 OA 
ENDROOT
BRANCH   2   3
HETATM    3  C   UNL     1     -10.119   9.153  69.137  1.00  0.00    -0.194 A  
HETATM    4  C   UNL     1     -11.011  10.113  69.681  1.00  0.00    -0.264 A  
HETATM    5  C   UNL     1     -10.333  10.129  66.943  1.00  0.00    -0.298 A  
HETATM    6  C   UNL     1     -11.509  11.132  68.836  1.00  0.00    -0.295 A  
HETATM    7  C   UNL     1      -9.808   9.155  67.778  1.00  0.00    -0.214 A  
HETATM    8  C   UNL     1     -11.191  11.120  67.453  1.00  0.00    -0.363 A  
BRANCH   4   9
HETATM    9  O   UNL     1     -11.320   9.882  70.989  1.00  0.00    -0.342 OA 
HETATM   10  C   UNL     1     -12.553   9.351  71.419  1.00  0.00    -0.348 C  
ENDBRANCH   4   9
BRANCH   6  11
HETATM   11  O   UNL     1     -12.429  12.075  69.226  1.00  0.00    -0.018 OA 
HETATM   12  C   UNL     1     -11.879  13.332  69.619  1.00  0.00    -0.327 C  
ENDBRANCH   6  11
BRANCH   8  13
HETATM   13  C   UNL     1     -11.763  12.123  66.464  1.00  0.00    -0.321 C  
BRANCH  13  14
HETATM   14  N   UNL     1     -10.864  12.361  65.315  1.00  0.00    -0.281 NA 
HETATM   15  C   UNL     1     -11.362  11.730  64.069  1.00  0.00    -0.381 C  
HETATM   16  C   UNL     1     -12.582  12.430  63.431  1.00  0.00    -0.366 C  
HETATM   17  N   UNL     1     -12.362  13.870  63.198  1.00  0.00    -1.106 NA 
HETATM   18  C   UNL     1     -11.890  14.516  64.431  1.00  0.00    -0.403 C  
HETATM   19  H   UNL     1     -13.193  14.326  62.822  1.00  0.00     0.000 HD 
HETATM   20  C   UNL     1     -10.674  13.804  65.064  1.00  0.00    -0.382 C  
ENDBRANCH  13  14
ENDBRANCH   8  13
ENDBRANCH   2   3
TORSDOF 5
ENDMDL
MODEL       30
REMARK 921   NORMALIZED FREE ENERGY PREDICTED BY IDOCK:   -4.57 KCAL/MOL
REMARK 922        TOTAL FREE ENERGY PREDICTED BY IDOCK:   -6.48 KCAL/MOL
REMARK 923 INTER-LIGAND FREE ENERGY PREDICTED BY IDOCK:   -5.97 KCAL/MOL
REMARK 924 INTRA-LIGAND FREE ENERGY PREDICTED BY IDOCK:   -0.51 KCAL/MOL
REMARK 927      BINDING AFFINITY PREDICTED BY RF-SCORE:    0.00 PKD
ROOT
HETATM    1  C   UNL     1     -14.360   8.311  72.261  1.00  0.00    -0.335 C  
HETATM    2  O   UNL     1     -13.209   9.067  72.617  1.00  0.00    -0.443 OA 
ENDROOT
BRANCH   2   3
HETATM    3  C   UNL     1     -12.595   9.775  71.608  1.00  0.00    -0.416 A  
HETATM    4  C   UNL     1     -11.476   9.356  70.843  1.00  0.00    -0.316 A  
HETATM    5  C   UNL     1     -12.604  11.920  70.507  1.00  0.00    -0.212 A  
HETATM    6  C   UNL     1     -10.970  10.226  69.850  1.00  0.00    -0.303 A  
HETATM    7  C   UNL     1     -13.132  11.053  71.451  1.00  0.00    -0.441 A  
HETATM    8  C   UNL     1     -11.519  11.526  69.704  1.00  0.00    -0.373 A  
BRANCH   4   9
HETATM    9  O   UNL     1     -10.989   8.140  71.222  1.00  0.00    -0.232 OA 
HETATM   10  C   UNL     1     -11.161   6.961  70.468  1.00  0.00    -0.307 C  
ENDBRANCH   4   9
BRANCH   6  11
HETATM   11  O   UNL     1      -9.852   9.964  69.094  1.00  0.00    -0.178 OA 
HETATM   12  C   UNL     1      -8.627   9.902  69.824  1.00  0.00    -0.203 C  
ENDBRANCH   6  11
BRANCH   8  13
HETATM   13  C   UNL     1     -10.967  12.552  68.726  1.00  0.00    -0.253 C  
BRANCH  13  14
HETATM   14  N   UNL     1     -11.992  13.041  67.780  1.00  0.00    -0.333 NA 
HETATM   15  C   UNL     1     -12.013  14.520  67.686  1.00  0.00    -0.320 C  
HETATM   16  C   UNL     1     -10.821  15.138  66.922  1.00  0.00    -0.317 C  
HETATM   17  N   UNL     1     -10.641  14.564  65.575  1.00  0.00    -0.328 NA 
HETATM   18  C   UNL     1     -10.596  13.096  65.653  1.00  0.00    -0.277 C  
HETATM   19  H   UNL     1      -9.822  14.946  65.104  1.00  0.00     0.000 HD 
HETATM   20  C   UNL     1     -11.789  12.490  66.425  1.00  0.00    -0.381 C  
ENDBRANCH  13  14
ENDBRANCH   8  13
ENDBRANCH   2   3
TORSDOF 5
ENDMDL
MODEL       31
REMARK 921   NORMALIZED FREE ENERGY PREDICTED BY IDOCK:   -4.56 KCAL/MOL
REMARK 922        TOTAL FREE ENERGY PREDICTED BY IDOCK:   -6.47 KCAL/MOL
REMARK 923 INTER-LIGAND FREE ENERGY PREDICTED BY IDOCK:   -5.82 KCAL/MOL
REMARK 924 INTRA-LIGAND FREE ENERGY PREDICTED BY IDOCK:   -0.65 KCAL/MOL
REMARK 927      BINDING AFFINITY PREDICTED BY RF-SCORE:    0.00 PKD
ROOT
HETATM    1  C   UNL     1      -9.612   8.941  68.049  1.00  0.00    -0.148 C  
HETATM    2  O   UNL     1     -10.892   9.342  67.574  1.00  0.00    -0.259 OA 
ENDROOT
BRANCH   2   3
HETATM    3  C   UNL     1     -11.062  10.682  67.306  1.00  0.00    -0.243 A  
HETATM    4  C   UNL     1     -10.891  11.318  66.049  1.00  0.00    -0.213 A  
HETATM    5  C   UNL     1     -11.498  12.799  68.373  1.00  0.00    -0.349 A  
HETATM    6  C   UNL     1     -11.098  12.715  65.964  1.00  0.00    -0.287 A  
HETATM    7  C   UNL     1     -11.339  11.424  68.453  1.00  0.00    -0.346 A  
HETATM    8  C   UNL     1     -11.373  13.461  67.139  1.00  0.00    -0.344 A  
BRANCH   4   9
HETATM    9  O   UNL     1     -10.483  10.468  65.064  1.00  0.00    -0.286 OA 
HETATM   10  C   UNL     1      -9.142  10.339  64.650  1.00  0.00    -0.228 C  
ENDBRANCH   4   9
BRANCH   6  11
HETATM   11  O   UNL     1     -10.898  13.455  64.823  1.00  0.00    -0.332 OA 
HETATM   12  C   UNL     1     -11.915  13.326  63.830  1.00  0.00    -0.483 C  
ENDBRANCH   6  11
BRANCH   8  13
HETATM   13  C   UNL     1     -11.513  14.975  67.143  1.00  0.00    -0.297 C  
BRANCH  13  14
HETATM   14  N   UNL     1     -10.459  15.640  67.938  1.00  0.00    -0.260 NA 
HETATM   15  C   UNL     1      -9.101  15.383  67.401  1.00  0.00    -0.197 C  
HETATM   16  C   UNL     1      -8.771  16.132  66.091  1.00  0.00    -0.323 C  
HETATM   17  N   UNL     1      -8.993  17.586  66.188  1.00  0.00    -0.491 NA 
HETATM   18  C   UNL     1     -10.346  17.859  66.698  1.00  0.00    -0.361 C  
HETATM   19  H   UNL     1      -8.818  18.059  65.301  1.00  0.00     0.000 HD 
HETATM   20  C   UNL     1     -10.667  17.100  68.005  1.00  0.00    -0.372 C  
ENDBRANCH  13  14
ENDBRANCH   8  13
ENDBRANCH   2   3
TORSDOF 5
ENDMDL
MODEL       32
REMARK 921   NORMALIZED FREE ENERGY PREDICTED BY IDOCK:   -4.55 KCAL/MOL
REMARK 922        TOTAL FREE ENERGY PREDICTED BY IDOCK:   -6.46 KCAL/MOL
REMARK 923 INTER-LIGAND FREE ENERGY PREDICTED BY IDOCK:   -5.83 KCAL/MOL
REMARK 924 INTRA-LIGAND FREE ENERGY PREDICTED BY IDOCK:   -0.62 KCAL/MOL
REMARK 927      BINDING AFFINITY PREDICTED BY RF-SCORE:    0.00 PKD
ROOT
HETATM    1  C   UNL     1     -10.797  15.409  65.804  1.00  0.00    -0.343 C  
HETATM    2  O   UNL     1     -10.084  14.178  65.774  1.00  0.00    -0.310 OA 
ENDROOT
BRANCH   2   3
HETATM    3  C   UNL     1     -10.542  13.177  66.601  1.00  0.00    -0.279 A  
HETATM    4  C   UNL     1     -10.392  11.780  66.397  1.00  0.00    -0.222 A  
HETATM    5  C   UNL     1     -11.867  12.793  68.578  1.00  0.00    -0.345 A  
HETATM    6  C   UNL     1     -10.942  10.894  67.352  1.00  0.00    -0.293 A  
HETATM    7  C   UNL     1     -11.292  13.668  67.669  1.00  0.00    -0.328 A  
HETATM    8  C   UNL     1     -11.709  11.404  68.431  1.00  0.00    -0.373 A  
BRANCH   4   9
HETATM    9  O   UNL     1      -9.755  11.470  65.232  1.00  0.00    -0.232 OA 
HETATM   10  C   UNL     1     -10.424  11.067  64.059  1.00  0.00    -0.366 C  
ENDBRANCH   4   9
BRANCH   6  11
HETATM   11  O   UNL     1     -10.922   9.524  67.232  1.00  0.00    -0.203 OA 
HETATM   12  C   UNL     1      -9.691   8.901  67.597  1.00  0.00    -0.161 C  
ENDBRANCH   6  11
BRANCH   8  13
HETATM   13  C   UNL     1     -12.411  10.511  69.442  1.00  0.00     0.083 C  
BRANCH  13  14
HETATM   14  N   UNL     1     -11.891  10.691  70.814  1.00  0.00    -0.347 NA 
HETATM   15  C   UNL     1     -12.970  10.695  71.830  1.00  0.00    -0.472 C  
HETATM   16  C   UNL     1     -13.603   9.313  72.108  1.00  0.00    -0.471 C  
HETATM   17  N   UNL     1     -12.606   8.283  72.455  1.00  0.00    -0.533 NA 
HETATM   18  C   UNL     1     -11.539   8.251  71.443  1.00  0.00    -0.280 C  
HETATM   19  H   UNL     1     -13.034   7.367  72.587  1.00  0.00     0.000 HD 
HETATM   20  C   UNL     1     -10.918   9.639  71.169  1.00  0.00    -0.360 C  
ENDBRANCH  13  14
ENDBRANCH   8  13
ENDBRANCH   2   3
TORSDOF 5
ENDMDL
MODEL       33
REMARK 921   NORMALIZED FREE ENERGY PREDICTED BY IDOCK:   -4.55 KCAL/MOL
REMARK 922        TOTAL FREE ENERGY PREDICTED BY IDOCK:   -6.46 KCAL/MOL
REMARK 923 INTER-LIGAND FREE ENERGY PREDICTED BY IDOCK:   -6.34 KCAL/MOL
REMARK 924 INTRA-LIGAND FREE ENERGY PREDICTED BY IDOCK:   -0.11 KCAL/MOL
REMARK 927      BINDING AFFINITY PREDICTED BY RF-SCORE:    0.00 PKD
ROOT
HETATM    1  C   UNL     1     -12.527  15.637  74.350  1.00  0.00    -0.634 C  
HETATM    2  O   UNL     1     -12.924  14.637  73.418  1.00  0.00    -0.526 OA 
ENDROOT
BRANCH   2   3
HETATM    3  C   UNL     1     -12.548  14.828  72.107  1.00  0.00    -0.334 A  
HETATM    4  C   UNL     1     -12.763  13.931  71.029  1.00  0.00    -0.357 A  
HETATM    5  C   UNL     1     -11.313  16.325  70.676  1.00  0.00    -0.321 A  
HETATM    6  C   UNL     1     -12.294  14.290  69.745  1.00  0.00    -0.292 A  
HETATM    7  C   UNL     1     -11.810  15.998  71.928  1.00  0.00    -0.619 A  
HETATM    8  C   UNL     1     -11.539  15.480  69.576  1.00  0.00    -0.361 A  
BRANCH   4   9
HETATM    9  O   UNL     1     -13.375  12.772  71.405  1.00  0.00    -0.231 OA 
HETATM   10  C   UNL     1     -12.703  11.539  71.534  1.00  0.00    -0.334 C  
ENDBRANCH   4   9
BRANCH   6  11
HETATM   11  O   UNL     1     -12.381  13.479  68.638  1.00  0.00    -0.232 OA 
HETATM   12  C   UNL     1     -11.375  12.471  68.545  1.00  0.00    -0.297 C  
ENDBRANCH   6  11
BRANCH   8  13
HETATM   13  C   UNL     1     -10.920  15.884  68.247  1.00  0.00    -0.329 C  
BRANCH  13  14
HETATM   14  N   UNL     1      -9.532  15.398  68.097  1.00  0.00    -0.201 NA 
HETATM   15  C   UNL     1      -9.084  15.396  66.684  1.00  0.00    -0.279 C  
HETATM   16  C   UNL     1      -8.800  16.794  66.093  1.00  0.00    -0.263 C  
HETATM   17  N   UNL     1      -7.854  17.581  66.906  1.00  0.00    -0.215 NA 
HETATM   18  C   UNL     1      -8.296  17.613  68.308  1.00  0.00    -0.274 C  
HETATM   19  H   UNL     1      -7.715  18.518  66.529  1.00  0.00     0.000 HD 
HETATM   20  C   UNL     1      -8.584  16.209  68.887  1.00  0.00    -0.245 C  
ENDBRANCH  13  14
ENDBRANCH   8  13
ENDBRANCH   2   3
TORSDOF 5
ENDMDL
MODEL       34
REMARK 921   NORMALIZED FREE ENERGY PREDICTED BY IDOCK:   -4.55 KCAL/MOL
REMARK 922        TOTAL FREE ENERGY PREDICTED BY IDOCK:   -6.45 KCAL/MOL
REMARK 923 INTER-LIGAND FREE ENERGY PREDICTED BY IDOCK:   -5.94 KCAL/MOL
REMARK 924 INTRA-LIGAND FREE ENERGY PREDICTED BY IDOCK:   -0.51 KCAL/MOL
REMARK 927      BINDING AFFINITY PREDICTED BY RF-SCORE:    0.00 PKD
ROOT
HETATM    1  C   UNL     1     -14.079  13.648  72.256  1.00  0.00    -0.505 C  
HETATM    2  O   UNL     1     -12.963  14.196  71.564  1.00  0.00    -0.312 OA 
ENDROOT
BRANCH   2   3
HETATM    3  C   UNL     1     -12.477  13.470  70.499  1.00  0.00    -0.302 A  
HETATM    4  C   UNL     1     -12.050  13.990  69.250  1.00  0.00    -0.338 A  
HETATM    5  C   UNL     1     -12.121  11.212  69.734  1.00  0.00    -0.414 A  
HETATM    6  C   UNL     1     -11.590  13.089  68.262  1.00  0.00    -0.340 A  
HETATM    7  C   UNL     1     -12.531  12.095  70.721  1.00  0.00    -0.362 A  
HETATM    8  C   UNL     1     -11.655  11.691  68.497  1.00  0.00    -0.379 A  
BRANCH   4   9
HETATM    9  O   UNL     1     -12.195  15.343  69.149  1.00  0.00    -0.269 OA 
HETATM   10  C   UNL     1     -11.130  16.255  69.293  1.00  0.00    -0.325 C  
ENDBRANCH   4   9
BRANCH   6  11
HETATM   11  O   UNL     1     -11.215  13.462  66.993  1.00  0.00    -0.289 OA 
HETATM   12  C   UNL     1     -12.282  13.892  66.148  1.00  0.00    -0.464 C  
ENDBRANCH   6  11
BRANCH   8  13
HETATM   13  C   UNL     1     -11.270  10.658  67.450  1.00  0.00    -0.205 C  
BRANCH  13  14
HETATM   14  N   UNL     1      -9.901  10.135  67.646  1.00  0.00    -0.167 NA 
HETATM   15  C   UNL     1      -9.892   8.696  67.998  1.00  0.00    -0.169 C  
HETATM   16  C   UNL     1     -10.232   7.741  66.833  1.00  0.00    -0.303 C  
HETATM   17  N   UNL     1      -9.387   7.961  65.644  1.00  0.00    -0.403 NA 
HETATM   18  C   UNL     1      -9.404   9.382  65.267  1.00  0.00    -0.238 C  
HETATM   19  H   UNL     1      -9.656   7.357  64.868  1.00  0.00     0.000 HD 
HETATM   20  C   UNL     1      -9.068  10.328  66.442  1.00  0.00    -0.152 C  
ENDBRANCH  13  14
ENDBRANCH   8  13
ENDBRANCH   2   3
TORSDOF 5
ENDMDL
MODEL       35
REMARK 921   NORMALIZED FREE ENERGY PREDICTED BY IDOCK:   -4.54 KCAL/MOL
REMARK 922        TOTAL FREE ENERGY PREDICTED BY IDOCK:   -6.45 KCAL/MOL
REMARK 923 INTER-LIGAND FREE ENERGY PREDICTED BY IDOCK:   -6.14 KCAL/MOL
REMARK 924 INTRA-LIGAND FREE ENERGY PREDICTED BY IDOCK:   -0.31 KCAL/MOL
REMARK 927      BINDING AFFINITY PREDICTED BY RF-SCORE:    0.00 PKD
ROOT
HETATM    1  C   UNL     1      -9.387   9.475  67.627  1.00  0.00    -0.123 C  
HETATM    2  O   UNL     1     -10.026  10.454  66.815  1.00  0.00    -0.190 OA 
ENDROOT
BRANCH   2   3
HETATM    3  C   UNL     1     -10.561  11.544  67.464  1.00  0.00    -0.206 A  
HETATM    4  C   UNL     1     -10.561  12.885  67.000  1.00  0.00    -0.252 A  
HETATM    5  C   UNL     1     -11.584  12.213  69.542  1.00  0.00    -0.382 A  
HETATM    6  C   UNL     1     -11.149  13.882  67.811  1.00  0.00    -0.262 A  
HETATM    7  C   UNL     1     -11.048  11.224  68.731  1.00  0.00    -0.288 A  
HETATM    8  C   UNL     1     -11.636  13.547  69.102  1.00  0.00    -0.359 A  
BRANCH   4   9
HETATM    9  O   UNL     1      -9.920  13.044  65.807  1.00  0.00    -0.279 OA 
HETATM   10  C   UNL     1     -10.530  12.817  64.556  1.00  0.00    -0.368 C  
ENDBRANCH   4   9
BRANCH   6  11
HETATM   11  O   UNL     1     -11.151  15.223  67.505  1.00  0.00    -0.312 OA 
HETATM   12  C   UNL     1      -9.860  15.823  67.405  1.00  0.00    -0.233 C  
ENDBRANCH   6  11
BRANCH   8  13
HETATM   13  C   UNL     1     -12.194  14.579  70.069  1.00  0.00    -0.342 C  
BRANCH  13  14
HETATM   14  N   UNL     1     -12.316  14.056  71.446  1.00  0.00    -0.349 NA 
HETATM   15  C   UNL     1     -11.566  14.874  72.428  1.00  0.00    -0.148 C  
HETATM   16  C   UNL     1     -12.200  16.245  72.750  1.00  0.00    -0.500 C  
HETATM   17  N   UNL     1     -13.609  16.142  73.173  1.00  0.00    -0.557 NA 
HETATM   18  C   UNL     1     -14.374  15.353  72.196  1.00  0.00    -0.544 C  
HETATM   19  H   UNL     1     -14.027  17.059  73.334  1.00  0.00     0.000 HD 
HETATM   20  C   UNL     1     -13.727  13.987  71.877  1.00  0.00    -0.444 C  
ENDBRANCH  13  14
ENDBRANCH   8  13
ENDBRANCH   2   3
TORSDOF 5
ENDMDL
MODEL       36
REMARK 921   NORMALIZED FREE ENERGY PREDICTED BY IDOCK:   -4.51 KCAL/MOL
REMARK 922        TOTAL FREE ENERGY PREDICTED BY IDOCK:   -6.41 KCAL/MOL
REMARK 923 INTER-LIGAND FREE ENERGY PREDICTED BY IDOCK:   -5.87 KCAL/MOL
REMARK 924 INTRA-LIGAND FREE ENERGY PREDICTED BY IDOCK:   -0.54 KCAL/MOL
REMARK 927      BINDING AFFINITY PREDICTED BY RF-SCORE:    0.00 PKD
ROOT
HETATM    1  C   UNL     1      -9.181  10.774  67.255  1.00  0.00    -0.147 C  
HETATM    2  O   UNL     1     -10.324  11.619  67.313  1.00  0.00    -0.198 OA 
ENDROOT
BRANCH   2   3
HETATM    3  C   UNL     1     -10.120  12.955  67.049  1.00  0.00    -0.245 A  
HETATM    4  C   UNL     1     -10.520  13.653  65.880  1.00  0.00    -0.296 A  
HETATM    5  C   UNL     1      -9.024  14.924  67.906  1.00  0.00    -0.177 A  
HETATM    6  C   UNL     1     -10.213  15.030  65.774  1.00  0.00    -0.338 A  
HETATM    7  C   UNL     1      -9.361  13.585  68.035  1.00  0.00    -0.213 A  
HETATM    8  C   UNL     1      -9.434  15.659  66.780  1.00  0.00    -0.261 A  
BRANCH   4   9
HETATM    9  O   UNL     1     -11.127  12.856  64.955  1.00  0.00    -0.282 OA 
HETATM   10  C   UNL     1     -10.472  12.337  63.821  1.00  0.00    -0.444 C  
ENDBRANCH   4   9
BRANCH   6  11
HETATM   11  O   UNL     1     -10.485  15.797  64.667  1.00  0.00    -0.436 OA 
HETATM   12  C   UNL     1     -11.870  15.928  64.345  1.00  0.00    -0.101 C  
ENDBRANCH   6  11
BRANCH   8  13
HETATM   13  C   UNL     1      -8.983  17.108  66.691  1.00  0.00    -0.253 C  
BRANCH  13  14
HETATM   14  N   UNL     1      -9.505  17.933  67.802  1.00  0.00    -0.259 NA 
HETATM   15  C   UNL     1      -8.537  18.966  68.240  1.00  0.00    -0.330 C  
HETATM   16  C   UNL     1      -8.366  20.150  67.264  1.00  0.00    -0.341 C  
HETATM   17  N   UNL     1      -9.645  20.795  66.912  1.00  0.00    -0.678 NA 
HETATM   18  C   UNL     1     -10.611  19.786  66.453  1.00  0.00    -0.464 C  
HETATM   19  H   UNL     1      -9.521  21.542  66.230  1.00  0.00     0.000 HD 
HETATM   20  C   UNL     1     -10.768  18.603  67.434  1.00  0.00    -0.402 C  
ENDBRANCH  13  14
ENDBRANCH   8  13
ENDBRANCH   2   3
TORSDOF 5
ENDMDL
MODEL       37
REMARK 921   NORMALIZED FREE ENERGY PREDICTED BY IDOCK:   -4.46 KCAL/MOL
REMARK 922        TOTAL FREE ENERGY PREDICTED BY IDOCK:   -6.33 KCAL/MOL
REMARK 923 INTER-LIGAND FREE ENERGY PREDICTED BY IDOCK:   -6.45 KCAL/MOL
REMARK 924 INTRA-LIGAND FREE ENERGY PREDICTED BY IDOCK:    0.12 KCAL/MOL
REMARK 927      BINDING AFFINITY PREDICTED BY RF-SCORE:    0.00 PKD
ROOT
HETATM    1  C   UNL     1     -10.691  11.061  67.022  1.00  0.00    -0.270 C  
HETATM    2  O   UNL     1     -11.411  11.980  66.209  1.00  0.00    -0.332 OA 
ENDROOT
BRANCH   2   3
HETATM    3  C   UNL     1     -11.179  13.319  66.432  1.00  0.00    -0.302 A  
HETATM    4  C   UNL     1     -11.573  14.064  67.574  1.00  0.00    -0.367 A  
HETATM    5  C   UNL     1     -10.309  15.306  65.379  1.00  0.00    -0.421 A  
HETATM    6  C   UNL     1     -11.258  15.442  67.626  1.00  0.00    -0.311 A  
HETATM    7  C   UNL     1     -10.575  13.945  65.342  1.00  0.00    -0.344 A  
HETATM    8  C   UNL     1     -10.650  16.070  66.508  1.00  0.00    -0.284 A  
BRANCH   4   9
HETATM    9  O   UNL     1     -12.276  13.329  68.482  1.00  0.00    -0.272 OA 
HETATM   10  C   UNL     1     -11.751  12.907  69.720  1.00  0.00    -0.281 C  
ENDBRANCH   4   9
BRANCH   6  11
HETATM   11  O   UNL     1     -11.644  16.282  68.643  1.00  0.00    -0.355 OA 
HETATM   12  C   UNL     1     -10.883  16.168  69.845  1.00  0.00    -0.355 C  
ENDBRANCH   6  11
BRANCH   8  13
HETATM   13  C   UNL     1     -10.368  17.563  66.451  1.00  0.00    -0.334 C  
BRANCH  13  14
HETATM   14  N   UNL     1      -9.346  17.985  67.432  1.00  0.00    -0.252 NA 
HETATM   15  C   UNL     1      -8.048  18.305  66.792  1.00  0.00    -0.250 C  
HETATM   16  C   UNL     1      -8.026  19.630  66.000  1.00  0.00    -0.328 C  
HETATM   17  N   UNL     1      -8.478  20.786  66.797  1.00  0.00    -0.556 NA 
HETATM   18  C   UNL     1      -9.777  20.493  67.421  1.00  0.00    -0.446 C  
HETATM   19  H   UNL     1      -8.504  21.643  66.246  1.00  0.00     0.000 HD 
HETATM   20  C   UNL     1      -9.789  19.162  68.206  1.00  0.00    -0.390 C  
ENDBRANCH  13  14
ENDBRANCH   8  13
ENDBRANCH   2   3
TORSDOF 5
ENDMDL
MODEL       38
REMARK 921   NORMALIZED FREE ENERGY PREDICTED BY IDOCK:   -4.43 KCAL/MOL
REMARK 922        TOTAL FREE ENERGY PREDICTED BY IDOCK:   -6.30 KCAL/MOL
REMARK 923 INTER-LIGAND FREE ENERGY PREDICTED BY IDOCK:   -5.75 KCAL/MOL
REMARK 924 INTRA-LIGAND FREE ENERGY PREDICTED BY IDOCK:   -0.55 KCAL/MOL
REMARK 927      BINDING AFFINITY PREDICTED BY RF-SCORE:    0.00 PKD
ROOT
HETATM    1  C   UNL     1      -9.805  20.426  67.225  1.00  0.00    -0.456 C  
HETATM    2  O   UNL     1      -9.128  19.833  68.327  1.00  0.00    -0.336 OA 
ENDROOT
BRANCH   2   3
HETATM    3  C   UNL     1      -9.200  18.462  68.434  1.00  0.00    -0.322 A  
HETATM    4  C   UNL     1      -8.104  17.566  68.543  1.00  0.00    -0.275 A  
HETATM    5  C   UNL     1     -10.758  16.623  68.368  1.00  0.00    -0.353 A  
HETATM    6  C   UNL     1      -8.370  16.180  68.632  1.00  0.00    -0.211 A  
HETATM    7  C   UNL     1     -10.506  17.986  68.325  1.00  0.00    -0.355 A  
HETATM    8  C   UNL     1      -9.702  15.706  68.513  1.00  0.00    -0.202 A  
BRANCH   4   9
HETATM    9  O   UNL     1      -6.892  18.188  68.494  1.00  0.00    -0.221 OA 
HETATM   10  C   UNL     1      -6.097  18.258  67.332  1.00  0.00    -0.170 C  
ENDBRANCH   4   9
BRANCH   6  11
HETATM   11  O   UNL     1      -7.395  15.211  68.672  1.00  0.00    -0.111 OA 
HETATM   12  C   UNL     1      -6.774  15.028  69.944  1.00  0.00    -0.170 C  
ENDBRANCH   6  11
BRANCH   8  13
HETATM   13  C   UNL     1     -10.056  14.228  68.502  1.00  0.00    -0.246 C  
BRANCH  13  14
HETATM   14  N   UNL     1     -11.511  13.995  68.375  1.00  0.00    -0.287 NA 
HETATM   15  C   UNL     1     -11.853  13.209  67.166  1.00  0.00    -0.369 C  
HETATM   16  C   UNL     1     -11.484  11.711  67.240  1.00  0.00    -0.277 C  
HETATM   17  N   UNL     1     -12.037  11.042  68.433  1.00  0.00    -0.786 NA 
HETATM   18  C   UNL     1     -11.686  11.797  69.645  1.00  0.00    -0.344 C  
HETATM   19  H   UNL     1     -11.744  10.067  68.492  1.00  0.00     0.000 HD 
HETATM   20  C   UNL     1     -12.054  13.295  69.556  1.00  0.00    -0.258 C  
ENDBRANCH  13  14
ENDBRANCH   8  13
ENDBRANCH   2   3
TORSDOF 5
ENDMDL
MODEL       39
REMARK 921   NORMALIZED FREE ENERGY PREDICTED BY IDOCK:   -4.39 KCAL/MOL
REMARK 922        TOTAL FREE ENERGY PREDICTED BY IDOCK:   -6.24 KCAL/MOL
REMARK 923 INTER-LIGAND FREE ENERGY PREDICTED BY IDOCK:   -5.62 KCAL/MOL
REMARK 924 INTRA-LIGAND FREE ENERGY PREDICTED BY IDOCK:   -0.63 KCAL/MOL
REMARK 927      BINDING AFFINITY PREDICTED BY RF-SCORE:    0.00 PKD
ROOT
HETATM    1  C   UNL     1     -10.029  20.703  67.549  1.00  0.00    -0.288 C  
HETATM    2  O   UNL     1      -8.988  19.958  66.928  1.00  0.00    -0.317 OA 
ENDROOT
BRANCH   2   3
HETATM    3  C   UNL     1      -9.254  18.637  66.647  1.00  0.00    -0.321 A  
HETATM    4  C   UNL     1      -8.434  17.524  66.968  1.00  0.00    -0.234 A  
HETATM    5  C   UNL     1     -10.811  17.211  65.483  1.00  0.00    -0.058 A  
HETATM    6  C   UNL     1      -8.864  16.232  66.587  1.00  0.00    -0.254 A  
HETATM    7  C   UNL     1     -10.416  18.475  65.893  1.00  0.00    -0.379 A  
HETATM    8  C   UNL     1     -10.045  16.081  65.814  1.00  0.00    -0.393 A  
BRANCH   4   9
HETATM    9  O   UNL     1      -7.267  17.873  67.582  1.00  0.00    -0.195 OA 
HETATM   10  C   UNL     1      -6.033  17.985  66.909  1.00  0.00    -0.145 C  
ENDBRANCH   4   9
BRANCH   6  11
HETATM   11  O   UNL     1      -8.128  15.087  66.780  1.00  0.00    -0.182 OA 
HETATM   12  C   UNL     1      -8.072  14.623  68.128  1.00  0.00    -0.137 C  
ENDBRANCH   6  11
BRANCH   8  13
HETATM   13  C   UNL     1     -10.520  14.737  65.286  1.00  0.00    -0.404 C  
BRANCH  13  14
HETATM   14  N   UNL     1     -11.884  14.398  65.745  1.00  0.00    -0.369 NA 
HETATM   15  C   UNL     1     -12.394  13.152  65.126  1.00  0.00    -0.473 C  
HETATM   16  C   UNL     1     -11.749  11.853  65.659  1.00  0.00    -0.145 C  
HETATM   17  N   UNL     1     -11.819  11.736  67.127  1.00  0.00    -0.620 NA 
HETATM   18  C   UNL     1     -11.295  12.957  67.758  1.00  0.00    -0.299 C  
HETATM   19  H   UNL     1     -11.346  10.898  67.466  1.00  0.00     0.000 HD 
HETATM   20  C   UNL     1     -11.942  14.249  67.213  1.00  0.00    -0.405 C  
ENDBRANCH  13  14
ENDBRANCH   8  13
ENDBRANCH   2   3
TORSDOF 5
ENDMDL
MODEL       40
REMARK 921   NORMALIZED FREE ENERGY PREDICTED BY IDOCK:   -4.38 KCAL/MOL
REMARK 922        TOTAL FREE ENERGY PREDICTED BY IDOCK:   -6.23 KCAL/MOL
REMARK 923 INTER-LIGAND FREE ENERGY PREDICTED BY IDOCK:   -6.99 KCAL/MOL
REMARK 924 INTRA-LIGAND FREE ENERGY PREDICTED BY IDOCK:    0.76 KCAL/MOL
REMARK 927      BINDING AFFINITY PREDICTED BY RF-SCORE:    0.00 PKD
ROOT
HETATM    1  C   UNL     1     -14.353  13.664  72.282  1.00  0.00    -0.317 C  
HETATM    2  O   UNL     1     -13.066  13.077  72.132  1.00  0.00    -0.391 OA 
ENDROOT
BRANCH   2   3
HETATM    3  C   UNL     1     -12.522  13.090  70.866  1.00  0.00    -0.310 A  
HETATM    4  C   UNL     1     -12.226  14.239  70.089  1.00  0.00    -0.345 A  
HETATM    5  C   UNL     1     -11.871  11.638  69.056  1.00  0.00    -0.391 A  
HETATM    6  C   UNL     1     -11.678  14.060  68.797  1.00  0.00    -0.353 A  
HETATM    7  C   UNL     1     -12.365  11.809  70.339  1.00  0.00    -0.362 A  
HETATM    8  C   UNL     1     -11.530  12.752  68.268  1.00  0.00    -0.354 A  
BRANCH   4   9
HETATM    9  O   UNL     1     -12.570  15.409  70.699  1.00  0.00    -0.387 OA 
HETATM   10  C   UNL     1     -11.717  16.117  71.569  1.00  0.00    -0.464 C  
ENDBRANCH   4   9
BRANCH   6  11
HETATM   11  O   UNL     1     -11.413  15.088  67.924  1.00  0.00    -0.322 OA 
HETATM   12  C   UNL     1     -10.185  15.777  68.154  1.00  0.00    -0.230 C  
ENDBRANCH   6  11
BRANCH   8  13
HETATM   13  C   UNL     1     -11.040  12.482  66.854  1.00  0.00    -0.278 C  
BRANCH  13  14
HETATM   14  N   UNL     1     -11.358  13.586  65.924  1.00  0.00    -0.305 NA 
HETATM   15  C   UNL     1     -10.350  13.725  64.847  1.00  0.00    -0.398 C  
HETATM   16  C   UNL     1     -10.400  12.622  63.766  1.00  0.00    -0.330 C  
HETATM   17  N   UNL     1     -11.738  12.464  63.167  1.00  0.00    -0.719 NA 
HETATM   18  C   UNL     1     -12.749  12.302  64.223  1.00  0.00    -0.315 C  
HETATM   19  H   UNL     1     -11.766  11.700  62.492  1.00  0.00     0.000 HD 
HETATM   20  C   UNL     1     -12.685  13.406  65.302  1.00  0.00    -0.422 C  
ENDBRANCH  13  14
ENDBRANCH   8  13
ENDBRANCH   2   3
TORSDOF 5
ENDMDL
MODEL       41
REMARK 921   NORMALIZED FREE ENERGY PREDICTED BY IDOCK:   -4.37 KCAL/MOL
REMARK 922        TOTAL FREE ENERGY PREDICTED BY IDOCK:   -6.23 KCAL/MOL
REMARK 923 INTER-LIGAND FREE ENERGY PREDICTED BY IDOCK:   -5.74 KCAL/MOL
REMARK 924 INTRA-LIGAND FREE ENERGY PREDICTED BY IDOCK:   -0.49 KCAL/MOL
REMARK 927      BINDING AFFINITY PREDICTED BY RF-SCORE:    0.00 PKD
ROOT
HETATM    1  C   UNL     1      -9.650  19.192  68.726  1.00  0.00    -0.416 C  
HETATM    2  O   UNL     1      -8.873  18.001  68.698  1.00  0.00    -0.301 OA 
ENDROOT
BRANCH   2   3
HETATM    3  C   UNL     1      -9.475  16.880  68.171  1.00  0.00    -0.251 A  
HETATM    4  C   UNL     1      -9.350  15.551  68.651  1.00  0.00    -0.201 A  
HETATM    5  C   UNL     1     -10.817  16.133  66.313  1.00  0.00    -0.135 A  
HETATM    6  C   UNL     1     -10.035  14.518  67.971  1.00  0.00    -0.222 A  
HETATM    7  C   UNL     1     -10.183  17.156  67.001  1.00  0.00    -0.313 A  
HETATM    8  C   UNL     1     -10.747  14.808  66.778  1.00  0.00    -0.309 A  
BRANCH   4   9
HETATM    9  O   UNL     1      -8.508  15.439  69.718  1.00  0.00    -0.209 OA 
HETATM   10  C   UNL     1      -7.119  15.237  69.599  1.00  0.00    -0.187 C  
ENDBRANCH   4   9
BRANCH   6  11
HETATM   11  O   UNL     1      -9.939  13.186  68.296  1.00  0.00    -0.228 OA 
HETATM   12  C   UNL     1      -8.746  12.539  67.855  1.00  0.00    -0.180 C  
ENDBRANCH   6  11
BRANCH   8  13
HETATM   13  C   UNL     1     -11.428  13.738  65.940  1.00  0.00    -0.322 C  
BRANCH  13  14
HETATM   14  N   UNL     1     -11.011  13.778  64.522  1.00  0.00    -0.399 NA 
HETATM   15  C   UNL     1      -9.957  12.782  64.217  1.00  0.00    -0.150 C  
HETATM   16  C   UNL     1     -10.444  11.317  64.170  1.00  0.00    -0.369 C  
HETATM   17  N   UNL     1     -11.586  11.118  63.258  1.00  0.00    -0.637 NA 
HETATM   18  C   UNL     1     -12.651  12.085  63.564  1.00  0.00    -0.507 C  
HETATM   19  H   UNL     1     -11.926  10.157  63.277  1.00  0.00     0.000 HD 
HETATM   20  C   UNL     1     -12.151  13.546  63.614  1.00  0.00    -0.400 C  
ENDBRANCH  13  14
ENDBRANCH   8  13
ENDBRANCH   2   3
TORSDOF 5
ENDMDL
MODEL       42
REMARK 921   NORMALIZED FREE ENERGY PREDICTED BY IDOCK:   -4.36 KCAL/MOL
REMARK 922        TOTAL FREE ENERGY PREDICTED BY IDOCK:   -6.22 KCAL/MOL
REMARK 923 INTER-LIGAND FREE ENERGY PREDICTED BY IDOCK:   -5.86 KCAL/MOL
REMARK 924 INTRA-LIGAND FREE ENERGY PREDICTED BY IDOCK:   -0.36 KCAL/MOL
REMARK 927      BINDING AFFINITY PREDICTED BY RF-SCORE:    0.00 PKD
ROOT
HETATM    1  C   UNL     1     -14.193  14.364  71.998  1.00  0.00    -0.552 C  
HETATM    2  O   UNL     1     -13.320  13.280  72.294  1.00  0.00    -0.495 OA 
ENDROOT
BRANCH   2   3
HETATM    3  C   UNL     1     -12.787  12.603  71.220  1.00  0.00    -0.250 A  
HETATM    4  C   UNL     1     -12.537  11.208  71.143  1.00  0.00    -0.409 A  
HETATM    5  C   UNL     1     -11.804  12.946  69.046  1.00  0.00    -0.352 A  
HETATM    6  C   UNL     1     -11.970  10.686  69.957  1.00  0.00    -0.329 A  
HETATM    7  C   UNL     1     -12.401  13.457  70.188  1.00  0.00    -0.322 A  
HETATM    8  C   UNL     1     -11.574  11.566  68.917  1.00  0.00    -0.384 A  
BRANCH   4   9
HETATM    9  O   UNL     1     -12.844  10.540  72.292  1.00  0.00    -0.310 OA 
HETATM   10  C   UNL     1     -13.731   9.446  72.346  1.00  0.00    -0.400 C  
ENDBRANCH   4   9
BRANCH   6  11
HETATM   11  O   UNL     1     -11.619   9.368  69.788  1.00  0.00    -0.054 OA 
HETATM   12  C   UNL     1     -10.516   8.928  70.579  1.00  0.00    -0.215 C  
ENDBRANCH   6  11
BRANCH   8  13
HETATM   13  C   UNL     1     -10.872  11.090  67.655  1.00  0.00    -0.256 C  
BRANCH  13  14
HETATM   14  N   UNL     1     -10.290  12.205  66.877  1.00  0.00    -0.211 NA 
HETATM   15  C   UNL     1      -8.839  12.024  66.633  1.00  0.00    -0.191 C  
HETATM   16  C   UNL     1      -8.487  10.938  65.593  1.00  0.00    -0.139 C  
HETATM   17  N   UNL     1      -9.180  11.128  64.306  1.00  0.00    -0.358 NA 
HETATM   18  C   UNL     1     -10.625  11.285  64.528  1.00  0.00    -0.336 C  
HETATM   19  H   UNL     1      -8.975  10.376  63.648  1.00  0.00     0.000 HD 
HETATM   20  C   UNL     1     -10.965  12.370  65.575  1.00  0.00    -0.293 C  
ENDBRANCH  13  14
ENDBRANCH   8  13
ENDBRANCH   2   3
TORSDOF 5
ENDMDL
MODEL       43
REMARK 921   NORMALIZED FREE ENERGY PREDICTED BY IDOCK:   -4.36 KCAL/MOL
REMARK 922        TOTAL FREE ENERGY PREDICTED BY IDOCK:   -6.21 KCAL/MOL
REMARK 923 INTER-LIGAND FREE ENERGY PREDICTED BY IDOCK:   -5.88 KCAL/MOL
REMARK 924 INTRA-LIGAND FREE ENERGY PREDICTED BY IDOCK:   -0.33 KCAL/MOL
REMARK 927      BINDING AFFINITY PREDICTED BY RF-SCORE:    0.00 PKD
ROOT
HETATM    1  C   UNL     1     -10.495  19.135  68.130  1.00  0.00    -0.338 C  
HETATM    2  O   UNL     1     -10.441  17.998  68.982  1.00  0.00    -0.278 OA 
ENDROOT
BRANCH   2   3
HETATM    3  C   UNL     1     -10.774  16.785  68.420  1.00  0.00    -0.362 A  
HETATM    4  C   UNL     1     -11.555  15.764  69.020  1.00  0.00    -0.400 A  
HETATM    5  C   UNL     1     -10.360  15.401  66.490  1.00  0.00    -0.293 A  
HETATM    6  C   UNL     1     -11.786  14.573  68.294  1.00  0.00    -0.335 A  
HETATM    7  C   UNL     1     -10.168  16.588  67.179  1.00  0.00    -0.284 A  
HETATM    8  C   UNL     1     -11.159  14.380  67.035  1.00  0.00    -0.317 A  
BRANCH   4   9
HETATM    9  O   UNL     1     -11.952  16.063  70.290  1.00  0.00    -0.328 OA 
HETATM   10  C   UNL     1     -11.314  15.567  71.445  1.00  0.00    -0.395 C  
ENDBRANCH   4   9
BRANCH   6  11
HETATM   11  O   UNL     1     -12.466  13.487  68.791  1.00  0.00    -0.104 OA 
HETATM   12  C   UNL     1     -11.715  12.653  69.672  1.00  0.00    -0.303 C  
ENDBRANCH   6  11
BRANCH   8  13
HETATM   13  C   UNL     1     -11.280  13.090  66.240  1.00  0.00    -0.301 C  
BRANCH  13  14
HETATM   14  N   UNL     1     -10.097  12.834  65.391  1.00  0.00    -0.281 NA 
HETATM   15  C   UNL     1      -9.402  11.578  65.757  1.00  0.00    -0.221 C  
HETATM   16  C   UNL     1     -10.141  10.285  65.348  1.00  0.00    -0.284 C  
HETATM   17  N   UNL     1     -10.491  10.252  63.916  1.00  0.00    -0.327 NA 
HETATM   18  C   UNL     1     -11.203  11.483  63.540  1.00  0.00    -0.322 C  
HETATM   19  H   UNL     1     -11.021   9.415  63.672  1.00  0.00     0.000 HD 
HETATM   20  C   UNL     1     -10.458  12.769  63.961  1.00  0.00    -0.406 C  
ENDBRANCH  13  14
ENDBRANCH   8  13
ENDBRANCH   2   3
TORSDOF 5
ENDMDL
MODEL       44
REMARK 921   NORMALIZED FREE ENERGY PREDICTED BY IDOCK:   -4.35 KCAL/MOL
REMARK 922        TOTAL FREE ENERGY PREDICTED BY IDOCK:   -6.19 KCAL/MOL
REMARK 923 INTER-LIGAND FREE ENERGY PREDICTED BY IDOCK:   -5.63 KCAL/MOL
REMARK 924 INTRA-LIGAND FREE ENERGY PREDICTED BY IDOCK:   -0.56 KCAL/MOL
REMARK 927      BINDING AFFINITY PREDICTED BY RF-SCORE:    0.00 PKD
ROOT
HETATM    1  C   UNL     1     -11.999  14.020  67.357  1.00  0.00    -0.404 C  
HETATM    2  O   UNL     1     -12.117  12.695  66.852  1.00  0.00    -0.490 OA 
ENDROOT
BRANCH   2   3
HETATM    3  C   UNL     1     -11.601  11.685  67.633  1.00  0.00    -0.279 A  
HETATM    4  C   UNL     1     -10.874  10.554  67.178  1.00  0.00    -0.259 A  
HETATM    5  C   UNL     1     -11.550  10.864  69.899  1.00  0.00    -0.410 A  
HETATM    6  C   UNL     1     -10.430   9.607  68.129  1.00  0.00    -0.222 A  
HETATM    7  C   UNL     1     -11.950  11.818  68.977  1.00  0.00    -0.341 A  
HETATM    8  C   UNL     1     -10.797   9.749  69.492  1.00  0.00    -0.264 A  
BRANCH   4   9
HETATM    9  O   UNL     1     -10.742  10.508  65.822  1.00  0.00    -0.122 OA 
HETATM   10  C   UNL     1      -9.555  10.843  65.140  1.00  0.00    -0.243 C  
ENDBRANCH   4   9
BRANCH   6  11
HETATM   11  O   UNL     1      -9.779   8.440  67.807  1.00  0.00    -0.152 OA 
HETATM   12  C   UNL     1     -10.577   7.466  67.134  1.00  0.00    -0.342 C  
ENDBRANCH   6  11
BRANCH   8  13
HETATM   13  C   UNL     1     -10.439   8.723  70.556  1.00  0.00    -0.209 C  
BRANCH  13  14
HETATM   14  N   UNL     1     -11.626   8.018  71.086  1.00  0.00    -0.280 NA 
HETATM   15  C   UNL     1     -11.707   6.616  70.613  1.00  0.00    -0.394 C  
HETATM   16  C   UNL     1     -10.684   5.655  71.256  1.00  0.00    -0.244 C  
HETATM   17  N   UNL     1     -10.721   5.678  72.731  1.00  0.00    -0.226 NA 
HETATM   18  C   UNL     1     -10.619   7.062  73.218  1.00  0.00    -0.344 C  
HETATM   19  H   UNL     1     -10.008   5.075  73.140  1.00  0.00     0.000 HD 
HETATM   20  C   UNL     1     -11.642   8.015  72.562  1.00  0.00    -0.403 C  
ENDBRANCH  13  14
ENDBRANCH   8  13
ENDBRANCH   2   3
TORSDOF 5
ENDMDL
MODEL       45
REMARK 921   NORMALIZED FREE ENERGY PREDICTED BY IDOCK:   -4.35 KCAL/MOL
REMARK 922        TOTAL FREE ENERGY PREDICTED BY IDOCK:   -6.19 KCAL/MOL
REMARK 923 INTER-LIGAND FREE ENERGY PREDICTED BY IDOCK:   -5.60 KCAL/MOL
REMARK 924 INTRA-LIGAND FREE ENERGY PREDICTED BY IDOCK:   -0.59 KCAL/MOL
REMARK 927      BINDING AFFINITY PREDICTED BY RF-SCORE:    0.00 PKD
ROOT
HETATM    1  C   UNL     1      -8.109   6.741  68.317  1.00  0.00    -0.115 C  
HETATM    2  O   UNL     1      -8.263   7.929  69.084  1.00  0.00    -0.127 OA 
ENDROOT
BRANCH   2   3
HETATM    3  C   UNL     1      -8.859   9.000  68.455  1.00  0.00    -0.134 A  
HETATM    4  C   UNL     1      -8.725  10.367  68.809  1.00  0.00    -0.146 A  
HETATM    5  C   UNL     1     -10.452   9.554  66.732  1.00  0.00    -0.263 A  
HETATM    6  C   UNL     1      -9.425  11.335  68.053  1.00  0.00    -0.173 A  
HETATM    7  C   UNL     1      -9.732   8.605  67.442  1.00  0.00    -0.227 A  
HETATM    8  C   UNL     1     -10.317  10.922  67.029  1.00  0.00    -0.276 A  
BRANCH   4   9
HETATM    9  O   UNL     1      -7.945  10.566  69.910  1.00  0.00    -0.092 OA 
HETATM   10  C   UNL     1      -6.571  10.877  69.849  1.00  0.00    -0.148 C  
ENDBRANCH   4   9
BRANCH   6  11
HETATM   11  O   UNL     1      -9.431  12.680  68.339  1.00  0.00    -0.214 OA 
HETATM   12  C   UNL     1      -8.280  13.398  67.896  1.00  0.00    -0.162 C  
ENDBRANCH   6  11
BRANCH   8  13
HETATM   13  C   UNL     1     -11.176  11.895  66.238  1.00  0.00    -0.337 C  
BRANCH  13  14
HETATM   14  N   UNL     1     -10.490  12.403  65.030  1.00  0.00    -0.286 NA 
HETATM   15  C   UNL     1     -10.972  11.749  63.791  1.00  0.00    -0.429 C  
HETATM   16  C   UNL     1     -12.383  12.183  63.335  1.00  0.00    -0.538 C  
HETATM   17  N   UNL     1     -12.521  13.645  63.203  1.00  0.00    -1.045 NA 
HETATM   18  C   UNL     1     -12.068  14.309  64.435  1.00  0.00    -0.468 C  
HETATM   19  H   UNL     1     -13.470  13.917  62.949  1.00  0.00     0.000 HD 
HETATM   20  C   UNL     1     -10.659  13.863  64.884  1.00  0.00    -0.419 C  
ENDBRANCH  13  14
ENDBRANCH   8  13
ENDBRANCH   2   3
TORSDOF 5
ENDMDL
MODEL       46
REMARK 921   NORMALIZED FREE ENERGY PREDICTED BY IDOCK:   -4.34 KCAL/MOL
REMARK 922        TOTAL FREE ENERGY PREDICTED BY IDOCK:   -6.19 KCAL/MOL
REMARK 923 INTER-LIGAND FREE ENERGY PREDICTED BY IDOCK:   -5.81 KCAL/MOL
REMARK 924 INTRA-LIGAND FREE ENERGY PREDICTED BY IDOCK:   -0.37 KCAL/MOL
REMARK 927      BINDING AFFINITY PREDICTED BY RF-SCORE:    0.00 PKD
ROOT
HETATM    1  C   UNL     1     -10.904  16.415  69.666  1.00  0.00    -0.346 C  
HETATM    2  O   UNL     1     -11.658  15.986  68.538  1.00  0.00    -0.381 OA 
ENDROOT
BRANCH   2   3
HETATM    3  C   UNL     1     -11.560  14.656  68.196  1.00  0.00    -0.335 A  
HETATM    4  C   UNL     1     -11.534  14.123  66.882  1.00  0.00    -0.357 A  
HETATM    5  C   UNL     1     -11.540  12.440  69.145  1.00  0.00    -0.369 A  
HETATM    6  C   UNL     1     -11.442  12.721  66.720  1.00  0.00    -0.343 A  
HETATM    7  C   UNL     1     -11.586  13.816  69.309  1.00  0.00    -0.362 A  
HETATM    8  C   UNL     1     -11.476  11.875  67.859  1.00  0.00    -0.385 A  
BRANCH   4   9
HETATM    9  O   UNL     1     -11.659  15.073  65.911  1.00  0.00    -0.291 OA 
HETATM   10  C   UNL     1     -10.589  15.509  65.103  1.00  0.00    -0.431 C  
ENDBRANCH   4   9
BRANCH   6  11
HETATM   11  O   UNL     1     -11.477  12.082  65.504  1.00  0.00    -0.345 OA 
HETATM   12  C   UNL     1     -12.588  12.419  64.674  1.00  0.00    -0.375 C  
ENDBRANCH   6  11
BRANCH   8  13
HETATM   13  C   UNL     1     -11.477  10.358  67.763  1.00  0.00     0.028 C  
BRANCH  13  14
HETATM   14  N   UNL     1     -10.164   9.768  68.100  1.00  0.00    -0.176 NA 
HETATM   15  C   UNL     1     -10.251   8.311  68.361  1.00  0.00    -0.209 C  
HETATM   16  C   UNL     1     -10.470   7.440  67.104  1.00  0.00    -0.333 C  
HETATM   17  N   UNL     1      -9.470   7.691  66.049  1.00  0.00    -0.410 NA 
HETATM   18  C   UNL     1      -9.388   9.131  65.762  1.00  0.00    -0.245 C  
HETATM   19  H   UNL     1      -9.657   7.144  65.209  1.00  0.00     0.000 HD 
HETATM   20  C   UNL     1      -9.176   9.992  67.027  1.00  0.00    -0.146 C  
ENDBRANCH  13  14
ENDBRANCH   8  13
ENDBRANCH   2   3
TORSDOF 5
ENDMDL
MODEL       47
REMARK 921   NORMALIZED FREE ENERGY PREDICTED BY IDOCK:   -4.34 KCAL/MOL
REMARK 922        TOTAL FREE ENERGY PREDICTED BY IDOCK:   -6.18 KCAL/MOL
REMARK 923 INTER-LIGAND FREE ENERGY PREDICTED BY IDOCK:   -5.67 KCAL/MOL
REMARK 924 INTRA-LIGAND FREE ENERGY PREDICTED BY IDOCK:   -0.51 KCAL/MOL
REMARK 927      BINDING AFFINITY PREDICTED BY RF-SCORE:    0.00 PKD
ROOT
HETATM    1  C   UNL     1     -10.900   6.409  72.863  1.00  0.00    -0.256 C  
HETATM    2  O   UNL     1     -10.976   7.800  73.152  1.00  0.00    -0.396 OA 
ENDROOT
BRANCH   2   3
HETATM    3  C   UNL     1     -10.834   8.662  72.088  1.00  0.00    -0.354 A  
HETATM    4  C   UNL     1     -11.799   9.591  71.620  1.00  0.00    -0.397 A  
HETATM    5  C   UNL     1      -9.343   9.230  70.280  1.00  0.00    -0.277 A  
HETATM    6  C   UNL     1     -11.482  10.391  70.498  1.00  0.00    -0.345 A  
HETATM    7  C   UNL     1      -9.632   8.474  71.406  1.00  0.00    -0.282 A  
HETATM    8  C   UNL     1     -10.259  10.187  69.808  1.00  0.00    -0.286 A  
BRANCH   4   9
HETATM    9  O   UNL     1     -12.972   9.546  72.315  1.00  0.00    -0.401 OA 
HETATM   10  C   UNL     1     -14.077   8.758  71.933  1.00  0.00    -0.420 C  
ENDBRANCH   4   9
BRANCH   6  11
HETATM   11  O   UNL     1     -12.355  11.275  69.911  1.00  0.00    -0.284 OA 
HETATM   12  C   UNL     1     -12.529  12.509  70.607  1.00  0.00    -0.238 C  
ENDBRANCH   6  11
BRANCH   8  13
HETATM   13  C   UNL     1      -9.889  10.940  68.540  1.00  0.00    -0.184 C  
BRANCH  13  14
HETATM   14  N   UNL     1     -10.658  10.481  67.364  1.00  0.00    -0.244 NA 
HETATM   15  C   UNL     1     -11.085  11.605  66.497  1.00  0.00    -0.301 C  
HETATM   16  C   UNL     1      -9.952  12.252  65.670  1.00  0.00    -0.251 C  
HETATM   17  N   UNL     1      -9.194  11.273  64.868  1.00  0.00    -0.363 NA 
HETATM   18  C   UNL     1      -8.743  10.162  65.719  1.00  0.00    -0.152 C  
HETATM   19  H   UNL     1      -8.420  11.708  64.367  1.00  0.00     0.000 HD 
HETATM   20  C   UNL     1      -9.883   9.527  66.546  1.00  0.00    -0.240 C  
ENDBRANCH  13  14
ENDBRANCH   8  13
ENDBRANCH   2   3
TORSDOF 5
ENDMDL
MODEL       48
REMARK 921   NORMALIZED FREE ENERGY PREDICTED BY IDOCK:   -4.28 KCAL/MOL
REMARK 922        TOTAL FREE ENERGY PREDICTED BY IDOCK:   -6.11 KCAL/MOL
REMARK 923 INTER-LIGAND FREE ENERGY PREDICTED BY IDOCK:   -5.95 KCAL/MOL
REMARK 924 INTRA-LIGAND FREE ENERGY PREDICTED BY IDOCK:   -0.15 KCAL/MOL
REMARK 927      BINDING AFFINITY PREDICTED BY RF-SCORE:    0.00 PKD
ROOT
HETATM    1  C   UNL     1     -12.639  13.761  65.406  1.00  0.00    -0.497 C  
HETATM    2  O   UNL     1     -11.327  13.607  65.935  1.00  0.00    -0.304 OA 
ENDROOT
BRANCH   2   3
HETATM    3  C   UNL     1     -11.113  12.521  66.755  1.00  0.00    -0.279 A  
HETATM    4  C   UNL     1     -10.275  11.410  66.480  1.00  0.00    -0.221 A  
HETATM    5  C   UNL     1     -11.848  11.516  68.819  1.00  0.00    -0.394 A  
HETATM    6  C   UNL     1     -10.186  10.375  67.439  1.00  0.00    -0.214 A  
HETATM    7  C   UNL     1     -11.904  12.555  67.903  1.00  0.00    -0.383 A  
HETATM    8  C   UNL     1     -11.001  10.416  68.600  1.00  0.00    -0.288 A  
BRANCH   4   9
HETATM    9  O   UNL     1      -9.683  11.470  65.253  1.00  0.00    -0.232 OA 
HETATM   10  C   UNL     1     -10.271  10.964  64.076  1.00  0.00    -0.357 C  
ENDBRANCH   4   9
BRANCH   6  11
HETATM   11  O   UNL     1      -9.464   9.219  67.260  1.00  0.00    -0.138 OA 
HETATM   12  C   UNL     1     -10.115   8.212  66.485  1.00  0.00    -0.216 C  
ENDBRANCH   6  11
BRANCH   8  13
HETATM   13  C   UNL     1     -11.032   9.296  69.628  1.00  0.00    -0.175 C  
BRANCH  13  14
HETATM   14  N   UNL     1     -10.919   9.797  71.015  1.00  0.00    -0.339 NA 
HETATM   15  C   UNL     1     -12.241   9.981  71.658  1.00  0.00    -0.367 C  
HETATM   16  C   UNL     1     -12.959   8.670  72.049  1.00  0.00    -0.378 C  
HETATM   17  N   UNL     1     -12.126   7.785  72.884  1.00  0.00    -0.591 NA 
HETATM   18  C   UNL     1     -10.817   7.573  72.247  1.00  0.00    -0.258 C  
HETATM   19  H   UNL     1     -12.596   6.904  73.092  1.00  0.00     0.000 HD 
HETATM   20  C   UNL     1     -10.112   8.890  71.855  1.00  0.00    -0.322 C  
ENDBRANCH  13  14
ENDBRANCH   8  13
ENDBRANCH   2   3
TORSDOF 5
ENDMDL
MODEL       49
REMARK 921   NORMALIZED FREE ENERGY PREDICTED BY IDOCK:   -4.28 KCAL/MOL
REMARK 922        TOTAL FREE ENERGY PREDICTED BY IDOCK:   -6.11 KCAL/MOL
REMARK 923 INTER-LIGAND FREE ENERGY PREDICTED BY IDOCK:   -6.06 KCAL/MOL
REMARK 924 INTRA-LIGAND FREE ENERGY PREDICTED BY IDOCK:   -0.04 KCAL/MOL
REMARK 927      BINDING AFFINITY PREDICTED BY RF-SCORE:    0.00 PKD
ROOT
HETATM    1  C   UNL     1     -13.207  15.484  71.693  1.00  0.00    -0.492 C  
HETATM    2  O   UNL     1     -12.098  15.561  70.806  1.00  0.00    -0.327 OA 
ENDROOT
BRANCH   2   3
HETATM    3  C   UNL     1     -12.082  14.672  69.754  1.00  0.00    -0.324 A  
HETATM    4  C   UNL     1     -12.150  13.258  69.845  1.00  0.00    -0.308 A  
HETATM    5  C   UNL     1     -11.799  14.552  67.363  1.00  0.00    -0.416 A  
HETATM    6  C   UNL     1     -12.108  12.500  68.652  1.00  0.00    -0.093 A  
HETATM    7  C   UNL     1     -11.885  15.302  68.526  1.00  0.00    -0.305 A  
HETATM    8  C   UNL     1     -11.900  13.151  67.408  1.00  0.00    -0.412 A  
BRANCH   4   9
HETATM    9  O   UNL     1     -12.199  12.801  71.129  1.00  0.00    -0.247 OA 
HETATM   10  C   UNL     1     -13.122  11.835  71.580  1.00  0.00    -0.287 C  
ENDBRANCH   4   9
BRANCH   6  11
HETATM   11  O   UNL     1     -12.097  11.126  68.613  1.00  0.00    -0.556 OA 
HETATM   12  C   UNL     1     -10.836  10.521  68.897  1.00  0.00    -0.235 C  
ENDBRANCH   6  11
BRANCH   8  13
HETATM   13  C   UNL     1     -11.747  12.398  66.096  1.00  0.00    -0.400 C  
BRANCH  13  14
HETATM   14  N   UNL     1     -10.521  12.780  65.363  1.00  0.00    -0.281 NA 
HETATM   15  C   UNL     1      -9.331  12.026  65.823  1.00  0.00    -0.125 C  
HETATM   16  C   UNL     1      -9.292  10.546  65.384  1.00  0.00    -0.211 C  
HETATM   17  N   UNL     1      -9.449  10.374  63.928  1.00  0.00    -0.282 NA 
HETATM   18  C   UNL     1     -10.640  11.097  63.458  1.00  0.00    -0.324 C  
HETATM   19  H   UNL     1      -9.471   9.390  63.660  1.00  0.00     0.000 HD 
HETATM   20  C   UNL     1     -10.672  12.575  63.909  1.00  0.00    -0.437 C  
ENDBRANCH  13  14
ENDBRANCH   8  13
ENDBRANCH   2   3
TORSDOF 5
ENDMDL
MODEL       50
REMARK 921   NORMALIZED FREE ENERGY PREDICTED BY IDOCK:   -4.27 KCAL/MOL
REMARK 922        TOTAL FREE ENERGY PREDICTED BY IDOCK:   -6.10 KCAL/MOL
REMARK 923 INTER-LIGAND FREE ENERGY PREDICTED BY IDOCK:   -5.88 KCAL/MOL
REMARK 924 INTRA-LIGAND FREE ENERGY PREDICTED BY IDOCK:   -0.22 KCAL/MOL
REMARK 927      BINDING AFFINITY PREDICTED BY RF-SCORE:    0.00 PKD
ROOT
HETATM    1  C   UNL     1     -10.775  14.310  64.743  1.00  0.00    -0.416 C  
HETATM    2  O   UNL     1     -11.962  14.308  65.527  1.00  0.00    -0.364 OA 
ENDROOT
BRANCH   2   3
HETATM    3  C   UNL     1     -11.897  13.674  66.749  1.00  0.00    -0.413 A  
HETATM    4  C   UNL     1     -11.870  14.300  68.022  1.00  0.00    -0.344 A  
HETATM    5  C   UNL     1     -11.629  11.501  67.758  1.00  0.00    -0.338 A  
HETATM    6  C   UNL     1     -11.788  13.485  69.175  1.00  0.00    -0.340 A  
HETATM    7  C   UNL     1     -11.754  12.293  66.626  1.00  0.00    -0.417 A  
HETATM    8  C   UNL     1     -11.637  12.081  69.039  1.00  0.00    -0.370 A  
BRANCH   4   9
HETATM    9  O   UNL     1     -11.876  15.662  67.955  1.00  0.00    -0.244 OA 
HETATM   10  C   UNL     1     -10.714  16.454  68.055  1.00  0.00    -0.334 C  
ENDBRANCH   4   9
BRANCH   6  11
HETATM   11  O   UNL     1     -11.687  13.973  70.457  1.00  0.00    -0.274 OA 
HETATM   12  C   UNL     1     -12.911  14.428  71.031  1.00  0.00    -0.349 C  
ENDBRANCH   6  11
BRANCH   8  13
HETATM   13  C   UNL     1     -11.446  11.151  70.226  1.00  0.00    -0.237 C  
BRANCH  13  14
HETATM   14  N   UNL     1     -11.344   9.732  69.823  1.00  0.00    -0.201 NA 
HETATM   15  C   UNL     1      -9.977   9.369  69.378  1.00  0.00    -0.183 C  
HETATM   16  C   UNL     1      -8.934   9.261  70.512  1.00  0.00    -0.250 C  
HETATM   17  N   UNL     1      -9.354   8.353  71.595  1.00  0.00    -0.191 NA 
HETATM   18  C   UNL     1     -10.700   8.714  72.065  1.00  0.00    -0.357 C  
HETATM   19  H   UNL     1      -8.677   8.331  72.358  1.00  0.00     0.000 HD 
HETATM   20  C   UNL     1     -11.733   8.826  70.922  1.00  0.00    -0.258 C  
ENDBRANCH  13  14
ENDBRANCH   8  13
ENDBRANCH   2   3
TORSDOF 5
ENDMDL
MODEL       51
REMARK 921   NORMALIZED FREE ENERGY PREDICTED BY IDOCK:   -4.27 KCAL/MOL
REMARK 922        TOTAL FREE ENERGY PREDICTED BY IDOCK:   -6.09 KCAL/MOL
REMARK 923 INTER-LIGAND FREE ENERGY PREDICTED BY IDOCK:   -5.55 KCAL/MOL
REMARK 924 INTRA-LIGAND FREE ENERGY PREDICTED BY IDOCK:   -0.54 KCAL/MOL
REMARK 927      BINDING AFFINITY PREDICTED BY RF-SCORE:    0.00 PKD
ROOT
HETATM    1  C   UNL     1      -9.460   7.731  66.905  1.00  0.00    -0.187 C  
HETATM    2  O   UNL     1      -9.655   8.721  65.902  1.00  0.00    -0.240 OA 
ENDROOT
BRANCH   2   3
HETATM    3  C   UNL     1     -10.194   9.920  66.312  1.00  0.00    -0.211 A  
HETATM    4  C   UNL     1     -10.052  11.174  65.662  1.00  0.00    -0.253 A  
HETATM    5  C   UNL     1     -11.414  10.943  68.122  1.00  0.00    -0.368 A  
HETATM    6  C   UNL     1     -10.669  12.309  66.238  1.00  0.00    -0.259 A  
HETATM    7  C   UNL     1     -10.849   9.819  67.538  1.00  0.00    -0.286 A  
HETATM    8  C   UNL     1     -11.327  12.196  67.490  1.00  0.00    -0.392 A  
BRANCH   4   9
HETATM    9  O   UNL     1      -9.263  11.121  64.551  1.00  0.00    -0.186 OA 
HETATM   10  C   UNL     1      -9.762  10.921  63.248  1.00  0.00    -0.362 C  
ENDBRANCH   4   9
BRANCH   6  11
HETATM   11  O   UNL     1     -10.547  13.586  65.743  1.00  0.00    -0.274 OA 
HETATM   12  C   UNL     1     -11.439  13.910  64.677  1.00  0.00    -0.377 C  
ENDBRANCH   6  11
BRANCH   8  13
HETATM   13  C   UNL     1     -11.930  13.387  68.218  1.00  0.00    -0.317 C  
BRANCH  13  14
HETATM   14  N   UNL     1     -11.191  13.732  69.451  1.00  0.00    -0.236 NA 
HETATM   15  C   UNL     1     -10.554  15.068  69.371  1.00  0.00    -0.256 C  
HETATM   16  C   UNL     1     -11.533  16.259  69.467  1.00  0.00    -0.231 C  
HETATM   17  N   UNL     1     -12.399  16.198  70.659  1.00  0.00    -0.448 NA 
HETATM   18  C   UNL     1     -13.057  14.885  70.740  1.00  0.00    -0.348 C  
HETATM   19  H   UNL     1     -13.072  16.964  70.681  1.00  0.00     0.000 HD 
HETATM   20  C   UNL     1     -12.069  13.702  70.637  1.00  0.00    -0.323 C  
ENDBRANCH  13  14
ENDBRANCH   8  13
ENDBRANCH   2   3
TORSDOF 5
ENDMDL
MODEL       52
REMARK 921   NORMALIZED FREE ENERGY PREDICTED BY IDOCK:   -4.26 KCAL/MOL
REMARK 922        TOTAL FREE ENERGY PREDICTED BY IDOCK:   -6.08 KCAL/MOL
REMARK 923 INTER-LIGAND FREE ENERGY PREDICTED BY IDOCK:   -5.42 KCAL/MOL
REMARK 924 INTRA-LIGAND FREE ENERGY PREDICTED BY IDOCK:   -0.66 KCAL/MOL
REMARK 927      BINDING AFFINITY PREDICTED BY RF-SCORE:    0.00 PKD
ROOT
HETATM    1  C   UNL     1     -10.130  15.994  65.840  1.00  0.00    -0.353 C  
HETATM    2  O   UNL     1     -11.285  15.169  65.740  1.00  0.00    -0.337 OA 
ENDROOT
BRANCH   2   3
HETATM    3  C   UNL     1     -11.230  13.946  66.371  1.00  0.00    -0.315 A  
HETATM    4  C   UNL     1     -10.816  12.718  65.794  1.00  0.00    -0.272 A  
HETATM    5  C   UNL     1     -11.793  12.840  68.438  1.00  0.00    -0.353 A  
HETATM    6  C   UNL     1     -10.836  11.552  66.595  1.00  0.00    -0.287 A  
HETATM    7  C   UNL     1     -11.733  13.993  67.671  1.00  0.00    -0.412 A  
HETATM    8  C   UNL     1     -11.356  11.610  67.914  1.00  0.00    -0.369 A  
BRANCH   4   9
HETATM    9  O   UNL     1     -10.489  12.824  64.474  1.00  0.00    -0.330 OA 
HETATM   10  C   UNL     1     -11.331  12.405  63.425  1.00  0.00    -0.433 C  
ENDBRANCH   4   9
BRANCH   6  11
HETATM   11  O   UNL     1     -10.525  10.295  66.133  1.00  0.00    -0.210 OA 
HETATM   12  C   UNL     1      -9.135  10.057  65.912  1.00  0.00    -0.159 C  
ENDBRANCH   6  11
BRANCH   8  13
HETATM   13  C   UNL     1     -11.500  10.384  68.801  1.00  0.00    -0.175 C  
BRANCH  13  14
HETATM   14  N   UNL     1     -10.573  10.407  69.953  1.00  0.00    -0.266 NA 
HETATM   15  C   UNL     1     -11.055   9.573  71.080  1.00  0.00    -0.363 C  
HETATM   16  C   UNL     1     -10.945   8.049  70.851  1.00  0.00    -0.243 C  
HETATM   17  N   UNL     1      -9.587   7.621  70.470  1.00  0.00    -0.168 NA 
HETATM   18  C   UNL     1      -9.103   8.424  69.337  1.00  0.00    -0.154 C  
HETATM   19  H   UNL     1      -9.543   6.621  70.275  1.00  0.00     0.000 HD 
HETATM   20  C   UNL     1      -9.223   9.946  69.574  1.00  0.00    -0.223 C  
ENDBRANCH  13  14
ENDBRANCH   8  13
ENDBRANCH   2   3
TORSDOF 5
ENDMDL
MODEL       53
REMARK 921   NORMALIZED FREE ENERGY PREDICTED BY IDOCK:   -4.24 KCAL/MOL
REMARK 922        TOTAL FREE ENERGY PREDICTED BY IDOCK:   -6.06 KCAL/MOL
REMARK 923 INTER-LIGAND FREE ENERGY PREDICTED BY IDOCK:   -5.49 KCAL/MOL
REMARK 924 INTRA-LIGAND FREE ENERGY PREDICTED BY IDOCK:   -0.57 KCAL/MOL
REMARK 927      BINDING AFFINITY PREDICTED BY RF-SCORE:    0.00 PKD
ROOT
HETATM    1  C   UNL     1     -13.763  13.137  72.292  1.00  0.00    -0.551 C  
HETATM    2  O   UNL     1     -13.097  13.959  71.340  1.00  0.00    -0.331 OA 
ENDROOT
BRANCH   2   3
HETATM    3  C   UNL     1     -12.237  13.327  70.470  1.00  0.00    -0.340 A  
HETATM    4  C   UNL     1     -11.484  13.941  69.435  1.00  0.00    -0.280 A  
HETATM    5  C   UNL     1     -11.458  11.144  69.807  1.00  0.00    -0.388 A  
HETATM    6  C   UNL     1     -10.657  13.128  68.626  1.00  0.00    -0.239 A  
HETATM    7  C   UNL     1     -12.235  11.942  70.632  1.00  0.00    -0.424 A  
HETATM    8  C   UNL     1     -10.669  11.719  68.795  1.00  0.00    -0.255 A  
BRANCH   4   9
HETATM    9  O   UNL     1     -11.710  15.281  69.325  1.00  0.00    -0.301 OA 
HETATM   10  C   UNL     1     -10.921  16.261  69.961  1.00  0.00    -0.355 C  
ENDBRANCH   4   9
BRANCH   6  11
HETATM   11  O   UNL     1      -9.935  13.591  67.552  1.00  0.00    -0.225 OA 
HETATM   12  C   UNL     1      -8.685  14.197  67.878  1.00  0.00    -0.182 C  
ENDBRANCH   6  11
BRANCH   8  13
HETATM   13  C   UNL     1      -9.882  10.772  67.902  1.00  0.00    -0.167 C  
BRANCH  13  14
HETATM   14  N   UNL     1     -10.727  10.134  66.870  1.00  0.00    -0.200 NA 
HETATM   15  C   UNL     1     -10.533  10.739  65.531  1.00  0.00    -0.194 C  
HETATM   16  C   UNL     1      -9.195  10.384  64.846  1.00  0.00    -0.221 C  
HETATM   17  N   UNL     1      -8.958   8.931  64.766  1.00  0.00    -0.418 NA 
HETATM   18  C   UNL     1      -9.123   8.318  66.093  1.00  0.00    -0.189 C  
HETATM   19  H   UNL     1      -8.049   8.715  64.356  1.00  0.00     0.000 HD 
HETATM   20  C   UNL     1     -10.461   8.685  66.770  1.00  0.00    -0.228 C  
ENDBRANCH  13  14
ENDBRANCH   8  13
ENDBRANCH   2   3
TORSDOF 5
ENDMDL
MODEL       54
REMARK 921   NORMALIZED FREE ENERGY PREDICTED BY IDOCK:   -4.23 KCAL/MOL
REMARK 922        TOTAL FREE ENERGY PREDICTED BY IDOCK:   -6.04 KCAL/MOL
REMARK 923 INTER-LIGAND FREE ENERGY PREDICTED BY IDOCK:   -5.60 KCAL/MOL
REMARK 924 INTRA-LIGAND FREE ENERGY PREDICTED BY IDOCK:   -0.44 KCAL/MOL
REMARK 927      BINDING AFFINITY PREDICTED BY RF-SCORE:    0.00 PKD
ROOT
HETATM    1  C   UNL     1     -12.859  11.458  71.462  1.00  0.00    -0.403 C  
HETATM    2  O   UNL     1     -12.213  12.546  70.811  1.00  0.00    -0.369 OA 
ENDROOT
BRANCH   2   3
HETATM    3  C   UNL     1     -11.850  12.355  69.496  1.00  0.00    -0.303 A  
HETATM    4  C   UNL     1     -11.820  13.342  68.478  1.00  0.00    -0.366 A  
HETATM    5  C   UNL     1     -11.253  10.637  67.914  1.00  0.00    -0.376 A  
HETATM    6  C   UNL     1     -11.431  12.958  67.174  1.00  0.00    -0.336 A  
HETATM    7  C   UNL     1     -11.590  11.016  69.204  1.00  0.00    -0.389 A  
HETATM    8  C   UNL     1     -11.176  11.592  66.886  1.00  0.00    -0.376 A  
BRANCH   4   9
HETATM    9  O   UNL     1     -12.238  14.569  68.902  1.00  0.00    -0.264 OA 
HETATM   10  C   UNL     1     -11.377  15.672  69.069  1.00  0.00    -0.330 C  
ENDBRANCH   4   9
BRANCH   6  11
HETATM   11  O   UNL     1     -11.428  13.805  66.090  1.00  0.00    -0.322 OA 
HETATM   12  C   UNL     1     -12.708  14.047  65.508  1.00  0.00    -0.486 C  
ENDBRANCH   6  11
BRANCH   8  13
HETATM   13  C   UNL     1     -10.847  11.089  65.490  1.00  0.00    -0.088 C  
BRANCH  13  14
HETATM   14  N   UNL     1      -9.495  11.490  65.047  1.00  0.00    -0.196 NA 
HETATM   15  C   UNL     1      -8.457  10.508  65.441  1.00  0.00    -0.170 C  
HETATM   16  C   UNL     1      -8.474   9.190  64.637  1.00  0.00    -0.181 C  
HETATM   17  N   UNL     1      -8.417   9.404  63.179  1.00  0.00    -0.192 NA 
HETATM   18  C   UNL     1      -9.456  10.359  62.767  1.00  0.00    -0.321 C  
HETATM   19  H   UNL     1      -8.478   8.527  62.662  1.00  0.00     0.000 HD 
HETATM   20  C   UNL     1      -9.434  11.671  63.583  1.00  0.00    -0.131 C  
ENDBRANCH  13  14
ENDBRANCH   8  13
ENDBRANCH   2   3
TORSDOF 5
ENDMDL
MODEL       55
REMARK 921   NORMALIZED FREE ENERGY PREDICTED BY IDOCK:   -4.23 KCAL/MOL
REMARK 922        TOTAL FREE ENERGY PREDICTED BY IDOCK:   -6.04 KCAL/MOL
REMARK 923 INTER-LIGAND FREE ENERGY PREDICTED BY IDOCK:   -5.50 KCAL/MOL
REMARK 924 INTRA-LIGAND FREE ENERGY PREDICTED BY IDOCK:   -0.53 KCAL/MOL
REMARK 927      BINDING AFFINITY PREDICTED BY RF-SCORE:    0.00 PKD
ROOT
HETATM    1  C   UNL     1      -7.224  11.334  69.159  1.00  0.00    -0.115 C  
HETATM    2  O   UNL     1      -8.226  11.433  68.154  1.00  0.00    -0.129 OA 
ENDROOT
BRANCH   2   3
HETATM    3  C   UNL     1      -8.571  12.702  67.746  1.00  0.00    -0.179 A  
HETATM    4  C   UNL     1      -9.846  13.122  67.287  1.00  0.00    -0.232 A  
HETATM    5  C   UNL     1      -7.641  14.881  67.301  1.00  0.00    -0.213 A  
HETATM    6  C   UNL     1     -10.015  14.470  66.895  1.00  0.00    -0.259 A  
HETATM    7  C   UNL     1      -7.481  13.572  67.728  1.00  0.00    -0.168 A  
HETATM    8  C   UNL     1      -8.897  15.345  66.874  1.00  0.00    -0.281 A  
BRANCH   4   9
HETATM    9  O   UNL     1     -10.761  12.112  67.235  1.00  0.00    -0.219 OA 
HETATM   10  C   UNL     1     -11.774  11.926  68.198  1.00  0.00    -0.320 C  
ENDBRANCH   4   9
BRANCH   6  11
HETATM   11  O   UNL     1     -11.178  14.980  66.369  1.00  0.00    -0.342 OA 
HETATM   12  C   UNL     1     -11.457  14.592  65.025  1.00  0.00    -0.382 C  
ENDBRANCH   6  11
BRANCH   8  13
HETATM   13  C   UNL     1      -8.979  16.779  66.375  1.00  0.00    -0.289 C  
BRANCH  13  14
HETATM   14  N   UNL     1      -9.259  17.742  67.462  1.00  0.00    -0.243 NA 
HETATM   15  C   UNL     1      -8.233  18.808  67.548  1.00  0.00    -0.260 C  
HETATM   16  C   UNL     1      -8.296  19.860  66.419  1.00  0.00    -0.334 C  
HETATM   17  N   UNL     1      -9.629  20.473  66.277  1.00  0.00    -0.657 NA 
HETATM   18  C   UNL     1     -10.657  19.427  66.166  1.00  0.00    -0.477 C  
HETATM   19  H   UNL     1      -9.667  21.129  65.497  1.00  0.00     0.000 HD 
HETATM   20  C   UNL     1     -10.581  18.377  67.297  1.00  0.00    -0.402 C  
ENDBRANCH  13  14
ENDBRANCH   8  13
ENDBRANCH   2   3
TORSDOF 5
ENDMDL
MODEL       56
REMARK 921   NORMALIZED FREE ENERGY PREDICTED BY IDOCK:   -4.21 KCAL/MOL
REMARK 922        TOTAL FREE ENERGY PREDICTED BY IDOCK:   -6.02 KCAL/MOL
REMARK 923 INTER-LIGAND FREE ENERGY PREDICTED BY IDOCK:   -5.66 KCAL/MOL
REMARK 924 INTRA-LIGAND FREE ENERGY PREDICTED BY IDOCK:   -0.36 KCAL/MOL
REMARK 927      BINDING AFFINITY PREDICTED BY RF-SCORE:    0.00 PKD
ROOT
HETATM    1  C   UNL     1     -12.699   9.076  72.002  1.00  0.00    -0.398 C  
HETATM    2  O   UNL     1     -11.336   9.232  71.624  1.00  0.00    -0.358 OA 
ENDROOT
BRANCH   2   3
HETATM    3  C   UNL     1     -11.079  10.073  70.564  1.00  0.00    -0.331 A  
HETATM    4  C   UNL     1      -9.935  10.048  69.726  1.00  0.00    -0.241 A  
HETATM    5  C   UNL     1     -11.918  12.034  69.439  1.00  0.00    -0.334 A  
HETATM    6  C   UNL     1      -9.834  11.003  68.688  1.00  0.00    -0.193 A  
HETATM    7  C   UNL     1     -12.043  11.072  70.430  1.00  0.00    -0.463 A  
HETATM    8  C   UNL     1     -10.817  12.019  68.565  1.00  0.00    -0.267 A  
BRANCH   4   9
HETATM    9  O   UNL     1      -9.025   9.097  70.083  1.00  0.00    -0.164 OA 
HETATM   10  C   UNL     1      -7.818   9.383  70.752  1.00  0.00    -0.118 C  
ENDBRANCH   4   9
BRANCH   6  11
HETATM   11  O   UNL     1      -8.746  11.124  67.856  1.00  0.00    -0.129 OA 
HETATM   12  C   UNL     1      -8.607  10.087  66.885  1.00  0.00    -0.125 C  
ENDBRANCH   6  11
BRANCH   8  13
HETATM   13  C   UNL     1     -10.728  13.136  67.537  1.00  0.00    -0.238 C  
BRANCH  13  14
HETATM   14  N   UNL     1     -10.749  12.630  66.148  1.00  0.00    -0.264 NA 
HETATM   15  C   UNL     1     -12.124  12.535  65.604  1.00  0.00    -0.400 C  
HETATM   16  C   UNL     1     -12.781  13.890  65.262  1.00  0.00    -0.449 C  
HETATM   17  N   UNL     1     -11.956  14.720  64.365  1.00  0.00    -0.611 NA 
HETATM   18  C   UNL     1     -10.593  14.844  64.903  1.00  0.00    -0.391 C  
HETATM   19  H   UNL     1     -12.380  15.630  64.188  1.00  0.00     0.000 HD 
HETATM   20  C   UNL     1      -9.948  13.483  65.247  1.00  0.00    -0.183 C  
ENDBRANCH  13  14
ENDBRANCH   8  13
ENDBRANCH   2   3
TORSDOF 5
ENDMDL
MODEL       57
REMARK 921   NORMALIZED FREE ENERGY PREDICTED BY IDOCK:   -4.21 KCAL/MOL
REMARK 922        TOTAL FREE ENERGY PREDICTED BY IDOCK:   -6.02 KCAL/MOL
REMARK 923 INTER-LIGAND FREE ENERGY PREDICTED BY IDOCK:   -5.48 KCAL/MOL
REMARK 924 INTRA-LIGAND FREE ENERGY PREDICTED BY IDOCK:   -0.54 KCAL/MOL
REMARK 927      BINDING AFFINITY PREDICTED BY RF-SCORE:    0.00 PKD
ROOT
HETATM    1  C   UNL     1      -8.485   6.533  71.111  1.00  0.00    -0.126 C  
HETATM    2  O   UNL     1      -9.052   7.530  71.954  1.00  0.00    -0.127 OA 
ENDROOT
BRANCH   2   3
HETATM    3  C   UNL     1      -9.780   8.523  71.336  1.00  0.00    -0.220 A  
HETATM    4  C   UNL     1     -11.142   8.842  71.575  1.00  0.00    -0.307 A  
HETATM    5  C   UNL     1      -9.654  10.165  69.576  1.00  0.00    -0.243 A  
HETATM    6  C   UNL     1     -11.731   9.892  70.834  1.00  0.00    -0.364 A  
HETATM    7  C   UNL     1      -9.059   9.166  70.331  1.00  0.00    -0.270 A  
HETATM    8  C   UNL     1     -10.991  10.535  69.808  1.00  0.00    -0.350 A  
BRANCH   4   9
HETATM    9  O   UNL     1     -11.736   8.023  72.489  1.00  0.00    -0.367 OA 
HETATM   10  C   UNL     1     -12.497   6.888  72.144  1.00  0.00    -0.161 C  
ENDBRANCH   4   9
BRANCH   6  11
HETATM   11  O   UNL     1     -13.055  10.249  70.924  1.00  0.00    -0.386 OA 
HETATM   12  C   UNL     1     -13.389  11.058  72.052  1.00  0.00    -0.288 C  
ENDBRANCH   6  11
BRANCH   8  13
HETATM   13  C   UNL     1     -11.585  11.605  68.906  1.00  0.00    -0.314 C  
BRANCH  13  14
HETATM   14  N   UNL     1     -10.569  12.248  68.046  1.00  0.00    -0.209 NA 
HETATM   15  C   UNL     1     -10.809  11.996  66.605  1.00  0.00    -0.272 C  
HETATM   16  C   UNL     1     -12.002  12.768  66.001  1.00  0.00    -0.432 C  
HETATM   17  N   UNL     1     -11.926  14.221  66.238  1.00  0.00    -0.411 NA 
HETATM   18  C   UNL     1     -11.712  14.491  67.668  1.00  0.00    -0.382 C  
HETATM   19  H   UNL     1     -12.745  14.710  65.877  1.00  0.00     0.000 HD 
HETATM   20  C   UNL     1     -10.519  13.708  68.262  1.00  0.00    -0.249 C  
ENDBRANCH  13  14
ENDBRANCH   8  13
ENDBRANCH   2   3
TORSDOF 5
ENDMDL
MODEL       58
REMARK 921   NORMALIZED FREE ENERGY PREDICTED BY IDOCK:   -4.21 KCAL/MOL
REMARK 922        TOTAL FREE ENERGY PREDICTED BY IDOCK:   -6.01 KCAL/MOL
REMARK 923 INTER-LIGAND FREE ENERGY PREDICTED BY IDOCK:   -5.38 KCAL/MOL
REMARK 924 INTRA-LIGAND FREE ENERGY PREDICTED BY IDOCK:   -0.63 KCAL/MOL
REMARK 927      BINDING AFFINITY PREDICTED BY RF-SCORE:    0.00 PKD
ROOT
HETATM    1  C   UNL     1     -10.768  12.448  65.257  1.00  0.00    -0.287 C  
HETATM    2  O   UNL     1     -11.709  12.686  66.298  1.00  0.00    -0.363 OA 
ENDROOT
BRANCH   2   3
HETATM    3  C   UNL     1     -11.583  11.918  67.434  1.00  0.00    -0.297 A  
HETATM    4  C   UNL     1     -11.911  12.310  68.758  1.00  0.00    -0.306 A  
HETATM    5  C   UNL     1     -10.739   9.801  68.220  1.00  0.00    -0.277 A  
HETATM    6  C   UNL     1     -11.702  11.388  69.809  1.00  0.00    -0.344 A  
HETATM    7  C   UNL     1     -10.983  10.685  67.180  1.00  0.00    -0.312 A  
HETATM    8  C   UNL     1     -11.085  10.138  69.540  1.00  0.00    -0.295 A  
BRANCH   4   9
HETATM    9  O   UNL     1     -12.354  13.597  68.845  1.00  0.00    -0.276 OA 
HETATM   10  C   UNL     1     -11.553  14.671  69.283  1.00  0.00    -0.302 C  
ENDBRANCH   4   9
BRANCH   6  11
HETATM   11  O   UNL     1     -11.916  11.672  71.137  1.00  0.00    -0.132 OA 
HETATM   12  C   UNL     1     -13.284  11.677  71.543  1.00  0.00    -0.201 C  
ENDBRANCH   6  11
BRANCH   8  13
HETATM   13  C   UNL     1     -10.741   9.135  70.629  1.00  0.00    -0.254 C  
BRANCH  13  14
HETATM   14  N   UNL     1     -11.884   8.265  70.980  1.00  0.00    -0.279 NA 
HETATM   15  C   UNL     1     -11.684   6.865  70.535  1.00  0.00    -0.350 C  
HETATM   16  C   UNL     1     -10.650   6.065  71.357  1.00  0.00    -0.246 C  
HETATM   17  N   UNL     1     -10.929   6.084  72.805  1.00  0.00    -0.250 NA 
HETATM   18  C   UNL     1     -11.107   7.468  73.268  1.00  0.00    -0.241 C  
HETATM   19  H   UNL     1     -10.211   5.593  73.338  1.00  0.00     0.000 HD 
HETATM   20  C   UNL     1     -12.138   8.261  72.434  1.00  0.00    -0.369 C  
ENDBRANCH  13  14
ENDBRANCH   8  13
ENDBRANCH   2   3
TORSDOF 5
ENDMDL
MODEL       59
REMARK 921   NORMALIZED FREE ENERGY PREDICTED BY IDOCK:   -4.19 KCAL/MOL
REMARK 922        TOTAL FREE ENERGY PREDICTED BY IDOCK:   -5.99 KCAL/MOL
REMARK 923 INTER-LIGAND FREE ENERGY PREDICTED BY IDOCK:   -5.58 KCAL/MOL
REMARK 924 INTRA-LIGAND FREE ENERGY PREDICTED BY IDOCK:   -0.41 KCAL/MOL
REMARK 927      BINDING AFFINITY PREDICTED BY RF-SCORE:    0.00 PKD
ROOT
HETATM    1  C   UNL     1      -9.513  11.249  62.807  1.00  0.00    -0.326 C  
HETATM    2  O   UNL     1     -10.664  11.626  63.553  1.00  0.00    -0.381 OA 
ENDROOT
BRANCH   2   3
HETATM    3  C   UNL     1     -10.660  11.317  64.896  1.00  0.00    -0.300 A  
HETATM    4  C   UNL     1     -11.518  11.858  65.887  1.00  0.00    -0.278 A  
HETATM    5  C   UNL     1      -9.444  10.069  66.562  1.00  0.00    -0.222 A  
HETATM    6  C   UNL     1     -11.361  11.431  67.226  1.00  0.00    -0.275 A  
HETATM    7  C   UNL     1      -9.623  10.451  65.241  1.00  0.00    -0.316 A  
HETATM    8  C   UNL     1     -10.298  10.555  67.567  1.00  0.00    -0.265 A  
BRANCH   4   9
HETATM    9  O   UNL     1     -12.381  12.796  65.402  1.00  0.00    -0.469 OA 
HETATM   10  C   UNL     1     -12.115  14.180  65.406  1.00  0.00    -0.410 C  
ENDBRANCH   4   9
BRANCH   6  11
HETATM   11  O   UNL     1     -12.082  11.931  68.284  1.00  0.00    -0.485 OA 
HETATM   12  C   UNL     1     -11.600  13.163  68.818  1.00  0.00    -0.308 C  
ENDBRANCH   6  11
BRANCH   8  13
HETATM   13  C   UNL     1     -10.006  10.127  68.997  1.00  0.00    -0.208 C  
BRANCH  13  14
HETATM   14  N   UNL     1     -10.976   9.130  69.499  1.00  0.00    -0.177 NA 
HETATM   15  C   UNL     1     -10.512   7.738  69.292  1.00  0.00    -0.217 C  
HETATM   16  C   UNL     1      -9.366   7.290  70.226  1.00  0.00    -0.158 C  
HETATM   17  N   UNL     1      -9.673   7.497  71.653  1.00  0.00    -0.161 NA 
HETATM   18  C   UNL     1     -10.113   8.882  71.880  1.00  0.00    -0.322 C  
HETATM   19  H   UNL     1      -8.889   7.243  72.253  1.00  0.00     0.000 HD 
HETATM   20  C   UNL     1     -11.255   9.320  70.936  1.00  0.00    -0.306 C  
ENDBRANCH  13  14
ENDBRANCH   8  13
ENDBRANCH   2   3
TORSDOF 5
ENDMDL
MODEL       60
REMARK 921   NORMALIZED FREE ENERGY PREDICTED BY IDOCK:   -4.19 KCAL/MOL
REMARK 922        TOTAL FREE ENERGY PREDICTED BY IDOCK:   -5.99 KCAL/MOL
REMARK 923 INTER-LIGAND FREE ENERGY PREDICTED BY IDOCK:   -5.40 KCAL/MOL
REMARK 924 INTRA-LIGAND FREE ENERGY PREDICTED BY IDOCK:   -0.59 KCAL/MOL
REMARK 927      BINDING AFFINITY PREDICTED BY RF-SCORE:    0.00 PKD
ROOT
HETATM    1  C   UNL     1      -9.815  10.262  64.714  1.00  0.00    -0.334 C  
HETATM    2  O   UNL     1     -10.743  11.112  65.378  1.00  0.00    -0.258 OA 
ENDROOT
BRANCH   2   3
HETATM    3  C   UNL     1     -10.297  12.370  65.717  1.00  0.00    -0.263 A  
HETATM    4  C   UNL     1      -9.716  12.753  66.954  1.00  0.00    -0.234 A  
HETATM    5  C   UNL     1     -10.224  14.645  64.924  1.00  0.00    -0.322 A  
HETATM    6  C   UNL     1      -9.327  14.101  67.130  1.00  0.00    -0.237 A  
HETATM    7  C   UNL     1     -10.566  13.316  64.728  1.00  0.00    -0.402 A  
HETATM    8  C   UNL     1      -9.611  15.057  66.120  1.00  0.00    -0.345 A  
BRANCH   4   9
HETATM    9  O   UNL     1      -9.655  11.736  67.860  1.00  0.00    -0.175 OA 
HETATM   10  C   UNL     1      -8.479  11.014  68.146  1.00  0.00    -0.135 C  
ENDBRANCH   4   9
BRANCH   6  11
HETATM   11  O   UNL     1      -8.818  14.609  68.302  1.00  0.00    -0.163 OA 
HETATM   12  C   UNL     1      -7.414  14.425  68.483  1.00  0.00    -0.122 C  
ENDBRANCH   6  11
BRANCH   8  13
HETATM   13  C   UNL     1      -9.311  16.539  66.276  1.00  0.00    -0.302 C  
BRANCH  13  14
HETATM   14  N   UNL     1     -10.528  17.339  66.533  1.00  0.00    -0.297 NA 
HETATM   15  C   UNL     1     -10.890  17.369  67.970  1.00  0.00    -0.281 C  
HETATM   16  C   UNL     1      -9.969  18.241  68.852  1.00  0.00    -0.339 C  
HETATM   17  N   UNL     1      -9.832  19.621  68.352  1.00  0.00    -0.409 NA 
HETATM   18  C   UNL     1      -9.450  19.609  66.932  1.00  0.00    -0.358 C  
HETATM   19  H   UNL     1      -9.183  20.169  68.917  1.00  0.00     0.000 HD 
HETATM   20  C   UNL     1     -10.374  18.729  66.061  1.00  0.00    -0.422 C  
ENDBRANCH  13  14
ENDBRANCH   8  13
ENDBRANCH   2   3
TORSDOF 5
ENDMDL
MODEL       61
REMARK 921   NORMALIZED FREE ENERGY PREDICTED BY IDOCK:   -4.18 KCAL/MOL
REMARK 922        TOTAL FREE ENERGY PREDICTED BY IDOCK:   -5.98 KCAL/MOL
REMARK 923 INTER-LIGAND FREE ENERGY PREDICTED BY IDOCK:   -5.55 KCAL/MOL
REMARK 924 INTRA-LIGAND FREE ENERGY PREDICTED BY IDOCK:   -0.42 KCAL/MOL
REMARK 927      BINDING AFFINITY PREDICTED BY RF-SCORE:    0.00 PKD
ROOT
HETATM    1  C   UNL     1     -10.510  11.084  64.118  1.00  0.00    -0.366 C  
HETATM    2  O   UNL     1      -9.882  11.773  65.194  1.00  0.00    -0.243 OA 
ENDROOT
BRANCH   2   3
HETATM    3  C   UNL     1     -10.109  11.283  66.460  1.00  0.00    -0.217 A  
HETATM    4  C   UNL     1     -11.209  11.596  67.301  1.00  0.00    -0.304 A  
HETATM    5  C   UNL     1      -9.107   9.939  68.193  1.00  0.00    -0.121 A  
HETATM    6  C   UNL     1     -11.271  11.004  68.584  1.00  0.00    -0.263 A  
HETATM    7  C   UNL     1      -9.064  10.481  66.918  1.00  0.00    -0.161 A  
HETATM    8  C   UNL     1     -10.198  10.196  69.041  1.00  0.00    -0.221 A  
BRANCH   4   9
HETATM    9  O   UNL     1     -12.066  12.504  66.753  1.00  0.00    -0.546 OA 
HETATM   10  C   UNL     1     -11.911  13.899  66.878  1.00  0.00    -0.433 C  
ENDBRANCH   4   9
BRANCH   6  11
HETATM   11  O   UNL     1     -12.246  11.280  69.513  1.00  0.00    -0.308 OA 
HETATM   12  C   UNL     1     -12.081  12.511  70.216  1.00  0.00    -0.294 C  
ENDBRANCH   6  11
BRANCH   8  13
HETATM   13  C   UNL     1     -10.148   9.604  70.441  1.00  0.00    -0.276 C  
BRANCH  13  14
HETATM   14  N   UNL     1     -10.592   8.194  70.476  1.00  0.00    -0.216 NA 
HETATM   15  C   UNL     1      -9.828   7.386  71.456  1.00  0.00    -0.173 C  
HETATM   16  C   UNL     1     -10.169   7.670  72.936  1.00  0.00    -0.298 C  
HETATM   17  N   UNL     1     -11.611   7.558  73.226  1.00  0.00    -0.617 NA 
HETATM   18  C   UNL     1     -12.383   8.373  72.276  1.00  0.00    -0.376 C  
HETATM   19  H   UNL     1     -11.825   7.796  74.194  1.00  0.00     0.000 HD 
HETATM   20  C   UNL     1     -12.029   8.086  70.800  1.00  0.00    -0.121 C  
ENDBRANCH  13  14
ENDBRANCH   8  13
ENDBRANCH   2   3
TORSDOF 5
ENDMDL
MODEL       62
REMARK 921   NORMALIZED FREE ENERGY PREDICTED BY IDOCK:   -4.17 KCAL/MOL
REMARK 922        TOTAL FREE ENERGY PREDICTED BY IDOCK:   -5.96 KCAL/MOL
REMARK 923 INTER-LIGAND FREE ENERGY PREDICTED BY IDOCK:   -5.43 KCAL/MOL
REMARK 924 INTRA-LIGAND FREE ENERGY PREDICTED BY IDOCK:   -0.53 KCAL/MOL
REMARK 927      BINDING AFFINITY PREDICTED BY RF-SCORE:    0.00 PKD
ROOT
HETATM    1  C   UNL     1      -9.978   5.076  68.582  1.00  0.00    -0.144 C  
HETATM    2  O   UNL     1     -10.967   5.874  69.222  1.00  0.00    -0.334 OA 
ENDROOT
BRANCH   2   3
HETATM    3  C   UNL     1     -10.829   7.240  69.110  1.00  0.00    -0.136 A  
HETATM    4  C   UNL     1     -11.123   8.202  70.111  1.00  0.00    -0.187 A  
HETATM    5  C   UNL     1     -10.303   8.980  67.526  1.00  0.00    -0.328 A  
HETATM    6  C   UNL     1     -10.931   9.570  69.813  1.00  0.00    -0.223 A  
HETATM    7  C   UNL     1     -10.447   7.634  67.828  1.00  0.00    -0.282 A  
HETATM    8  C   UNL     1     -10.548   9.961  68.503  1.00  0.00    -0.248 A  
BRANCH   4   9
HETATM    9  O   UNL     1     -11.619   7.654  71.257  1.00  0.00    -0.267 OA 
HETATM   10  C   UNL     1     -10.920   7.635  72.481  1.00  0.00    -0.324 C  
ENDBRANCH   4   9
BRANCH   6  11
HETATM   11  O   UNL     1     -11.243  10.597  70.672  1.00  0.00    -0.289 OA 
HETATM   12  C   UNL     1     -12.635  10.758  70.943  1.00  0.00    -0.401 C  
ENDBRANCH   6  11
BRANCH   8  13
HETATM   13  C   UNL     1     -10.415  11.415  68.079  1.00  0.00    -0.188 C  
BRANCH  13  14
HETATM   14  N   UNL     1     -11.668  11.957  67.512  1.00  0.00    -0.551 NA 
HETATM   15  C   UNL     1     -12.004  13.292  68.060  1.00  0.00    -0.313 C  
HETATM   16  C   UNL     1     -11.116  14.446  67.545  1.00  0.00    -0.302 C  
HETATM   17  N   UNL     1     -11.063  14.519  66.073  1.00  0.00    -0.323 NA 
HETATM   18  C   UNL     1     -10.708  13.206  65.514  1.00  0.00    -0.283 C  
HETATM   19  H   UNL     1     -10.435  15.254  65.750  1.00  0.00     0.000 HD 
HETATM   20  C   UNL     1     -11.599  12.059  66.040  1.00  0.00    -0.305 C  
ENDBRANCH  13  14
ENDBRANCH   8  13
ENDBRANCH   2   3
TORSDOF 5
ENDMDL
MODEL       63
REMARK 921   NORMALIZED FREE ENERGY PREDICTED BY IDOCK:   -4.16 KCAL/MOL
REMARK 922        TOTAL FREE ENERGY PREDICTED BY IDOCK:   -5.95 KCAL/MOL
REMARK 923 INTER-LIGAND FREE ENERGY PREDICTED BY IDOCK:   -5.65 KCAL/MOL
REMARK 924 INTRA-LIGAND FREE ENERGY PREDICTED BY IDOCK:   -0.30 KCAL/MOL
REMARK 927      BINDING AFFINITY PREDICTED BY RF-SCORE:    0.00 PKD
ROOT
HETATM    1  C   UNL     1     -11.881  12.514  63.237  1.00  0.00    -0.413 C  
HETATM    2  O   UNL     1     -10.836  12.719  64.181  1.00  0.00    -0.354 OA 
ENDROOT
BRANCH   2   3
HETATM    3  C   UNL     1     -10.834  11.902  65.290  1.00  0.00    -0.297 A  
HETATM    4  C   UNL     1     -11.637  12.054  66.450  1.00  0.00    -0.313 A  
HETATM    5  C   UNL     1      -9.685  10.025  66.274  1.00  0.00    -0.272 A  
HETATM    6  C   UNL     1     -11.490  11.121  67.502  1.00  0.00    -0.216 A  
HETATM    7  C   UNL     1      -9.856  10.910  65.221  1.00  0.00    -0.318 A  
HETATM    8  C   UNL     1     -10.487  10.121  67.425  1.00  0.00    -0.310 A  
BRANCH   4   9
HETATM    9  O   UNL     1     -12.439  13.157  66.411  1.00  0.00    -0.367 OA 
HETATM   10  C   UNL     1     -12.016  14.444  66.798  1.00  0.00    -0.399 C  
ENDBRANCH   4   9
BRANCH   6  11
HETATM   11  O   UNL     1     -12.159  11.201  68.701  1.00  0.00    -0.556 OA 
HETATM   12  C   UNL     1     -11.733  12.256  69.563  1.00  0.00    -0.332 C  
ENDBRANCH   6  11
BRANCH   8  13
HETATM   13  C   UNL     1     -10.205   9.143  68.554  1.00  0.00    -0.198 C  
BRANCH  13  14
HETATM   14  N   UNL     1      -9.729   7.832  68.064  1.00  0.00    -0.150 NA 
HETATM   15  C   UNL     1      -8.631   7.284  68.894  1.00  0.00    -0.129 C  
HETATM   16  C   UNL     1      -9.067   6.757  70.279  1.00  0.00    -0.153 C  
HETATM   17  N   UNL     1     -10.162   5.772  70.202  1.00  0.00    -0.216 NA 
HETATM   18  C   UNL     1     -11.271   6.311  69.400  1.00  0.00    -0.420 C  
HETATM   19  H   UNL     1     -10.471   5.472  71.126  1.00  0.00     0.000 HD 
HETATM   20  C   UNL     1     -10.822   6.840  68.019  1.00  0.00    -0.235 C  
ENDBRANCH  13  14
ENDBRANCH   8  13
ENDBRANCH   2   3
TORSDOF 5
ENDMDL
MODEL       64
REMARK 921   NORMALIZED FREE ENERGY PREDICTED BY IDOCK:   -4.15 KCAL/MOL
REMARK 922        TOTAL FREE ENERGY PREDICTED BY IDOCK:   -5.94 KCAL/MOL
REMARK 923 INTER-LIGAND FREE ENERGY PREDICTED BY IDOCK:   -5.53 KCAL/MOL
REMARK 924 INTRA-LIGAND FREE ENERGY PREDICTED BY IDOCK:   -0.41 KCAL/MOL
REMARK 927      BINDING AFFINITY PREDICTED BY RF-SCORE:    0.00 PKD
ROOT
HETATM    1  C   UNL     1     -12.631  14.041  71.136  1.00  0.00    -0.371 C  
HETATM    2  O   UNL     1     -12.240  13.731  69.803  1.00  0.00    -0.324 OA 
ENDROOT
BRANCH   2   3
HETATM    3  C   UNL     1     -11.630  14.737  69.086  1.00  0.00    -0.303 A  
HETATM    4  C   UNL     1     -11.218  14.675  67.730  1.00  0.00    -0.308 A  
HETATM    5  C   UNL     1     -10.691  16.945  69.320  1.00  0.00    -0.288 A  
HETATM    6  C   UNL     1     -10.592  15.807  67.160  1.00  0.00    -0.313 A  
HETATM    7  C   UNL     1     -11.345  15.854  69.871  1.00  0.00    -0.348 A  
HETATM    8  C   UNL     1     -10.300  16.936  67.969  1.00  0.00    -0.334 A  
BRANCH   4   9
HETATM    9  O   UNL     1     -11.446  13.461  67.151  1.00  0.00    -0.307 OA 
HETATM   10  C   UNL     1     -12.414  13.242  66.151  1.00  0.00    -0.268 C  
ENDBRANCH   4   9
BRANCH   6  11
HETATM   11  O   UNL     1     -10.088  15.847  65.881  1.00  0.00    -0.304 OA 
HETATM   12  C   UNL     1     -10.946  16.443  64.910  1.00  0.00    -0.263 C  
ENDBRANCH   6  11
BRANCH   8  13
HETATM   13  C   UNL     1      -9.546  18.150  67.454  1.00  0.00    -0.275 C  
BRANCH  13  14
HETATM   14  N   UNL     1      -8.085  17.927  67.395  1.00  0.00    -0.209 NA 
HETATM   15  C   UNL     1      -7.478  18.490  66.166  1.00  0.00    -0.248 C  
HETATM   16  C   UNL     1      -7.377  20.031  66.139  1.00  0.00    -0.298 C  
HETATM   17  N   UNL     1      -6.691  20.583  67.322  1.00  0.00    -0.251 NA 
HETATM   18  C   UNL     1      -7.298  20.052  68.552  1.00  0.00    -0.228 C  
HETATM   19  H   UNL     1      -6.677  21.602  67.313  1.00  0.00     0.000 HD 
HETATM   20  C   UNL     1      -7.399  18.510  68.565  1.00  0.00    -0.295 C  
ENDBRANCH  13  14
ENDBRANCH   8  13
ENDBRANCH   2   3
TORSDOF 5
ENDMDL
MODEL       65
REMARK 921   NORMALIZED FREE ENERGY PREDICTED BY IDOCK:   -4.12 KCAL/MOL
REMARK 922        TOTAL FREE ENERGY PREDICTED BY IDOCK:   -5.90 KCAL/MOL
REMARK 923 INTER-LIGAND FREE ENERGY PREDICTED BY IDOCK:   -5.43 KCAL/MOL
REMARK 924 INTRA-LIGAND FREE ENERGY PREDICTED BY IDOCK:   -0.47 KCAL/MOL
REMARK 927      BINDING AFFINITY PREDICTED BY RF-SCORE:    0.00 PKD
ROOT
HETATM    1  C   UNL     1     -11.021  16.364  69.463  1.00  0.00    -0.317 C  
HETATM    2  O   UNL     1     -12.208  15.584  69.383  1.00  0.00    -0.312 OA 
ENDROOT
BRANCH   2   3
HETATM    3  C   UNL     1     -12.049  14.218  69.314  1.00  0.00    -0.313 A  
HETATM    4  C   UNL     1     -12.113  13.306  70.399  1.00  0.00    -0.327 A  
HETATM    5  C   UNL     1     -11.464  12.441  67.793  1.00  0.00    -0.383 A  
HETATM    6  C   UNL     1     -11.912  11.930  70.140  1.00  0.00    -0.332 A  
HETATM    7  C   UNL     1     -11.705  13.785  68.034  1.00  0.00    -0.390 A  
HETATM    8  C   UNL     1     -11.555  11.502  68.836  1.00  0.00    -0.384 A  
BRANCH   4   9
HETATM    9  O   UNL     1     -12.320  13.913  71.603  1.00  0.00    -0.293 OA 
HETATM   10  C   UNL     1     -13.549  13.882  72.292  1.00  0.00    -0.544 C  
ENDBRANCH   4   9
BRANCH   6  11
HETATM   11  O   UNL     1     -11.881  10.960  71.114  1.00  0.00    -0.269 OA 
HETATM   12  C   UNL     1     -13.137  10.344  71.395  1.00  0.00    -0.413 C  
ENDBRANCH   6  11
BRANCH   8  13
HETATM   13  C   UNL     1     -11.229  10.055  68.501  1.00  0.00    -0.123 C  
BRANCH  13  14
HETATM   14  N   UNL     1      -9.877   9.898  67.923  1.00  0.00    -0.141 NA 
HETATM   15  C   UNL     1      -8.983   9.095  68.790  1.00  0.00    -0.136 C  
HETATM   16  C   UNL     1      -9.293   7.582  68.815  1.00  0.00    -0.147 C  
HETATM   17  N   UNL     1      -9.340   6.981  67.469  1.00  0.00    -0.123 NA 
HETATM   18  C   UNL     1     -10.242   7.754  66.601  1.00  0.00    -0.218 C  
HETATM   19  H   UNL     1      -9.593   5.994  67.500  1.00  0.00     0.000 HD 
HETATM   20  C   UNL     1      -9.926   9.267  66.589  1.00  0.00    -0.264 C  
ENDBRANCH  13  14
ENDBRANCH   8  13
ENDBRANCH   2   3
TORSDOF 5
ENDMDL
MODEL       66
REMARK 921   NORMALIZED FREE ENERGY PREDICTED BY IDOCK:   -4.11 KCAL/MOL
REMARK 922        TOTAL FREE ENERGY PREDICTED BY IDOCK:   -5.88 KCAL/MOL
REMARK 923 INTER-LIGAND FREE ENERGY PREDICTED BY IDOCK:   -5.45 KCAL/MOL
REMARK 924 INTRA-LIGAND FREE ENERGY PREDICTED BY IDOCK:   -0.43 KCAL/MOL
REMARK 927      BINDING AFFINITY PREDICTED BY RF-SCORE:    0.00 PKD
ROOT
HETATM    1  C   UNL     1      -8.773   9.480  63.336  1.00  0.00    -0.222 C  
HETATM    2  O   UNL     1      -9.549  10.542  63.880  1.00  0.00    -0.261 OA 
ENDROOT
BRANCH   2   3
HETATM    3  C   UNL     1     -10.023  10.369  65.162  1.00  0.00    -0.322 A  
HETATM    4  C   UNL     1     -10.898  11.240  65.861  1.00  0.00    -0.202 A  
HETATM    5  C   UNL     1      -9.802   8.957  67.102  1.00  0.00    -0.267 A  
HETATM    6  C   UNL     1     -11.272  10.907  67.183  1.00  0.00    -0.184 A  
HETATM    7  C   UNL     1      -9.468   9.255  65.790  1.00  0.00    -0.329 A  
HETATM    8  C   UNL     1     -10.695   9.775  67.816  1.00  0.00    -0.329 A  
BRANCH   4   9
HETATM    9  O   UNL     1     -11.234  12.354  65.149  1.00  0.00    -0.298 OA 
HETATM   10  C   UNL     1     -12.473  12.521  64.498  1.00  0.00    -0.459 C  
ENDBRANCH   4   9
BRANCH   6  11
HETATM   11  O   UNL     1     -12.056  11.701  67.986  1.00  0.00    -0.597 OA 
HETATM   12  C   UNL     1     -11.396  12.837  68.544  1.00  0.00    -0.291 C  
ENDBRANCH   6  11
BRANCH   8  13
HETATM   13  C   UNL     1     -10.973   9.407  69.265  1.00  0.00    -0.117 C  
BRANCH  13  14
HETATM   14  N   UNL     1     -10.170   8.251  69.719  1.00  0.00    -0.199 NA 
HETATM   15  C   UNL     1      -9.441   8.532  70.979  1.00  0.00    -0.186 C  
HETATM   16  C   UNL     1     -10.328   8.583  72.243  1.00  0.00    -0.332 C  
HETATM   17  N   UNL     1     -11.156   7.374  72.414  1.00  0.00    -0.268 NA 
HETATM   18  C   UNL     1     -11.904   7.095  71.179  1.00  0.00    -0.325 C  
HETATM   19  H   UNL     1     -11.770   7.444  73.224  1.00  0.00     0.000 HD 
HETATM   20  C   UNL     1     -11.007   7.053  69.921  1.00  0.00    -0.263 C  
ENDBRANCH  13  14
ENDBRANCH   8  13
ENDBRANCH   2   3
TORSDOF 5
ENDMDL
MODEL       67
REMARK 921   NORMALIZED FREE ENERGY PREDICTED BY IDOCK:   -4.11 KCAL/MOL
REMARK 922        TOTAL FREE ENERGY PREDICTED BY IDOCK:   -5.88 KCAL/MOL
REMARK 923 INTER-LIGAND FREE ENERGY PREDICTED BY IDOCK:   -5.43 KCAL/MOL
REMARK 924 INTRA-LIGAND FREE ENERGY PREDICTED BY IDOCK:   -0.45 KCAL/MOL
REMARK 927      BINDING AFFINITY PREDICTED BY RF-SCORE:    0.00 PKD
ROOT
HETATM    1  C   UNL     1     -13.465  13.419  72.262  1.00  0.00    -0.586 C  
HETATM    2  O   UNL     1     -13.223  13.086  70.900  1.00  0.00    -0.021 OA 
ENDROOT
BRANCH   2   3
HETATM    3  C   UNL     1     -12.409  12.001  70.662  1.00  0.00    -0.304 A  
HETATM    4  C   UNL     1     -11.456  11.876  69.618  1.00  0.00    -0.266 A  
HETATM    5  C   UNL     1     -11.978   9.744  71.390  1.00  0.00    -0.493 A  
HETATM    6  C   UNL     1     -10.713  10.677  69.519  1.00  0.00    -0.251 A  
HETATM    7  C   UNL     1     -12.677  10.935  71.519  1.00  0.00    -0.533 A  
HETATM    8  C   UNL     1     -10.999   9.595  70.393  1.00  0.00    -0.356 A  
BRANCH   4   9
HETATM    9  O   UNL     1     -11.421  12.956  68.786  1.00  0.00    -0.260 OA 
HETATM   10  C   UNL     1     -11.857  12.924  67.446  1.00  0.00    -0.360 C  
ENDBRANCH   4   9
BRANCH   6  11
HETATM   11  O   UNL     1      -9.813  10.409  68.515  1.00  0.00    -0.157 OA 
HETATM   12  C   UNL     1      -8.619  11.189  68.547  1.00  0.00    -0.157 C  
ENDBRANCH   6  11
BRANCH   8  13
HETATM   13  C   UNL     1     -10.311   8.243  70.287  1.00  0.00    -0.209 C  
BRANCH  13  14
HETATM   14  N   UNL     1     -11.262   7.115  70.386  1.00  0.00    -0.279 NA 
HETATM   15  C   UNL     1     -11.284   6.288  69.156  1.00  0.00    -0.371 C  
HETATM   16  C   UNL     1     -10.040   5.395  68.953  1.00  0.00    -0.195 C  
HETATM   17  N   UNL     1      -9.751   4.537  70.117  1.00  0.00    -0.201 NA 
HETATM   18  C   UNL     1      -9.702   5.347  71.343  1.00  0.00    -0.161 C  
HETATM   19  H   UNL     1      -8.900   3.991  69.987  1.00  0.00     0.000 HD 
HETATM   20  C   UNL     1     -10.949   6.240  71.533  1.00  0.00    -0.271 C  
ENDBRANCH  13  14
ENDBRANCH   8  13
ENDBRANCH   2   3
TORSDOF 5
ENDMDL
MODEL       68
REMARK 921   NORMALIZED FREE ENERGY PREDICTED BY IDOCK:   -4.09 KCAL/MOL
REMARK 922        TOTAL FREE ENERGY PREDICTED BY IDOCK:   -5.86 KCAL/MOL
REMARK 923 INTER-LIGAND FREE ENERGY PREDICTED BY IDOCK:   -5.38 KCAL/MOL
REMARK 924 INTRA-LIGAND FREE ENERGY PREDICTED BY IDOCK:   -0.48 KCAL/MOL
REMARK 927      BINDING AFFINITY PREDICTED BY RF-SCORE:    0.00 PKD
ROOT
HETATM    1  C   UNL     1     -12.215  14.707  64.352  1.00  0.00    -0.452 C  
HETATM    2  O   UNL     1     -12.468  13.307  64.407  1.00  0.00    -0.555 OA 
ENDROOT
BRANCH   2   3
HETATM    3  C   UNL     1     -11.731  12.580  65.316  1.00  0.00    -0.386 A  
HETATM    4  C   UNL     1     -10.850  11.508  65.020  1.00  0.00    -0.274 A  
HETATM    5  C   UNL     1     -11.385  12.274  67.682  1.00  0.00    -0.374 A  
HETATM    6  C   UNL     1     -10.183  10.865  66.089  1.00  0.00    -0.249 A  
HETATM    7  C   UNL     1     -12.007  12.937  66.635  1.00  0.00    -0.436 A  
HETATM    8  C   UNL     1     -10.477  11.232  67.428  1.00  0.00    -0.247 A  
BRANCH   4   9
HETATM    9  O   UNL     1     -10.803  11.197  63.693  1.00  0.00    -0.367 OA 
HETATM   10  C   UNL     1      -9.666  11.392  62.885  1.00  0.00    -0.317 C  
ENDBRANCH   4   9
BRANCH   6  11
HETATM   11  O   UNL     1      -9.360   9.774  65.938  1.00  0.00    -0.173 OA 
HETATM   12  C   UNL     1      -7.974  10.076  65.786  1.00  0.00    -0.126 C  
ENDBRANCH   6  11
BRANCH   8  13
HETATM   13  C   UNL     1      -9.874  10.524  68.630  1.00  0.00    -0.178 C  
BRANCH  13  14
HETATM   14  N   UNL     1     -10.818   9.579  69.264  1.00  0.00    -0.218 NA 
HETATM   15  C   UNL     1     -10.615   8.185  68.804  1.00  0.00    -0.121 C  
HETATM   16  C   UNL     1      -9.348   7.498  69.358  1.00  0.00    -0.152 C  
HETATM   17  N   UNL     1      -9.265   7.545  70.830  1.00  0.00    -0.153 NA 
HETATM   18  C   UNL     1      -9.442   8.927  71.302  1.00  0.00    -0.272 C  
HETATM   19  H   UNL     1      -8.400   7.132  71.177  1.00  0.00     0.000 HD 
HETATM   20  C   UNL     1     -10.709   9.606  70.736  1.00  0.00    -0.331 C  
ENDBRANCH  13  14
ENDBRANCH   8  13
ENDBRANCH   2   3
TORSDOF 5
ENDMDL
MODEL       69
REMARK 921   NORMALIZED FREE ENERGY PREDICTED BY IDOCK:   -4.09 KCAL/MOL
REMARK 922        TOTAL FREE ENERGY PREDICTED BY IDOCK:   -5.86 KCAL/MOL
REMARK 923 INTER-LIGAND FREE ENERGY PREDICTED BY IDOCK:   -5.33 KCAL/MOL
REMARK 924 INTRA-LIGAND FREE ENERGY PREDICTED BY IDOCK:   -0.53 KCAL/MOL
REMARK 927      BINDING AFFINITY PREDICTED BY RF-SCORE:    0.00 PKD
ROOT
HETATM    1  C   UNL     1     -10.680   7.969  72.515  1.00  0.00    -0.341 C  
HETATM    2  O   UNL     1     -11.094   7.756  71.171  1.00  0.00    -0.241 OA 
ENDROOT
BRANCH   2   3
HETATM    3  C   UNL     1     -11.222   8.875  70.377  1.00  0.00    -0.230 A  
HETATM    4  C   UNL     1     -10.798   9.006  69.029  1.00  0.00    -0.067 A  
HETATM    5  C   UNL     1     -11.902  11.187  70.437  1.00  0.00    -0.462 A  
HETATM    6  C   UNL     1     -11.002  10.241  68.372  1.00  0.00    -0.260 A  
HETATM    7  C   UNL     1     -11.745   9.965  71.073  1.00  0.00    -0.466 A  
HETATM    8  C   UNL     1     -11.529  11.345  69.091  1.00  0.00    -0.365 A  
BRANCH   4   9
HETATM    9  O   UNL     1     -10.180   7.890  68.547  1.00  0.00    -0.197 OA 
HETATM   10  C   UNL     1     -10.747   7.042  67.574  1.00  0.00    -0.281 C  
ENDBRANCH   4   9
BRANCH   6  11
HETATM   11  O   UNL     1     -10.575  10.513  67.094  1.00  0.00    -0.237 OA 
HETATM   12  C   UNL     1      -9.159  10.580  66.929  1.00  0.00    -0.147 C  
ENDBRANCH   6  11
BRANCH   8  13
HETATM   13  C   UNL     1     -11.687  12.729  68.482  1.00  0.00    -0.333 C  
BRANCH  13  14
HETATM   14  N   UNL     1     -10.474  13.560  68.640  1.00  0.00    -0.245 NA 
HETATM   15  C   UNL     1      -9.956  14.053  67.342  1.00  0.00    -0.243 C  
HETATM   16  C   UNL     1     -10.799  15.172  66.691  1.00  0.00    -0.318 C  
HETATM   17  N   UNL     1     -11.032  16.315  67.592  1.00  0.00    -0.288 NA 
HETATM   18  C   UNL     1     -11.569  15.845  68.878  1.00  0.00    -0.388 C  
HETATM   19  H   UNL     1     -11.631  17.022  67.165  1.00  0.00     0.000 HD 
HETATM   20  C   UNL     1     -10.721  14.722  69.517  1.00  0.00    -0.215 C  
ENDBRANCH  13  14
ENDBRANCH   8  13
ENDBRANCH   2   3
TORSDOF 5
ENDMDL
MODEL       70
REMARK 921   NORMALIZED FREE ENERGY PREDICTED BY IDOCK:   -4.05 KCAL/MOL
REMARK 922        TOTAL FREE ENERGY PREDICTED BY IDOCK:   -5.81 KCAL/MOL
REMARK 923 INTER-LIGAND FREE ENERGY PREDICTED BY IDOCK:   -5.31 KCAL/MOL
REMARK 924 INTRA-LIGAND FREE ENERGY PREDICTED BY IDOCK:   -0.50 KCAL/MOL
REMARK 927      BINDING AFFINITY PREDICTED BY RF-SCORE:    0.00 PKD
ROOT
HETATM    1  C   UNL     1      -6.971  14.125  68.209  1.00  0.00    -0.106 C  
HETATM    2  O   UNL     1      -8.039  13.777  67.336  1.00  0.00    -0.171 OA 
ENDROOT
BRANCH   2   3
HETATM    3  C   UNL     1      -9.122  13.143  67.903  1.00  0.00    -0.207 A  
HETATM    4  C   UNL     1     -10.285  13.766  68.426  1.00  0.00    -0.248 A  
HETATM    5  C   UNL     1      -9.909  10.975  68.607  1.00  0.00    -0.197 A  
HETATM    6  C   UNL     1     -11.296  12.951  68.985  1.00  0.00    -0.290 A  
HETATM    7  C   UNL     1      -8.934  11.766  68.017  1.00  0.00    -0.176 A  
HETATM    8  C   UNL     1     -11.092  11.552  69.102  1.00  0.00    -0.316 A  
BRANCH   4   9
HETATM    9  O   UNL     1     -10.244  15.127  68.361  1.00  0.00    -0.215 OA 
HETATM   10  C   UNL     1     -10.954  15.885  67.408  1.00  0.00    -0.257 C  
ENDBRANCH   4   9
BRANCH   6  11
HETATM   11  O   UNL     1     -12.434  13.438  69.583  1.00  0.00    -0.184 OA 
HETATM   12  C   UNL     1     -12.228  14.097  70.832  1.00  0.00    -0.363 C  
ENDBRANCH   6  11
BRANCH   8  13
HETATM   13  C   UNL     1     -12.089  10.624  69.778  1.00  0.00    -0.272 C  
BRANCH  13  14
HETATM   14  N   UNL     1     -11.840  10.482  71.228  1.00  0.00    -0.295 NA 
HETATM   15  C   UNL     1     -13.096  10.417  72.012  1.00  0.00    -0.416 C  
HETATM   16  C   UNL     1     -13.873   9.089  71.881  1.00  0.00    -0.423 C  
HETATM   17  N   UNL     1     -13.045   7.905  72.181  1.00  0.00    -0.503 NA 
HETATM   18  C   UNL     1     -11.804   7.943  71.393  1.00  0.00    -0.299 C  
HETATM   19  H   UNL     1     -13.559   7.035  72.043  1.00  0.00     0.000 HD 
HETATM   20  C   UNL     1     -11.039   9.279  71.526  1.00  0.00    -0.373 C  
ENDBRANCH  13  14
ENDBRANCH   8  13
ENDBRANCH   2   3
TORSDOF 5
ENDMDL
MODEL       71
REMARK 921   NORMALIZED FREE ENERGY PREDICTED BY IDOCK:   -4.04 KCAL/MOL
REMARK 922        TOTAL FREE ENERGY PREDICTED BY IDOCK:   -5.80 KCAL/MOL
REMARK 923 INTER-LIGAND FREE ENERGY PREDICTED BY IDOCK:   -5.15 KCAL/MOL
REMARK 924 INTRA-LIGAND FREE ENERGY PREDICTED BY IDOCK:   -0.65 KCAL/MOL
REMARK 927      BINDING AFFINITY PREDICTED BY RF-SCORE:    0.00 PKD
ROOT
HETATM    1  C   UNL     1     -11.450  15.742  64.363  1.00  0.00    -0.263 C  
HETATM    2  O   UNL     1     -12.215  14.556  64.545  1.00  0.00    -0.462 OA 
ENDROOT
BRANCH   2   3
HETATM    3  C   UNL     1     -11.578  13.494  65.148  1.00  0.00    -0.316 A  
HETATM    4  C   UNL     1     -11.575  13.190  66.534  1.00  0.00    -0.356 A  
HETATM    5  C   UNL     1     -10.069  11.670  64.695  1.00  0.00    -0.305 A  
HETATM    6  C   UNL     1     -10.851  12.059  66.977  1.00  0.00    -0.253 A  
HETATM    7  C   UNL     1     -10.813  12.751  64.250  1.00  0.00    -0.419 A  
HETATM    8  C   UNL     1     -10.070  11.314  66.055  1.00  0.00    -0.283 A  
BRANCH   4   9
HETATM    9  O   UNL     1     -12.257  14.098  67.288  1.00  0.00    -0.402 OA 
HETATM   10  C   UNL     1     -11.633  15.055  68.113  1.00  0.00    -0.340 C  
ENDBRANCH   4   9
BRANCH   6  11
HETATM   11  O   UNL     1     -10.715  11.700  68.297  1.00  0.00    -0.194 OA 
HETATM   12  C   UNL     1     -11.867  11.094  68.882  1.00  0.00    -0.337 C  
ENDBRANCH   6  11
BRANCH   8  13
HETATM   13  C   UNL     1      -9.191  10.145  66.471  1.00  0.00    -0.153 C  
BRANCH  13  14
HETATM   14  N   UNL     1      -9.711   8.847  65.992  1.00  0.00    -0.261 NA 
HETATM   15  C   UNL     1      -8.625   7.897  65.650  1.00  0.00    -0.138 C  
HETATM   16  C   UNL     1      -7.879   7.301  66.864  1.00  0.00    -0.111 C  
HETATM   17  N   UNL     1      -8.785   6.678  67.847  1.00  0.00    -0.117 NA 
HETATM   18  C   UNL     1      -9.856   7.617  68.215  1.00  0.00    -0.166 C  
HETATM   19  H   UNL     1      -8.282   6.334  68.664  1.00  0.00     0.000 HD 
HETATM   20  C   UNL     1     -10.590   8.211  66.992  1.00  0.00    -0.275 C  
ENDBRANCH  13  14
ENDBRANCH   8  13
ENDBRANCH   2   3
TORSDOF 5
ENDMDL
MODEL       72
REMARK 921   NORMALIZED FREE ENERGY PREDICTED BY IDOCK:   -4.03 KCAL/MOL
REMARK 922        TOTAL FREE ENERGY PREDICTED BY IDOCK:   -5.79 KCAL/MOL
REMARK 923 INTER-LIGAND FREE ENERGY PREDICTED BY IDOCK:   -5.41 KCAL/MOL
REMARK 924 INTRA-LIGAND FREE ENERGY PREDICTED BY IDOCK:   -0.38 KCAL/MOL
REMARK 927      BINDING AFFINITY PREDICTED BY RF-SCORE:    0.00 PKD
ROOT
HETATM    1  C   UNL     1     -13.235  12.950  72.009  1.00  0.00    -0.448 C  
HETATM    2  O   UNL     1     -12.917  11.590  71.738  1.00  0.00    -0.446 OA 
ENDROOT
BRANCH   2   3
HETATM    3  C   UNL     1     -12.125  11.346  70.638  1.00  0.00    -0.372 A  
HETATM    4  C   UNL     1     -11.170  10.305  70.501  1.00  0.00    -0.330 A  
HETATM    5  C   UNL     1     -11.520  12.249  68.486  1.00  0.00    -0.349 A  
HETATM    6  C   UNL     1     -10.434  10.215  69.296  1.00  0.00    -0.225 A  
HETATM    7  C   UNL     1     -12.275  12.315  69.646  1.00  0.00    -0.175 A  
HETATM    8  C   UNL     1     -10.590  11.211  68.297  1.00  0.00    -0.221 A  
BRANCH   4   9
HETATM    9  O   UNL     1     -11.050   9.532  71.617  1.00  0.00    -0.371 OA 
HETATM   10  C   UNL     1     -11.876   8.423  71.892  1.00  0.00    -0.336 C  
ENDBRANCH   4   9
BRANCH   6  11
HETATM   11  O   UNL     1      -9.436   9.298  69.070  1.00  0.00    -0.152 OA 
HETATM   12  C   UNL     1      -8.219   9.539  69.776  1.00  0.00    -0.151 C  
ENDBRANCH   6  11
BRANCH   8  13
HETATM   13  C   UNL     1      -9.767  11.237  67.019  1.00  0.00    -0.186 C  
BRANCH  13  14
HETATM   14  N   UNL     1     -10.445  10.555  65.895  1.00  0.00    -0.197 NA 
HETATM   15  C   UNL     1     -11.145  11.506  64.999  1.00  0.00    -0.201 C  
HETATM   16  C   UNL     1     -10.216  12.352  64.101  1.00  0.00    -0.351 C  
HETATM   17  N   UNL     1      -9.278  11.534  63.311  1.00  0.00    -0.526 NA 
HETATM   18  C   UNL     1      -8.557  10.601  64.189  1.00  0.00    -0.098 C  
HETATM   19  H   UNL     1      -8.640  12.110  62.761  1.00  0.00     0.000 HD 
HETATM   20  C   UNL     1      -9.495   9.764  65.088  1.00  0.00    -0.273 C  
ENDBRANCH  13  14
ENDBRANCH   8  13
ENDBRANCH   2   3
TORSDOF 5
ENDMDL
MODEL       73
REMARK 921   NORMALIZED FREE ENERGY PREDICTED BY IDOCK:   -4.03 KCAL/MOL
REMARK 922        TOTAL FREE ENERGY PREDICTED BY IDOCK:   -5.79 KCAL/MOL
REMARK 923 INTER-LIGAND FREE ENERGY PREDICTED BY IDOCK:   -5.22 KCAL/MOL
REMARK 924 INTRA-LIGAND FREE ENERGY PREDICTED BY IDOCK:   -0.57 KCAL/MOL
REMARK 927      BINDING AFFINITY PREDICTED BY RF-SCORE:    0.00 PKD
ROOT
HETATM    1  C   UNL     1     -10.821  12.529  64.258  1.00  0.00    -0.364 C  
HETATM    2  O   UNL     1     -10.118  12.874  65.446  1.00  0.00    -0.285 OA 
ENDROOT
BRANCH   2   3
HETATM    3  C   UNL     1     -10.142  11.954  66.470  1.00  0.00    -0.203 A  
HETATM    4  C   UNL     1      -9.104  11.052  66.818  1.00  0.00    -0.162 A  
HETATM    5  C   UNL     1     -11.592  11.007  68.148  1.00  0.00    -0.345 A  
HETATM    6  C   UNL     1      -9.312  10.164  67.899  1.00  0.00    -0.141 A  
HETATM    7  C   UNL     1     -11.377  11.910  67.118  1.00  0.00    -0.393 A  
HETATM    8  C   UNL     1     -10.574  10.123  68.546  1.00  0.00    -0.245 A  
BRANCH   4   9
HETATM    9  O   UNL     1      -8.020  11.132  65.994  1.00  0.00    -0.134 OA 
HETATM   10  C   UNL     1      -7.665  10.128  65.071  1.00  0.00    -0.141 C  
ENDBRANCH   4   9
BRANCH   6  11
HETATM   11  O   UNL     1      -8.413   9.200  68.288  1.00  0.00    -0.123 OA 
HETATM   12  C   UNL     1      -7.334   9.668  69.097  1.00  0.00    -0.077 C  
ENDBRANCH   6  11
BRANCH   8  13
HETATM   13  C   UNL     1     -10.905   9.132  69.651  1.00  0.00    -0.197 C  
BRANCH  13  14
HETATM   14  N   UNL     1     -10.791   9.727  70.999  1.00  0.00    -0.334 NA 
HETATM   15  C   UNL     1     -12.111  10.082  71.573  1.00  0.00    -0.387 C  
HETATM   16  C   UNL     1     -12.963   8.878  72.031  1.00  0.00    -0.399 C  
HETATM   17  N   UNL     1     -12.246   7.988  72.964  1.00  0.00    -0.645 NA 
HETATM   18  C   UNL     1     -10.943   7.607  72.399  1.00  0.00    -0.301 C  
HETATM   19  H   UNL     1     -12.804   7.173  73.218  1.00  0.00     0.000 HD 
HETATM   20  C   UNL     1     -10.102   8.819  71.938  1.00  0.00    -0.339 C  
ENDBRANCH  13  14
ENDBRANCH   8  13
ENDBRANCH   2   3
TORSDOF 5
ENDMDL
MODEL       74
REMARK 921   NORMALIZED FREE ENERGY PREDICTED BY IDOCK:   -4.02 KCAL/MOL
REMARK 922        TOTAL FREE ENERGY PREDICTED BY IDOCK:   -5.78 KCAL/MOL
REMARK 923 INTER-LIGAND FREE ENERGY PREDICTED BY IDOCK:   -5.27 KCAL/MOL
REMARK 924 INTRA-LIGAND FREE ENERGY PREDICTED BY IDOCK:   -0.51 KCAL/MOL
REMARK 927      BINDING AFFINITY PREDICTED BY RF-SCORE:    0.00 PKD
ROOT
HETATM    1  C   UNL     1     -12.295  14.890  64.378  1.00  0.00    -0.323 C  
HETATM    2  O   UNL     1     -12.824  13.662  64.863  1.00  0.00    -0.688 OA 
ENDROOT
BRANCH   2   3
HETATM    3  C   UNL     1     -11.944  12.608  64.973  1.00  0.00    -0.419 A  
HETATM    4  C   UNL     1     -11.520  11.986  66.175  1.00  0.00    -0.339 A  
HETATM    5  C   UNL     1     -10.456  11.224  63.676  1.00  0.00    -0.464 A  
HETATM    6  C   UNL     1     -10.596  10.919  66.096  1.00  0.00    -0.206 A  
HETATM    7  C   UNL     1     -11.396  12.241  63.744  1.00  0.00    -0.534 A  
HETATM    8  C   UNL     1     -10.039  10.558  64.842  1.00  0.00    -0.403 A  
BRANCH   4   9
HETATM    9  O   UNL     1     -12.046  12.560  67.295  1.00  0.00    -0.490 OA 
HETATM   10  C   UNL     1     -11.555  13.752  67.866  1.00  0.00    -0.341 C  
ENDBRANCH   4   9
BRANCH   6  11
HETATM   11  O   UNL     1     -10.058  10.283  67.190  1.00  0.00    -0.191 OA 
HETATM   12  C   UNL     1      -9.071  11.029  67.901  1.00  0.00    -0.147 C  
ENDBRANCH   6  11
BRANCH   8  13
HETATM   13  C   UNL     1      -8.970   9.487  64.689  1.00  0.00    -0.221 C  
BRANCH  13  14
HETATM   14  N   UNL     1      -7.711  10.021  64.126  1.00  0.00    -0.142 NA 
HETATM   15  C   UNL     1      -6.674  10.229  65.164  1.00  0.00    -0.120 C  
HETATM   16  C   UNL     1      -6.036   8.933  65.712  1.00  0.00    -0.051 C  
HETATM   17  N   UNL     1      -5.499   8.062  64.650  1.00  0.00    -0.040 NA 
HETATM   18  C   UNL     1      -6.525   7.826  63.622  1.00  0.00    -0.062 C  
HETATM   19  H   UNL     1      -5.126   7.190  65.023  1.00  0.00     0.000 HD 
HETATM   20  C   UNL     1      -7.160   9.129  63.087  1.00  0.00    -0.088 C  
ENDBRANCH  13  14
ENDBRANCH   8  13
ENDBRANCH   2   3
TORSDOF 5
ENDMDL
MODEL       75
REMARK 921   NORMALIZED FREE ENERGY PREDICTED BY IDOCK:   -4.00 KCAL/MOL
REMARK 922        TOTAL FREE ENERGY PREDICTED BY IDOCK:   -5.75 KCAL/MOL
REMARK 923 INTER-LIGAND FREE ENERGY PREDICTED BY IDOCK:   -5.14 KCAL/MOL
REMARK 924 INTRA-LIGAND FREE ENERGY PREDICTED BY IDOCK:   -0.61 KCAL/MOL
REMARK 927      BINDING AFFINITY PREDICTED BY RF-SCORE:    0.00 PKD
ROOT
HETATM    1  C   UNL     1     -11.087  14.707  65.937  1.00  0.00    -0.338 C  
HETATM    2  O   UNL     1     -12.178  14.037  66.558  1.00  0.00    -0.447 OA 
ENDROOT
BRANCH   2   3
HETATM    3  C   UNL     1     -11.878  12.911  67.292  1.00  0.00    -0.356 A  
HETATM    4  C   UNL     1     -11.954  12.780  68.703  1.00  0.00    -0.233 A  
HETATM    5  C   UNL     1     -10.974  10.686  67.085  1.00  0.00    -0.312 A  
HETATM    6  C   UNL     1     -11.592  11.544  69.288  1.00  0.00    -0.322 A  
HETATM    7  C   UNL     1     -11.371  11.880  66.502  1.00  0.00    -0.403 A  
HETATM    8  C   UNL     1     -11.071  10.504  68.476  1.00  0.00    -0.329 A  
BRANCH   4   9
HETATM    9  O   UNL     1     -12.334  13.928  69.333  1.00  0.00    -0.329 OA 
HETATM   10  C   UNL     1     -11.425  14.876  69.844  1.00  0.00    -0.284 C  
ENDBRANCH   4   9
BRANCH   6  11
HETATM   11  O   UNL     1     -11.558  11.315  70.643  1.00  0.00    -0.262 OA 
HETATM   12  C   UNL     1     -12.817  10.998  71.235  1.00  0.00    -0.425 C  
ENDBRANCH   6  11
BRANCH   8  13
HETATM   13  C   UNL     1     -10.571   9.184  69.042  1.00  0.00    -0.199 C  
BRANCH  13  14
HETATM   14  N   UNL     1      -9.101   9.156  69.200  1.00  0.00    -0.142 NA 
HETATM   15  C   UNL     1      -8.681   9.350  70.608  1.00  0.00    -0.211 C  
HETATM   16  C   UNL     1      -8.937   8.140  71.533  1.00  0.00    -0.158 C  
HETATM   17  N   UNL     1      -8.356   6.888  71.017  1.00  0.00    -0.125 NA 
HETATM   18  C   UNL     1      -8.782   6.668  69.626  1.00  0.00    -0.140 C  
HETATM   19  H   UNL     1      -8.575   6.090  71.613  1.00  0.00     0.000 HD 
HETATM   20  C   UNL     1      -8.527   7.887  68.712  1.00  0.00    -0.128 C  
ENDBRANCH  13  14
ENDBRANCH   8  13
ENDBRANCH   2   3
TORSDOF 5
ENDMDL
MODEL       76
REMARK 921   NORMALIZED FREE ENERGY PREDICTED BY IDOCK:   -3.98 KCAL/MOL
REMARK 922        TOTAL FREE ENERGY PREDICTED BY IDOCK:   -5.72 KCAL/MOL
REMARK 923 INTER-LIGAND FREE ENERGY PREDICTED BY IDOCK:   -5.31 KCAL/MOL
REMARK 924 INTRA-LIGAND FREE ENERGY PREDICTED BY IDOCK:   -0.40 KCAL/MOL
REMARK 927      BINDING AFFINITY PREDICTED BY RF-SCORE:    0.00 PKD
ROOT
HETATM    1  C   UNL     1     -11.639  14.677  66.742  1.00  0.00    -0.360 C  
HETATM    2  O   UNL     1     -10.658  14.454  67.748  1.00  0.00    -0.244 OA 
ENDROOT
BRANCH   2   3
HETATM    3  C   UNL     1     -10.597  13.188  68.285  1.00  0.00    -0.248 A  
HETATM    4  C   UNL     1      -9.560  12.238  68.090  1.00  0.00    -0.213 A  
HETATM    5  C   UNL     1     -11.873  11.599  69.574  1.00  0.00    -0.414 A  
HETATM    6  C   UNL     1      -9.673  10.975  68.714  1.00  0.00    -0.191 A  
HETATM    7  C   UNL     1     -11.747  12.856  69.001  1.00  0.00    -0.375 A  
HETATM    8  C   UNL     1     -10.851  10.645  69.434  1.00  0.00    -0.289 A  
BRANCH   4   9
HETATM    9  O   UNL     1      -8.579  12.675  67.250  1.00  0.00    -0.180 OA 
HETATM   10  C   UNL     1      -7.304  13.087  67.686  1.00  0.00    -0.147 C  
ENDBRANCH   4   9
BRANCH   6  11
HETATM   11  O   UNL     1      -8.772   9.950  68.547  1.00  0.00    -0.117 OA 
HETATM   12  C   UNL     1      -8.788   9.333  67.260  1.00  0.00    -0.124 C  
ENDBRANCH   6  11
BRANCH   8  13
HETATM   13  C   UNL     1     -11.087   9.275  70.051  1.00  0.00    -0.205 C  
BRANCH  13  14
HETATM   14  N   UNL     1     -11.439   9.353  71.485  1.00  0.00    -0.376 NA 
HETATM   15  C   UNL     1     -12.859   9.009  71.736  1.00  0.00    -0.374 C  
HETATM   16  C   UNL     1     -13.197   7.508  71.597  1.00  0.00    -0.356 C  
HETATM   17  N   UNL     1     -12.330   6.645  72.421  1.00  0.00    -0.526 NA 
HETATM   18  C   UNL     1     -10.916   6.958  72.166  1.00  0.00    -0.236 C  
HETATM   19  H   UNL     1     -12.533   5.656  72.281  1.00  0.00     0.000 HD 
HETATM   20  C   UNL     1     -10.591   8.462  72.302  1.00  0.00    -0.342 C  
ENDBRANCH  13  14
ENDBRANCH   8  13
ENDBRANCH   2   3
TORSDOF 5
ENDMDL
MODEL       77
REMARK 921   NORMALIZED FREE ENERGY PREDICTED BY IDOCK:   -3.95 KCAL/MOL
REMARK 922        TOTAL FREE ENERGY PREDICTED BY IDOCK:   -5.68 KCAL/MOL
REMARK 923 INTER-LIGAND FREE ENERGY PREDICTED BY IDOCK:   -5.19 KCAL/MOL
REMARK 924 INTRA-LIGAND FREE ENERGY PREDICTED BY IDOCK:   -0.49 KCAL/MOL
REMARK 927      BINDING AFFINITY PREDICTED BY RF-SCORE:    0.00 PKD
ROOT
HETATM    1  C   UNL     1     -11.657  14.972  67.670  1.00  0.00    -0.312 C  
HETATM    2  O   UNL     1     -12.225  13.968  66.838  1.00  0.00    -0.436 OA 
ENDROOT
BRANCH   2   3
HETATM    3  C   UNL     1     -11.575  12.754  66.799  1.00  0.00    -0.370 A  
HETATM    4  C   UNL     1     -10.975  12.156  65.661  1.00  0.00    -0.295 A  
HETATM    5  C   UNL     1     -11.073  10.817  68.142  1.00  0.00    -0.337 A  
HETATM    6  C   UNL     1     -10.359  10.891  65.806  1.00  0.00    -0.241 A  
HETATM    7  C   UNL     1     -11.639  12.076  68.015  1.00  0.00    -0.407 A  
HETATM    8  C   UNL     1     -10.436  10.206  67.047  1.00  0.00    -0.302 A  
BRANCH   4   9
HETATM    9  O   UNL     1     -11.125  12.890  64.522  1.00  0.00    -0.309 OA 
HETATM   10  C   UNL     1     -12.024  12.555  63.489  1.00  0.00    -0.543 C  
ENDBRANCH   4   9
BRANCH   6  11
HETATM   11  O   UNL     1      -9.806  10.180  64.768  1.00  0.00    -0.320 OA 
HETATM   12  C   UNL     1      -8.493  10.588  64.385  1.00  0.00    -0.129 C  
ENDBRANCH   6  11
BRANCH   8  13
HETATM   13  C   UNL     1      -9.883   8.806  67.254  1.00  0.00    -0.201 C  
BRANCH  13  14
HETATM   14  N   UNL     1     -10.902   7.864  67.767  1.00  0.00    -0.096 NA 
HETATM   15  C   UNL     1     -11.072   6.684  66.888  1.00  0.00    -0.249 C  
HETATM   16  C   UNL     1      -9.912   5.665  66.940  1.00  0.00    -0.174 C  
HETATM   17  N   UNL     1      -9.601   5.216  68.309  1.00  0.00    -0.129 NA 
HETATM   18  C   UNL     1      -9.406   6.377  69.191  1.00  0.00    -0.132 C  
HETATM   19  H   UNL     1      -8.802   4.582  68.331  1.00  0.00     0.000 HD 
HETATM   20  C   UNL     1     -10.569   7.392  69.126  1.00  0.00    -0.204 C  
ENDBRANCH  13  14
ENDBRANCH   8  13
ENDBRANCH   2   3
TORSDOF 5
ENDMDL
MODEL       78
REMARK 921   NORMALIZED FREE ENERGY PREDICTED BY IDOCK:   -3.94 KCAL/MOL
REMARK 922        TOTAL FREE ENERGY PREDICTED BY IDOCK:   -5.67 KCAL/MOL
REMARK 923 INTER-LIGAND FREE ENERGY PREDICTED BY IDOCK:   -5.06 KCAL/MOL
REMARK 924 INTRA-LIGAND FREE ENERGY PREDICTED BY IDOCK:   -0.61 KCAL/MOL
REMARK 927      BINDING AFFINITY PREDICTED BY RF-SCORE:    0.00 PKD
ROOT
HETATM    1  C   UNL     1     -12.157  13.396  70.272  1.00  0.00    -0.349 C  
HETATM    2  O   UNL     1     -12.420  12.119  70.842  1.00  0.00    -0.368 OA 
ENDROOT
BRANCH   2   3
HETATM    3  C   UNL     1     -11.772  11.043  70.278  1.00  0.00    -0.355 A  
HETATM    4  C   UNL     1     -11.653   9.744  70.836  1.00  0.00    -0.361 A  
HETATM    5  C   UNL     1     -10.382  10.420  68.410  1.00  0.00    -0.198 A  
HETATM    6  C   UNL     1     -10.936   8.761  70.116  1.00  0.00    -0.223 A  
HETATM    7  C   UNL     1     -11.121  11.375  69.090  1.00  0.00    -0.317 A  
HETATM    8  C   UNL     1     -10.272   9.111  68.911  1.00  0.00    -0.221 A  
BRANCH   4   9
HETATM    9  O   UNL     1     -12.228   9.630  72.067  1.00  0.00    -0.354 OA 
HETATM   10  C   UNL     1     -13.520   9.109  72.280  1.00  0.00    -0.486 C  
ENDBRANCH   4   9
BRANCH   6  11
HETATM   11  O   UNL     1     -10.693   7.490  70.580  1.00  0.00    -0.222 OA 
HETATM   12  C   UNL     1     -11.771   6.569  70.418  1.00  0.00    -0.375 C  
ENDBRANCH   6  11
BRANCH   8  13
HETATM   13  C   UNL     1      -9.404   8.137  68.132  1.00  0.00    -0.133 C  
BRANCH  13  14
HETATM   14  N   UNL     1      -9.974   7.803  66.809  1.00  0.00    -0.252 NA 
HETATM   15  C   UNL     1      -8.927   7.577  65.785  1.00  0.00    -0.036 C  
HETATM   16  C   UNL     1      -8.151   6.250  65.933  1.00  0.00    -0.123 C  
HETATM   17  N   UNL     1      -9.034   5.071  66.000  1.00  0.00    -0.131 NA 
HETATM   18  C   UNL     1     -10.066   5.269  67.029  1.00  0.00    -0.210 C  
HETATM   19  H   UNL     1      -8.510   4.209  66.147  1.00  0.00     0.000 HD 
HETATM   20  C   UNL     1     -10.831   6.603  66.874  1.00  0.00    -0.345 C  
ENDBRANCH  13  14
ENDBRANCH   8  13
ENDBRANCH   2   3
TORSDOF 5
ENDMDL
MODEL       79
REMARK 921   NORMALIZED FREE ENERGY PREDICTED BY IDOCK:   -3.94 KCAL/MOL
REMARK 922        TOTAL FREE ENERGY PREDICTED BY IDOCK:   -5.66 KCAL/MOL
REMARK 923 INTER-LIGAND FREE ENERGY PREDICTED BY IDOCK:   -5.08 KCAL/MOL
REMARK 924 INTRA-LIGAND FREE ENERGY PREDICTED BY IDOCK:   -0.58 KCAL/MOL
REMARK 927      BINDING AFFINITY PREDICTED BY RF-SCORE:    0.00 PKD
ROOT
HETATM    1  C   UNL     1      -9.624   9.248  66.242  1.00  0.00    -0.248 C  
HETATM    2  O   UNL     1     -10.178  10.420  65.656  1.00  0.00    -0.267 OA 
ENDROOT
BRANCH   2   3
HETATM    3  C   UNL     1      -9.968  11.606  66.324  1.00  0.00    -0.217 A  
HETATM    4  C   UNL     1     -10.941  12.600  66.605  1.00  0.00    -0.258 A  
HETATM    5  C   UNL     1      -8.226  12.976  67.274  1.00  0.00    -0.174 A  
HETATM    6  C   UNL     1     -10.538  13.767  67.294  1.00  0.00    -0.275 A  
HETATM    7  C   UNL     1      -8.624  11.810  66.638  1.00  0.00    -0.170 A  
HETATM    8  C   UNL     1      -9.167  13.967  67.603  1.00  0.00    -0.194 A  
BRANCH   4   9
HETATM    9  O   UNL     1     -12.174  12.304  66.105  1.00  0.00    -0.647 OA 
HETATM   10  C   UNL     1     -12.648  12.775  64.864  1.00  0.00    -0.470 C  
ENDBRANCH   4   9
BRANCH   6  11
HETATM   11  O   UNL     1     -11.369  14.828  67.563  1.00  0.00    -0.319 OA 
HETATM   12  C   UNL     1     -12.110  14.725  68.779  1.00  0.00    -0.190 C  
ENDBRANCH   6  11
BRANCH   8  13
HETATM   13  C   UNL     1      -8.644  15.237  68.255  1.00  0.00    -0.159 C  
BRANCH  13  14
HETATM   14  N   UNL     1      -7.798  16.036  67.343  1.00  0.00    -0.147 NA 
HETATM   15  C   UNL     1      -8.548  16.521  66.160  1.00  0.00    -0.299 C  
HETATM   16  C   UNL     1      -9.546  17.664  66.450  1.00  0.00    -0.274 C  
HETATM   17  N   UNL     1      -8.926  18.809  67.141  1.00  0.00    -0.276 NA 
HETATM   18  C   UNL     1      -8.196  18.346  68.332  1.00  0.00    -0.312 C  
HETATM   19  H   UNL     1      -9.608  19.532  67.369  1.00  0.00     0.000 HD 
HETATM   20  C   UNL     1      -7.206  17.200  68.031  1.00  0.00    -0.184 C  
ENDBRANCH  13  14
ENDBRANCH   8  13
ENDBRANCH   2   3
TORSDOF 5
ENDMDL
MODEL       80
REMARK 921   NORMALIZED FREE ENERGY PREDICTED BY IDOCK:   -3.93 KCAL/MOL
REMARK 922        TOTAL FREE ENERGY PREDICTED BY IDOCK:   -5.65 KCAL/MOL
REMARK 923 INTER-LIGAND FREE ENERGY PREDICTED BY IDOCK:   -5.40 KCAL/MOL
REMARK 924 INTRA-LIGAND FREE ENERGY PREDICTED BY IDOCK:   -0.25 KCAL/MOL
REMARK 927      BINDING AFFINITY PREDICTED BY RF-SCORE:    0.00 PKD
ROOT
HETATM    1  C   UNL     1      -9.142   3.358  68.027  1.00  0.00    -0.162 C  
HETATM    2  O   UNL     1      -9.016   3.503  69.437  1.00  0.00    -0.089 OA 
ENDROOT
BRANCH   2   3
HETATM    3  C   UNL     1      -9.806   4.461  70.034  1.00  0.00    -0.223 A  
HETATM    4  C   UNL     1     -10.121   4.551  71.414  1.00  0.00    -0.160 A  
HETATM    5  C   UNL     1     -11.244   6.330  69.534  1.00  0.00    -0.500 A  
HETATM    6  C   UNL     1     -10.963   5.601  71.849  1.00  0.00    -0.235 A  
HETATM    7  C   UNL     1     -10.383   5.330  69.109  1.00  0.00    -0.264 A  
HETATM    8  C   UNL     1     -11.551   6.475  70.898  1.00  0.00    -0.417 A  
BRANCH   4   9
HETATM    9  O   UNL     1      -9.588   3.540  72.158  1.00  0.00    -0.122 OA 
HETATM   10  C   UNL     1     -10.319   2.413  72.584  1.00  0.00    -0.156 C  
ENDBRANCH   4   9
BRANCH   6  11
HETATM   11  O   UNL     1     -11.396   5.755  73.145  1.00  0.00    -0.246 OA 
HETATM   12  C   UNL     1     -10.398   6.187  74.070  1.00  0.00    -0.300 C  
ENDBRANCH   6  11
BRANCH   8  13
HETATM   13  C   UNL     1     -12.540   7.565  71.278  1.00  0.00    -0.314 C  
BRANCH  13  14
HETATM   14  N   UNL     1     -11.927   8.621  72.113  1.00  0.00    -0.367 NA 
HETATM   15  C   UNL     1     -10.596   9.036  71.610  1.00  0.00    -0.364 C  
HETATM   16  C   UNL     1     -10.627   9.887  70.321  1.00  0.00    -0.301 C  
HETATM   17  N   UNL     1     -11.499  11.070  70.434  1.00  0.00    -0.439 NA 
HETATM   18  C   UNL     1     -12.832  10.673  70.910  1.00  0.00    -0.382 C  
HETATM   19  H   UNL     1     -11.546  11.594  69.560  1.00  0.00     0.000 HD 
HETATM   20  C   UNL     1     -12.789   9.817  72.195  1.00  0.00    -0.360 C  
ENDBRANCH  13  14
ENDBRANCH   8  13
ENDBRANCH   2   3
TORSDOF 5
ENDMDL
MODEL       81
REMARK 921   NORMALIZED FREE ENERGY PREDICTED BY IDOCK:   -3.88 KCAL/MOL
REMARK 922        TOTAL FREE ENERGY PREDICTED BY IDOCK:   -5.59 KCAL/MOL
REMARK 923 INTER-LIGAND FREE ENERGY PREDICTED BY IDOCK:   -5.14 KCAL/MOL
REMARK 924 INTRA-LIGAND FREE ENERGY PREDICTED BY IDOCK:   -0.46 KCAL/MOL
REMARK 927      BINDING AFFINITY PREDICTED BY RF-SCORE:    0.00 PKD
ROOT
HETATM    1  C   UNL     1     -10.133  20.284  66.588  1.00  0.00    -0.405 C  
HETATM    2  O   UNL     1      -8.980  19.629  67.104  1.00  0.00    -0.295 OA 
ENDROOT
BRANCH   2   3
HETATM    3  C   UNL     1      -8.927  18.260  66.958  1.00  0.00    -0.274 A  
HETATM    4  C   UNL     1      -7.781  17.439  67.116  1.00  0.00    -0.204 A  
HETATM    5  C   UNL     1     -10.251  16.363  66.281  1.00  0.00    -0.341 A  
HETATM    6  C   UNL     1      -7.912  16.046  66.913  1.00  0.00    -0.248 A  
HETATM    7  C   UNL     1     -10.138  17.723  66.523  1.00  0.00    -0.358 A  
HETATM    8  C   UNL     1      -9.148  15.511  66.464  1.00  0.00    -0.336 A  
BRANCH   4   9
HETATM    9  O   UNL     1      -6.649  18.142  67.406  1.00  0.00    -0.181 OA 
HETATM   10  C   UNL     1      -5.655  18.448  66.454  1.00  0.00    -0.150 C  
ENDBRANCH   4   9
BRANCH   6  11
HETATM   11  O   UNL     1      -6.865  15.157  66.969  1.00  0.00    -0.230 OA 
HETATM   12  C   UNL     1      -6.368  14.888  68.280  1.00  0.00    -0.121 C  
ENDBRANCH   6  11
BRANCH   8  13
HETATM   13  C   UNL     1      -9.340  14.040  66.132  1.00  0.00    -0.115 C  
BRANCH  13  14
HETATM   14  N   UNL     1      -9.323  13.181  67.335  1.00  0.00    -0.205 NA 
HETATM   15  C   UNL     1     -10.438  13.487  68.262  1.00  0.00    -0.253 C  
HETATM   16  C   UNL     1     -11.828  13.016  67.781  1.00  0.00    -0.347 C  
HETATM   17  N   UNL     1     -11.861  11.583  67.431  1.00  0.00    -0.620 NA 
HETATM   18  C   UNL     1     -10.774  11.267  66.492  1.00  0.00    -0.271 C  
HETATM   19  H   UNL     1     -12.771  11.300  67.070  1.00  0.00     0.000 HD 
HETATM   20  C   UNL     1      -9.389  11.749  66.981  1.00  0.00    -0.184 C  
ENDBRANCH  13  14
ENDBRANCH   8  13
ENDBRANCH   2   3
TORSDOF 5
ENDMDL
MODEL       82
REMARK 921   NORMALIZED FREE ENERGY PREDICTED BY IDOCK:   -3.87 KCAL/MOL
REMARK 922        TOTAL FREE ENERGY PREDICTED BY IDOCK:   -5.57 KCAL/MOL
REMARK 923 INTER-LIGAND FREE ENERGY PREDICTED BY IDOCK:   -5.17 KCAL/MOL
REMARK 924 INTRA-LIGAND FREE ENERGY PREDICTED BY IDOCK:   -0.40 KCAL/MOL
REMARK 927      BINDING AFFINITY PREDICTED BY RF-SCORE:    0.00 PKD
ROOT
HETATM    1  C   UNL     1      -9.072  16.474  68.800  1.00  0.00    -0.256 C  
HETATM    2  O   UNL     1     -10.479  16.342  68.960  1.00  0.00    -0.239 OA 
ENDROOT
BRANCH   2   3
HETATM    3  C   UNL     1     -10.962  15.069  69.168  1.00  0.00    -0.261 A  
HETATM    4  C   UNL     1     -12.025  14.701  70.033  1.00  0.00    -0.320 A  
HETATM    5  C   UNL     1     -10.540  12.757  68.627  1.00  0.00    -0.256 A  
HETATM    6  C   UNL     1     -12.379  13.335  70.129  1.00  0.00    -0.236 A  
HETATM    7  C   UNL     1     -10.219  14.100  68.495  1.00  0.00    -0.247 A  
HETATM    8  C   UNL     1     -11.611  12.357  69.445  1.00  0.00    -0.371 A  
BRANCH   4   9
HETATM    9  O   UNL     1     -12.551  15.754  70.721  1.00  0.00    -0.436 OA 
HETATM   10  C   UNL     1     -12.114  16.146  72.002  1.00  0.00    -0.496 C  
ENDBRANCH   4   9
BRANCH   6  11
HETATM   11  O   UNL     1     -13.341  12.847  70.980  1.00  0.00     0.014 OA 
HETATM   12  C   UNL     1     -13.007  12.897  72.367  1.00  0.00    -0.109 C  
ENDBRANCH   6  11
BRANCH   8  13
HETATM   13  C   UNL     1     -11.868  10.864  69.575  1.00  0.00    -0.332 C  
BRANCH  13  14
HETATM   14  N   UNL     1     -10.986  10.222  70.574  1.00  0.00    -0.307 NA 
HETATM   15  C   UNL     1     -11.750   9.580  71.670  1.00  0.00    -0.390 C  
HETATM   16  C   UNL     1     -12.477   8.276  71.277  1.00  0.00    -0.245 C  
HETATM   17  N   UNL     1     -11.580   7.282  70.656  1.00  0.00    -0.347 NA 
HETATM   18  C   UNL     1     -10.832   7.897  69.550  1.00  0.00    -0.136 C  
HETATM   19  H   UNL     1     -12.084   6.447  70.358  1.00  0.00     0.000 HD 
HETATM   20  C   UNL     1     -10.114   9.205  69.954  1.00  0.00    -0.202 C  
ENDBRANCH  13  14
ENDBRANCH   8  13
ENDBRANCH   2   3
TORSDOF 5
ENDMDL
MODEL       83
REMARK 921   NORMALIZED FREE ENERGY PREDICTED BY IDOCK:   -3.85 KCAL/MOL
REMARK 922        TOTAL FREE ENERGY PREDICTED BY IDOCK:   -5.55 KCAL/MOL
REMARK 923 INTER-LIGAND FREE ENERGY PREDICTED BY IDOCK:   -4.99 KCAL/MOL
REMARK 924 INTRA-LIGAND FREE ENERGY PREDICTED BY IDOCK:   -0.56 KCAL/MOL
REMARK 927      BINDING AFFINITY PREDICTED BY RF-SCORE:    0.00 PKD
ROOT
HETATM    1  C   UNL     1      -9.639  10.313  64.087  1.00  0.00    -0.315 C  
HETATM    2  O   UNL     1     -10.340  10.939  65.155  1.00  0.00    -0.279 OA 
ENDROOT
BRANCH   2   3
HETATM    3  C   UNL     1     -10.353  10.275  66.362  1.00  0.00    -0.195 A  
HETATM    4  C   UNL     1     -10.519  10.860  67.644  1.00  0.00    -0.209 A  
HETATM    5  C   UNL     1     -10.011   8.101  67.345  1.00  0.00    -0.271 A  
HETATM    6  C   UNL     1     -10.493  10.019  68.781  1.00  0.00    -0.208 A  
HETATM    7  C   UNL     1     -10.080   8.914  66.225  1.00  0.00    -0.284 A  
HETATM    8  C   UNL     1     -10.207   8.637  68.630  1.00  0.00    -0.214 A  
BRANCH   4   9
HETATM    9  O   UNL     1     -10.634  12.218  67.608  1.00  0.00    -0.209 OA 
HETATM   10  C   UNL     1     -11.859  12.893  67.433  1.00  0.00    -0.360 C  
ENDBRANCH   4   9
BRANCH   6  11
HETATM   11  O   UNL     1     -10.572  10.472  70.076  1.00  0.00    -0.256 OA 
HETATM   12  C   UNL     1     -11.897  10.689  70.562  1.00  0.00    -0.357 C  
ENDBRANCH   6  11
BRANCH   8  13
HETATM   13  C   UNL     1     -10.067   7.688  69.810  1.00  0.00    -0.196 C  
BRANCH  13  14
HETATM   14  N   UNL     1     -11.118   6.648  69.828  1.00  0.00    -0.315 NA 
HETATM   15  C   UNL     1     -10.564   5.291  70.050  1.00  0.00    -0.230 C  
HETATM   16  C   UNL     1     -10.080   5.016  71.491  1.00  0.00    -0.196 C  
HETATM   17  N   UNL     1     -11.111   5.297  72.507  1.00  0.00    -0.245 NA 
HETATM   18  C   UNL     1     -11.655   6.650  72.316  1.00  0.00    -0.278 C  
HETATM   19  H   UNL     1     -10.760   5.158  73.455  1.00  0.00     0.000 HD 
HETATM   20  C   UNL     1     -12.130   6.916  70.870  1.00  0.00    -0.373 C  
ENDBRANCH  13  14
ENDBRANCH   8  13
ENDBRANCH   2   3
TORSDOF 5
ENDMDL
MODEL       84
REMARK 921   NORMALIZED FREE ENERGY PREDICTED BY IDOCK:   -3.81 KCAL/MOL
REMARK 922        TOTAL FREE ENERGY PREDICTED BY IDOCK:   -5.50 KCAL/MOL
REMARK 923 INTER-LIGAND FREE ENERGY PREDICTED BY IDOCK:   -4.84 KCAL/MOL
REMARK 924 INTRA-LIGAND FREE ENERGY PREDICTED BY IDOCK:   -0.65 KCAL/MOL
REMARK 927      BINDING AFFINITY PREDICTED BY RF-SCORE:    0.00 PKD
ROOT
HETATM    1  C   UNL     1     -12.339  13.860  66.649  1.00  0.00    -0.369 C  
HETATM    2  O   UNL     1     -11.063  13.339  67.003  1.00  0.00    -0.272 OA 
ENDROOT
BRANCH   2   3
HETATM    3  C   UNL     1     -11.051  12.167  67.728  1.00  0.00    -0.250 A  
HETATM    4  C   UNL     1     -10.655  10.889  67.257  1.00  0.00    -0.251 A  
HETATM    5  C   UNL     1     -11.686  11.237  69.859  1.00  0.00    -0.430 A  
HETATM    6  C   UNL     1     -10.721   9.790  68.144  1.00  0.00    -0.233 A  
HETATM    7  C   UNL     1     -11.581  12.326  69.008  1.00  0.00    -0.368 A  
HETATM    8  C   UNL     1     -11.268   9.962  69.442  1.00  0.00    -0.196 A  
BRANCH   4   9
HETATM    9  O   UNL     1     -10.297  10.885  65.941  1.00  0.00    -0.251 OA 
HETATM   10  C   UNL     1      -8.962  10.943  65.494  1.00  0.00    -0.197 C  
ENDBRANCH   4   9
BRANCH   6  11
HETATM   11  O   UNL     1     -10.431   8.494  67.787  1.00  0.00    -0.237 OA 
HETATM   12  C   UNL     1      -9.051   8.139  67.862  1.00  0.00    -0.132 C  
ENDBRANCH   6  11
BRANCH   8  13
HETATM   13  C   UNL     1     -11.461   8.811  70.417  1.00  0.00    -0.144 C  
BRANCH  13  14
HETATM   14  N   UNL     1     -10.778   9.042  71.708  1.00  0.00    -0.361 NA 
HETATM   15  C   UNL     1     -11.344   8.216  72.801  1.00  0.00    -0.336 C  
HETATM   16  C   UNL     1     -10.989   6.715  72.729  1.00  0.00    -0.258 C  
HETATM   17  N   UNL     1      -9.537   6.472  72.632  1.00  0.00    -0.151 NA 
HETATM   18  C   UNL     1      -8.963   7.267  71.536  1.00  0.00    -0.129 C  
HETATM   19  H   UNL     1      -9.322   5.479  72.536  1.00  0.00     0.000 HD 
HETATM   20  C   UNL     1      -9.331   8.765  71.614  1.00  0.00    -0.275 C  
ENDBRANCH  13  14
ENDBRANCH   8  13
ENDBRANCH   2   3
TORSDOF 5
ENDMDL
MODEL       85
REMARK 921   NORMALIZED FREE ENERGY PREDICTED BY IDOCK:   -3.81 KCAL/MOL
REMARK 922        TOTAL FREE ENERGY PREDICTED BY IDOCK:   -5.50 KCAL/MOL
REMARK 923 INTER-LIGAND FREE ENERGY PREDICTED BY IDOCK:   -5.05 KCAL/MOL
REMARK 924 INTRA-LIGAND FREE ENERGY PREDICTED BY IDOCK:   -0.45 KCAL/MOL
REMARK 927      BINDING AFFINITY PREDICTED BY RF-SCORE:    0.00 PKD
ROOT
HETATM    1  C   UNL     1      -9.363   1.569  67.987  1.00  0.00    -0.169 C  
HETATM    2  O   UNL     1      -8.668   2.809  68.026  1.00  0.00    -0.085 OA 
ENDROOT
BRANCH   2   3
HETATM    3  C   UNL     1      -9.415   3.930  68.314  1.00  0.00    -0.151 A  
HETATM    4  C   UNL     1      -9.919   4.871  67.379  1.00  0.00    -0.168 A  
HETATM    5  C   UNL     1     -10.256   5.239  70.156  1.00  0.00    -0.350 A  
HETATM    6  C   UNL     1     -10.660   5.974  67.861  1.00  0.00    -0.267 A  
HETATM    7  C   UNL     1      -9.567   4.131  69.686  1.00  0.00    -0.277 A  
HETATM    8  C   UNL     1     -10.802   6.173  69.259  1.00  0.00    -0.418 A  
BRANCH   4   9
HETATM    9  O   UNL     1      -9.561   4.598  66.092  1.00  0.00    -0.152 OA 
HETATM   10  C   UNL     1     -10.475   4.211  65.092  1.00  0.00    -0.155 C  
ENDBRANCH   4   9
BRANCH   6  11
HETATM   11  O   UNL     1     -11.141   6.986  67.065  1.00  0.00    -0.373 OA 
HETATM   12  C   UNL     1     -10.157   7.910  66.599  1.00  0.00    -0.240 C  
ENDBRANCH   6  11
BRANCH   8  13
HETATM   13  C   UNL     1     -11.502   7.385  69.855  1.00  0.00    -0.003 C  
BRANCH  13  14
HETATM   14  N   UNL     1     -11.566   7.333  71.331  1.00  0.00    -0.265 NA 
HETATM   15  C   UNL     1     -11.173   8.617  71.958  1.00  0.00    -0.364 C  
HETATM   16  C   UNL     1     -12.213   9.750  71.820  1.00  0.00    -0.367 C  
HETATM   17  N   UNL     1     -13.554   9.362  72.296  1.00  0.00    -0.535 NA 
HETATM   18  C   UNL     1     -13.969   8.100  71.665  1.00  0.00    -0.395 C  
HETATM   19  H   UNL     1     -14.239  10.103  72.153  1.00  0.00     0.000 HD 
HETATM   20  C   UNL     1     -12.918   6.976  71.804  1.00  0.00    -0.310 C  
ENDBRANCH  13  14
ENDBRANCH   8  13
ENDBRANCH   2   3
TORSDOF 5
ENDMDL
MODEL       86
REMARK 921   NORMALIZED FREE ENERGY PREDICTED BY IDOCK:   -3.79 KCAL/MOL
REMARK 922        TOTAL FREE ENERGY PREDICTED BY IDOCK:   -5.48 KCAL/MOL
REMARK 923 INTER-LIGAND FREE ENERGY PREDICTED BY IDOCK:   -5.40 KCAL/MOL
REMARK 924 INTRA-LIGAND FREE ENERGY PREDICTED BY IDOCK:   -0.08 KCAL/MOL
REMARK 927      BINDING AFFINITY PREDICTED BY RF-SCORE:    0.00 PKD
ROOT
HETATM    1  C   UNL     1     -10.850  19.396  67.409  1.00  0.00    -0.440 C  
HETATM    2  O   UNL     1      -9.972  18.707  66.526  1.00  0.00    -0.337 OA 
ENDROOT
BRANCH   2   3
HETATM    3  C   UNL     1      -9.802  17.359  66.748  1.00  0.00    -0.296 A  
HETATM    4  C   UNL     1      -9.212  16.761  67.892  1.00  0.00    -0.225 A  
HETATM    5  C   UNL     1     -10.047  15.206  65.691  1.00  0.00    -0.392 A  
HETATM    6  C   UNL     1      -9.109  15.352  67.942  1.00  0.00    -0.178 A  
HETATM    7  C   UNL     1     -10.191  16.585  65.655  1.00  0.00    -0.316 A  
HETATM    8  C   UNL     1      -9.501  14.574  66.822  1.00  0.00    -0.284 A  
BRANCH   4   9
HETATM    9  O   UNL     1      -8.759  17.669  68.803  1.00  0.00    -0.278 OA 
HETATM   10  C   UNL     1      -7.510  18.315  68.708  1.00  0.00    -0.283 C  
ENDBRANCH   4   9
BRANCH   6  11
HETATM   11  O   UNL     1      -8.497  14.660  68.961  1.00  0.00    -0.157 OA 
HETATM   12  C   UNL     1      -7.073  14.607  68.888  1.00  0.00    -0.117 C  
ENDBRANCH   6  11
BRANCH   8  13
HETATM   13  C   UNL     1      -9.332  13.064  66.763  1.00  0.00    -0.244 C  
BRANCH  13  14
HETATM   14  N   UNL     1     -10.477  12.391  66.114  1.00  0.00    -0.243 NA 
HETATM   15  C   UNL     1     -10.166  10.992  65.733  1.00  0.00    -0.260 C  
HETATM   16  C   UNL     1     -10.083  10.002  66.916  1.00  0.00    -0.229 C  
HETATM   17  N   UNL     1     -11.285  10.023  67.769  1.00  0.00    -0.471 NA 
HETATM   18  C   UNL     1     -11.594  11.402  68.175  1.00  0.00    -0.294 C  
HETATM   19  H   UNL     1     -11.194   9.400  68.572  1.00  0.00     0.000 HD 
HETATM   20  C   UNL     1     -11.669  12.384  66.985  1.00  0.00    -0.353 C  
ENDBRANCH  13  14
ENDBRANCH   8  13
ENDBRANCH   2   3
TORSDOF 5
ENDMDL
MODEL       87
REMARK 921   NORMALIZED FREE ENERGY PREDICTED BY IDOCK:   -3.78 KCAL/MOL
REMARK 922        TOTAL FREE ENERGY PREDICTED BY IDOCK:   -5.46 KCAL/MOL
REMARK 923 INTER-LIGAND FREE ENERGY PREDICTED BY IDOCK:   -5.07 KCAL/MOL
REMARK 924 INTRA-LIGAND FREE ENERGY PREDICTED BY IDOCK:   -0.39 KCAL/MOL
REMARK 927      BINDING AFFINITY PREDICTED BY RF-SCORE:    0.00 PKD
ROOT
HETATM    1  C   UNL     1     -10.953   7.875  72.828  1.00  0.00    -0.393 C  
HETATM    2  O   UNL     1     -11.453   7.407  71.581  1.00  0.00    -0.251 OA 
ENDROOT
BRANCH   2   3
HETATM    3  C   UNL     1     -11.129   8.147  70.466  1.00  0.00    -0.253 A  
HETATM    4  C   UNL     1     -10.833   7.640  69.174  1.00  0.00    -0.068 A  
HETATM    5  C   UNL     1     -10.650  10.397  69.744  1.00  0.00    -0.302 A  
HETATM    6  C   UNL     1     -10.508   8.555  68.146  1.00  0.00    -0.182 A  
HETATM    7  C   UNL     1     -11.013   9.509  70.745  1.00  0.00    -0.389 A  
HETATM    8  C   UNL     1     -10.386   9.937  68.442  1.00  0.00    -0.226 A  
BRANCH   4   9
HETATM    9  O   UNL     1     -10.855   6.278  69.111  1.00  0.00    -0.268 OA 
HETATM   10  C   UNL     1      -9.754   5.463  69.441  1.00  0.00    -0.165 C  
ENDBRANCH   4   9
BRANCH   6  11
HETATM   11  O   UNL     1     -10.137   8.184  66.875  1.00  0.00    -0.242 OA 
HETATM   12  C   UNL     1      -8.786   7.743  66.742  1.00  0.00    -0.135 C  
ENDBRANCH   6  11
BRANCH   8  13
HETATM   13  C   UNL     1      -9.947  10.968  67.415  1.00  0.00    -0.182 C  
BRANCH  13  14
HETATM   14  N   UNL     1     -10.992  11.977  67.142  1.00  0.00    -0.255 NA 
HETATM   15  C   UNL     1     -10.583  13.339  67.561  1.00  0.00    -0.246 C  
HETATM   16  C   UNL     1      -9.519  14.002  66.658  1.00  0.00    -0.287 C  
HETATM   17  N   UNL     1      -9.903  14.021  65.234  1.00  0.00    -0.579 NA 
HETATM   18  C   UNL     1     -10.290  12.672  64.797  1.00  0.00    -0.312 C  
HETATM   19  H   UNL     1      -9.170  14.418  64.647  1.00  0.00     0.000 HD 
HETATM   20  C   UNL     1     -11.350  12.016  65.710  1.00  0.00    -0.331 C  
ENDBRANCH  13  14
ENDBRANCH   8  13
ENDBRANCH   2   3
TORSDOF 5
ENDMDL
MODEL       88
REMARK 921   NORMALIZED FREE ENERGY PREDICTED BY IDOCK:   -3.76 KCAL/MOL
REMARK 922        TOTAL FREE ENERGY PREDICTED BY IDOCK:   -5.43 KCAL/MOL
REMARK 923 INTER-LIGAND FREE ENERGY PREDICTED BY IDOCK:   -4.82 KCAL/MOL
REMARK 924 INTRA-LIGAND FREE ENERGY PREDICTED BY IDOCK:   -0.61 KCAL/MOL
REMARK 927      BINDING AFFINITY PREDICTED BY RF-SCORE:    0.00 PKD
ROOT
HETATM    1  C   UNL     1     -10.939   6.332  73.451  1.00  0.00    -0.147 C  
HETATM    2  O   UNL     1     -10.619   7.711  73.602  1.00  0.00    -0.306 OA 
ENDROOT
BRANCH   2   3
HETATM    3  C   UNL     1     -10.384   8.422  72.447  1.00  0.00    -0.329 A  
HETATM    4  C   UNL     1     -11.324   9.212  71.736  1.00  0.00    -0.381 A  
HETATM    5  C   UNL     1      -8.704   8.825  70.765  1.00  0.00    -0.224 A  
HETATM    6  C   UNL     1     -10.905   9.866  70.554  1.00  0.00    -0.326 A  
HETATM    7  C   UNL     1      -9.098   8.218  71.947  1.00  0.00    -0.259 A  
HETATM    8  C   UNL     1      -9.596   9.645  70.052  1.00  0.00    -0.281 A  
BRANCH   4   9
HETATM    9  O   UNL     1     -12.572   9.190  72.286  1.00  0.00    -0.376 OA 
HETATM   10  C   UNL     1     -13.667   8.514  71.711  1.00  0.00    -0.407 C  
ENDBRANCH   4   9
BRANCH   6  11
HETATM   11  O   UNL     1     -11.737  10.600  69.744  1.00  0.00    -0.268 OA 
HETATM   12  C   UNL     1     -12.031  11.917  70.210  1.00  0.00    -0.330 C  
ENDBRANCH   6  11
BRANCH   8  13
HETATM   13  C   UNL     1      -9.104  10.235  68.740  1.00  0.00    -0.159 C  
BRANCH  13  14
HETATM   14  N   UNL     1      -8.818   9.198  67.725  1.00  0.00    -0.124 NA 
HETATM   15  C   UNL     1      -9.956   8.984  66.800  1.00  0.00    -0.263 C  
HETATM   16  C   UNL     1     -10.180  10.117  65.774  1.00  0.00    -0.213 C  
HETATM   17  N   UNL     1      -8.968  10.434  64.995  1.00  0.00    -0.183 NA 
HETATM   18  C   UNL     1      -7.833  10.672  65.899  1.00  0.00    -0.150 C  
HETATM   19  H   UNL     1      -9.118  11.216  64.357  1.00  0.00     0.000 HD 
HETATM   20  C   UNL     1      -7.624   9.536  66.925  1.00  0.00    -0.095 C  
ENDBRANCH  13  14
ENDBRANCH   8  13
ENDBRANCH   2   3
TORSDOF 5
ENDMDL
MODEL       89
REMARK 921   NORMALIZED FREE ENERGY PREDICTED BY IDOCK:   -3.76 KCAL/MOL
REMARK 922        TOTAL FREE ENERGY PREDICTED BY IDOCK:   -5.43 KCAL/MOL
REMARK 923 INTER-LIGAND FREE ENERGY PREDICTED BY IDOCK:   -5.07 KCAL/MOL
REMARK 924 INTRA-LIGAND FREE ENERGY PREDICTED BY IDOCK:   -0.36 KCAL/MOL
REMARK 927      BINDING AFFINITY PREDICTED BY RF-SCORE:    0.00 PKD
ROOT
HETATM    1  C   UNL     1      -8.296  10.240  67.971  1.00  0.00    -0.114 C  
HETATM    2  O   UNL     1      -9.142  10.657  66.906  1.00  0.00    -0.153 OA 
ENDROOT
BRANCH   2   3
HETATM    3  C   UNL     1      -9.664  11.929  66.990  1.00  0.00    -0.194 A  
HETATM    4  C   UNL     1     -10.571  12.529  66.079  1.00  0.00    -0.263 A  
HETATM    5  C   UNL     1      -9.511  13.973  68.259  1.00  0.00    -0.216 A  
HETATM    6  C   UNL     1     -10.994  13.857  66.320  1.00  0.00    -0.298 A  
HETATM    7  C   UNL     1      -9.128  12.657  68.052  1.00  0.00    -0.207 A  
HETATM    8  C   UNL     1     -10.436  14.591  67.399  1.00  0.00    -0.264 A  
BRANCH   4   9
HETATM    9  O   UNL     1     -10.885  11.728  65.022  1.00  0.00    -0.282 OA 
HETATM   10  C   UNL     1     -10.322  11.872  63.738  1.00  0.00    -0.415 C  
ENDBRANCH   4   9
BRANCH   6  11
HETATM   11  O   UNL     1     -11.813  14.570  65.477  1.00  0.00    -0.351 OA 
HETATM   12  C   UNL     1     -13.134  14.049  65.333  1.00  0.00    -0.176 C  
ENDBRANCH   6  11
BRANCH   8  13
HETATM   13  C   UNL     1     -10.767  16.051  67.666  1.00  0.00    -0.320 C  
BRANCH  13  14
HETATM   14  N   UNL     1     -10.038  16.970  66.767  1.00  0.00    -0.290 NA 
HETATM   15  C   UNL     1     -10.648  18.320  66.725  1.00  0.00    -0.312 C  
HETATM   16  C   UNL     1     -10.426  19.171  67.995  1.00  0.00    -0.370 C  
HETATM   17  N   UNL     1      -9.004  19.288  68.368  1.00  0.00    -0.341 NA 
HETATM   18  C   UNL     1      -8.389  17.954  68.437  1.00  0.00    -0.304 C  
HETATM   19  H   UNL     1      -8.879  19.811  69.235  1.00  0.00     0.000 HD 
HETATM   20  C   UNL     1      -8.623  17.109  67.165  1.00  0.00    -0.204 C  
ENDBRANCH  13  14
ENDBRANCH   8  13
ENDBRANCH   2   3
TORSDOF 5
ENDMDL
MODEL       90
REMARK 921   NORMALIZED FREE ENERGY PREDICTED BY IDOCK:   -3.74 KCAL/MOL
REMARK 922        TOTAL FREE ENERGY PREDICTED BY IDOCK:   -5.40 KCAL/MOL
REMARK 923 INTER-LIGAND FREE ENERGY PREDICTED BY IDOCK:   -4.84 KCAL/MOL
REMARK 924 INTRA-LIGAND FREE ENERGY PREDICTED BY IDOCK:   -0.57 KCAL/MOL
REMARK 927      BINDING AFFINITY PREDICTED BY RF-SCORE:    0.00 PKD
ROOT
HETATM    1  C   UNL     1     -14.394   8.581  72.060  1.00  0.00    -0.447 C  
HETATM    2  O   UNL     1     -13.042   8.477  72.493  1.00  0.00    -0.324 OA 
ENDROOT
BRANCH   2   3
HETATM    3  C   UNL     1     -12.105   8.176  71.530  1.00  0.00    -0.298 A  
HETATM    4  C   UNL     1     -11.287   9.101  70.830  1.00  0.00    -0.295 A  
HETATM    5  C   UNL     1     -11.233   6.346  70.224  1.00  0.00    -0.445 A  
HETATM    6  C   UNL     1     -10.384   8.608  69.860  1.00  0.00    -0.209 A  
HETATM    7  C   UNL     1     -12.088   6.819  71.207  1.00  0.00    -0.421 A  
HETATM    8  C   UNL     1     -10.381   7.227  69.535  1.00  0.00    -0.230 A  
BRANCH   4   9
HETATM    9  O   UNL     1     -11.531  10.400  71.168  1.00  0.00    -0.311 OA 
HETATM   10  C   UNL     1     -12.249  11.297  70.352  1.00  0.00    -0.365 C  
ENDBRANCH   4   9
BRANCH   6  11
HETATM   11  O   UNL     1      -9.591   9.407  69.071  1.00  0.00    -0.158 OA 
HETATM   12  C   UNL     1      -8.435   9.940  69.716  1.00  0.00    -0.192 C  
ENDBRANCH   6  11
BRANCH   8  13
HETATM   13  C   UNL     1      -9.508   6.638  68.438  1.00  0.00    -0.125 C  
BRANCH  13  14
HETATM   14  N   UNL     1     -10.071   6.856  67.088  1.00  0.00    -0.189 NA 
HETATM   15  C   UNL     1      -9.044   7.293  66.114  1.00  0.00    -0.122 C  
HETATM   16  C   UNL     1      -8.060   6.189  65.670  1.00  0.00    -0.128 C  
HETATM   17  N   UNL     1      -8.740   4.984  65.159  1.00  0.00    -0.147 NA 
HETATM   18  C   UNL     1      -9.747   4.523  66.126  1.00  0.00    -0.207 C  
HETATM   19  H   UNL     1      -8.078   4.246  64.917  1.00  0.00     0.000 HD 
HETATM   20  C   UNL     1     -10.722   5.637  66.567  1.00  0.00    -0.226 C  
ENDBRANCH  13  14
ENDBRANCH   8  13
ENDBRANCH   2   3
TORSDOF 5
ENDMDL
MODEL       91
REMARK 921   NORMALIZED FREE ENERGY PREDICTED BY IDOCK:   -3.74 KCAL/MOL
REMARK 922        TOTAL FREE ENERGY PREDICTED BY IDOCK:   -5.40 KCAL/MOL
REMARK 923 INTER-LIGAND FREE ENERGY PREDICTED BY IDOCK:   -4.92 KCAL/MOL
REMARK 924 INTRA-LIGAND FREE ENERGY PREDICTED BY IDOCK:   -0.48 KCAL/MOL
REMARK 927      BINDING AFFINITY PREDICTED BY RF-SCORE:    0.00 PKD
ROOT
HETATM    1  C   UNL     1     -12.295  12.646  63.210  1.00  0.00    -0.354 C  
HETATM    2  O   UNL     1     -10.942  12.882  63.583  1.00  0.00    -0.401 OA 
ENDROOT
BRANCH   2   3
HETATM    3  C   UNL     1     -10.594  12.573  64.879  1.00  0.00    -0.301 A  
HETATM    4  C   UNL     1     -10.048  13.462  65.840  1.00  0.00    -0.293 A  
HETATM    5  C   UNL     1     -10.390  10.720  66.407  1.00  0.00    -0.306 A  
HETATM    6  C   UNL     1      -9.737  12.962  67.126  1.00  0.00    -0.221 A  
HETATM    7  C   UNL     1     -10.738  11.214  65.160  1.00  0.00    -0.279 A  
HETATM    8  C   UNL     1      -9.881  11.577  67.399  1.00  0.00    -0.202 A  
BRANCH   4   9
HETATM    9  O   UNL     1      -9.841  14.720  65.356  1.00  0.00    -0.345 OA 
HETATM   10  C   UNL     1     -10.834  15.720  65.332  1.00  0.00    -0.364 C  
ENDBRANCH   4   9
BRANCH   6  11
HETATM   11  O   UNL     1      -9.142  13.705  68.118  1.00  0.00    -0.185 OA 
HETATM   12  C   UNL     1     -10.010  14.611  68.799  1.00  0.00    -0.235 C  
ENDBRANCH   6  11
BRANCH   8  13
HETATM   13  C   UNL     1      -9.478  10.949  68.723  1.00  0.00    -0.190 C  
BRANCH  13  14
HETATM   14  N   UNL     1      -9.873   9.527  68.820  1.00  0.00    -0.164 NA 
HETATM   15  C   UNL     1      -8.766   8.666  69.300  1.00  0.00    -0.133 C  
HETATM   16  C   UNL     1      -8.435   8.814  70.802  1.00  0.00    -0.173 C  
HETATM   17  N   UNL     1      -9.613   8.630  71.671  1.00  0.00    -0.248 NA 
HETATM   18  C   UNL     1     -10.713   9.496  71.221  1.00  0.00    -0.316 C  
HETATM   19  H   UNL     1      -9.388   8.779  72.654  1.00  0.00     0.000 HD 
HETATM   20  C   UNL     1     -11.031   9.344  69.717  1.00  0.00    -0.215 C  
ENDBRANCH  13  14
ENDBRANCH   8  13
ENDBRANCH   2   3
TORSDOF 5
ENDMDL
MODEL       92
REMARK 921   NORMALIZED FREE ENERGY PREDICTED BY IDOCK:   -3.73 KCAL/MOL
REMARK 922        TOTAL FREE ENERGY PREDICTED BY IDOCK:   -5.40 KCAL/MOL
REMARK 923 INTER-LIGAND FREE ENERGY PREDICTED BY IDOCK:   -5.01 KCAL/MOL
REMARK 924 INTRA-LIGAND FREE ENERGY PREDICTED BY IDOCK:   -0.39 KCAL/MOL
REMARK 927      BINDING AFFINITY PREDICTED BY RF-SCORE:    0.00 PKD
ROOT
HETATM    1  C   UNL     1     -13.277  10.722  71.903  1.00  0.00    -0.419 C  
HETATM    2  O   UNL     1     -11.988  10.146  71.724  1.00  0.00    -0.319 OA 
ENDROOT
BRANCH   2   3
HETATM    3  C   UNL     1     -11.559   9.978  70.426  1.00  0.00    -0.302 A  
HETATM    4  C   UNL     1     -10.623   9.016  69.965  1.00  0.00    -0.228 A  
HETATM    5  C   UNL     1     -11.708  10.955  68.227  1.00  0.00    -0.259 A  
HETATM    6  C   UNL     1     -10.290   9.000  68.591  1.00  0.00    -0.209 A  
HETATM    7  C   UNL     1     -12.073  10.947  69.565  1.00  0.00    -0.380 A  
HETATM    8  C   UNL     1     -10.813   9.995  67.725  1.00  0.00    -0.337 A  
BRANCH   4   9
HETATM    9  O   UNL     1     -10.113   8.238  70.962  1.00  0.00    -0.185 OA 
HETATM   10  C   UNL     1      -9.070   8.649  71.817  1.00  0.00    -0.247 C  
ENDBRANCH   4   9
BRANCH   6  11
HETATM   11  O   UNL     1      -9.349   8.164  68.037  1.00  0.00    -0.136 OA 
HETATM   12  C   UNL     1      -7.992   8.519  68.303  1.00  0.00    -0.114 C  
ENDBRANCH   6  11
BRANCH   8  13
HETATM   13  C   UNL     1     -10.427  10.101  66.259  1.00  0.00    -0.122 C  
BRANCH  13  14
HETATM   14  N   UNL     1      -9.287  11.016  66.038  1.00  0.00    -0.194 NA 
HETATM   15  C   UNL     1      -8.370  10.529  64.980  1.00  0.00    -0.140 C  
HETATM   16  C   UNL     1      -8.918  10.650  63.541  1.00  0.00    -0.208 C  
HETATM   17  N   UNL     1      -9.368  12.015  63.210  1.00  0.00    -0.668 NA 
HETATM   18  C   UNL     1     -10.298  12.505  64.238  1.00  0.00    -0.370 C  
HETATM   19  H   UNL     1      -9.771  12.067  62.275  1.00  0.00     0.000 HD 
HETATM   20  C   UNL     1      -9.742  12.373  65.674  1.00  0.00    -0.172 C  
ENDBRANCH  13  14
ENDBRANCH   8  13
ENDBRANCH   2   3
TORSDOF 5
ENDMDL
MODEL       93
REMARK 921   NORMALIZED FREE ENERGY PREDICTED BY IDOCK:   -3.73 KCAL/MOL
REMARK 922        TOTAL FREE ENERGY PREDICTED BY IDOCK:   -5.40 KCAL/MOL
REMARK 923 INTER-LIGAND FREE ENERGY PREDICTED BY IDOCK:   -4.86 KCAL/MOL
REMARK 924 INTRA-LIGAND FREE ENERGY PREDICTED BY IDOCK:   -0.53 KCAL/MOL
REMARK 927      BINDING AFFINITY PREDICTED BY RF-SCORE:    0.00 PKD
ROOT
HETATM    1  C   UNL     1     -13.157  12.087  71.883  1.00  0.00    -0.370 C  
HETATM    2  O   UNL     1     -12.247  11.709  70.857  1.00  0.00    -0.364 OA 
ENDROOT
BRANCH   2   3
HETATM    3  C   UNL     1     -11.825  10.398  70.854  1.00  0.00    -0.377 A  
HETATM    4  C   UNL     1     -10.917   9.807  69.938  1.00  0.00    -0.264 A  
HETATM    5  C   UNL     1     -12.198   8.273  71.929  1.00  0.00    -0.383 A  
HETATM    6  C   UNL     1     -10.607   8.435  70.081  1.00  0.00    -0.233 A  
HETATM    7  C   UNL     1     -12.471   9.628  71.820  1.00  0.00    -0.487 A  
HETATM    8  C   UNL     1     -11.275   7.659  71.064  1.00  0.00    -0.283 A  
BRANCH   4   9
HETATM    9  O   UNL     1     -10.487  10.668  68.971  1.00  0.00    -0.191 OA 
HETATM   10  C   UNL     1     -11.038  10.725  67.675  1.00  0.00    -0.319 C  
ENDBRANCH   4   9
BRANCH   6  11
HETATM   11  O   UNL     1      -9.798   7.734  69.219  1.00  0.00    -0.168 OA 
HETATM   12  C   UNL     1      -8.398   7.848  69.473  1.00  0.00    -0.131 C  
ENDBRANCH   6  11
BRANCH   8  13
HETATM   13  C   UNL     1     -11.068   6.160  71.216  1.00  0.00    -0.291 C  
BRANCH  13  14
HETATM   14  N   UNL     1      -9.922   5.833  72.092  1.00  0.00    -0.174 NA 
HETATM   15  C   UNL     1     -10.311   5.746  73.519  1.00  0.00    -0.236 C  
HETATM   16  C   UNL     1     -11.127   4.489  73.893  1.00  0.00    -0.194 C  
HETATM   17  N   UNL     1     -10.468   3.234  73.487  1.00  0.00    -0.150 NA 
HETATM   18  C   UNL     1     -10.097   3.295  72.065  1.00  0.00    -0.108 C  
HETATM   19  H   UNL     1     -11.042   2.417  73.697  1.00  0.00     0.000 HD 
HETATM   20  C   UNL     1      -9.287   4.559  71.702  1.00  0.00    -0.140 C  
ENDBRANCH  13  14
ENDBRANCH   8  13
ENDBRANCH   2   3
TORSDOF 5
ENDMDL
MODEL       94
REMARK 921   NORMALIZED FREE ENERGY PREDICTED BY IDOCK:   -3.72 KCAL/MOL
REMARK 922        TOTAL FREE ENERGY PREDICTED BY IDOCK:   -5.39 KCAL/MOL
REMARK 923 INTER-LIGAND FREE ENERGY PREDICTED BY IDOCK:   -4.81 KCAL/MOL
REMARK 924 INTRA-LIGAND FREE ENERGY PREDICTED BY IDOCK:   -0.58 KCAL/MOL
REMARK 927      BINDING AFFINITY PREDICTED BY RF-SCORE:    0.00 PKD
ROOT
HETATM    1  C   UNL     1     -12.151  13.050  70.225  1.00  0.00    -0.314 C  
HETATM    2  O   UNL     1     -12.252  11.777  69.597  1.00  0.00    -0.262 OA 
ENDROOT
BRANCH   2   3
HETATM    3  C   UNL     1     -11.682  10.713  70.259  1.00  0.00    -0.344 A  
HETATM    4  C   UNL     1     -10.434  10.106  69.962  1.00  0.00    -0.274 A  
HETATM    5  C   UNL     1     -12.120   9.079  71.976  1.00  0.00    -0.440 A  
HETATM    6  C   UNL     1     -10.011   9.008  70.745  1.00  0.00    -0.245 A  
HETATM    7  C   UNL     1     -12.519  10.184  71.241  1.00  0.00    -0.510 A  
HETATM    8  C   UNL     1     -10.874   8.474  71.737  1.00  0.00    -0.374 A  
BRANCH   4   9
HETATM    9  O   UNL     1      -9.808  10.658  68.882  1.00  0.00    -0.185 OA 
HETATM   10  C   UNL     1      -9.853  10.104  67.587  1.00  0.00    -0.172 C  
ENDBRANCH   4   9
BRANCH   6  11
HETATM   11  O   UNL     1      -8.859   8.295  70.514  1.00  0.00    -0.138 OA 
HETATM   12  C   UNL     1      -7.665   8.893  71.017  1.00  0.00    -0.132 C  
ENDBRANCH   6  11
BRANCH   8  13
HETATM   13  C   UNL     1     -10.531   7.237  72.553  1.00  0.00    -0.237 C  
BRANCH  13  14
HETATM   14  N   UNL     1     -11.170   6.014  72.022  1.00  0.00    -0.276 NA 
HETATM   15  C   UNL     1     -10.256   5.232  71.156  1.00  0.00    -0.224 C  
HETATM   16  C   UNL     1      -9.135   4.481  71.908  1.00  0.00    -0.130 C  
HETATM   17  N   UNL     1      -9.645   3.617  72.989  1.00  0.00    -0.116 NA 
HETATM   18  C   UNL     1     -10.536   4.385  73.872  1.00  0.00    -0.234 C  
HETATM   19  H   UNL     1      -8.890   3.168  73.506  1.00  0.00     0.000 HD 
HETATM   20  C   UNL     1     -11.649   5.136  73.108  1.00  0.00    -0.203 C  
ENDBRANCH  13  14
ENDBRANCH   8  13
ENDBRANCH   2   3
TORSDOF 5
ENDMDL
MODEL       95
REMARK 921   NORMALIZED FREE ENERGY PREDICTED BY IDOCK:   -3.67 KCAL/MOL
REMARK 922        TOTAL FREE ENERGY PREDICTED BY IDOCK:   -5.32 KCAL/MOL
REMARK 923 INTER-LIGAND FREE ENERGY PREDICTED BY IDOCK:   -4.76 KCAL/MOL
REMARK 924 INTRA-LIGAND FREE ENERGY PREDICTED BY IDOCK:   -0.56 KCAL/MOL
REMARK 927      BINDING AFFINITY PREDICTED BY RF-SCORE:    0.00 PKD
ROOT
HETATM    1  C   UNL     1     -11.340  14.099  69.222  1.00  0.00    -0.281 C  
HETATM    2  O   UNL     1     -11.957  12.874  68.842  1.00  0.00    -0.300 OA 
ENDROOT
BRANCH   2   3
HETATM    3  C   UNL     1     -11.500  11.732  69.461  1.00  0.00    -0.295 A  
HETATM    4  C   UNL     1     -12.129  11.044  70.531  1.00  0.00    -0.377 A  
HETATM    5  C   UNL     1      -9.620  10.225  69.535  1.00  0.00    -0.225 A  
HETATM    6  C   UNL     1     -11.505   9.887  71.052  1.00  0.00    -0.388 A  
HETATM    7  C   UNL     1     -10.249  11.334  68.990  1.00  0.00    -0.169 A  
HETATM    8  C   UNL     1     -10.229   9.495  70.570  1.00  0.00    -0.349 A  
BRANCH   4   9
HETATM    9  O   UNL     1     -13.273  11.647  70.962  1.00  0.00    -0.094 OA 
HETATM   10  C   UNL     1     -13.335  12.486  72.093  1.00  0.00    -0.435 C  
ENDBRANCH   4   9
BRANCH   6  11
HETATM   11  O   UNL     1     -11.978   9.175  72.129  1.00  0.00    -0.354 OA 
HETATM   12  C   UNL     1     -12.865   8.105  71.806  1.00  0.00    -0.333 C  
ENDBRANCH   6  11
BRANCH   8  13
HETATM   13  C   UNL     1      -9.452   8.322  71.146  1.00  0.00    -0.164 C  
BRANCH  13  14
HETATM   14  N   UNL     1      -8.593   8.714  72.283  1.00  0.00    -0.377 NA 
HETATM   15  C   UNL     1      -8.913   7.960  73.518  1.00  0.00    -0.281 C  
HETATM   16  C   UNL     1      -8.459   6.484  73.512  1.00  0.00    -0.122 C  
HETATM   17  N   UNL     1      -7.027   6.324  73.197  1.00  0.00    -0.075 NA 
HETATM   18  C   UNL     1      -6.697   7.048  71.960  1.00  0.00    -0.057 C  
HETATM   19  H   UNL     1      -6.754   5.342  73.149  1.00  0.00     0.000 HD 
HETATM   20  C   UNL     1      -7.162   8.521  71.975  1.00  0.00    -0.083 C  
ENDBRANCH  13  14
ENDBRANCH   8  13
ENDBRANCH   2   3
TORSDOF 5
ENDMDL
MODEL       96
REMARK 921   NORMALIZED FREE ENERGY PREDICTED BY IDOCK:   -3.67 KCAL/MOL
REMARK 922        TOTAL FREE ENERGY PREDICTED BY IDOCK:   -5.32 KCAL/MOL
REMARK 923 INTER-LIGAND FREE ENERGY PREDICTED BY IDOCK:   -4.89 KCAL/MOL
REMARK 924 INTRA-LIGAND FREE ENERGY PREDICTED BY IDOCK:   -0.43 KCAL/MOL
REMARK 927      BINDING AFFINITY PREDICTED BY RF-SCORE:    0.00 PKD
ROOT
HETATM    1  C   UNL     1     -10.289  18.352  67.757  1.00  0.00    -0.405 C  
HETATM    2  O   UNL     1      -9.647  17.458  66.855  1.00  0.00    -0.258 OA 
ENDROOT
BRANCH   2   3
HETATM    3  C   UNL     1      -9.869  16.113  67.052  1.00  0.00    -0.245 A  
HETATM    4  C   UNL     1     -10.268  15.172  66.068  1.00  0.00    -0.307 A  
HETATM    5  C   UNL     1      -9.993  14.434  68.777  1.00  0.00    -0.223 A  
HETATM    6  C   UNL     1     -10.461  13.826  66.458  1.00  0.00    -0.282 A  
HETATM    7  C   UNL     1      -9.758  15.745  68.392  1.00  0.00    -0.203 A  
HETATM    8  C   UNL     1     -10.352  13.464  67.826  1.00  0.00    -0.241 A  
BRANCH   4   9
HETATM    9  O   UNL     1     -10.467  15.727  64.839  1.00  0.00    -0.499 OA 
HETATM   10  C   UNL     1     -11.737  16.075  64.336  1.00  0.00    -0.134 C  
ENDBRANCH   4   9
BRANCH   6  11
HETATM   11  O   UNL     1     -10.912  12.838  65.615  1.00  0.00    -0.267 OA 
HETATM   12  C   UNL     1     -12.328  12.783  65.448  1.00  0.00    -0.470 C  
ENDBRANCH   6  11
BRANCH   8  13
HETATM   13  C   UNL     1     -10.639  12.061  68.335  1.00  0.00    -0.217 C  
BRANCH  13  14
HETATM   14  N   UNL     1      -9.406  11.278  68.565  1.00  0.00    -0.181 NA 
HETATM   15  C   UNL     1      -9.595  10.214  69.580  1.00  0.00    -0.221 C  
HETATM   16  C   UNL     1     -10.432   9.006  69.104  1.00  0.00    -0.225 C  
HETATM   17  N   UNL     1      -9.921   8.409  67.856  1.00  0.00    -0.174 NA 
HETATM   18  C   UNL     1      -9.750   9.449  66.830  1.00  0.00    -0.198 C  
HETATM   19  H   UNL     1     -10.512   7.645  67.529  1.00  0.00     0.000 HD 
HETATM   20  C   UNL     1      -8.918  10.655  67.319  1.00  0.00    -0.136 C  
ENDBRANCH  13  14
ENDBRANCH   8  13
ENDBRANCH   2   3
TORSDOF 5
ENDMDL
MODEL       97
REMARK 921   NORMALIZED FREE ENERGY PREDICTED BY IDOCK:   -3.67 KCAL/MOL
REMARK 922        TOTAL FREE ENERGY PREDICTED BY IDOCK:   -5.32 KCAL/MOL
REMARK 923 INTER-LIGAND FREE ENERGY PREDICTED BY IDOCK:   -5.45 KCAL/MOL
REMARK 924 INTRA-LIGAND FREE ENERGY PREDICTED BY IDOCK:    0.13 KCAL/MOL
REMARK 927      BINDING AFFINITY PREDICTED BY RF-SCORE:    0.00 PKD
ROOT
HETATM    1  C   UNL     1      -5.801  18.868  68.779  1.00  0.00    -0.210 C  
HETATM    2  O   UNL     1      -7.223  18.901  68.819  1.00  0.00    -0.297 OA 
ENDROOT
BRANCH   2   3
HETATM    3  C   UNL     1      -7.885  17.866  68.197  1.00  0.00    -0.266 A  
HETATM    4  C   UNL     1      -7.867  16.501  68.584  1.00  0.00    -0.226 A  
HETATM    5  C   UNL     1      -9.218  17.347  66.257  1.00  0.00    -0.234 A  
HETATM    6  C   UNL     1      -8.601  15.569  67.814  1.00  0.00    -0.152 A  
HETATM    7  C   UNL     1      -8.537  18.272  67.033  1.00  0.00    -0.259 A  
HETATM    8  C   UNL     1      -9.254  15.992  66.628  1.00  0.00    -0.276 A  
BRANCH   4   9
HETATM    9  O   UNL     1      -7.068  16.255  69.661  1.00  0.00    -0.197 OA 
HETATM   10  C   UNL     1      -5.931  15.423  69.618  1.00  0.00    -0.130 C  
ENDBRANCH   4   9
BRANCH   6  11
HETATM   11  O   UNL     1      -8.607  14.214  68.045  1.00  0.00    -0.154 OA 
HETATM   12  C   UNL     1      -7.546  13.488  67.423  1.00  0.00    -0.128 C  
ENDBRANCH   6  11
BRANCH   8  13
HETATM   13  C   UNL     1      -9.982  15.034  65.698  1.00  0.00    -0.355 C  
BRANCH  13  14
HETATM   14  N   UNL     1     -11.449  15.209  65.740  1.00  0.00    -0.240 NA 
HETATM   15  C   UNL     1     -12.079  15.010  64.413  1.00  0.00    -0.359 C  
HETATM   16  C   UNL     1     -12.133  13.542  63.934  1.00  0.00    -0.438 C  
HETATM   17  N   UNL     1     -12.764  12.640  64.916  1.00  0.00    -0.778 NA 
HETATM   18  C   UNL     1     -12.134  12.808  66.234  1.00  0.00    -0.332 C  
HETATM   19  H   UNL     1     -12.748  11.669  64.607  1.00  0.00     0.000 HD 
HETATM   20  C   UNL     1     -12.080  14.281  66.699  1.00  0.00    -0.420 C  
ENDBRANCH  13  14
ENDBRANCH   8  13
ENDBRANCH   2   3
TORSDOF 5
ENDMDL
MODEL       98
REMARK 921   NORMALIZED FREE ENERGY PREDICTED BY IDOCK:   -3.65 KCAL/MOL
REMARK 922        TOTAL FREE ENERGY PREDICTED BY IDOCK:   -5.29 KCAL/MOL
REMARK 923 INTER-LIGAND FREE ENERGY PREDICTED BY IDOCK:   -4.75 KCAL/MOL
REMARK 924 INTRA-LIGAND FREE ENERGY PREDICTED BY IDOCK:   -0.54 KCAL/MOL
REMARK 927      BINDING AFFINITY PREDICTED BY RF-SCORE:    0.00 PKD
ROOT
HETATM    1  C   UNL     1     -11.509  15.232  69.124  1.00  0.00    -0.316 C  
HETATM    2  O   UNL     1     -12.463  14.177  69.086  1.00  0.00    -0.231 OA 
ENDROOT
BRANCH   2   3
HETATM    3  C   UNL     1     -12.028  12.966  68.596  1.00  0.00    -0.247 A  
HETATM    4  C   UNL     1     -11.789  11.788  69.351  1.00  0.00    -0.334 A  
HETATM    5  C   UNL     1     -11.238  11.894  66.587  1.00  0.00    -0.384 A  
HETATM    6  C   UNL     1     -11.330  10.633  68.677  1.00  0.00    -0.281 A  
HETATM    7  C   UNL     1     -11.731  13.016  67.235  1.00  0.00    -0.429 A  
HETATM    8  C   UNL     1     -11.024  10.698  67.293  1.00  0.00    -0.348 A  
BRANCH   4   9
HETATM    9  O   UNL     1     -11.997  11.953  70.689  1.00  0.00    -0.342 OA 
HETATM   10  C   UNL     1     -13.031  11.315  71.403  1.00  0.00    -0.379 C  
ENDBRANCH   4   9
BRANCH   6  11
HETATM   11  O   UNL     1     -10.998   9.456  69.305  1.00  0.00    -0.208 OA 
HETATM   12  C   UNL     1      -9.857   9.525  70.159  1.00  0.00    -0.244 C  
ENDBRANCH   6  11
BRANCH   8  13
HETATM   13  C   UNL     1     -10.436   9.528  66.520  1.00  0.00    -0.131 C  
BRANCH  13  14
HETATM   14  N   UNL     1      -8.961   9.473  66.611  1.00  0.00    -0.143 NA 
HETATM   15  C   UNL     1      -8.462   8.098  66.849  1.00  0.00    -0.119 C  
HETATM   16  C   UNL     1      -8.555   7.154  65.630  1.00  0.00    -0.107 C  
HETATM   17  N   UNL     1      -7.913   7.707  64.423  1.00  0.00    -0.183 NA 
HETATM   18  C   UNL     1      -8.415   9.064  64.159  1.00  0.00    -0.170 C  
HETATM   19  H   UNL     1      -8.026   7.094  63.616  1.00  0.00     0.000 HD 
HETATM   20  C   UNL     1      -8.323   9.997  65.387  1.00  0.00    -0.151 C  
ENDBRANCH  13  14
ENDBRANCH   8  13
ENDBRANCH   2   3
TORSDOF 5
ENDMDL
MODEL       99
REMARK 921   NORMALIZED FREE ENERGY PREDICTED BY IDOCK:   -3.62 KCAL/MOL
REMARK 922        TOTAL FREE ENERGY PREDICTED BY IDOCK:   -5.25 KCAL/MOL
REMARK 923 INTER-LIGAND FREE ENERGY PREDICTED BY IDOCK:   -4.91 KCAL/MOL
REMARK 924 INTRA-LIGAND FREE ENERGY PREDICTED BY IDOCK:   -0.35 KCAL/MOL
REMARK 927      BINDING AFFINITY PREDICTED BY RF-SCORE:    0.00 PKD
ROOT
HETATM    1  C   UNL     1      -8.638   6.023  64.659  1.00  0.00     0.074 C  
HETATM    2  O   UNL     1      -8.355   6.683  65.887  1.00  0.00    -0.125 OA 
ENDROOT
BRANCH   2   3
HETATM    3  C   UNL     1      -8.860   7.956  66.037  1.00  0.00    -0.158 A  
HETATM    4  C   UNL     1      -9.574   8.453  67.157  1.00  0.00    -0.179 A  
HETATM    5  C   UNL     1      -9.175  10.033  64.855  1.00  0.00    -0.291 A  
HETATM    6  C   UNL     1     -10.030   9.791  67.131  1.00  0.00    -0.198 A  
HETATM    7  C   UNL     1      -8.687   8.736  64.894  1.00  0.00    -0.161 A  
HETATM    8  C   UNL     1      -9.855  10.574  65.960  1.00  0.00    -0.277 A  
BRANCH   4   9
HETATM    9  O   UNL     1      -9.776   7.516  68.128  1.00  0.00    -0.149 OA 
HETATM   10  C   UNL     1     -11.041   6.982  68.447  1.00  0.00     0.001 C  
ENDBRANCH   4   9
BRANCH   6  11
HETATM   11  O   UNL     1     -10.790  10.366  68.122  1.00  0.00    -0.224 OA 
HETATM   12  C   UNL     1     -10.153  10.460  69.396  1.00  0.00    -0.229 C  
ENDBRANCH   6  11
BRANCH   8  13
HETATM   13  C   UNL     1     -10.402  11.986  65.820  1.00  0.00    -0.254 C  
BRANCH  13  14
HETATM   14  N   UNL     1     -11.857  12.007  65.559  1.00  0.00    -0.410 NA 
HETATM   15  C   UNL     1     -12.492  13.269  66.008  1.00  0.00    -0.321 C  
HETATM   16  C   UNL     1     -12.181  14.499  65.128  1.00  0.00    -0.346 C  
HETATM   17  N   UNL     1     -12.484  14.279  63.702  1.00  0.00    -1.083 NA 
HETATM   18  C   UNL     1     -11.841  13.041  63.234  1.00  0.00    -0.364 C  
HETATM   19  H   UNL     1     -12.228  15.082  63.128  1.00  0.00     0.000 HD 
HETATM   20  C   UNL     1     -12.154  11.819  64.125  1.00  0.00    -0.214 C  
ENDBRANCH  13  14
ENDBRANCH   8  13
ENDBRANCH   2   3
TORSDOF 5
ENDMDL
MODEL      100
REMARK 921   NORMALIZED FREE ENERGY PREDICTED BY IDOCK:   -3.61 KCAL/MOL
REMARK 922        TOTAL FREE ENERGY PREDICTED BY IDOCK:   -5.24 KCAL/MOL
REMARK 923 INTER-LIGAND FREE ENERGY PREDICTED BY IDOCK:   -4.69 KCAL/MOL
REMARK 924 INTRA-LIGAND FREE ENERGY PREDICTED BY IDOCK:   -0.55 KCAL/MOL
REMARK 927      BINDING AFFINITY PREDICTED BY RF-SCORE:    0.00 PKD
ROOT
HETATM    1  C   UNL     1     -13.048   9.818  71.884  1.00  0.00    -0.446 C  
HETATM    2  O   UNL     1     -11.915  10.566  71.458  1.00  0.00    -0.300 OA 
ENDROOT
BRANCH   2   3
HETATM    3  C   UNL     1     -11.464  10.334  70.178  1.00  0.00    -0.309 A  
HETATM    4  C   UNL     1     -11.660  11.173  69.050  1.00  0.00    -0.324 A  
HETATM    5  C   UNL     1     -10.371   8.675  68.813  1.00  0.00    -0.228 A  
HETATM    6  C   UNL     1     -11.134  10.765  67.803  1.00  0.00    -0.318 A  
HETATM    7  C   UNL     1     -10.846   9.091  70.047  1.00  0.00    -0.247 A  
HETATM    8  C   UNL     1     -10.513   9.495  67.680  1.00  0.00    -0.321 A  
BRANCH   4   9
HETATM    9  O   UNL     1     -12.406  12.281  69.325  1.00  0.00    -0.110 OA 
HETATM   10  C   UNL     1     -11.858  13.497  69.782  1.00  0.00    -0.329 C  
ENDBRANCH   4   9
BRANCH   6  11
HETATM   11  O   UNL     1     -11.316  11.454  66.628  1.00  0.00    -0.355 OA 
HETATM   12  C   UNL     1     -10.545  12.648  66.500  1.00  0.00    -0.253 C  
ENDBRANCH   6  11
BRANCH   8  13
HETATM   13  C   UNL     1     -10.009   8.946  66.354  1.00  0.00    -0.284 C  
BRANCH  13  14
HETATM   14  N   UNL     1      -8.596   9.296  66.097  1.00  0.00    -0.130 NA 
HETATM   15  C   UNL     1      -7.742   8.099  65.915  1.00  0.00    -0.091 C  
HETATM   16  C   UNL     1      -7.941   7.358  64.575  1.00  0.00    -0.122 C  
HETATM   17  N   UNL     1      -7.802   8.242  63.402  1.00  0.00    -0.146 NA 
HETATM   18  C   UNL     1      -8.662   9.425  63.556  1.00  0.00    -0.204 C  
HETATM   19  H   UNL     1      -7.985   7.749  62.529  1.00  0.00     0.000 HD 
HETATM   20  C   UNL     1      -8.458  10.154  64.903  1.00  0.00    -0.172 C  
ENDBRANCH  13  14
ENDBRANCH   8  13
ENDBRANCH   2   3
TORSDOF 5
ENDMDL
MODEL      101
REMARK 921   NORMALIZED FREE ENERGY PREDICTED BY IDOCK:   -3.58 KCAL/MOL
REMARK 922        TOTAL FREE ENERGY PREDICTED BY IDOCK:   -5.20 KCAL/MOL
REMARK 923 INTER-LIGAND FREE ENERGY PREDICTED BY IDOCK:   -4.61 KCAL/MOL
REMARK 924 INTRA-LIGAND FREE ENERGY PREDICTED BY IDOCK:   -0.59 KCAL/MOL
REMARK 927      BINDING AFFINITY PREDICTED BY RF-SCORE:    0.00 PKD
ROOT
HETATM    1  C   UNL     1      -7.927   8.039  66.608  1.00  0.00    -0.102 C  
HETATM    2  O   UNL     1      -7.868   9.009  65.569  1.00  0.00    -0.092 OA 
ENDROOT
BRANCH   2   3
HETATM    3  C   UNL     1      -8.385  10.254  65.853  1.00  0.00    -0.145 A  
HETATM    4  C   UNL     1      -9.450  10.899  65.174  1.00  0.00    -0.227 A  
HETATM    5  C   UNL     1      -8.033  12.193  67.242  1.00  0.00    -0.176 A  
HETATM    6  C   UNL     1      -9.841  12.190  65.599  1.00  0.00    -0.237 A  
HETATM    7  C   UNL     1      -7.675  10.909  66.859  1.00  0.00    -0.135 A  
HETATM    8  C   UNL     1      -9.108  12.851  66.618  1.00  0.00    -0.181 A  
BRANCH   4   9
HETATM    9  O   UNL     1      -9.939  10.176  64.126  1.00  0.00    -0.278 OA 
HETATM   10  C   UNL     1      -9.567  10.396  62.784  1.00  0.00    -0.275 C  
ENDBRANCH   4   9
BRANCH   6  11
HETATM   11  O   UNL     1     -10.810  12.944  64.980  1.00  0.00    -0.283 OA 
HETATM   12  C   UNL     1     -12.154  12.570  65.281  1.00  0.00    -0.444 C  
ENDBRANCH   6  11
BRANCH   8  13
HETATM   13  C   UNL     1      -9.406  14.274  67.062  1.00  0.00    -0.241 C  
BRANCH  13  14
HETATM   14  N   UNL     1      -9.644  14.375  68.518  1.00  0.00    -0.215 NA 
HETATM   15  C   UNL     1      -9.853  15.774  68.959  1.00  0.00    -0.240 C  
HETATM   16  C   UNL     1     -11.215  16.383  68.560  1.00  0.00    -0.334 C  
HETATM   17  N   UNL     1     -12.361  15.558  68.986  1.00  0.00    -0.611 NA 
HETATM   18  C   UNL     1     -12.180  14.170  68.535  1.00  0.00    -0.169 C  
HETATM   19  H   UNL     1     -13.249  15.949  68.672  1.00  0.00     0.000 HD 
HETATM   20  C   UNL     1     -10.812  13.574  68.935  1.00  0.00    -0.224 C  
ENDBRANCH  13  14
ENDBRANCH   8  13
ENDBRANCH   2   3
TORSDOF 5
ENDMDL
MODEL      102
REMARK 921   NORMALIZED FREE ENERGY PREDICTED BY IDOCK:   -3.56 KCAL/MOL
REMARK 922        TOTAL FREE ENERGY PREDICTED BY IDOCK:   -5.18 KCAL/MOL
REMARK 923 INTER-LIGAND FREE ENERGY PREDICTED BY IDOCK:   -4.66 KCAL/MOL
REMARK 924 INTRA-LIGAND FREE ENERGY PREDICTED BY IDOCK:   -0.52 KCAL/MOL
REMARK 927      BINDING AFFINITY PREDICTED BY RF-SCORE:    0.00 PKD
ROOT
HETATM    1  C   UNL     1      -9.957  17.826  66.817  1.00  0.00    -0.333 C  
HETATM    2  O   UNL     1      -9.411  17.039  65.765  1.00  0.00    -0.518 OA 
ENDROOT
BRANCH   2   3
HETATM    3  C   UNL     1      -9.458  15.672  65.926  1.00  0.00    -0.341 A  
HETATM    4  C   UNL     1     -10.292  14.768  65.219  1.00  0.00    -0.398 A  
HETATM    5  C   UNL     1      -8.599  13.883  67.295  1.00  0.00    -0.221 A  
HETATM    6  C   UNL     1     -10.213  13.390  65.527  1.00  0.00    -0.290 A  
HETATM    7  C   UNL     1      -8.641  15.229  66.965  1.00  0.00    -0.256 A  
HETATM    8  C   UNL     1      -9.383  12.952  66.592  1.00  0.00    -0.240 A  
BRANCH   4   9
HETATM    9  O   UNL     1     -11.130  15.384  64.336  1.00  0.00    -0.293 OA 
HETATM   10  C   UNL     1     -12.533  15.247  64.365  1.00  0.00    -0.029 C  
ENDBRANCH   4   9
BRANCH   6  11
HETATM   11  O   UNL     1     -11.015  12.427  64.963  1.00  0.00    -0.282 OA 
HETATM   12  C   UNL     1     -10.678  12.066  63.624  1.00  0.00    -0.449 C  
ENDBRANCH   6  11
BRANCH   8  13
HETATM   13  C   UNL     1      -9.317  11.502  67.046  1.00  0.00    -0.178 C  
BRANCH  13  14
HETATM   14  N   UNL     1      -8.394  10.692  66.222  1.00  0.00    -0.149 NA 
HETATM   15  C   UNL     1      -7.200  10.252  66.982  1.00  0.00    -0.091 C  
HETATM   16  C   UNL     1      -7.466   9.137  68.018  1.00  0.00    -0.084 C  
HETATM   17  N   UNL     1      -8.139   7.961  67.437  1.00  0.00    -0.121 NA 
HETATM   18  C   UNL     1      -9.340   8.379  66.699  1.00  0.00    -0.191 C  
HETATM   19  H   UNL     1      -8.351   7.256  68.143  1.00  0.00     0.000 HD 
HETATM   20  C   UNL     1      -9.063   9.498  65.670  1.00  0.00    -0.201 C  
ENDBRANCH  13  14
ENDBRANCH   8  13
ENDBRANCH   2   3
TORSDOF 5
ENDMDL
MODEL      103
REMARK 921   NORMALIZED FREE ENERGY PREDICTED BY IDOCK:   -3.56 KCAL/MOL
REMARK 922        TOTAL FREE ENERGY PREDICTED BY IDOCK:   -5.18 KCAL/MOL
REMARK 923 INTER-LIGAND FREE ENERGY PREDICTED BY IDOCK:   -4.56 KCAL/MOL
REMARK 924 INTRA-LIGAND FREE ENERGY PREDICTED BY IDOCK:   -0.62 KCAL/MOL
REMARK 927      BINDING AFFINITY PREDICTED BY RF-SCORE:    0.00 PKD
ROOT
HETATM    1  C   UNL     1      -9.485   5.761  66.361  1.00  0.00    -0.156 C  
HETATM    2  O   UNL     1      -8.632   6.899  66.391  1.00  0.00    -0.122 OA 
ENDROOT
BRANCH   2   3
HETATM    3  C   UNL     1      -9.239   8.131  66.277  1.00  0.00    -0.191 A  
HETATM    4  C   UNL     1      -8.914   9.147  65.341  1.00  0.00    -0.207 A  
HETATM    5  C   UNL     1     -10.867   9.559  67.336  1.00  0.00    -0.215 A  
HETATM    6  C   UNL     1      -9.640  10.360  65.380  1.00  0.00    -0.246 A  
HETATM    7  C   UNL     1     -10.189   8.352  67.273  1.00  0.00    -0.349 A  
HETATM    8  C   UNL     1     -10.600  10.577  66.403  1.00  0.00    -0.218 A  
BRANCH   4   9
HETATM    9  O   UNL     1      -7.868   8.821  64.531  1.00  0.00    -0.115 OA 
HETATM   10  C   UNL     1      -8.017   8.195  63.276  1.00  0.00    -0.149 C  
ENDBRANCH   4   9
BRANCH   6  11
HETATM   11  O   UNL     1      -9.375  11.442  64.575  1.00  0.00    -0.183 OA 
HETATM   12  C   UNL     1      -9.902  11.357  63.252  1.00  0.00    -0.404 C  
ENDBRANCH   6  11
BRANCH   8  13
HETATM   13  C   UNL     1     -11.350  11.889  66.568  1.00  0.00    -0.341 C  
BRANCH  13  14
HETATM   14  N   UNL     1     -10.916  12.643  67.764  1.00  0.00    -0.225 NA 
HETATM   15  C   UNL     1      -9.557  13.212  67.609  1.00  0.00    -0.210 C  
HETATM   16  C   UNL     1      -9.466  14.420  66.650  1.00  0.00    -0.283 C  
HETATM   17  N   UNL     1     -10.413  15.498  66.991  1.00  0.00    -0.298 NA 
HETATM   18  C   UNL     1     -11.772  14.952  67.126  1.00  0.00    -0.277 C  
HETATM   19  H   UNL     1     -10.375  16.265  66.321  1.00  0.00     0.000 HD 
HETATM   20  C   UNL     1     -11.850  13.741  68.082  1.00  0.00    -0.376 C  
ENDBRANCH  13  14
ENDBRANCH   8  13
ENDBRANCH   2   3
TORSDOF 5
ENDMDL
MODEL      104
REMARK 921   NORMALIZED FREE ENERGY PREDICTED BY IDOCK:   -3.56 KCAL/MOL
REMARK 922        TOTAL FREE ENERGY PREDICTED BY IDOCK:   -5.18 KCAL/MOL
REMARK 923 INTER-LIGAND FREE ENERGY PREDICTED BY IDOCK:   -4.73 KCAL/MOL
REMARK 924 INTRA-LIGAND FREE ENERGY PREDICTED BY IDOCK:   -0.45 KCAL/MOL
REMARK 927      BINDING AFFINITY PREDICTED BY RF-SCORE:    0.00 PKD
ROOT
HETATM    1  C   UNL     1      -9.936   3.949  65.105  1.00  0.00    -0.170 C  
HETATM    2  O   UNL     1      -9.046   4.215  66.183  1.00  0.00    -0.124 OA 
ENDROOT
BRANCH   2   3
HETATM    3  C   UNL     1      -9.601   4.731  67.332  1.00  0.00    -0.159 A  
HETATM    4  C   UNL     1      -9.461   4.208  68.644  1.00  0.00    -0.156 A  
HETATM    5  C   UNL     1     -11.116   6.433  68.121  1.00  0.00    -0.358 A  
HETATM    6  C   UNL     1     -10.117   4.867  69.709  1.00  0.00    -0.249 A  
HETATM    7  C   UNL     1     -10.439   5.817  67.080  1.00  0.00    -0.342 A  
HETATM    8  C   UNL     1     -10.973   5.967  69.440  1.00  0.00    -0.455 A  
BRANCH   4   9
HETATM    9  O   UNL     1      -8.723   3.063  68.693  1.00  0.00    -0.083 OA 
HETATM   10  C   UNL     1      -7.330   3.040  68.912  1.00  0.00    -0.048 C  
ENDBRANCH   4   9
BRANCH   6  11
HETATM   11  O   UNL     1     -10.115   4.421  71.010  1.00  0.00    -0.189 OA 
HETATM   12  C   UNL     1      -8.935   4.725  71.753  1.00  0.00    -0.131 C  
ENDBRANCH   6  11
BRANCH   8  13
HETATM   13  C   UNL     1     -11.786   6.666  70.518  1.00  0.00    -0.394 C  
BRANCH  13  14
HETATM   14  N   UNL     1     -10.961   7.558  71.360  1.00  0.00    -0.230 NA 
HETATM   15  C   UNL     1     -10.510   8.766  70.629  1.00  0.00    -0.210 C  
HETATM   16  C   UNL     1     -11.614   9.814  70.366  1.00  0.00    -0.258 C  
HETATM   17  N   UNL     1     -12.326  10.220  71.593  1.00  0.00    -0.384 NA 
HETATM   18  C   UNL     1     -12.800   9.033  72.319  1.00  0.00    -0.406 C  
HETATM   19  H   UNL     1     -13.082  10.875  71.396  1.00  0.00     0.000 HD 
HETATM   20  C   UNL     1     -11.689   7.989  72.570  1.00  0.00    -0.387 C  
ENDBRANCH  13  14
ENDBRANCH   8  13
ENDBRANCH   2   3
TORSDOF 5
ENDMDL
MODEL      105
REMARK 921   NORMALIZED FREE ENERGY PREDICTED BY IDOCK:   -3.56 KCAL/MOL
REMARK 922        TOTAL FREE ENERGY PREDICTED BY IDOCK:   -5.17 KCAL/MOL
REMARK 923 INTER-LIGAND FREE ENERGY PREDICTED BY IDOCK:   -4.64 KCAL/MOL
REMARK 924 INTRA-LIGAND FREE ENERGY PREDICTED BY IDOCK:   -0.53 KCAL/MOL
REMARK 927      BINDING AFFINITY PREDICTED BY RF-SCORE:    0.00 PKD
ROOT
HETATM    1  C   UNL     1     -10.615  11.413  64.542  1.00  0.00    -0.328 C  
HETATM    2  O   UNL     1      -9.934  10.167  64.626  1.00  0.00    -0.328 OA 
ENDROOT
BRANCH   2   3
HETATM    3  C   UNL     1      -9.788   9.623  65.883  1.00  0.00    -0.288 A  
HETATM    4  C   UNL     1      -8.997   8.496  66.227  1.00  0.00    -0.168 A  
HETATM    5  C   UNL     1     -10.614   9.793  68.141  1.00  0.00    -0.276 A  
HETATM    6  C   UNL     1      -8.978   8.069  67.575  1.00  0.00    -0.138 A  
HETATM    7  C   UNL     1     -10.602  10.243  66.830  1.00  0.00    -0.282 A  
HETATM    8  C   UNL     1      -9.815   8.703  68.529  1.00  0.00    -0.183 A  
BRANCH   4   9
HETATM    9  O   UNL     1      -8.377   7.924  65.156  1.00  0.00    -0.146 OA 
HETATM   10  C   UNL     1      -7.055   8.222  64.769  1.00  0.00    -0.080 C  
ENDBRANCH   4   9
BRANCH   6  11
HETATM   11  O   UNL     1      -8.308   6.954  68.020  1.00  0.00    -0.120 OA 
HETATM   12  C   UNL     1      -6.916   7.144  68.273  1.00  0.00    -0.076 C  
ENDBRANCH   6  11
BRANCH   8  13
HETATM   13  C   UNL     1      -9.922   8.240  69.973  1.00  0.00    -0.188 C  
BRANCH  13  14
HETATM   14  N   UNL     1     -11.315   7.949  70.374  1.00  0.00    -0.238 NA 
HETATM   15  C   UNL     1     -11.578   6.495  70.482  1.00  0.00    -0.393 C  
HETATM   16  C   UNL     1     -10.941   5.811  71.712  1.00  0.00    -0.256 C  
HETATM   17  N   UNL     1     -11.294   6.469  72.984  1.00  0.00    -0.469 NA 
HETATM   18  C   UNL     1     -11.017   7.911  72.901  1.00  0.00    -0.388 C  
HETATM   19  H   UNL     1     -10.827   6.036  73.780  1.00  0.00     0.000 HD 
HETATM   20  C   UNL     1     -11.653   8.583  71.664  1.00  0.00    -0.299 C  
ENDBRANCH  13  14
ENDBRANCH   8  13
ENDBRANCH   2   3
TORSDOF 5
ENDMDL
MODEL      106
REMARK 921   NORMALIZED FREE ENERGY PREDICTED BY IDOCK:   -3.55 KCAL/MOL
REMARK 922        TOTAL FREE ENERGY PREDICTED BY IDOCK:   -5.16 KCAL/MOL
REMARK 923 INTER-LIGAND FREE ENERGY PREDICTED BY IDOCK:   -4.73 KCAL/MOL
REMARK 924 INTRA-LIGAND FREE ENERGY PREDICTED BY IDOCK:   -0.43 KCAL/MOL
REMARK 927      BINDING AFFINITY PREDICTED BY RF-SCORE:    0.00 PKD
ROOT
HETATM    1  C   UNL     1      -9.078   3.960  70.449  1.00  0.00    -0.118 C  
HETATM    2  O   UNL     1     -10.274   4.729  70.515  1.00  0.00    -0.233 OA 
ENDROOT
BRANCH   2   3
HETATM    3  C   UNL     1     -10.258   5.954  69.885  1.00  0.00    -0.218 A  
HETATM    4  C   UNL     1     -10.061   7.217  70.502  1.00  0.00    -0.195 A  
HETATM    5  C   UNL     1     -10.636   7.004  67.748  1.00  0.00    -0.298 A  
HETATM    6  C   UNL     1     -10.089   8.377  69.694  1.00  0.00    -0.199 A  
HETATM    7  C   UNL     1     -10.565   5.860  68.528  1.00  0.00    -0.317 A  
HETATM    8  C   UNL     1     -10.409   8.270  68.316  1.00  0.00    -0.242 A  
BRANCH   4   9
HETATM    9  O   UNL     1      -9.914   7.139  71.855  1.00  0.00    -0.168 OA 
HETATM   10  C   UNL     1     -10.968   7.348  72.768  1.00  0.00    -0.339 C  
ENDBRANCH   4   9
BRANCH   6  11
HETATM   11  O   UNL     1      -9.980   9.658  70.182  1.00  0.00    -0.230 OA 
HETATM   12  C   UNL     1     -11.210  10.260  70.583  1.00  0.00    -0.325 C  
ENDBRANCH   6  11
BRANCH   8  13
HETATM   13  C   UNL     1     -10.554   9.479  67.404  1.00  0.00    -0.271 C  
BRANCH  13  14
HETATM   14  N   UNL     1      -9.293   9.821  66.713  1.00  0.00    -0.148 NA 
HETATM   15  C   UNL     1      -9.439   9.816  65.238  1.00  0.00    -0.279 C  
HETATM   16  C   UNL     1     -10.234  11.009  64.662  1.00  0.00    -0.330 C  
HETATM   17  N   UNL     1      -9.708  12.316  65.099  1.00  0.00    -0.441 NA 
HETATM   18  C   UNL     1      -9.578  12.345  66.563  1.00  0.00    -0.240 C  
HETATM   19  H   UNL     1     -10.272  13.090  64.750  1.00  0.00     0.000 HD 
HETATM   20  C   UNL     1      -8.787  11.144  67.128  1.00  0.00    -0.143 C  
ENDBRANCH  13  14
ENDBRANCH   8  13
ENDBRANCH   2   3
TORSDOF 5
ENDMDL
MODEL      107
REMARK 921   NORMALIZED FREE ENERGY PREDICTED BY IDOCK:   -3.52 KCAL/MOL
REMARK 922        TOTAL FREE ENERGY PREDICTED BY IDOCK:   -5.13 KCAL/MOL
REMARK 923 INTER-LIGAND FREE ENERGY PREDICTED BY IDOCK:   -4.61 KCAL/MOL
REMARK 924 INTRA-LIGAND FREE ENERGY PREDICTED BY IDOCK:   -0.51 KCAL/MOL
REMARK 927      BINDING AFFINITY PREDICTED BY RF-SCORE:    0.00 PKD
ROOT
HETATM    1  C   UNL     1      -9.918   7.966  69.661  1.00  0.00    -0.191 C  
HETATM    2  O   UNL     1     -10.901   8.707  68.947  1.00  0.00    -0.133 OA 
ENDROOT
BRANCH   2   3
HETATM    3  C   UNL     1     -10.738  10.074  68.906  1.00  0.00    -0.219 A  
HETATM    4  C   UNL     1     -11.659  11.048  69.373  1.00  0.00    -0.312 A  
HETATM    5  C   UNL     1      -9.269  11.795  68.073  1.00  0.00    -0.181 A  
HETATM    6  C   UNL     1     -11.326  12.415  69.236  1.00  0.00    -0.254 A  
HETATM    7  C   UNL     1      -9.570  10.453  68.245  1.00  0.00    -0.152 A  
HETATM    8  C   UNL     1     -10.138  12.789  68.555  1.00  0.00    -0.189 A  
BRANCH   4   9
HETATM    9  O   UNL     1     -12.811  10.509  69.864  1.00  0.00    -0.153 OA 
HETATM   10  C   UNL     1     -13.082  10.365  71.239  1.00  0.00    -0.399 C  
ENDBRANCH   4   9
BRANCH   6  11
HETATM   11  O   UNL     1     -12.162  13.450  69.585  1.00  0.00    -0.291 OA 
HETATM   12  C   UNL     1     -12.179  13.772  70.976  1.00  0.00    -0.319 C  
ENDBRANCH   6  11
BRANCH   8  13
HETATM   13  C   UNL     1      -9.761  14.236  68.285  1.00  0.00    -0.221 C  
BRANCH  13  14
HETATM   14  N   UNL     1     -10.429  14.782  67.084  1.00  0.00    -0.263 NA 
HETATM   15  C   UNL     1     -11.203  16.010  67.379  1.00  0.00    -0.085 C  
HETATM   16  C   UNL     1     -10.347  17.270  67.637  1.00  0.00    -0.350 C  
HETATM   17  N   UNL     1      -9.386  17.544  66.553  1.00  0.00    -0.262 NA 
HETATM   18  C   UNL     1      -8.592  16.340  66.264  1.00  0.00    -0.339 C  
HETATM   19  H   UNL     1      -8.796  18.349  66.762  1.00  0.00     0.000 HD 
HETATM   20  C   UNL     1      -9.459  15.086  66.014  1.00  0.00    -0.302 C  
ENDBRANCH  13  14
ENDBRANCH   8  13
ENDBRANCH   2   3
TORSDOF 5
ENDMDL
MODEL      108
REMARK 921   NORMALIZED FREE ENERGY PREDICTED BY IDOCK:   -3.50 KCAL/MOL
REMARK 922        TOTAL FREE ENERGY PREDICTED BY IDOCK:   -5.10 KCAL/MOL
REMARK 923 INTER-LIGAND FREE ENERGY PREDICTED BY IDOCK:   -4.71 KCAL/MOL
REMARK 924 INTRA-LIGAND FREE ENERGY PREDICTED BY IDOCK:   -0.39 KCAL/MOL
REMARK 927      BINDING AFFINITY PREDICTED BY RF-SCORE:    0.00 PKD
ROOT
HETATM    1  C   UNL     1     -12.105  13.983  64.341  1.00  0.00    -0.458 C  
HETATM    2  O   UNL     1     -10.746  13.565  64.389  1.00  0.00    -0.408 OA 
ENDROOT
BRANCH   2   3
HETATM    3  C   UNL     1     -10.472  12.433  65.124  1.00  0.00    -0.292 A  
HETATM    4  C   UNL     1     -10.149  12.382  66.505  1.00  0.00    -0.232 A  
HETATM    5  C   UNL     1     -10.136  10.055  64.910  1.00  0.00    -0.184 A  
HETATM    6  C   UNL     1      -9.884  11.123  67.093  1.00  0.00    -0.187 A  
HETATM    7  C   UNL     1     -10.441  11.281  64.339  1.00  0.00    -0.407 A  
HETATM    8  C   UNL     1      -9.848   9.959  66.282  1.00  0.00    -0.308 A  
BRANCH   4   9
HETATM    9  O   UNL     1     -10.087  13.612  67.091  1.00  0.00    -0.240 OA 
HETATM   10  C   UNL     1      -8.914  14.391  67.148  1.00  0.00    -0.232 C  
ENDBRANCH   4   9
BRANCH   6  11
HETATM   11  O   UNL     1      -9.495  10.950  68.400  1.00  0.00    -0.164 OA 
HETATM   12  C   UNL     1      -8.110  11.184  68.656  1.00  0.00    -0.150 C  
ENDBRANCH   6  11
BRANCH   8  13
HETATM   13  C   UNL     1      -9.477   8.587  66.822  1.00  0.00    -0.194 C  
BRANCH  13  14
HETATM   14  N   UNL     1     -10.611   7.915  67.492  1.00  0.00    -0.260 NA 
HETATM   15  C   UNL     1     -10.895   6.580  66.915  1.00  0.00    -0.357 C  
HETATM   16  C   UNL     1      -9.865   5.487  67.272  1.00  0.00    -0.150 C  
HETATM   17  N   UNL     1      -9.644   5.357  68.725  1.00  0.00    -0.129 NA 
HETATM   18  C   UNL     1      -9.337   6.671  69.309  1.00  0.00    -0.142 C  
HETATM   19  H   UNL     1      -8.925   4.666  68.941  1.00  0.00     0.000 HD 
HETATM   20  C   UNL     1     -10.371   7.758  68.940  1.00  0.00    -0.213 C  
ENDBRANCH  13  14
ENDBRANCH   8  13
ENDBRANCH   2   3
TORSDOF 5
ENDMDL
MODEL      109
REMARK 921   NORMALIZED FREE ENERGY PREDICTED BY IDOCK:   -3.48 KCAL/MOL
REMARK 922        TOTAL FREE ENERGY PREDICTED BY IDOCK:   -5.08 KCAL/MOL
REMARK 923 INTER-LIGAND FREE ENERGY PREDICTED BY IDOCK:   -4.54 KCAL/MOL
REMARK 924 INTRA-LIGAND FREE ENERGY PREDICTED BY IDOCK:   -0.53 KCAL/MOL
REMARK 927      BINDING AFFINITY PREDICTED BY RF-SCORE:    0.00 PKD
ROOT
HETATM    1  C   UNL     1     -12.213   9.038  71.913  1.00  0.00    -0.381 C  
HETATM    2  O   UNL     1     -11.607   7.865  71.384  1.00  0.00    -0.261 OA 
ENDROOT
BRANCH   2   3
HETATM    3  C   UNL     1     -11.154   7.934  70.085  1.00  0.00    -0.201 A  
HETATM    4  C   UNL     1     -10.750   6.841  69.274  1.00  0.00    -0.253 A  
HETATM    5  C   UNL     1     -10.540   9.502  68.360  1.00  0.00    -0.261 A  
HETATM    6  C   UNL     1     -10.299   7.104  67.960  1.00  0.00    -0.194 A  
HETATM    7  C   UNL     1     -11.025   9.247  69.634  1.00  0.00    -0.192 A  
HETATM    8  C   UNL     1     -10.165   8.444  67.514  1.00  0.00    -0.308 A  
BRANCH   4   9
HETATM    9  O   UNL     1     -10.807   5.641  69.919  1.00  0.00    -0.331 OA 
HETATM   10  C   UNL     1      -9.683   5.004  70.483  1.00  0.00    -0.204 C  
ENDBRANCH   4   9
BRANCH   6  11
HETATM   11  O   UNL     1      -9.818   6.141  67.105  1.00  0.00    -0.126 OA 
HETATM   12  C   UNL     1     -10.816   5.360  66.449  1.00  0.00    -0.131 C  
ENDBRANCH   6  11
BRANCH   8  13
HETATM   13  C   UNL     1      -9.598   8.809  66.151  1.00  0.00    -0.253 C  
BRANCH  13  14
HETATM   14  N   UNL     1      -9.344  10.259  66.013  1.00  0.00    -0.172 NA 
HETATM   15  C   UNL     1      -7.909  10.563  65.805  1.00  0.00    -0.154 C  
HETATM   16  C   UNL     1      -7.365  10.200  64.406  1.00  0.00    -0.116 C  
HETATM   17  N   UNL     1      -8.156  10.791  63.310  1.00  0.00    -0.357 NA 
HETATM   18  C   UNL     1      -9.582  10.479  63.489  1.00  0.00    -0.326 C  
HETATM   19  H   UNL     1      -7.814  10.502  62.394  1.00  0.00     0.000 HD 
HETATM   20  C   UNL     1     -10.112  10.841  64.894  1.00  0.00    -0.322 C  
ENDBRANCH  13  14
ENDBRANCH   8  13
ENDBRANCH   2   3
TORSDOF 5
ENDMDL
MODEL      110
REMARK 921   NORMALIZED FREE ENERGY PREDICTED BY IDOCK:   -3.48 KCAL/MOL
REMARK 922        TOTAL FREE ENERGY PREDICTED BY IDOCK:   -5.08 KCAL/MOL
REMARK 923 INTER-LIGAND FREE ENERGY PREDICTED BY IDOCK:   -4.42 KCAL/MOL
REMARK 924 INTRA-LIGAND FREE ENERGY PREDICTED BY IDOCK:   -0.66 KCAL/MOL
REMARK 927      BINDING AFFINITY PREDICTED BY RF-SCORE:    0.00 PKD
ROOT
HETATM    1  C   UNL     1      -6.469  12.602  67.340  1.00  0.00    -0.149 C  
HETATM    2  O   UNL     1      -7.269  11.657  66.639  1.00  0.00    -0.114 OA 
ENDROOT
BRANCH   2   3
HETATM    3  C   UNL     1      -8.342  11.127  67.320  1.00  0.00    -0.135 A  
HETATM    4  C   UNL     1      -8.881   9.824  67.162  1.00  0.00    -0.132 A  
HETATM    5  C   UNL     1     -10.078  11.705  68.889  1.00  0.00    -0.109 A  
HETATM    6  C   UNL     1     -10.000   9.454  67.943  1.00  0.00    -0.182 A  
HETATM    7  C   UNL     1      -8.954  12.058  68.159  1.00  0.00    -0.190 A  
HETATM    8  C   UNL     1     -10.619  10.411  68.788  1.00  0.00    -0.232 A  
BRANCH   4   9
HETATM    9  O   UNL     1      -8.250   9.092  66.200  1.00  0.00    -0.111 OA 
HETATM   10  C   UNL     1      -8.675   9.034  64.857  1.00  0.00    -0.166 C  
ENDBRANCH   4   9
BRANCH   6  11
HETATM   11  O   UNL     1     -10.652   8.249  67.832  1.00  0.00    -0.214 OA 
HETATM   12  C   UNL     1      -9.986   7.141  68.436  1.00  0.00    -0.158 C  
ENDBRANCH   6  11
BRANCH   8  13
HETATM   13  C   UNL     1     -11.881  10.119  69.584  1.00  0.00    -0.045 C  
BRANCH  13  14
HETATM   14  N   UNL     1     -11.685  10.293  71.039  1.00  0.00    -0.369 NA 
HETATM   15  C   UNL     1     -12.969  10.349  71.778  1.00  0.00    -0.475 C  
HETATM   16  C   UNL     1     -13.704   8.996  71.903  1.00  0.00    -0.441 C  
HETATM   17  N   UNL     1     -12.856   7.932  72.473  1.00  0.00    -0.547 NA 
HETATM   18  C   UNL     1     -11.586   7.847  71.736  1.00  0.00    -0.278 C  
HETATM   19  H   UNL     1     -13.340   7.034  72.504  1.00  0.00     0.000 HD 
HETATM   20  C   UNL     1     -10.864   9.207  71.611  1.00  0.00    -0.372 C  
ENDBRANCH  13  14
ENDBRANCH   8  13
ENDBRANCH   2   3
TORSDOF 5
ENDMDL
MODEL      111
REMARK 921   NORMALIZED FREE ENERGY PREDICTED BY IDOCK:   -3.48 KCAL/MOL
REMARK 922        TOTAL FREE ENERGY PREDICTED BY IDOCK:   -5.08 KCAL/MOL
REMARK 923 INTER-LIGAND FREE ENERGY PREDICTED BY IDOCK:   -4.64 KCAL/MOL
REMARK 924 INTRA-LIGAND FREE ENERGY PREDICTED BY IDOCK:   -0.43 KCAL/MOL
REMARK 927      BINDING AFFINITY PREDICTED BY RF-SCORE:    0.00 PKD
ROOT
HETATM    1  C   UNL     1     -11.772  14.568  66.766  1.00  0.00    -0.377 C  
HETATM    2  O   UNL     1     -12.358  13.748  67.771  1.00  0.00    -0.251 OA 
ENDROOT
BRANCH   2   3
HETATM    3  C   UNL     1     -11.762  12.528  68.000  1.00  0.00    -0.355 A  
HETATM    4  C   UNL     1     -11.462  11.962  69.266  1.00  0.00    -0.306 A  
HETATM    5  C   UNL     1     -10.710  10.677  66.869  1.00  0.00    -0.297 A  
HETATM    6  C   UNL     1     -10.833  10.696  69.310  1.00  0.00    -0.239 A  
HETATM    7  C   UNL     1     -11.367  11.897  66.821  1.00  0.00    -0.393 A  
HETATM    8  C   UNL     1     -10.428  10.066  68.104  1.00  0.00    -0.250 A  
BRANCH   4   9
HETATM    9  O   UNL     1     -11.788  12.773  70.312  1.00  0.00    -0.307 OA 
HETATM   10  C   UNL     1     -12.996  12.672  71.031  1.00  0.00    -0.071 C  
ENDBRANCH   4   9
BRANCH   6  11
HETATM   11  O   UNL     1     -10.430  10.075  70.468  1.00  0.00    -0.286 OA 
HETATM   12  C   UNL     1     -11.488   9.637  71.320  1.00  0.00    -0.392 C  
ENDBRANCH   6  11
BRANCH   8  13
HETATM   13  C   UNL     1      -9.663   8.753  68.073  1.00  0.00    -0.157 C  
BRANCH  13  14
HETATM   14  N   UNL     1     -10.558   7.577  68.027  1.00  0.00    -0.185 NA 
HETATM   15  C   UNL     1     -10.499   6.875  66.722  1.00  0.00    -0.230 C  
HETATM   16  C   UNL     1      -9.206   6.067  66.478  1.00  0.00    -0.148 C  
HETATM   17  N   UNL     1      -8.911   5.112  67.562  1.00  0.00    -0.106 NA 
HETATM   18  C   UNL     1      -8.942   5.798  68.863  1.00  0.00    -0.113 C  
HETATM   19  H   UNL     1      -8.029   4.623  67.410  1.00  0.00     0.000 HD 
HETATM   20  C   UNL     1     -10.237   6.608  69.093  1.00  0.00    -0.179 C  
ENDBRANCH  13  14
ENDBRANCH   8  13
ENDBRANCH   2   3
TORSDOF 5
ENDMDL
MODEL      112
REMARK 921   NORMALIZED FREE ENERGY PREDICTED BY IDOCK:   -3.48 KCAL/MOL
REMARK 922        TOTAL FREE ENERGY PREDICTED BY IDOCK:   -5.07 KCAL/MOL
REMARK 923 INTER-LIGAND FREE ENERGY PREDICTED BY IDOCK:   -4.75 KCAL/MOL
REMARK 924 INTRA-LIGAND FREE ENERGY PREDICTED BY IDOCK:   -0.32 KCAL/MOL
REMARK 927      BINDING AFFINITY PREDICTED BY RF-SCORE:    0.00 PKD
ROOT
HETATM    1  C   UNL     1     -13.820   8.993  72.429  1.00  0.00    -0.475 C  
HETATM    2  O   UNL     1     -13.440  10.364  72.454  1.00  0.00    -0.282 OA 
ENDROOT
BRANCH   2   3
HETATM    3  C   UNL     1     -12.675  10.814  71.401  1.00  0.00    -0.439 A  
HETATM    4  C   UNL     1     -12.647  12.135  70.883  1.00  0.00    -0.247 A  
HETATM    5  C   UNL     1     -11.167  10.057  69.679  1.00  0.00    -0.285 A  
HETATM    6  C   UNL     1     -11.804  12.413  69.783  1.00  0.00    -0.317 A  
HETATM    7  C   UNL     1     -11.958   9.788  70.786  1.00  0.00    -0.382 A  
HETATM    8  C   UNL     1     -11.084  11.361  69.160  1.00  0.00    -0.317 A  
BRANCH   4   9
HETATM    9  O   UNL     1     -13.513  12.980  71.513  1.00  0.00    -0.273 OA 
HETATM   10  C   UNL     1     -13.117  13.929  72.476  1.00  0.00    -0.437 C  
ENDBRANCH   4   9
BRANCH   6  11
HETATM   11  O   UNL     1     -11.741  13.632  69.150  1.00  0.00    -0.283 OA 
HETATM   12  C   UNL     1     -10.872  14.587  69.759  1.00  0.00    -0.100 C  
ENDBRANCH   6  11
BRANCH   8  13
HETATM   13  C   UNL     1     -10.234  11.563  67.917  1.00  0.00    -0.184 C  
BRANCH  13  14
HETATM   14  N   UNL     1      -8.849  11.972  68.237  1.00  0.00    -0.184 NA 
HETATM   15  C   UNL     1      -8.127  10.946  69.026  1.00  0.00    -0.126 C  
HETATM   16  C   UNL     1      -7.713   9.689  68.230  1.00  0.00    -0.082 C  
HETATM   17  N   UNL     1      -6.941  10.007  67.014  1.00  0.00    -0.087 NA 
HETATM   18  C   UNL     1      -7.656  11.007  66.207  1.00  0.00    -0.111 C  
HETATM   19  H   UNL     1      -6.718   9.170  66.475  1.00  0.00     0.000 HD 
HETATM   20  C   UNL     1      -8.071  12.257  67.016  1.00  0.00    -0.141 C  
ENDBRANCH  13  14
ENDBRANCH   8  13
ENDBRANCH   2   3
TORSDOF 5
ENDMDL
MODEL      113
REMARK 921   NORMALIZED FREE ENERGY PREDICTED BY IDOCK:   -3.44 KCAL/MOL
REMARK 922        TOTAL FREE ENERGY PREDICTED BY IDOCK:   -5.02 KCAL/MOL
REMARK 923 INTER-LIGAND FREE ENERGY PREDICTED BY IDOCK:   -4.47 KCAL/MOL
REMARK 924 INTRA-LIGAND FREE ENERGY PREDICTED BY IDOCK:   -0.55 KCAL/MOL
REMARK 927      BINDING AFFINITY PREDICTED BY RF-SCORE:    0.00 PKD
ROOT
HETATM    1  C   UNL     1     -12.735  11.976  63.391  1.00  0.00    -0.398 C  
HETATM    2  O   UNL     1     -11.383  12.420  63.371  1.00  0.00    -0.452 OA 
ENDROOT
BRANCH   2   3
HETATM    3  C   UNL     1     -10.727  12.465  64.581  1.00  0.00    -0.305 A  
HETATM    4  C   UNL     1     -10.827  13.491  65.556  1.00  0.00    -0.288 A  
HETATM    5  C   UNL     1      -9.052  11.323  65.885  1.00  0.00    -0.217 A  
HETATM    6  C   UNL     1     -10.065  13.375  66.742  1.00  0.00    -0.260 A  
HETATM    7  C   UNL     1      -9.830  11.409  64.741  1.00  0.00    -0.302 A  
HETATM    8  C   UNL     1      -9.150  12.300  66.891  1.00  0.00    -0.208 A  
BRANCH   4   9
HETATM    9  O   UNL     1     -11.641  14.518  65.178  1.00  0.00    -0.347 OA 
HETATM   10  C   UNL     1     -11.167  15.737  64.652  1.00  0.00    -0.363 C  
ENDBRANCH   4   9
BRANCH   6  11
HETATM   11  O   UNL     1     -10.023  14.332  67.727  1.00  0.00    -0.222 OA 
HETATM   12  C   UNL     1     -11.171  14.381  68.574  1.00  0.00    -0.265 C  
ENDBRANCH   6  11
BRANCH   8  13
HETATM   13  C   UNL     1      -8.229  12.160  68.092  1.00  0.00    -0.164 C  
BRANCH  13  14
HETATM   14  N   UNL     1      -6.816  12.438  67.757  1.00  0.00    -0.099 NA 
HETATM   15  C   UNL     1      -6.511  13.888  67.758  1.00  0.00    -0.168 C  
HETATM   16  C   UNL     1      -6.445  14.536  69.159  1.00  0.00    -0.105 C  
HETATM   17  N   UNL     1      -5.519  13.839  70.071  1.00  0.00    -0.098 NA 
HETATM   18  C   UNL     1      -5.823  12.401  70.100  1.00  0.00    -0.163 C  
HETATM   19  H   UNL     1      -5.524  14.249  71.005  1.00  0.00     0.000 HD 
HETATM   20  C   UNL     1      -5.893  11.765  68.694  1.00  0.00    -0.049 C  
ENDBRANCH  13  14
ENDBRANCH   8  13
ENDBRANCH   2   3
TORSDOF 5
ENDMDL
MODEL      114
REMARK 921   NORMALIZED FREE ENERGY PREDICTED BY IDOCK:   -3.44 KCAL/MOL
REMARK 922        TOTAL FREE ENERGY PREDICTED BY IDOCK:   -5.02 KCAL/MOL
REMARK 923 INTER-LIGAND FREE ENERGY PREDICTED BY IDOCK:   -4.41 KCAL/MOL
REMARK 924 INTRA-LIGAND FREE ENERGY PREDICTED BY IDOCK:   -0.61 KCAL/MOL
REMARK 927      BINDING AFFINITY PREDICTED BY RF-SCORE:    0.00 PKD
ROOT
HETATM    1  C   UNL     1      -8.829   5.632  67.132  1.00  0.00    -0.106 C  
HETATM    2  O   UNL     1      -8.261   6.685  67.902  1.00  0.00    -0.118 OA 
ENDROOT
BRANCH   2   3
HETATM    3  C   UNL     1      -8.581   7.970  67.526  1.00  0.00    -0.126 A  
HETATM    4  C   UNL     1      -8.108   9.166  68.125  1.00  0.00    -0.104 A  
HETATM    5  C   UNL     1     -10.009   9.222  66.041  1.00  0.00    -0.325 A  
HETATM    6  C   UNL     1      -8.557  10.405  67.611  1.00  0.00    -0.118 A  
HETATM    7  C   UNL     1      -9.538   8.007  66.512  1.00  0.00    -0.295 A  
HETATM    8  C   UNL     1      -9.536  10.430  66.583  1.00  0.00    -0.219 A  
BRANCH   4   9
HETATM    9  O   UNL     1      -7.290   8.948  69.193  1.00  0.00    -0.069 OA 
HETATM   10  C   UNL     1      -7.728   8.977  70.532  1.00  0.00    -0.119 C  
ENDBRANCH   4   9
BRANCH   6  11
HETATM   11  O   UNL     1      -8.227  11.627  68.147  1.00  0.00    -0.136 OA 
HETATM   12  C   UNL     1      -6.982  12.166  67.703  1.00  0.00    -0.121 C  
ENDBRANCH   6  11
BRANCH   8  13
HETATM   13  C   UNL     1     -10.138  11.719  66.046  1.00  0.00    -0.231 C  
BRANCH  13  14
HETATM   14  N   UNL     1     -11.573  11.854  66.374  1.00  0.00    -0.501 NA 
HETATM   15  C   UNL     1     -11.792  12.411  67.730  1.00  0.00    -0.298 C  
HETATM   16  C   UNL     1     -11.482  13.918  67.868  1.00  0.00    -0.318 C  
HETATM   17  N   UNL     1     -12.194  14.745  66.877  1.00  0.00    -0.365 NA 
HETATM   18  C   UNL     1     -11.969  14.219  65.522  1.00  0.00    -0.385 C  
HETATM   19  H   UNL     1     -11.942  15.731  66.950  1.00  0.00     0.000 HD 
HETATM   20  C   UNL     1     -12.276  12.710  65.398  1.00  0.00    -0.459 C  
ENDBRANCH  13  14
ENDBRANCH   8  13
ENDBRANCH   2   3
TORSDOF 5
ENDMDL
MODEL      115
REMARK 921   NORMALIZED FREE ENERGY PREDICTED BY IDOCK:   -3.43 KCAL/MOL
REMARK 922        TOTAL FREE ENERGY PREDICTED BY IDOCK:   -5.01 KCAL/MOL
REMARK 923 INTER-LIGAND FREE ENERGY PREDICTED BY IDOCK:   -4.61 KCAL/MOL
REMARK 924 INTRA-LIGAND FREE ENERGY PREDICTED BY IDOCK:   -0.40 KCAL/MOL
REMARK 927      BINDING AFFINITY PREDICTED BY RF-SCORE:    0.00 PKD
ROOT
HETATM    1  C   UNL     1      -9.020  16.339  66.967  1.00  0.00    -0.206 C  
HETATM    2  O   UNL     1      -9.818  15.405  66.250  1.00  0.00    -0.259 OA 
ENDROOT
BRANCH   2   3
HETATM    3  C   UNL     1      -9.824  14.108  66.715  1.00  0.00    -0.272 A  
HETATM    4  C   UNL     1     -10.969  13.308  66.966  1.00  0.00    -0.276 A  
HETATM    5  C   UNL     1      -8.372  12.377  67.554  1.00  0.00    -0.173 A  
HETATM    6  C   UNL     1     -10.783  11.995  67.457  1.00  0.00    -0.226 A  
HETATM    7  C   UNL     1      -8.546  13.649  67.030  1.00  0.00    -0.173 A  
HETATM    8  C   UNL     1      -9.478  11.540  67.781  1.00  0.00    -0.168 A  
BRANCH   4   9
HETATM    9  O   UNL     1     -12.144  13.960  66.736  1.00  0.00    -0.423 OA 
HETATM   10  C   UNL     1     -12.836  13.915  65.509  1.00  0.00    -0.431 C  
ENDBRANCH   4   9
BRANCH   6  11
HETATM   11  O   UNL     1     -11.810  11.150  67.802  1.00  0.00    -0.608 OA 
HETATM   12  C   UNL     1     -12.245  11.246  69.158  1.00  0.00    -0.183 C  
ENDBRANCH   6  11
BRANCH   8  13
HETATM   13  C   UNL     1      -9.208  10.179  68.402  1.00  0.00    -0.133 C  
BRANCH  13  14
HETATM   14  N   UNL     1      -8.595   9.232  67.446  1.00  0.00    -0.122 NA 
HETATM   15  C   UNL     1      -7.962   8.077  68.125  1.00  0.00    -0.128 C  
HETATM   16  C   UNL     1      -8.953   7.049  68.715  1.00  0.00    -0.131 C  
HETATM   17  N   UNL     1      -9.931   6.560  67.726  1.00  0.00    -0.126 NA 
HETATM   18  C   UNL     1     -10.586   7.695  67.059  1.00  0.00    -0.336 C  
HETATM   19  H   UNL     1     -10.608   5.920  68.142  1.00  0.00     0.000 HD 
HETATM   20  C   UNL     1      -9.586   8.720  66.479  1.00  0.00    -0.237 C  
ENDBRANCH  13  14
ENDBRANCH   8  13
ENDBRANCH   2   3
TORSDOF 5
ENDMDL
MODEL      116
REMARK 921   NORMALIZED FREE ENERGY PREDICTED BY IDOCK:   -3.42 KCAL/MOL
REMARK 922        TOTAL FREE ENERGY PREDICTED BY IDOCK:   -5.00 KCAL/MOL
REMARK 923 INTER-LIGAND FREE ENERGY PREDICTED BY IDOCK:   -4.87 KCAL/MOL
REMARK 924 INTRA-LIGAND FREE ENERGY PREDICTED BY IDOCK:   -0.13 KCAL/MOL
REMARK 927      BINDING AFFINITY PREDICTED BY RF-SCORE:    0.00 PKD
ROOT
HETATM    1  C   UNL     1     -10.982   8.442  71.027  1.00  0.00    -0.246 C  
HETATM    2  O   UNL     1     -10.244   8.554  69.816  1.00  0.00    -0.196 OA 
ENDROOT
BRANCH   2   3
HETATM    3  C   UNL     1     -10.544   9.625  69.004  1.00  0.00    -0.218 A  
HETATM    4  C   UNL     1     -10.786   9.581  67.606  1.00  0.00    -0.250 A  
HETATM    5  C   UNL     1     -10.729  12.029  69.008  1.00  0.00    -0.178 A  
HETATM    6  C   UNL     1     -11.068  10.790  66.930  1.00  0.00    -0.133 A  
HETATM    7  C   UNL     1     -10.495  10.841  69.684  1.00  0.00    -0.183 A  
HETATM    8  C   UNL     1     -11.009  12.023  67.631  1.00  0.00    -0.287 A  
BRANCH   4   9
HETATM    9  O   UNL     1     -10.657   8.332  67.075  1.00  0.00    -0.321 OA 
HETATM   10  C   UNL     1      -9.439   7.810  66.593  1.00  0.00    -0.205 C  
ENDBRANCH   4   9
BRANCH   6  11
HETATM   11  O   UNL     1     -11.252  10.888  65.570  1.00  0.00     0.048 OA 
HETATM   12  C   UNL     1     -10.069  10.733  64.787  1.00  0.00    -0.331 C  
ENDBRANCH   6  11
BRANCH   8  13
HETATM   13  C   UNL     1     -11.206  13.369  66.953  1.00  0.00    -0.308 C  
BRANCH  13  14
HETATM   14  N   UNL     1     -10.100  13.707  66.032  1.00  0.00    -0.305 NA 
HETATM   15  C   UNL     1     -10.556  14.512  64.874  1.00  0.00    -0.427 C  
HETATM   16  C   UNL     1     -10.908  15.979  65.203  1.00  0.00    -0.395 C  
HETATM   17  N   UNL     1      -9.818  16.691  65.895  1.00  0.00    -0.488 NA 
HETATM   18  C   UNL     1      -9.368  15.917  67.062  1.00  0.00    -0.215 C  
HETATM   19  H   UNL     1     -10.084  17.643  66.148  1.00  0.00     0.000 HD 
HETATM   20  C   UNL     1      -9.026  14.449  66.722  1.00  0.00    -0.233 C  
ENDBRANCH  13  14
ENDBRANCH   8  13
ENDBRANCH   2   3
TORSDOF 5
ENDMDL
MODEL      117
REMARK 921   NORMALIZED FREE ENERGY PREDICTED BY IDOCK:   -3.40 KCAL/MOL
REMARK 922        TOTAL FREE ENERGY PREDICTED BY IDOCK:   -4.97 KCAL/MOL
REMARK 923 INTER-LIGAND FREE ENERGY PREDICTED BY IDOCK:   -4.96 KCAL/MOL
REMARK 924 INTRA-LIGAND FREE ENERGY PREDICTED BY IDOCK:   -0.00 KCAL/MOL
REMARK 927      BINDING AFFINITY PREDICTED BY RF-SCORE:    0.00 PKD
ROOT
HETATM    1  C   UNL     1      -8.756   8.236  70.825  1.00  0.00    -0.140 C  
HETATM    2  O   UNL     1      -8.171   9.358  70.174  1.00  0.00    -0.129 OA 
ENDROOT
BRANCH   2   3
HETATM    3  C   UNL     1      -8.782   9.792  69.018  1.00  0.00    -0.148 A  
HETATM    4  C   UNL     1      -8.178   9.914  67.740  1.00  0.00    -0.114 A  
HETATM    5  C   UNL     1     -10.842  10.728  68.186  1.00  0.00    -0.284 A  
HETATM    6  C   UNL     1      -8.960  10.392  66.664  1.00  0.00    -0.141 A  
HETATM    7  C   UNL     1     -10.092  10.218  69.235  1.00  0.00    -0.244 A  
HETATM    8  C   UNL     1     -10.290  10.829  66.897  1.00  0.00    -0.290 A  
BRANCH   4   9
HETATM    9  O   UNL     1      -6.854   9.587  67.735  1.00  0.00    -0.076 OA 
HETATM   10  C   UNL     1      -5.815  10.538  67.676  1.00  0.00    -0.044 C  
ENDBRANCH   4   9
BRANCH   6  11
HETATM   11  O   UNL     1      -8.473  10.618  65.398  1.00  0.00    -0.168 OA 
HETATM   12  C   UNL     1      -8.343   9.455  64.582  1.00  0.00    -0.157 C  
ENDBRANCH   6  11
BRANCH   8  13
HETATM   13  C   UNL     1     -11.161  11.443  65.812  1.00  0.00    -0.153 C  
BRANCH  13  14
HETATM   14  N   UNL     1     -10.399  12.335  64.912  1.00  0.00    -0.283 NA 
HETATM   15  C   UNL     1     -10.945  12.344  63.534  1.00  0.00    -0.450 C  
HETATM   16  C   UNL     1     -12.281  13.100  63.371  1.00  0.00    -0.444 C  
HETATM   17  N   UNL     1     -12.227  14.481  63.885  1.00  0.00    -1.006 NA 
HETATM   18  C   UNL     1     -11.710  14.488  65.262  1.00  0.00    -0.361 C  
HETATM   19  H   UNL     1     -13.130  14.950  63.815  1.00  0.00     0.000 HD 
HETATM   20  C   UNL     1     -10.376  13.723  65.414  1.00  0.00    -0.333 C  
ENDBRANCH  13  14
ENDBRANCH   8  13
ENDBRANCH   2   3
TORSDOF 5
ENDMDL
MODEL      118
REMARK 921   NORMALIZED FREE ENERGY PREDICTED BY IDOCK:   -3.38 KCAL/MOL
REMARK 922        TOTAL FREE ENERGY PREDICTED BY IDOCK:   -4.94 KCAL/MOL
REMARK 923 INTER-LIGAND FREE ENERGY PREDICTED BY IDOCK:   -4.31 KCAL/MOL
REMARK 924 INTRA-LIGAND FREE ENERGY PREDICTED BY IDOCK:   -0.64 KCAL/MOL
REMARK 927      BINDING AFFINITY PREDICTED BY RF-SCORE:    0.00 PKD
ROOT
HETATM    1  C   UNL     1     -10.286   6.956  72.907  1.00  0.00    -0.226 C  
HETATM    2  O   UNL     1     -11.362   7.282  72.034  1.00  0.00    -0.246 OA 
ENDROOT
BRANCH   2   3
HETATM    3  C   UNL     1     -11.026   7.744  70.781  1.00  0.00    -0.252 A  
HETATM    4  C   UNL     1     -11.116   9.084  70.325  1.00  0.00    -0.235 A  
HETATM    5  C   UNL     1     -10.331   6.997  68.597  1.00  0.00    -0.200 A  
HETATM    6  C   UNL     1     -10.737   9.373  68.994  1.00  0.00    -0.187 A  
HETATM    7  C   UNL     1     -10.659   6.715  69.914  1.00  0.00    -0.268 A  
HETATM    8  C   UNL     1     -10.372   8.318  68.118  1.00  0.00    -0.253 A  
BRANCH   4   9
HETATM    9  O   UNL     1     -11.626   9.939  71.257  1.00  0.00    -0.360 OA 
HETATM   10  C   UNL     1     -12.967  10.373  71.267  1.00  0.00    -0.419 C  
ENDBRANCH   4   9
BRANCH   6  11
HETATM   11  O   UNL     1     -10.843  10.616  68.415  1.00  0.00    -0.203 OA 
HETATM   12  C   UNL     1      -9.857  11.562  68.825  1.00  0.00    -0.141 C  
ENDBRANCH   6  11
BRANCH   8  13
HETATM   13  C   UNL     1     -10.044   8.537  66.650  1.00  0.00    -0.294 C  
BRANCH  13  14
HETATM   14  N   UNL     1      -8.627   8.254  66.336  1.00  0.00    -0.126 NA 
HETATM   15  C   UNL     1      -8.389   8.112  64.880  1.00  0.00    -0.123 C  
HETATM   16  C   UNL     1      -8.440   9.434  64.083  1.00  0.00    -0.190 C  
HETATM   17  N   UNL     1      -7.542  10.469  64.628  1.00  0.00    -0.338 NA 
HETATM   18  C   UNL     1      -7.781  10.639  66.069  1.00  0.00    -0.151 C  
HETATM   19  H   UNL     1      -7.623  11.350  64.121  1.00  0.00     0.000 HD 
HETATM   20  C   UNL     1      -7.735   9.310  66.855  1.00  0.00    -0.094 C  
ENDBRANCH  13  14
ENDBRANCH   8  13
ENDBRANCH   2   3
TORSDOF 5
ENDMDL
MODEL      119
REMARK 921   NORMALIZED FREE ENERGY PREDICTED BY IDOCK:   -3.37 KCAL/MOL
REMARK 922        TOTAL FREE ENERGY PREDICTED BY IDOCK:   -4.93 KCAL/MOL
REMARK 923 INTER-LIGAND FREE ENERGY PREDICTED BY IDOCK:   -4.52 KCAL/MOL
REMARK 924 INTRA-LIGAND FREE ENERGY PREDICTED BY IDOCK:   -0.41 KCAL/MOL
REMARK 927      BINDING AFFINITY PREDICTED BY RF-SCORE:    0.00 PKD
ROOT
HETATM    1  C   UNL     1     -10.475  18.496  66.348  1.00  0.00    -0.406 C  
HETATM    2  O   UNL     1      -9.640  17.637  65.580  1.00  0.00    -0.503 OA 
ENDROOT
BRANCH   2   3
HETATM    3  C   UNL     1      -9.553  16.326  65.993  1.00  0.00    -0.337 A  
HETATM    4  C   UNL     1      -8.601  15.788  66.897  1.00  0.00    -0.247 A  
HETATM    5  C   UNL     1     -10.489  14.139  65.604  1.00  0.00    -0.333 A  
HETATM    6  C   UNL     1      -8.656  14.407  67.197  1.00  0.00    -0.218 A  
HETATM    7  C   UNL     1     -10.467  15.500  65.341  1.00  0.00    -0.429 A  
HETATM    8  C   UNL     1      -9.586  13.575  66.523  1.00  0.00    -0.284 A  
BRANCH   4   9
HETATM    9  O   UNL     1      -7.692  16.706  67.334  1.00  0.00    -0.150 OA 
HETATM   10  C   UNL     1      -6.532  17.060  66.615  1.00  0.00    -0.227 C  
ENDBRANCH   4   9
BRANCH   6  11
HETATM   11  O   UNL     1      -7.750  13.757  68.002  1.00  0.00    -0.123 OA 
HETATM   12  C   UNL     1      -6.452  13.585  67.436  1.00  0.00     0.034 C  
ENDBRANCH   6  11
BRANCH   8  13
HETATM   13  C   UNL     1      -9.642  12.068  66.720  1.00  0.00    -0.208 C  
BRANCH  13  14
HETATM   14  N   UNL     1      -9.155  11.324  65.538  1.00  0.00    -0.199 NA 
HETATM   15  C   UNL     1      -7.768  10.831  65.715  1.00  0.00    -0.094 C  
HETATM   16  C   UNL     1      -7.622   9.642  66.690  1.00  0.00    -0.098 C  
HETATM   17  N   UNL     1      -8.506   8.511  66.354  1.00  0.00    -0.113 NA 
HETATM   18  C   UNL     1      -9.891   8.979  66.198  1.00  0.00    -0.278 C  
HETATM   19  H   UNL     1      -8.433   7.755  67.035  1.00  0.00     0.000 HD 
HETATM   20  C   UNL     1     -10.024  10.172  65.226  1.00  0.00    -0.311 C  
ENDBRANCH  13  14
ENDBRANCH   8  13
ENDBRANCH   2   3
TORSDOF 5
ENDMDL
MODEL      120
REMARK 921   NORMALIZED FREE ENERGY PREDICTED BY IDOCK:   -3.37 KCAL/MOL
REMARK 922        TOTAL FREE ENERGY PREDICTED BY IDOCK:   -4.93 KCAL/MOL
REMARK 923 INTER-LIGAND FREE ENERGY PREDICTED BY IDOCK:   -4.42 KCAL/MOL
REMARK 924 INTRA-LIGAND FREE ENERGY PREDICTED BY IDOCK:   -0.51 KCAL/MOL
REMARK 927      BINDING AFFINITY PREDICTED BY RF-SCORE:    0.00 PKD
ROOT
HETATM    1  C   UNL     1     -13.023   6.500  71.939  1.00  0.00    -0.003 C  
HETATM    2  O   UNL     1     -12.356   7.622  72.506  1.00  0.00    -0.180 OA 
ENDROOT
BRANCH   2   3
HETATM    3  C   UNL     1     -11.757   8.496  71.626  1.00  0.00    -0.306 A  
HETATM    4  C   UNL     1     -10.392   8.499  71.238  1.00  0.00    -0.224 A  
HETATM    5  C   UNL     1     -12.176  10.489  70.336  1.00  0.00    -0.415 A  
HETATM    6  C   UNL     1      -9.949   9.486  70.328  1.00  0.00    -0.259 A  
HETATM    7  C   UNL     1     -12.627   9.497  71.193  1.00  0.00    -0.383 A  
HETATM    8  C   UNL     1     -10.840  10.504  69.900  1.00  0.00    -0.334 A  
BRANCH   4   9
HETATM    9  O   UNL     1      -9.652   7.538  71.862  1.00  0.00    -0.147 OA 
HETATM   10  C   UNL     1      -8.958   7.750  73.071  1.00  0.00    -0.199 C  
ENDBRANCH   4   9
BRANCH   6  11
HETATM   11  O   UNL     1      -8.641   9.635  69.930  1.00  0.00    -0.168 OA 
HETATM   12  C   UNL     1      -8.100   8.533  69.203  1.00  0.00    -0.117 C  
ENDBRANCH   6  11
BRANCH   8  13
HETATM   13  C   UNL     1     -10.413  11.652  69.000  1.00  0.00    -0.128 C  
BRANCH  13  14
HETATM   14  N   UNL     1     -10.382  11.271  67.571  1.00  0.00    -0.188 NA 
HETATM   15  C   UNL     1     -11.387  12.008  66.770  1.00  0.00    -0.339 C  
HETATM   16  C   UNL     1     -11.051  13.495  66.518  1.00  0.00    -0.300 C  
HETATM   17  N   UNL     1      -9.714  13.691  65.928  1.00  0.00    -0.457 NA 
HETATM   18  C   UNL     1      -8.701  12.984  66.726  1.00  0.00    -0.096 C  
HETATM   19  H   UNL     1      -9.488  14.678  65.814  1.00  0.00     0.000 HD 
HETATM   20  C   UNL     1      -9.050  11.500  66.977  1.00  0.00    -0.175 C  
ENDBRANCH  13  14
ENDBRANCH   8  13
ENDBRANCH   2   3
TORSDOF 5
ENDMDL
MODEL      121
REMARK 921   NORMALIZED FREE ENERGY PREDICTED BY IDOCK:   -3.36 KCAL/MOL
REMARK 922        TOTAL FREE ENERGY PREDICTED BY IDOCK:   -4.92 KCAL/MOL
REMARK 923 INTER-LIGAND FREE ENERGY PREDICTED BY IDOCK:   -4.30 KCAL/MOL
REMARK 924 INTRA-LIGAND FREE ENERGY PREDICTED BY IDOCK:   -0.61 KCAL/MOL
REMARK 927      BINDING AFFINITY PREDICTED BY RF-SCORE:    0.00 PKD
ROOT
HETATM    1  C   UNL     1      -8.215   8.865  63.830  1.00  0.00    -0.172 C  
HETATM    2  O   UNL     1      -8.231   9.886  64.820  1.00  0.00    -0.135 OA 
ENDROOT
BRANCH   2   3
HETATM    3  C   UNL     1      -8.664   9.525  66.076  1.00  0.00    -0.147 A  
HETATM    4  C   UNL     1      -7.849   9.123  67.166  1.00  0.00    -0.102 A  
HETATM    5  C   UNL     1     -10.664   9.105  67.355  1.00  0.00    -0.247 A  
HETATM    6  C   UNL     1      -8.474   8.774  68.386  1.00  0.00    -0.130 A  
HETATM    7  C   UNL     1     -10.055   9.491  66.171  1.00  0.00    -0.326 A  
HETATM    8  C   UNL     1      -9.890   8.736  68.469  1.00  0.00    -0.183 A  
BRANCH   4   9
HETATM    9  O   UNL     1      -6.521   9.078  66.860  1.00  0.00    -0.062 OA 
HETATM   10  C   UNL     1      -5.819   7.884  66.604  1.00  0.00    -0.044 C  
ENDBRANCH   4   9
BRANCH   6  11
HETATM   11  O   UNL     1      -7.801   8.305  69.489  1.00  0.00    -0.099 OA 
HETATM   12  C   UNL     1      -7.080   9.293  70.224  1.00  0.00    -0.084 C  
ENDBRANCH   6  11
BRANCH   8  13
HETATM   13  C   UNL     1     -10.633   8.279  69.714  1.00  0.00    -0.228 C  
BRANCH  13  14
HETATM   14  N   UNL     1     -10.693   9.327  70.755  1.00  0.00    -0.258 NA 
HETATM   15  C   UNL     1     -12.055   9.890  70.912  1.00  0.00    -0.341 C  
HETATM   16  C   UNL     1     -13.067   8.953  71.608  1.00  0.00    -0.357 C  
HETATM   17  N   UNL     1     -12.588   8.457  72.912  1.00  0.00    -0.651 NA 
HETATM   18  C   UNL     1     -11.246   7.874  72.770  1.00  0.00    -0.405 C  
HETATM   19  H   UNL     1     -13.246   7.803  73.335  1.00  0.00     0.000 HD 
HETATM   20  C   UNL     1     -10.244   8.817  72.066  1.00  0.00    -0.331 C  
ENDBRANCH  13  14
ENDBRANCH   8  13
ENDBRANCH   2   3
TORSDOF 5
ENDMDL
MODEL      122
REMARK 921   NORMALIZED FREE ENERGY PREDICTED BY IDOCK:   -3.35 KCAL/MOL
REMARK 922        TOTAL FREE ENERGY PREDICTED BY IDOCK:   -4.90 KCAL/MOL
REMARK 923 INTER-LIGAND FREE ENERGY PREDICTED BY IDOCK:   -4.55 KCAL/MOL
REMARK 924 INTRA-LIGAND FREE ENERGY PREDICTED BY IDOCK:   -0.36 KCAL/MOL
REMARK 927      BINDING AFFINITY PREDICTED BY RF-SCORE:    0.00 PKD
ROOT
HETATM    1  C   UNL     1      -6.669  19.733  69.456  1.00  0.00    -0.337 C  
HETATM    2  O   UNL     1      -6.588  19.035  68.219  1.00  0.00    -0.233 OA 
ENDROOT
BRANCH   2   3
HETATM    3  C   UNL     1      -7.282  17.848  68.130  1.00  0.00    -0.231 A  
HETATM    4  C   UNL     1      -8.662  17.698  67.839  1.00  0.00    -0.245 A  
HETATM    5  C   UNL     1      -7.047  15.473  68.470  1.00  0.00    -0.115 A  
HETATM    6  C   UNL     1      -9.209  16.395  67.802  1.00  0.00    -0.201 A  
HETATM    7  C   UNL     1      -6.496  16.745  68.464  1.00  0.00    -0.155 A  
HETATM    8  C   UNL     1      -8.402  15.280  68.150  1.00  0.00    -0.149 A  
BRANCH   4   9
HETATM    9  O   UNL     1      -9.312  18.886  67.677  1.00  0.00    -0.291 OA 
HETATM   10  C   UNL     1      -9.609  19.449  66.419  1.00  0.00    -0.377 C  
ENDBRANCH   4   9
BRANCH   6  11
HETATM   11  O   UNL     1     -10.541  16.124  67.599  1.00  0.00    -0.302 OA 
HETATM   12  C   UNL     1     -11.360  16.201  68.765  1.00  0.00    -0.359 C  
ENDBRANCH   6  11
BRANCH   8  13
HETATM   13  C   UNL     1      -8.942  13.861  68.226  1.00  0.00    -0.187 C  
BRANCH  13  14
HETATM   14  N   UNL     1      -8.734  13.107  66.971  1.00  0.00    -0.209 NA 
HETATM   15  C   UNL     1      -8.434  11.677  67.216  1.00  0.00    -0.156 C  
HETATM   16  C   UNL     1      -9.640  10.831  67.681  1.00  0.00    -0.158 C  
HETATM   17  N   UNL     1     -10.801  10.941  66.778  1.00  0.00    -0.251 NA 
HETATM   18  C   UNL     1     -11.127  12.355  66.543  1.00  0.00    -0.301 C  
HETATM   19  H   UNL     1     -11.604  10.416  67.124  1.00  0.00     0.000 HD 
HETATM   20  C   UNL     1      -9.912  13.192  66.085  1.00  0.00    -0.291 C  
ENDBRANCH  13  14
ENDBRANCH   8  13
ENDBRANCH   2   3
TORSDOF 5
ENDMDL
MODEL      123
REMARK 921   NORMALIZED FREE ENERGY PREDICTED BY IDOCK:   -3.35 KCAL/MOL
REMARK 922        TOTAL FREE ENERGY PREDICTED BY IDOCK:   -4.90 KCAL/MOL
REMARK 923 INTER-LIGAND FREE ENERGY PREDICTED BY IDOCK:   -4.65 KCAL/MOL
REMARK 924 INTRA-LIGAND FREE ENERGY PREDICTED BY IDOCK:   -0.25 KCAL/MOL
REMARK 927      BINDING AFFINITY PREDICTED BY RF-SCORE:    0.00 PKD
ROOT
HETATM    1  C   UNL     1      -6.372   6.586  62.829  1.00  0.00    -0.038 C  
HETATM    2  O   UNL     1      -6.135   7.313  64.029  1.00  0.00    -0.043 OA 
ENDROOT
BRANCH   2   3
HETATM    3  C   UNL     1      -7.187   8.050  64.526  1.00  0.00    -0.084 A  
HETATM    4  C   UNL     1      -8.203   7.585  65.400  1.00  0.00    -0.135 A  
HETATM    5  C   UNL     1      -8.254  10.205  64.355  1.00  0.00    -0.165 A  
HETATM    6  C   UNL     1      -9.217   8.486  65.799  1.00  0.00    -0.146 A  
HETATM    7  C   UNL     1      -7.232   9.339  63.996  1.00  0.00    -0.098 A  
HETATM    8  C   UNL     1      -9.258   9.793  65.248  1.00  0.00    -0.294 A  
BRANCH   4   9
HETATM    9  O   UNL     1      -8.086   6.262  65.710  1.00  0.00    -0.113 OA 
HETATM   10  C   UNL     1      -9.067   5.298  65.401  1.00  0.00    -0.117 C  
ENDBRANCH   4   9
BRANCH   6  11
HETATM   11  O   UNL     1     -10.290   8.139  66.585  1.00  0.00    -0.304 OA 
HETATM   12  C   UNL     1     -10.044   8.160  67.990  1.00  0.00    -0.197 C  
ENDBRANCH   6  11
BRANCH   8  13
HETATM   13  C   UNL     1     -10.369  10.785  65.553  1.00  0.00    -0.241 C  
BRANCH  13  14
HETATM   14  N   UNL     1     -10.174  12.082  64.871  1.00  0.00    -0.264 NA 
HETATM   15  C   UNL     1     -10.866  12.140  63.561  1.00  0.00    -0.458 C  
HETATM   16  C   UNL     1     -12.403  12.264  63.646  1.00  0.00    -0.562 C  
HETATM   17  N   UNL     1     -12.844  13.395  64.483  1.00  0.00    -0.661 NA 
HETATM   18  C   UNL     1     -12.183  13.340  65.796  1.00  0.00    -0.456 C  
HETATM   19  H   UNL     1     -13.859  13.434  64.569  1.00  0.00     0.000 HD 
HETATM   20  C   UNL     1     -10.647  13.209  65.699  1.00  0.00    -0.277 C  
ENDBRANCH  13  14
ENDBRANCH   8  13
ENDBRANCH   2   3
TORSDOF 5
ENDMDL
MODEL      124
REMARK 921   NORMALIZED FREE ENERGY PREDICTED BY IDOCK:   -3.33 KCAL/MOL
REMARK 922        TOTAL FREE ENERGY PREDICTED BY IDOCK:   -4.88 KCAL/MOL
REMARK 923 INTER-LIGAND FREE ENERGY PREDICTED BY IDOCK:   -4.27 KCAL/MOL
REMARK 924 INTRA-LIGAND FREE ENERGY PREDICTED BY IDOCK:   -0.61 KCAL/MOL
REMARK 927      BINDING AFFINITY PREDICTED BY RF-SCORE:    0.00 PKD
ROOT
HETATM    1  C   UNL     1     -10.189   3.847  64.374  1.00  0.00    -0.230 C  
HETATM    2  O   UNL     1      -9.130   3.922  65.321  1.00  0.00    -0.129 OA 
ENDROOT
BRANCH   2   3
HETATM    3  C   UNL     1      -9.327   4.743  66.409  1.00  0.00    -0.146 A  
HETATM    4  C   UNL     1      -8.436   4.930  67.497  1.00  0.00    -0.104 A  
HETATM    5  C   UNL     1     -10.973   6.164  67.452  1.00  0.00    -0.409 A  
HETATM    6  C   UNL     1      -8.813   5.808  68.539  1.00  0.00    -0.110 A  
HETATM    7  C   UNL     1     -10.589   5.338  66.406  1.00  0.00    -0.338 A  
HETATM    8  C   UNL     1     -10.102   6.404  68.529  1.00  0.00    -0.173 A  
BRANCH   4   9
HETATM    9  O   UNL     1      -7.310   4.166  67.410  1.00  0.00    -0.067 OA 
HETATM   10  C   UNL     1      -7.108   2.986  68.154  1.00  0.00    -0.049 C  
ENDBRANCH   4   9
BRANCH   6  11
HETATM   11  O   UNL     1      -8.069   6.020  69.675  1.00  0.00    -0.104 OA 
HETATM   12  C   UNL     1      -6.914   6.839  69.500  1.00  0.00    -0.067 C  
ENDBRANCH   6  11
BRANCH   8  13
HETATM   13  C   UNL     1     -10.616   7.281  69.659  1.00  0.00    -0.235 C  
BRANCH  13  14
HETATM   14  N   UNL     1     -11.609   6.588  70.508  1.00  0.00    -0.384 NA 
HETATM   15  C   UNL     1     -10.972   5.745  71.547  1.00  0.00    -0.239 C  
HETATM   16  C   UNL     1     -10.326   6.527  72.711  1.00  0.00    -0.202 C  
HETATM   17  N   UNL     1     -11.255   7.477  73.352  1.00  0.00    -0.610 NA 
HETATM   18  C   UNL     1     -11.879   8.338  72.336  1.00  0.00    -0.396 C  
HETATM   19  H   UNL     1     -10.800   8.020  74.085  1.00  0.00     0.000 HD 
HETATM   20  C   UNL     1     -12.516   7.544  71.173  1.00  0.00    -0.275 C  
ENDBRANCH  13  14
ENDBRANCH   8  13
ENDBRANCH   2   3
TORSDOF 5
ENDMDL
MODEL      125
REMARK 921   NORMALIZED FREE ENERGY PREDICTED BY IDOCK:   -3.31 KCAL/MOL
REMARK 922        TOTAL FREE ENERGY PREDICTED BY IDOCK:   -4.85 KCAL/MOL
REMARK 923 INTER-LIGAND FREE ENERGY PREDICTED BY IDOCK:   -4.28 KCAL/MOL
REMARK 924 INTRA-LIGAND FREE ENERGY PREDICTED BY IDOCK:   -0.57 KCAL/MOL
REMARK 927      BINDING AFFINITY PREDICTED BY RF-SCORE:    0.00 PKD
ROOT
HETATM    1  C   UNL     1     -12.855  10.381  71.191  1.00  0.00    -0.414 C  
HETATM    2  O   UNL     1     -12.000  11.104  70.313  1.00  0.00    -0.314 OA 
ENDROOT
BRANCH   2   3
HETATM    3  C   UNL     1     -11.139  10.362  69.536  1.00  0.00    -0.264 A  
HETATM    4  C   UNL     1     -11.027  10.408  68.122  1.00  0.00    -0.281 A  
HETATM    5  C   UNL     1      -9.523   8.577  69.652  1.00  0.00    -0.165 A  
HETATM    6  C   UNL     1     -10.090   9.560  67.489  1.00  0.00    -0.204 A  
HETATM    7  C   UNL     1     -10.409   9.438  70.282  1.00  0.00    -0.293 A  
HETATM    8  C   UNL     1      -9.357   8.618  68.257  1.00  0.00    -0.143 A  
BRANCH   4   9
HETATM    9  O   UNL     1     -11.913  11.265  67.538  1.00  0.00    -0.612 OA 
HETATM   10  C   UNL     1     -11.593  12.587  67.167  1.00  0.00    -0.368 C  
ENDBRANCH   4   9
BRANCH   6  11
HETATM   11  O   UNL     1      -9.937   9.463  66.126  1.00  0.00    -0.274 OA 
HETATM   12  C   UNL     1      -9.157  10.498  65.529  1.00  0.00    -0.186 C  
ENDBRANCH   6  11
BRANCH   8  13
HETATM   13  C   UNL     1      -8.404   7.609  67.638  1.00  0.00    -0.118 C  
BRANCH  13  14
HETATM   14  N   UNL     1      -8.907   6.222  67.734  1.00  0.00    -0.113 NA 
HETATM   15  C   UNL     1      -9.615   5.792  66.505  1.00  0.00    -0.156 C  
HETATM   16  C   UNL     1      -8.700   5.518  65.292  1.00  0.00    -0.136 C  
HETATM   17  N   UNL     1      -7.617   4.563  65.592  1.00  0.00    -0.081 NA 
HETATM   18  C   UNL     1      -6.888   4.987  66.797  1.00  0.00    -0.063 C  
HETATM   19  H   UNL     1      -6.993   4.430  64.796  1.00  0.00     0.000 HD 
HETATM   20  C   UNL     1      -7.814   5.265  68.002  1.00  0.00    -0.091 C  
ENDBRANCH  13  14
ENDBRANCH   8  13
ENDBRANCH   2   3
TORSDOF 5
ENDMDL
MODEL      126
REMARK 921   NORMALIZED FREE ENERGY PREDICTED BY IDOCK:   -3.30 KCAL/MOL
REMARK 922        TOTAL FREE ENERGY PREDICTED BY IDOCK:   -4.85 KCAL/MOL
REMARK 923 INTER-LIGAND FREE ENERGY PREDICTED BY IDOCK:   -4.31 KCAL/MOL
REMARK 924 INTRA-LIGAND FREE ENERGY PREDICTED BY IDOCK:   -0.53 KCAL/MOL
REMARK 927      BINDING AFFINITY PREDICTED BY RF-SCORE:    0.00 PKD
ROOT
HETATM    1  C   UNL     1      -7.308  10.168  65.636  1.00  0.00    -0.144 C  
HETATM    2  O   UNL     1      -7.933  10.257  66.912  1.00  0.00    -0.110 OA 
ENDROOT
BRANCH   2   3
HETATM    3  C   UNL     1      -8.351  11.507  67.311  1.00  0.00    -0.154 A  
HETATM    4  C   UNL     1      -9.684  11.896  67.604  1.00  0.00    -0.185 A  
HETATM    5  C   UNL     1      -7.569  13.762  67.647  1.00  0.00    -0.189 A  
HETATM    6  C   UNL     1      -9.930  13.234  67.989  1.00  0.00    -0.233 A  
HETATM    7  C   UNL     1      -7.316  12.441  67.313  1.00  0.00    -0.127 A  
HETATM    8  C   UNL     1      -8.870  14.178  67.981  1.00  0.00    -0.182 A  
BRANCH   4   9
HETATM    9  O   UNL     1     -10.592  10.896  67.417  1.00  0.00    -0.213 OA 
HETATM   10  C   UNL     1     -11.239  10.221  68.472  1.00  0.00    -0.214 C  
ENDBRANCH   4   9
BRANCH   6  11
HETATM   11  O   UNL     1     -11.182  13.748  68.231  1.00  0.00    -0.249 OA 
HETATM   12  C   UNL     1     -12.030  13.844  67.087  1.00  0.00    -0.420 C  
ENDBRANCH   6  11
BRANCH   8  13
HETATM   13  C   UNL     1      -9.074  15.652  68.289  1.00  0.00    -0.187 C  
BRANCH  13  14
HETATM   14  N   UNL     1      -9.453  16.434  67.093  1.00  0.00    -0.228 NA 
HETATM   15  C   UNL     1     -10.483  17.457  67.391  1.00  0.00    -0.336 C  
HETATM   16  C   UNL     1      -9.973  18.676  68.190  1.00  0.00    -0.358 C  
HETATM   17  N   UNL     1      -8.804  19.325  67.568  1.00  0.00    -0.294 NA 
HETATM   18  C   UNL     1      -7.762  18.326  67.286  1.00  0.00    -0.219 C  
HETATM   19  H   UNL     1      -8.450  20.097  68.132  1.00  0.00     0.000 HD 
HETATM   20  C   UNL     1      -8.285  17.108  66.492  1.00  0.00    -0.273 C  
ENDBRANCH  13  14
ENDBRANCH   8  13
ENDBRANCH   2   3
TORSDOF 5
ENDMDL
MODEL      127
REMARK 921   NORMALIZED FREE ENERGY PREDICTED BY IDOCK:   -3.29 KCAL/MOL
REMARK 922        TOTAL FREE ENERGY PREDICTED BY IDOCK:   -4.82 KCAL/MOL
REMARK 923 INTER-LIGAND FREE ENERGY PREDICTED BY IDOCK:   -4.47 KCAL/MOL
REMARK 924 INTRA-LIGAND FREE ENERGY PREDICTED BY IDOCK:   -0.35 KCAL/MOL
REMARK 927      BINDING AFFINITY PREDICTED BY RF-SCORE:    0.00 PKD
ROOT
HETATM    1  C   UNL     1      -6.592  12.896  67.528  1.00  0.00    -0.157 C  
HETATM    2  O   UNL     1      -7.945  12.551  67.253  1.00  0.00    -0.171 OA 
ENDROOT
BRANCH   2   3
HETATM    3  C   UNL     1      -8.419  11.394  67.831  1.00  0.00    -0.139 A  
HETATM    4  C   UNL     1      -9.457  10.567  67.331  1.00  0.00    -0.153 A  
HETATM    5  C   UNL     1      -8.224  10.033  69.811  1.00  0.00    -0.191 A  
HETATM    6  C   UNL     1      -9.823   9.417  68.069  1.00  0.00    -0.164 A  
HETATM    7  C   UNL     1      -7.831  11.136  69.069  1.00  0.00    -0.103 A  
HETATM    8  C   UNL     1      -9.222   9.168  69.330  1.00  0.00    -0.156 A  
BRANCH   4   9
HETATM    9  O   UNL     1     -10.020  11.041  66.182  1.00  0.00    -0.215 OA 
HETATM   10  C   UNL     1      -9.733  10.526  64.902  1.00  0.00    -0.300 C  
ENDBRANCH   4   9
BRANCH   6  11
HETATM   11  O   UNL     1     -10.855   8.577  67.725  1.00  0.00    -0.148 OA 
HETATM   12  C   UNL     1     -10.478   7.437  66.955  1.00  0.00    -0.333 C  
ENDBRANCH   6  11
BRANCH   8  13
HETATM   13  C   UNL     1      -9.630   8.008  70.225  1.00  0.00    -0.171 C  
BRANCH  13  14
HETATM   14  N   UNL     1     -11.019   8.133  70.717  1.00  0.00    -0.240 NA 
HETATM   15  C   UNL     1     -11.738   6.837  70.711  1.00  0.00    -0.386 C  
HETATM   16  C   UNL     1     -11.296   5.846  71.811  1.00  0.00    -0.227 C  
HETATM   17  N   UNL     1     -11.347   6.429  73.165  1.00  0.00    -0.471 NA 
HETATM   18  C   UNL     1     -10.618   7.706  73.193  1.00  0.00    -0.379 C  
HETATM   19  H   UNL     1     -11.006   5.780  73.873  1.00  0.00     0.000 HD 
HETATM   20  C   UNL     1     -11.063   8.686  72.085  1.00  0.00    -0.364 C  
ENDBRANCH  13  14
ENDBRANCH   8  13
ENDBRANCH   2   3
TORSDOF 5
ENDMDL
MODEL      128
REMARK 921   NORMALIZED FREE ENERGY PREDICTED BY IDOCK:   -3.28 KCAL/MOL
REMARK 922        TOTAL FREE ENERGY PREDICTED BY IDOCK:   -4.81 KCAL/MOL
REMARK 923 INTER-LIGAND FREE ENERGY PREDICTED BY IDOCK:   -4.42 KCAL/MOL
REMARK 924 INTRA-LIGAND FREE ENERGY PREDICTED BY IDOCK:   -0.39 KCAL/MOL
REMARK 927      BINDING AFFINITY PREDICTED BY RF-SCORE:    0.00 PKD
ROOT
HETATM    1  C   UNL     1     -13.278  13.033  71.864  1.00  0.00    -0.430 C  
HETATM    2  O   UNL     1     -12.858  13.251  70.522  1.00  0.00    -0.137 OA 
ENDROOT
BRANCH   2   3
HETATM    3  C   UNL     1     -11.963  12.345  69.997  1.00  0.00    -0.299 A  
HETATM    4  C   UNL     1     -11.065  12.573  68.923  1.00  0.00    -0.260 A  
HETATM    5  C   UNL     1     -11.287  10.035  70.135  1.00  0.00    -0.357 A  
HETATM    6  C   UNL     1     -10.223  11.516  68.508  1.00  0.00    -0.213 A  
HETATM    7  C   UNL     1     -12.083  11.082  70.576  1.00  0.00    -0.470 A  
HETATM    8  C   UNL     1     -10.358  10.232  69.098  1.00  0.00    -0.241 A  
BRANCH   4   9
HETATM    9  O   UNL     1     -11.177  13.819  68.381  1.00  0.00    -0.246 OA 
HETATM   10  C   UNL     1     -11.893  14.095  67.199  1.00  0.00    -0.423 C  
ENDBRANCH   4   9
BRANCH   6  11
HETATM   11  O   UNL     1      -9.363  11.591  67.439  1.00  0.00    -0.164 OA 
HETATM   12  C   UNL     1      -8.178  12.354  67.666  1.00  0.00    -0.169 C  
ENDBRANCH   6  11
BRANCH   8  13
HETATM   13  C   UNL     1      -9.558   9.023  68.641  1.00  0.00    -0.153 C  
BRANCH  13  14
HETATM   14  N   UNL     1      -9.854   8.643  67.243  1.00  0.00    -0.180 NA 
HETATM   15  C   UNL     1      -8.697   8.001  66.576  1.00  0.00    -0.146 C  
HETATM   16  C   UNL     1      -8.398   6.560  67.044  1.00  0.00    -0.113 C  
HETATM   17  N   UNL     1      -9.571   5.670  66.956  1.00  0.00    -0.128 NA 
HETATM   18  C   UNL     1     -10.723   6.284  67.634  1.00  0.00    -0.313 C  
HETATM   19  H   UNL     1      -9.370   4.737  67.314  1.00  0.00     0.000 HD 
HETATM   20  C   UNL     1     -11.009   7.727  67.162  1.00  0.00     0.023 C  
ENDBRANCH  13  14
ENDBRANCH   8  13
ENDBRANCH   2   3
TORSDOF 5
ENDMDL
MODEL      129
REMARK 921   NORMALIZED FREE ENERGY PREDICTED BY IDOCK:   -3.28 KCAL/MOL
REMARK 922        TOTAL FREE ENERGY PREDICTED BY IDOCK:   -4.81 KCAL/MOL
REMARK 923 INTER-LIGAND FREE ENERGY PREDICTED BY IDOCK:   -4.25 KCAL/MOL
REMARK 924 INTRA-LIGAND FREE ENERGY PREDICTED BY IDOCK:   -0.56 KCAL/MOL
REMARK 927      BINDING AFFINITY PREDICTED BY RF-SCORE:    0.00 PKD
ROOT
HETATM    1  C   UNL     1      -6.126  14.912  68.374  1.00  0.00    -0.103 C  
HETATM    2  O   UNL     1      -6.611  14.170  67.261  1.00  0.00    -0.274 OA 
ENDROOT
BRANCH   2   3
HETATM    3  C   UNL     1      -7.631  13.278  67.507  1.00  0.00    -0.164 A  
HETATM    4  C   UNL     1      -8.993  13.435  67.144  1.00  0.00    -0.226 A  
HETATM    5  C   UNL     1      -8.123  11.213  68.649  1.00  0.00    -0.150 A  
HETATM    6  C   UNL     1      -9.908  12.415  67.493  1.00  0.00    -0.194 A  
HETATM    7  C   UNL     1      -7.213  12.188  68.270  1.00  0.00    -0.095 A  
HETATM    8  C   UNL     1      -9.474  11.313  68.276  1.00  0.00    -0.190 A  
BRANCH   4   9
HETATM    9  O   UNL     1      -9.255  14.622  66.526  1.00  0.00    -0.262 OA 
HETATM   10  C   UNL     1      -9.893  15.708  67.159  1.00  0.00    -0.229 C  
ENDBRANCH   4   9
BRANCH   6  11
HETATM   11  O   UNL     1     -11.261  12.481  67.258  1.00  0.00    -0.264 OA 
HETATM   12  C   UNL     1     -11.657  12.220  65.912  1.00  0.00    -0.393 C  
ENDBRANCH   6  11
BRANCH   8  13
HETATM   13  C   UNL     1     -10.417  10.228  68.770  1.00  0.00    -0.203 C  
BRANCH  13  14
HETATM   14  N   UNL     1      -9.785   9.342  69.771  1.00  0.00    -0.186 NA 
HETATM   15  C   UNL     1     -10.517   9.335  71.060  1.00  0.00    -0.314 C  
HETATM   16  C   UNL     1     -11.860   8.574  71.039  1.00  0.00    -0.257 C  
HETATM   17  N   UNL     1     -11.730   7.192  70.541  1.00  0.00    -0.451 NA 
HETATM   18  C   UNL     1     -11.026   7.183  69.250  1.00  0.00    -0.136 C  
HETATM   19  H   UNL     1     -12.632   6.719  70.487  1.00  0.00     0.000 HD 
HETATM   20  C   UNL     1      -9.687   7.953  69.282  1.00  0.00    -0.159 C  
ENDBRANCH  13  14
ENDBRANCH   8  13
ENDBRANCH   2   3
TORSDOF 5
ENDMDL
MODEL      130
REMARK 921   NORMALIZED FREE ENERGY PREDICTED BY IDOCK:   -3.26 KCAL/MOL
REMARK 922        TOTAL FREE ENERGY PREDICTED BY IDOCK:   -4.78 KCAL/MOL
REMARK 923 INTER-LIGAND FREE ENERGY PREDICTED BY IDOCK:   -4.36 KCAL/MOL
REMARK 924 INTRA-LIGAND FREE ENERGY PREDICTED BY IDOCK:   -0.43 KCAL/MOL
REMARK 927      BINDING AFFINITY PREDICTED BY RF-SCORE:    0.00 PKD
ROOT
HETATM    1  C   UNL     1     -12.781  13.976  65.282  1.00  0.00    -0.439 C  
HETATM    2  O   UNL     1     -12.317  14.303  66.587  1.00  0.00    -0.446 OA 
ENDROOT
BRANCH   2   3
HETATM    3  C   UNL     1     -11.423  13.429  67.164  1.00  0.00    -0.339 A  
HETATM    4  C   UNL     1     -10.106  13.733  67.597  1.00  0.00    -0.242 A  
HETATM    5  C   UNL     1     -11.117  11.102  67.716  1.00  0.00    -0.344 A  
HETATM    6  C   UNL     1      -9.322  12.699  68.159  1.00  0.00    -0.210 A  
HETATM    7  C   UNL     1     -11.906  12.121  67.205  1.00  0.00    -0.293 A  
HETATM    8  C   UNL     1      -9.821  11.371  68.189  1.00  0.00    -0.195 A  
BRANCH   4   9
HETATM    9  O   UNL     1      -9.744  15.025  67.356  1.00  0.00    -0.214 OA 
HETATM   10  C   UNL     1      -9.281  15.486  66.107  1.00  0.00    -0.344 C  
ENDBRANCH   4   9
BRANCH   6  11
HETATM   11  O   UNL     1      -8.014  12.852  68.551  1.00  0.00    -0.144 OA 
HETATM   12  C   UNL     1      -7.062  12.881  67.488  1.00  0.00    -0.152 C  
ENDBRANCH   6  11
BRANCH   8  13
HETATM   13  C   UNL     1      -9.003  10.191  68.689  1.00  0.00    -0.136 C  
BRANCH  13  14
HETATM   14  N   UNL     1      -9.741   8.913  68.605  1.00  0.00    -0.158 NA 
HETATM   15  C   UNL     1      -9.070   7.930  67.723  1.00  0.00    -0.134 C  
HETATM   16  C   UNL     1      -7.786   7.303  68.310  1.00  0.00    -0.120 C  
HETATM   17  N   UNL     1      -7.995   6.704  69.641  1.00  0.00    -0.122 NA 
HETATM   18  C   UNL     1      -8.640   7.676  70.537  1.00  0.00    -0.137 C  
HETATM   19  H   UNL     1      -7.128   6.339  70.036  1.00  0.00     0.000 HD 
HETATM   20  C   UNL     1      -9.919   8.301  69.937  1.00  0.00    -0.190 C  
ENDBRANCH  13  14
ENDBRANCH   8  13
ENDBRANCH   2   3
TORSDOF 5
ENDMDL
MODEL      131
REMARK 921   NORMALIZED FREE ENERGY PREDICTED BY IDOCK:   -3.25 KCAL/MOL
REMARK 922        TOTAL FREE ENERGY PREDICTED BY IDOCK:   -4.78 KCAL/MOL
REMARK 923 INTER-LIGAND FREE ENERGY PREDICTED BY IDOCK:   -4.93 KCAL/MOL
REMARK 924 INTRA-LIGAND FREE ENERGY PREDICTED BY IDOCK:    0.15 KCAL/MOL
REMARK 927      BINDING AFFINITY PREDICTED BY RF-SCORE:    0.00 PKD
ROOT
HETATM    1  C   UNL     1     -13.255  15.677  71.672  1.00  0.00    -0.472 C  
HETATM    2  O   UNL     1     -12.363  16.318  70.767  1.00  0.00    -0.099 OA 
ENDROOT
BRANCH   2   3
HETATM    3  C   UNL     1     -11.707  15.509  69.866  1.00  0.00    -0.352 A  
HETATM    4  C   UNL     1     -10.682  15.904  68.968  1.00  0.00    -0.251 A  
HETATM    5  C   UNL     1     -11.711  13.278  68.952  1.00  0.00    -0.369 A  
HETATM    6  C   UNL     1     -10.129  14.934  68.101  1.00  0.00    -0.222 A  
HETATM    7  C   UNL     1     -12.226  14.214  69.835  1.00  0.00    -0.416 A  
HETATM    8  C   UNL     1     -10.669  13.622  68.074  1.00  0.00    -0.258 A  
BRANCH   4   9
HETATM    9  O   UNL     1     -10.392  17.235  69.032  1.00  0.00    -0.330 OA 
HETATM   10  C   UNL     1     -10.289  18.067  67.899  1.00  0.00    -0.392 C  
ENDBRANCH   4   9
BRANCH   6  11
HETATM   11  O   UNL     1      -9.182  15.207  67.143  1.00  0.00    -0.198 OA 
HETATM   12  C   UNL     1      -9.688  15.362  65.818  1.00  0.00    -0.350 C  
ENDBRANCH   6  11
BRANCH   8  13
HETATM   13  C   UNL     1     -10.193  12.552  67.104  1.00  0.00    -0.217 C  
BRANCH  13  14
HETATM   14  N   UNL     1      -9.496  11.440  67.784  1.00  0.00    -0.162 NA 
HETATM   15  C   UNL     1     -10.274  10.179  67.745  1.00  0.00    -0.191 C  
HETATM   16  C   UNL     1     -10.315   9.485  66.365  1.00  0.00    -0.173 C  
HETATM   17  N   UNL     1      -8.974   9.252  65.798  1.00  0.00    -0.178 NA 
HETATM   18  C   UNL     1      -8.196  10.500  65.808  1.00  0.00    -0.160 C  
HETATM   19  H   UNL     1      -9.020   8.839  64.867  1.00  0.00     0.000 HD 
HETATM   20  C   UNL     1      -8.167  11.188  67.191  1.00  0.00    -0.137 C  
ENDBRANCH  13  14
ENDBRANCH   8  13
ENDBRANCH   2   3
TORSDOF 5
ENDMDL
MODEL      132
REMARK 921   NORMALIZED FREE ENERGY PREDICTED BY IDOCK:   -3.24 KCAL/MOL
REMARK 922        TOTAL FREE ENERGY PREDICTED BY IDOCK:   -4.76 KCAL/MOL
REMARK 923 INTER-LIGAND FREE ENERGY PREDICTED BY IDOCK:   -4.32 KCAL/MOL
REMARK 924 INTRA-LIGAND FREE ENERGY PREDICTED BY IDOCK:   -0.44 KCAL/MOL
REMARK 927      BINDING AFFINITY PREDICTED BY RF-SCORE:    0.00 PKD
ROOT
HETATM    1  C   UNL     1      -5.130   8.463  67.544  1.00  0.00    -0.033 C  
HETATM    2  O   UNL     1      -5.190   9.867  67.767  1.00  0.00    -0.036 OA 
ENDROOT
BRANCH   2   3
HETATM    3  C   UNL     1      -6.367  10.499  67.433  1.00  0.00    -0.058 A  
HETATM    4  C   UNL     1      -7.096  11.407  68.244  1.00  0.00    -0.078 A  
HETATM    5  C   UNL     1      -8.069  10.581  65.727  1.00  0.00    -0.158 A  
HETATM    6  C   UNL     1      -8.299  11.951  67.737  1.00  0.00    -0.149 A  
HETATM    7  C   UNL     1      -6.866  10.079  66.200  1.00  0.00    -0.102 A  
HETATM    8  C   UNL     1      -8.802  11.511  66.485  1.00  0.00    -0.190 A  
BRANCH   4   9
HETATM    9  O   UNL     1      -6.540  11.599  69.474  1.00  0.00    -0.110 OA 
HETATM   10  C   UNL     1      -5.967  12.818  69.889  1.00  0.00    -0.138 C  
ENDBRANCH   4   9
BRANCH   6  11
HETATM   11  O   UNL     1      -9.128  12.785  68.451  1.00  0.00    -0.192 OA 
HETATM   12  C   UNL     1      -8.782  14.168  68.403  1.00  0.00    -0.178 C  
ENDBRANCH   6  11
BRANCH   8  13
HETATM   13  C   UNL     1     -10.133  11.977  65.919  1.00  0.00    -0.236 C  
BRANCH  13  14
HETATM   14  N   UNL     1      -9.979  12.739  64.661  1.00  0.00    -0.190 NA 
HETATM   15  C   UNL     1     -10.639  12.073  63.513  1.00  0.00    -0.465 C  
HETATM   16  C   UNL     1     -12.182  12.145  63.523  1.00  0.00    -0.567 C  
HETATM   17  N   UNL     1     -12.693  13.522  63.651  1.00  0.00    -0.596 NA 
HETATM   18  C   UNL     1     -12.064  14.190  64.801  1.00  0.00    -0.441 C  
HETATM   19  H   UNL     1     -13.711  13.548  63.705  1.00  0.00     0.000 HD 
HETATM   20  C   UNL     1     -10.522  14.106  64.784  1.00  0.00    -0.408 C  
ENDBRANCH  13  14
ENDBRANCH   8  13
ENDBRANCH   2   3
TORSDOF 5
ENDMDL
MODEL      133
REMARK 921   NORMALIZED FREE ENERGY PREDICTED BY IDOCK:   -3.22 KCAL/MOL
REMARK 922        TOTAL FREE ENERGY PREDICTED BY IDOCK:   -4.74 KCAL/MOL
REMARK 923 INTER-LIGAND FREE ENERGY PREDICTED BY IDOCK:   -4.10 KCAL/MOL
REMARK 924 INTRA-LIGAND FREE ENERGY PREDICTED BY IDOCK:   -0.64 KCAL/MOL
REMARK 927      BINDING AFFINITY PREDICTED BY RF-SCORE:    0.00 PKD
ROOT
HETATM    1  C   UNL     1     -11.261  10.641  67.634  1.00  0.00    -0.290 C  
HETATM    2  O   UNL     1     -10.859  11.124  68.911  1.00  0.00    -0.191 OA 
ENDROOT
BRANCH   2   3
HETATM    3  C   UNL     1     -10.474  10.181  69.838  1.00  0.00    -0.275 A  
HETATM    4  C   UNL     1     -11.314   9.535  70.782  1.00  0.00    -0.321 A  
HETATM    5  C   UNL     1      -8.530   9.079  70.741  1.00  0.00    -0.238 A  
HETATM    6  C   UNL     1     -10.738   8.597  71.670  1.00  0.00    -0.303 A  
HETATM    7  C   UNL     1      -9.096   9.966  69.839  1.00  0.00    -0.241 A  
HETATM    8  C   UNL     1      -9.334   8.391  71.668  1.00  0.00    -0.280 A  
BRANCH   4   9
HETATM    9  O   UNL     1     -12.607   9.964  70.737  1.00  0.00    -0.295 OA 
HETATM   10  C   UNL     1     -13.132  10.954  71.592  1.00  0.00    -0.433 C  
ENDBRANCH   4   9
BRANCH   6  11
HETATM   11  O   UNL     1     -11.431   7.959  72.671  1.00  0.00    -0.367 OA 
HETATM   12  C   UNL     1     -12.163   6.804  72.261  1.00  0.00    -0.138 C  
ENDBRANCH   6  11
BRANCH   8  13
HETATM   13  C   UNL     1      -8.631   7.473  72.654  1.00  0.00    -0.118 C  
BRANCH  13  14
HETATM   14  N   UNL     1      -7.892   6.381  71.984  1.00  0.00    -0.099 NA 
HETATM   15  C   UNL     1      -6.826   5.812  72.842  1.00  0.00    -0.075 C  
HETATM   16  C   UNL     1      -7.332   4.934  74.008  1.00  0.00    -0.082 C  
HETATM   17  N   UNL     1      -8.233   3.854  73.565  1.00  0.00    -0.088 NA 
HETATM   18  C   UNL     1      -9.312   4.406  72.730  1.00  0.00    -0.128 C  
HETATM   19  H   UNL     1      -8.597   3.315  74.350  1.00  0.00     0.000 HD 
HETATM   20  C   UNL     1      -8.794   5.287  71.572  1.00  0.00    -0.134 C  
ENDBRANCH  13  14
ENDBRANCH   8  13
ENDBRANCH   2   3
TORSDOF 5
ENDMDL
MODEL      134
REMARK 921   NORMALIZED FREE ENERGY PREDICTED BY IDOCK:   -3.18 KCAL/MOL
REMARK 922        TOTAL FREE ENERGY PREDICTED BY IDOCK:   -4.68 KCAL/MOL
REMARK 923 INTER-LIGAND FREE ENERGY PREDICTED BY IDOCK:   -4.30 KCAL/MOL
REMARK 924 INTRA-LIGAND FREE ENERGY PREDICTED BY IDOCK:   -0.38 KCAL/MOL
REMARK 927      BINDING AFFINITY PREDICTED BY RF-SCORE:    0.00 PKD
ROOT
HETATM    1  C   UNL     1      -5.171   7.387  74.202  1.00  0.00    -0.046 C  
HETATM    2  O   UNL     1      -5.896   6.245  73.760  1.00  0.00    -0.055 OA 
ENDROOT
BRANCH   2   3
HETATM    3  C   UNL     1      -7.251   6.406  73.571  1.00  0.00    -0.082 A  
HETATM    4  C   UNL     1      -8.164   5.414  73.129  1.00  0.00    -0.115 A  
HETATM    5  C   UNL     1      -8.993   8.073  73.578  1.00  0.00    -0.327 A  
HETATM    6  C   UNL     1      -9.526   5.765  72.980  1.00  0.00    -0.150 A  
HETATM    7  C   UNL     1      -7.665   7.723  73.769  1.00  0.00    -0.193 A  
HETATM    8  C   UNL     1      -9.934   7.109  73.177  1.00  0.00    -0.269 A  
BRANCH   4   9
HETATM    9  O   UNL     1      -7.569   4.219  72.847  1.00  0.00    -0.077 OA 
HETATM   10  C   UNL     1      -7.518   3.140  73.752  1.00  0.00    -0.056 C  
ENDBRANCH   4   9
BRANCH   6  11
HETATM   11  O   UNL     1     -10.491   4.915  72.496  1.00  0.00    -0.194 OA 
HETATM   12  C   UNL     1     -11.067   4.037  73.463  1.00  0.00    -0.259 C  
ENDBRANCH   6  11
BRANCH   8  13
HETATM   13  C   UNL     1     -11.360   7.583  72.943  1.00  0.00    -0.304 C  
BRANCH  13  14
HETATM   14  N   UNL     1     -11.780   7.441  71.533  1.00  0.00    -0.272 NA 
HETATM   15  C   UNL     1     -13.251   7.326  71.392  1.00  0.00    -0.346 C  
HETATM   16  C   UNL     1     -14.030   8.638  71.631  1.00  0.00    -0.401 C  
HETATM   17  N   UNL     1     -13.544   9.755  70.799  1.00  0.00    -0.547 NA 
HETATM   18  C   UNL     1     -12.087   9.898  70.946  1.00  0.00    -0.341 C  
HETATM   19  H   UNL     1     -14.035  10.625  71.004  1.00  0.00     0.000 HD 
HETATM   20  C   UNL     1     -11.319   8.578  70.712  1.00  0.00    -0.266 C  
ENDBRANCH  13  14
ENDBRANCH   8  13
ENDBRANCH   2   3
TORSDOF 5
ENDMDL
MODEL      135
REMARK 921   NORMALIZED FREE ENERGY PREDICTED BY IDOCK:   -3.17 KCAL/MOL
REMARK 922        TOTAL FREE ENERGY PREDICTED BY IDOCK:   -4.68 KCAL/MOL
REMARK 923 INTER-LIGAND FREE ENERGY PREDICTED BY IDOCK:   -4.21 KCAL/MOL
REMARK 924 INTRA-LIGAND FREE ENERGY PREDICTED BY IDOCK:   -0.47 KCAL/MOL
REMARK 927      BINDING AFFINITY PREDICTED BY RF-SCORE:    0.00 PKD
ROOT
HETATM    1  C   UNL     1      -7.980   7.127  64.871  1.00  0.00    -0.127 C  
HETATM    2  O   UNL     1      -8.049   8.408  64.256  1.00  0.00    -0.150 OA 
ENDROOT
BRANCH   2   3
HETATM    3  C   UNL     1      -8.319   9.478  65.081  1.00  0.00    -0.142 A  
HETATM    4  C   UNL     1      -7.365  10.337  65.686  1.00  0.00    -0.149 A  
HETATM    5  C   UNL     1     -10.123  10.598  66.223  1.00  0.00    -0.291 A  
HETATM    6  C   UNL     1      -7.828  11.383  66.518  1.00  0.00    -0.105 A  
HETATM    7  C   UNL     1      -9.678   9.599  65.370  1.00  0.00    -0.365 A  
HETATM    8  C   UNL     1      -9.212  11.493  66.811  1.00  0.00    -0.187 A  
BRANCH   4   9
HETATM    9  O   UNL     1      -6.075   9.992  65.410  1.00  0.00    -0.077 OA 
HETATM   10  C   UNL     1      -5.274  10.658  64.461  1.00  0.00    -0.143 C  
ENDBRANCH   4   9
BRANCH   6  11
HETATM   11  O   UNL     1      -7.003  12.236  67.213  1.00  0.00    -0.143 OA 
HETATM   12  C   UNL     1      -6.336  11.656  68.333  1.00  0.00    -0.051 C  
ENDBRANCH   6  11
BRANCH   8  13
HETATM   13  C   UNL     1      -9.774  12.529  67.771  1.00  0.00    -0.202 C  
BRANCH  13  14
HETATM   14  N   UNL     1     -11.213  12.787  67.547  1.00  0.00    -0.273 NA 
HETATM   15  C   UNL     1     -11.965  12.927  68.817  1.00  0.00    -0.253 C  
HETATM   16  C   UNL     1     -11.710  14.245  69.580  1.00  0.00    -0.316 C  
HETATM   17  N   UNL     1     -11.928  15.443  68.747  1.00  0.00    -0.554 NA 
HETATM   18  C   UNL     1     -11.169  15.331  67.492  1.00  0.00    -0.317 C  
HETATM   19  H   UNL     1     -11.708  16.302  69.250  1.00  0.00     0.000 HD 
HETATM   20  C   UNL     1     -11.426  14.006  66.741  1.00  0.00    -0.363 C  
ENDBRANCH  13  14
ENDBRANCH   8  13
ENDBRANCH   2   3
TORSDOF 5
ENDMDL
MODEL      136
REMARK 921   NORMALIZED FREE ENERGY PREDICTED BY IDOCK:   -3.16 KCAL/MOL
REMARK 922        TOTAL FREE ENERGY PREDICTED BY IDOCK:   -4.66 KCAL/MOL
REMARK 923 INTER-LIGAND FREE ENERGY PREDICTED BY IDOCK:   -4.96 KCAL/MOL
REMARK 924 INTRA-LIGAND FREE ENERGY PREDICTED BY IDOCK:    0.30 KCAL/MOL
REMARK 927      BINDING AFFINITY PREDICTED BY RF-SCORE:    0.00 PKD
ROOT
HETATM    1  C   UNL     1     -12.606  15.192  73.909  1.00  0.00    -0.549 C  
HETATM    2  O   UNL     1     -13.240  14.173  73.145  1.00  0.00    -0.613 OA 
ENDROOT
BRANCH   2   3
HETATM    3  C   UNL     1     -12.911  14.105  71.809  1.00  0.00    -0.348 A  
HETATM    4  C   UNL     1     -12.449  12.958  71.112  1.00  0.00    -0.249 A  
HETATM    5  C   UNL     1     -12.641  15.469  69.840  1.00  0.00    -0.168 A  
HETATM    6  C   UNL     1     -12.147  13.079  69.736  1.00  0.00    -0.258 A  
HETATM    7  C   UNL     1     -12.981  15.346  71.178  1.00  0.00    -0.545 A  
HETATM    8  C   UNL     1     -12.215  14.349  69.106  1.00  0.00    -0.255 A  
BRANCH   4   9
HETATM    9  O   UNL     1     -12.305  11.862  71.910  1.00  0.00     0.114 OA 
HETATM   10  C   UNL     1     -13.234  10.803  71.958  1.00  0.00    -0.361 C  
ENDBRANCH   4   9
BRANCH   6  11
HETATM   11  O   UNL     1     -11.629  12.062  68.969  1.00  0.00    -0.264 OA 
HETATM   12  C   UNL     1     -12.493  10.941  68.784  1.00  0.00     0.572 C  
ENDBRANCH   6  11
BRANCH   8  13
HETATM   13  C   UNL     1     -11.815  14.576  67.657  1.00  0.00    -0.364 C  
BRANCH  13  14
HETATM   14  N   UNL     1     -10.349  14.670  67.482  1.00  0.00    -0.234 NA 
HETATM   15  C   UNL     1      -9.722  13.346  67.259  1.00  0.00    -0.232 C  
HETATM   16  C   UNL     1      -9.982  12.732  65.866  1.00  0.00    -0.266 C  
HETATM   17  N   UNL     1      -9.620  13.639  64.761  1.00  0.00    -0.324 NA 
HETATM   18  C   UNL     1     -10.254  14.951  64.955  1.00  0.00    -0.330 C  
HETATM   19  H   UNL     1      -9.844  13.238  63.850  1.00  0.00     0.000 HD 
HETATM   20  C   UNL     1      -9.992  15.552  66.354  1.00  0.00    -0.283 C  
ENDBRANCH  13  14
ENDBRANCH   8  13
ENDBRANCH   2   3
TORSDOF 5
ENDMDL
MODEL      137
REMARK 921   NORMALIZED FREE ENERGY PREDICTED BY IDOCK:   -3.15 KCAL/MOL
REMARK 922        TOTAL FREE ENERGY PREDICTED BY IDOCK:   -4.65 KCAL/MOL
REMARK 923 INTER-LIGAND FREE ENERGY PREDICTED BY IDOCK:   -4.08 KCAL/MOL
REMARK 924 INTRA-LIGAND FREE ENERGY PREDICTED BY IDOCK:   -0.57 KCAL/MOL
REMARK 927      BINDING AFFINITY PREDICTED BY RF-SCORE:    0.00 PKD
ROOT
HETATM    1  C   UNL     1     -10.256   3.687  64.140  1.00  0.00    -0.231 C  
HETATM    2  O   UNL     1      -9.138   3.836  65.007  1.00  0.00    -0.128 OA 
ENDROOT
BRANCH   2   3
HETATM    3  C   UNL     1      -9.292   4.691  66.076  1.00  0.00    -0.156 A  
HETATM    4  C   UNL     1      -9.046   6.088  66.080  1.00  0.00    -0.147 A  
HETATM    5  C   UNL     1      -9.792   4.723  68.434  1.00  0.00    -0.187 A  
HETATM    6  C   UNL     1      -9.248   6.808  67.281  1.00  0.00    -0.133 A  
HETATM    7  C   UNL     1      -9.638   4.021  67.249  1.00  0.00    -0.229 A  
HETATM    8  C   UNL     1      -9.593   6.115  68.470  1.00  0.00    -0.127 A  
BRANCH   4   9
HETATM    9  O   UNL     1      -8.579   6.558  64.888  1.00  0.00    -0.035 OA 
HETATM   10  C   UNL     1      -7.218   6.820  64.631  1.00  0.00    -0.075 C  
ENDBRANCH   4   9
BRANCH   6  11
HETATM   11  O   UNL     1      -8.979   8.148  67.430  1.00  0.00    -0.135 OA 
HETATM   12  C   UNL     1      -9.940   9.027  66.847  1.00  0.00    -0.246 C  
ENDBRANCH   6  11
BRANCH   8  13
HETATM   13  C   UNL     1      -9.734   6.804  69.818  1.00  0.00    -0.156 C  
BRANCH  13  14
HETATM   14  N   UNL     1     -11.043   7.471  69.980  1.00  0.00    -0.240 NA 
HETATM   15  C   UNL     1     -12.035   6.608  70.664  1.00  0.00    -0.343 C  
HETATM   16  C   UNL     1     -11.794   6.419  72.178  1.00  0.00    -0.314 C  
HETATM   17  N   UNL     1     -11.672   7.697  72.905  1.00  0.00    -0.610 NA 
HETATM   18  C   UNL     1     -10.674   8.557  72.251  1.00  0.00    -0.341 C  
HETATM   19  H   UNL     1     -11.465   7.555  73.893  1.00  0.00     0.000 HD 
HETATM   20  C   UNL     1     -10.921   8.733  70.736  1.00  0.00    -0.247 C  
ENDBRANCH  13  14
ENDBRANCH   8  13
ENDBRANCH   2   3
TORSDOF 5
ENDMDL
MODEL      138
REMARK 921   NORMALIZED FREE ENERGY PREDICTED BY IDOCK:   -3.14 KCAL/MOL
REMARK 922        TOTAL FREE ENERGY PREDICTED BY IDOCK:   -4.63 KCAL/MOL
REMARK 923 INTER-LIGAND FREE ENERGY PREDICTED BY IDOCK:   -4.01 KCAL/MOL
REMARK 924 INTRA-LIGAND FREE ENERGY PREDICTED BY IDOCK:   -0.62 KCAL/MOL
REMARK 927      BINDING AFFINITY PREDICTED BY RF-SCORE:    0.00 PKD
ROOT
HETATM    1  C   UNL     1      -7.854  10.083  64.427  1.00  0.00    -0.144 C  
HETATM    2  O   UNL     1      -8.387   8.764  64.444  1.00  0.00    -0.163 OA 
ENDROOT
BRANCH   2   3
HETATM    3  C   UNL     1      -8.883   8.311  65.647  1.00  0.00    -0.132 A  
HETATM    4  C   UNL     1      -8.556   7.088  66.287  1.00  0.00    -0.139 A  
HETATM    5  C   UNL     1     -10.502   8.828  67.357  1.00  0.00    -0.349 A  
HETATM    6  C   UNL     1      -9.177   6.781  67.519  1.00  0.00    -0.122 A  
HETATM    7  C   UNL     1      -9.862   9.155  66.171  1.00  0.00    -0.363 A  
HETATM    8  C   UNL     1     -10.177   7.643  68.040  1.00  0.00    -0.248 A  
BRANCH   4   9
HETATM    9  O   UNL     1      -7.688   6.318  65.570  1.00  0.00    -0.086 OA 
HETATM   10  C   UNL     1      -6.292   6.325  65.766  1.00  0.00    -0.038 C  
ENDBRANCH   4   9
BRANCH   6  11
HETATM   11  O   UNL     1      -8.996   5.601  68.200  1.00  0.00    -0.112 OA 
HETATM   12  C   UNL     1      -7.825   5.544  69.014  1.00  0.00    -0.091 C  
ENDBRANCH   6  11
BRANCH   8  13
HETATM   13  C   UNL     1     -10.957   7.334  69.308  1.00  0.00    -0.098 C  
BRANCH  13  14
HETATM   14  N   UNL     1     -10.284   7.837  70.524  1.00  0.00    -0.200 NA 
HETATM   15  C   UNL     1     -10.949   9.039  71.081  1.00  0.00    -0.301 C  
HETATM   16  C   UNL     1     -12.299   8.767  71.780  1.00  0.00    -0.351 C  
HETATM   17  N   UNL     1     -12.208   7.729  72.824  1.00  0.00    -0.591 NA 
HETATM   18  C   UNL     1     -11.571   6.520  72.281  1.00  0.00    -0.292 C  
HETATM   19  H   UNL     1     -13.116   7.527  73.241  1.00  0.00     0.000 HD 
HETATM   20  C   UNL     1     -10.224   6.805  71.579  1.00  0.00    -0.193 C  
ENDBRANCH  13  14
ENDBRANCH   8  13
ENDBRANCH   2   3
TORSDOF 5
ENDMDL
MODEL      139
REMARK 921   NORMALIZED FREE ENERGY PREDICTED BY IDOCK:   -3.12 KCAL/MOL
REMARK 922        TOTAL FREE ENERGY PREDICTED BY IDOCK:   -4.61 KCAL/MOL
REMARK 923 INTER-LIGAND FREE ENERGY PREDICTED BY IDOCK:   -4.05 KCAL/MOL
REMARK 924 INTRA-LIGAND FREE ENERGY PREDICTED BY IDOCK:   -0.56 KCAL/MOL
REMARK 927      BINDING AFFINITY PREDICTED BY RF-SCORE:    0.00 PKD
ROOT
HETATM    1  C   UNL     1      -8.355   7.200  74.215  1.00  0.00    -0.172 C  
HETATM    2  O   UNL     1      -9.317   6.541  73.399  1.00  0.00    -0.131 OA 
ENDROOT
BRANCH   2   3
HETATM    3  C   UNL     1      -9.723   7.204  72.262  1.00  0.00    -0.153 A  
HETATM    4  C   UNL     1      -9.656   6.714  70.932  1.00  0.00    -0.175 A  
HETATM    5  C   UNL     1     -10.545   9.333  71.487  1.00  0.00    -0.405 A  
HETATM    6  C   UNL     1     -10.111   7.544  69.881  1.00  0.00    -0.193 A  
HETATM    7  C   UNL     1     -10.142   8.508  72.525  1.00  0.00    -0.320 A  
HETATM    8  C   UNL     1     -10.528   8.871  70.159  1.00  0.00    -0.236 A  
BRANCH   4   9
HETATM    9  O   UNL     1      -9.091   5.476  70.840  1.00  0.00    -0.140 OA 
HETATM   10  C   UNL     1      -9.835   4.282  70.761  1.00  0.00    -0.195 C  
ENDBRANCH   4   9
BRANCH   6  11
HETATM   11  O   UNL     1     -10.034   7.211  68.550  1.00  0.00    -0.151 OA 
HETATM   12  C   UNL     1     -11.114   6.417  68.060  1.00  0.00    -0.267 C  
ENDBRANCH   6  11
BRANCH   8  13
HETATM   13  C   UNL     1     -10.939   9.853  69.074  1.00  0.00    -0.190 C  
BRANCH  13  14
HETATM   14  N   UNL     1     -10.078  11.055  69.043  1.00  0.00    -0.202 NA 
HETATM   15  C   UNL     1      -9.034  10.974  67.994  1.00  0.00    -0.145 C  
HETATM   16  C   UNL     1      -9.552  11.143  66.549  1.00  0.00    -0.197 C  
HETATM   17  N   UNL     1     -10.340  12.376  66.361  1.00  0.00    -0.231 NA 
HETATM   18  C   UNL     1     -11.397  12.461  67.380  1.00  0.00    -0.321 C  
HETATM   19  H   UNL     1     -10.715  12.448  65.416  1.00  0.00     0.000 HD 
HETATM   20  C   UNL     1     -10.868  12.283  68.821  1.00  0.00    -0.229 C  
ENDBRANCH  13  14
ENDBRANCH   8  13
ENDBRANCH   2   3
TORSDOF 5
ENDMDL
MODEL      140
REMARK 921   NORMALIZED FREE ENERGY PREDICTED BY IDOCK:   -3.10 KCAL/MOL
REMARK 922        TOTAL FREE ENERGY PREDICTED BY IDOCK:   -4.59 KCAL/MOL
REMARK 923 INTER-LIGAND FREE ENERGY PREDICTED BY IDOCK:   -3.97 KCAL/MOL
REMARK 924 INTRA-LIGAND FREE ENERGY PREDICTED BY IDOCK:   -0.62 KCAL/MOL
REMARK 927      BINDING AFFINITY PREDICTED BY RF-SCORE:    0.00 PKD
ROOT
HETATM    1  C   UNL     1      -6.605  10.203  65.207  1.00  0.00    -0.119 C  
HETATM    2  O   UNL     1      -6.617  11.062  66.342  1.00  0.00    -0.125 OA 
ENDROOT
BRANCH   2   3
HETATM    3  C   UNL     1      -7.449  10.706  67.380  1.00  0.00    -0.094 A  
HETATM    4  C   UNL     1      -8.692  11.307  67.708  1.00  0.00    -0.134 A  
HETATM    5  C   UNL     1      -7.584   9.265  69.307  1.00  0.00    -0.080 A  
HETATM    6  C   UNL     1      -9.408  10.815  68.823  1.00  0.00    -0.182 A  
HETATM    7  C   UNL     1      -6.898   9.713  68.189  1.00  0.00    -0.069 A  
HETATM    8  C   UNL     1      -8.835   9.809  69.644  1.00  0.00    -0.224 A  
BRANCH   4   9
HETATM    9  O   UNL     1      -9.015  12.355  66.898  1.00  0.00    -0.202 OA 
HETATM   10  C   UNL     1      -8.818  13.705  67.252  1.00  0.00    -0.224 C  
ENDBRANCH   4   9
BRANCH   6  11
HETATM   11  O   UNL     1     -10.586  11.357  69.281  1.00  0.00    -0.193 OA 
HETATM   12  C   UNL     1     -11.748  11.000  68.534  1.00  0.00    -0.278 C  
ENDBRANCH   6  11
BRANCH   8  13
HETATM   13  C   UNL     1      -9.500   9.298  70.912  1.00  0.00    -0.261 C  
BRANCH  13  14
HETATM   14  N   UNL     1      -9.768   7.845  70.865  1.00  0.00    -0.164 NA 
HETATM   15  C   UNL     1      -9.557   7.190  72.178  1.00  0.00    -0.142 C  
HETATM   16  C   UNL     1     -10.643   7.491  73.234  1.00  0.00    -0.384 C  
HETATM   17  N   UNL     1     -12.007   7.201  72.755  1.00  0.00    -0.520 NA 
HETATM   18  C   UNL     1     -12.241   7.864  71.463  1.00  0.00    -0.311 C  
HETATM   19  H   UNL     1     -12.715   7.451  73.445  1.00  0.00     0.000 HD 
HETATM   20  C   UNL     1     -11.145   7.561  70.417  1.00  0.00    -0.261 C  
ENDBRANCH  13  14
ENDBRANCH   8  13
ENDBRANCH   2   3
TORSDOF 5
ENDMDL
MODEL      141
REMARK 921   NORMALIZED FREE ENERGY PREDICTED BY IDOCK:   -3.08 KCAL/MOL
REMARK 922        TOTAL FREE ENERGY PREDICTED BY IDOCK:   -4.56 KCAL/MOL
REMARK 923 INTER-LIGAND FREE ENERGY PREDICTED BY IDOCK:   -4.12 KCAL/MOL
REMARK 924 INTRA-LIGAND FREE ENERGY PREDICTED BY IDOCK:   -0.44 KCAL/MOL
REMARK 927      BINDING AFFINITY PREDICTED BY RF-SCORE:    0.00 PKD
ROOT
HETATM    1  C   UNL     1     -11.882  14.121  64.482  1.00  0.00    -0.436 C  
HETATM    2  O   UNL     1     -10.537  13.659  64.435  1.00  0.00    -0.423 OA 
ENDROOT
BRANCH   2   3
HETATM    3  C   UNL     1     -10.278  12.443  65.027  1.00  0.00    -0.283 A  
HETATM    4  C   UNL     1     -10.123  12.199  66.416  1.00  0.00    -0.220 A  
HETATM    5  C   UNL     1      -9.756  10.146  64.516  1.00  0.00    -0.361 A  
HETATM    6  C   UNL     1      -9.846  10.880  66.845  1.00  0.00    -0.189 A  
HETATM    7  C   UNL     1     -10.072  11.428  64.094  1.00  0.00    -0.358 A  
HETATM    8  C   UNL     1      -9.632   9.856  65.886  1.00  0.00    -0.300 A  
BRANCH   4   9
HETATM    9  O   UNL     1     -10.217  13.326  67.177  1.00  0.00    -0.242 OA 
HETATM   10  C   UNL     1      -9.108  14.113  67.547  1.00  0.00    -0.195 C  
ENDBRANCH   4   9
BRANCH   6  11
HETATM   11  O   UNL     1      -9.608  10.529  68.153  1.00  0.00    -0.149 OA 
HETATM   12  C   UNL     1     -10.773  10.392  68.965  1.00  0.00    -0.228 C  
ENDBRANCH   6  11
BRANCH   8  13
HETATM   13  C   UNL     1      -9.236   8.438  66.266  1.00  0.00    -0.208 C  
BRANCH  13  14
HETATM   14  N   UNL     1      -7.999   7.994  65.588  1.00  0.00    -0.107 NA 
HETATM   15  C   UNL     1      -6.859   7.863  66.525  1.00  0.00    -0.070 C  
HETATM   16  C   UNL     1      -6.935   6.645  67.472  1.00  0.00    -0.082 C  
HETATM   17  N   UNL     1      -7.130   5.371  66.756  1.00  0.00    -0.068 NA 
HETATM   18  C   UNL     1      -8.274   5.477  65.838  1.00  0.00    -0.121 C  
HETATM   19  H   UNL     1      -7.227   4.584  67.397  1.00  0.00     0.000 HD 
HETATM   20  C   UNL     1      -8.190   6.702  64.900  1.00  0.00    -0.085 C  
ENDBRANCH  13  14
ENDBRANCH   8  13
ENDBRANCH   2   3
TORSDOF 5
ENDMDL
MODEL      142
REMARK 921   NORMALIZED FREE ENERGY PREDICTED BY IDOCK:   -3.08 KCAL/MOL
REMARK 922        TOTAL FREE ENERGY PREDICTED BY IDOCK:   -4.55 KCAL/MOL
REMARK 923 INTER-LIGAND FREE ENERGY PREDICTED BY IDOCK:   -4.45 KCAL/MOL
REMARK 924 INTRA-LIGAND FREE ENERGY PREDICTED BY IDOCK:   -0.11 KCAL/MOL
REMARK 927      BINDING AFFINITY PREDICTED BY RF-SCORE:    0.00 PKD
ROOT
HETATM    1  C   UNL     1      -8.883   5.080  66.475  1.00  0.00    -0.112 C  
HETATM    2  O   UNL     1      -8.414   6.329  66.969  1.00  0.00    -0.109 OA 
ENDROOT
BRANCH   2   3
HETATM    3  C   UNL     1      -8.813   7.456  66.284  1.00  0.00    -0.159 A  
HETATM    4  C   UNL     1      -8.374   7.859  64.997  1.00  0.00    -0.103 A  
HETATM    5  C   UNL     1     -10.123   9.465  66.520  1.00  0.00    -0.332 A  
HETATM    6  C   UNL     1      -8.885   9.060  64.453  1.00  0.00    -0.066 A  
HETATM    7  C   UNL     1      -9.660   8.267  67.039  1.00  0.00    -0.249 A  
HETATM    8  C   UNL     1      -9.741   9.881  65.232  1.00  0.00    -0.383 A  
BRANCH   4   9
HETATM    9  O   UNL     1      -7.440   7.024  64.458  1.00  0.00    -0.084 OA 
HETATM   10  C   UNL     1      -7.630   6.310  63.258  1.00  0.00    -0.086 C  
ENDBRANCH   4   9
BRANCH   6  11
HETATM   11  O   UNL     1      -8.487   9.591  63.249  1.00  0.00    -0.171 OA 
HETATM   12  C   UNL     1      -7.125  10.016  63.194  1.00  0.00    -0.130 C  
ENDBRANCH   6  11
BRANCH   8  13
HETATM   13  C   UNL     1     -10.253  11.230  64.754  1.00  0.00    -0.292 C  
BRANCH  13  14
HETATM   14  N   UNL     1     -11.190  11.853  65.714  1.00  0.00    -0.325 NA 
HETATM   15  C   UNL     1     -10.527  12.861  66.575  1.00  0.00    -0.265 C  
HETATM   16  C   UNL     1     -10.166  14.184  65.865  1.00  0.00    -0.319 C  
HETATM   17  N   UNL     1     -11.318  14.803  65.182  1.00  0.00    -0.364 NA 
HETATM   18  C   UNL     1     -11.974  13.821  64.305  1.00  0.00    -0.443 C  
HETATM   19  H   UNL     1     -11.053  15.648  64.678  1.00  0.00     0.000 HD 
HETATM   20  C   UNL     1     -12.324  12.500  65.025  1.00  0.00    -0.453 C  
ENDBRANCH  13  14
ENDBRANCH   8  13
ENDBRANCH   2   3
TORSDOF 5
ENDMDL
MODEL      143
REMARK 921   NORMALIZED FREE ENERGY PREDICTED BY IDOCK:   -3.07 KCAL/MOL
REMARK 922        TOTAL FREE ENERGY PREDICTED BY IDOCK:   -4.55 KCAL/MOL
REMARK 923 INTER-LIGAND FREE ENERGY PREDICTED BY IDOCK:   -3.92 KCAL/MOL
REMARK 924 INTRA-LIGAND FREE ENERGY PREDICTED BY IDOCK:   -0.63 KCAL/MOL
REMARK 927      BINDING AFFINITY PREDICTED BY RF-SCORE:    0.00 PKD
ROOT
HETATM    1  C   UNL     1      -5.493   7.888  69.031  1.00  0.00    -0.030 C  
HETATM    2  O   UNL     1      -6.383   8.541  68.134  1.00  0.00    -0.053 OA 
ENDROOT
BRANCH   2   3
HETATM    3  C   UNL     1      -7.714   8.563  68.487  1.00  0.00    -0.103 A  
HETATM    4  C   UNL     1      -8.541   9.711  68.588  1.00  0.00    -0.120 A  
HETATM    5  C   UNL     1      -9.500   7.149  69.277  1.00  0.00    -0.152 A  
HETATM    6  C   UNL     1      -9.889   9.543  68.979  1.00  0.00    -0.176 A  
HETATM    7  C   UNL     1      -8.190   7.303  68.851  1.00  0.00    -0.125 A  
HETATM    8  C   UNL     1     -10.361   8.258  69.354  1.00  0.00    -0.223 A  
BRANCH   4   9
HETATM    9  O   UNL     1      -7.880  10.877  68.333  1.00  0.00    -0.110 OA 
HETATM   10  C   UNL     1      -7.887  11.520  67.079  1.00  0.00    -0.161 C  
ENDBRANCH   4   9
BRANCH   6  11
HETATM   11  O   UNL     1     -10.768  10.581  69.179  1.00  0.00    -0.201 OA 
HETATM   12  C   UNL     1     -11.407  11.070  68.001  1.00  0.00    -0.306 C  
ENDBRANCH   6  11
BRANCH   8  13
HETATM   13  C   UNL     1     -11.767   8.014  69.876  1.00  0.00     0.404 C  
BRANCH  13  14
HETATM   14  N   UNL     1     -11.782   7.613  71.300  1.00  0.00    -0.278 NA 
HETATM   15  C   UNL     1     -11.581   8.763  72.211  1.00  0.00    -0.321 C  
HETATM   16  C   UNL     1     -12.791   9.716  72.330  1.00  0.00    -0.325 C  
HETATM   17  N   UNL     1     -14.039   9.018  72.689  1.00  0.00    -0.911 NA 
HETATM   18  C   UNL     1     -14.266   7.886  71.778  1.00  0.00    -0.451 C  
HETATM   19  H   UNL     1     -14.837   9.652  72.715  1.00  0.00     0.000 HD 
HETATM   20  C   UNL     1     -13.047   6.944  71.663  1.00  0.00    -0.279 C  
ENDBRANCH  13  14
ENDBRANCH   8  13
ENDBRANCH   2   3
TORSDOF 5
ENDMDL
MODEL      144
REMARK 921   NORMALIZED FREE ENERGY PREDICTED BY IDOCK:   -3.07 KCAL/MOL
REMARK 922        TOTAL FREE ENERGY PREDICTED BY IDOCK:   -4.54 KCAL/MOL
REMARK 923 INTER-LIGAND FREE ENERGY PREDICTED BY IDOCK:   -3.93 KCAL/MOL
REMARK 924 INTRA-LIGAND FREE ENERGY PREDICTED BY IDOCK:   -0.61 KCAL/MOL
REMARK 927      BINDING AFFINITY PREDICTED BY RF-SCORE:    0.00 PKD
ROOT
HETATM    1  C   UNL     1     -10.659  20.143  66.126  1.00  0.00    -0.258 C  
HETATM    2  O   UNL     1      -9.279  19.857  65.929  1.00  0.00    -0.343 OA 
ENDROOT
BRANCH   2   3
HETATM    3  C   UNL     1      -8.860  18.582  66.238  1.00  0.00    -0.207 A  
HETATM    4  C   UNL     1      -7.517  18.141  66.357  1.00  0.00    -0.252 A  
HETATM    5  C   UNL     1      -9.676  16.343  66.603  1.00  0.00    -0.272 A  
HETATM    6  C   UNL     1      -7.274  16.784  66.671  1.00  0.00    -0.254 A  
HETATM    7  C   UNL     1      -9.921  17.682  66.339  1.00  0.00    -0.337 A  
HETATM    8  C   UNL     1      -8.360  15.875  66.764  1.00  0.00    -0.306 A  
BRANCH   4   9
HETATM    9  O   UNL     1      -6.603  19.117  66.089  1.00  0.00    -0.194 OA 
HETATM   10  C   UNL     1      -5.985  19.286  64.834  1.00  0.00    -0.271 C  
ENDBRANCH   4   9
BRANCH   6  11
HETATM   11  O   UNL     1      -6.021  16.222  66.745  1.00  0.00    -0.323 OA 
HETATM   12  C   UNL     1      -5.190  16.732  67.787  1.00  0.00    -0.123 C  
ENDBRANCH   6  11
BRANCH   8  13
HETATM   13  C   UNL     1      -8.174  14.385  67.003  1.00  0.00    -0.109 C  
BRANCH  13  14
HETATM   14  N   UNL     1      -8.666  13.959  68.330  1.00  0.00    -0.181 NA 
HETATM   15  C   UNL     1      -8.897  12.496  68.403  1.00  0.00    -0.123 C  
HETATM   16  C   UNL     1      -7.612  11.640  68.456  1.00  0.00    -0.127 C  
HETATM   17  N   UNL     1      -6.695  12.046  69.537  1.00  0.00    -0.283 NA 
HETATM   18  C   UNL     1      -6.437  13.492  69.465  1.00  0.00    -0.089 C  
HETATM   19  H   UNL     1      -5.831  11.504  69.528  1.00  0.00     0.000 HD 
HETATM   20  C   UNL     1      -7.729  14.338  69.406  1.00  0.00     0.126 C  
ENDBRANCH  13  14
ENDBRANCH   8  13
ENDBRANCH   2   3
TORSDOF 5
ENDMDL
MODEL      145
REMARK 921   NORMALIZED FREE ENERGY PREDICTED BY IDOCK:   -3.06 KCAL/MOL
REMARK 922        TOTAL FREE ENERGY PREDICTED BY IDOCK:   -4.53 KCAL/MOL
REMARK 923 INTER-LIGAND FREE ENERGY PREDICTED BY IDOCK:   -4.04 KCAL/MOL
REMARK 924 INTRA-LIGAND FREE ENERGY PREDICTED BY IDOCK:   -0.49 KCAL/MOL
REMARK 927      BINDING AFFINITY PREDICTED BY RF-SCORE:    0.00 PKD
ROOT
HETATM    1  C   UNL     1      -9.251  12.307  68.153  1.00  0.00    -0.197 C  
HETATM    2  O   UNL     1     -10.465  11.623  68.441  1.00  0.00    -0.197 OA 
ENDROOT
BRANCH   2   3
HETATM    3  C   UNL     1     -10.469  10.259  68.247  1.00  0.00    -0.199 A  
HETATM    4  C   UNL     1     -10.559   9.264  69.254  1.00  0.00    -0.222 A  
HETATM    5  C   UNL     1     -10.203   8.576  66.542  1.00  0.00    -0.286 A  
HETATM    6  C   UNL     1     -10.536   7.905  68.867  1.00  0.00    -0.145 A  
HETATM    7  C   UNL     1     -10.270   9.910  66.911  1.00  0.00    -0.302 A  
HETATM    8  C   UNL     1     -10.326   7.561  67.506  1.00  0.00    -0.321 A  
BRANCH   4   9
HETATM    9  O   UNL     1     -10.607   9.777  70.517  1.00  0.00    -0.277 OA 
HETATM   10  C   UNL     1     -11.807  10.089  71.188  1.00  0.00    -0.393 C  
ENDBRANCH   4   9
BRANCH   6  11
HETATM   11  O   UNL     1     -10.547   6.852  69.751  1.00  0.00    -0.214 OA 
HETATM   12  C   UNL     1     -11.780   6.654  70.442  1.00  0.00    -0.386 C  
ENDBRANCH   6  11
BRANCH   8  13
HETATM   13  C   UNL     1     -10.193   6.124  67.028  1.00  0.00    -0.202 C  
BRANCH  13  14
HETATM   14  N   UNL     1      -8.833   5.813  66.539  1.00  0.00    -0.122 NA 
HETATM   15  C   UNL     1      -7.950   5.303  67.614  1.00  0.00    -0.100 C  
HETATM   16  C   UNL     1      -8.258   3.861  68.075  1.00  0.00    -0.091 C  
HETATM   17  N   UNL     1      -8.284   2.894  66.962  1.00  0.00    -0.086 NA 
HETATM   18  C   UNL     1      -9.175   3.375  65.895  1.00  0.00    -0.156 C  
HETATM   19  H   UNL     1      -8.536   1.958  67.276  1.00  0.00     0.000 HD 
HETATM   20  C   UNL     1      -8.862   4.820  65.447  1.00  0.00    -0.146 C  
ENDBRANCH  13  14
ENDBRANCH   8  13
ENDBRANCH   2   3
TORSDOF 5
ENDMDL
MODEL      146
REMARK 921   NORMALIZED FREE ENERGY PREDICTED BY IDOCK:   -3.06 KCAL/MOL
REMARK 922        TOTAL FREE ENERGY PREDICTED BY IDOCK:   -4.53 KCAL/MOL
REMARK 923 INTER-LIGAND FREE ENERGY PREDICTED BY IDOCK:   -3.96 KCAL/MOL
REMARK 924 INTRA-LIGAND FREE ENERGY PREDICTED BY IDOCK:   -0.57 KCAL/MOL
REMARK 927      BINDING AFFINITY PREDICTED BY RF-SCORE:    0.00 PKD
ROOT
HETATM    1  C   UNL     1      -7.561   6.795  63.136  1.00  0.00    -0.089 C  
HETATM    2  O   UNL     1      -7.320   7.723  64.188  1.00  0.00    -0.078 OA 
ENDROOT
BRANCH   2   3
HETATM    3  C   UNL     1      -8.238   7.749  65.214  1.00  0.00    -0.140 A  
HETATM    4  C   UNL     1      -9.038   8.855  65.602  1.00  0.00    -0.212 A  
HETATM    5  C   UNL     1      -9.088   6.432  67.045  1.00  0.00    -0.130 A  
HETATM    6  C   UNL     1      -9.922   8.701  66.695  1.00  0.00    -0.287 A  
HETATM    7  C   UNL     1      -8.252   6.563  65.947  1.00  0.00    -0.131 A  
HETATM    8  C   UNL     1      -9.923   7.492  67.438  1.00  0.00    -0.246 A  
BRANCH   4   9
HETATM    9  O   UNL     1      -8.798   9.979  64.868  1.00  0.00    -0.163 OA 
HETATM   10  C   UNL     1      -9.697  10.495  63.913  1.00  0.00    -0.325 C  
ENDBRANCH   4   9
BRANCH   6  11
HETATM   11  O   UNL     1     -10.696   9.715  67.207  1.00  0.00    -0.263 OA 
HETATM   12  C   UNL     1      -9.974  10.858  67.663  1.00  0.00    -0.173 C  
ENDBRANCH   6  11
BRANCH   8  13
HETATM   13  C   UNL     1     -10.774   7.286  68.681  1.00  0.00    -0.138 C  
BRANCH  13  14
HETATM   14  N   UNL     1      -9.960   7.145  69.907  1.00  0.00    -0.180 NA 
HETATM   15  C   UNL     1      -9.485   8.451  70.421  1.00  0.00    -0.168 C  
HETATM   16  C   UNL     1     -10.575   9.322  71.084  1.00  0.00    -0.332 C  
HETATM   17  N   UNL     1     -11.309   8.614  72.149  1.00  0.00    -0.359 NA 
HETATM   18  C   UNL     1     -11.808   7.324  71.648  1.00  0.00    -0.298 C  
HETATM   19  H   UNL     1     -12.056   9.185  72.543  1.00  0.00     0.000 HD 
HETATM   20  C   UNL     1     -10.711   6.465  70.981  1.00  0.00    -0.251 C  
ENDBRANCH  13  14
ENDBRANCH   8  13
ENDBRANCH   2   3
TORSDOF 5
ENDMDL
MODEL      147
REMARK 921   NORMALIZED FREE ENERGY PREDICTED BY IDOCK:   -3.06 KCAL/MOL
REMARK 922        TOTAL FREE ENERGY PREDICTED BY IDOCK:   -4.53 KCAL/MOL
REMARK 923 INTER-LIGAND FREE ENERGY PREDICTED BY IDOCK:   -4.03 KCAL/MOL
REMARK 924 INTRA-LIGAND FREE ENERGY PREDICTED BY IDOCK:   -0.50 KCAL/MOL
REMARK 927      BINDING AFFINITY PREDICTED BY RF-SCORE:    0.00 PKD
ROOT
HETATM    1  C   UNL     1     -11.911  13.146  65.735  1.00  0.00    -0.397 C  
HETATM    2  O   UNL     1     -10.842  12.773  66.597  1.00  0.00    -0.258 OA 
ENDROOT
BRANCH   2   3
HETATM    3  C   UNL     1     -10.592  11.425  66.727  1.00  0.00    -0.255 A  
HETATM    4  C   UNL     1     -10.606  10.678  67.934  1.00  0.00    -0.228 A  
HETATM    5  C   UNL     1      -9.876   9.490  65.482  1.00  0.00    -0.304 A  
HETATM    6  C   UNL     1     -10.311   9.296  67.878  1.00  0.00    -0.227 A  
HETATM    7  C   UNL     1     -10.208  10.835  65.524  1.00  0.00    -0.330 A  
HETATM    8  C   UNL     1      -9.914   8.707  66.649  1.00  0.00    -0.357 A  
BRANCH   4   9
HETATM    9  O   UNL     1     -10.864  11.438  69.036  1.00  0.00    -0.205 OA 
HETATM   10  C   UNL     1     -12.027  11.305  69.822  1.00  0.00    -0.360 C  
ENDBRANCH   4   9
BRANCH   6  11
HETATM   11  O   UNL     1     -10.226   8.482  68.982  1.00  0.00    -0.199 OA 
HETATM   12  C   UNL     1      -9.119   8.743  69.844  1.00  0.00    -0.157 C  
ENDBRANCH   6  11
BRANCH   8  13
HETATM   13  C   UNL     1      -9.490   7.253  66.528  1.00  0.00    -0.163 C  
BRANCH  13  14
HETATM   14  N   UNL     1      -8.134   7.104  65.957  1.00  0.00    -0.108 NA 
HETATM   15  C   UNL     1      -7.154   6.611  66.954  1.00  0.00    -0.069 C  
HETATM   16  C   UNL     1      -7.304   5.121  67.329  1.00  0.00    -0.082 C  
HETATM   17  N   UNL     1      -7.300   4.229  66.155  1.00  0.00    -0.075 NA 
HETATM   18  C   UNL     1      -8.285   4.690  65.165  1.00  0.00    -0.118 C  
HETATM   19  H   UNL     1      -7.449   3.254  66.415  1.00  0.00     0.000 HD 
HETATM   20  C   UNL     1      -8.129   6.184  64.803  1.00  0.00    -0.132 C  
ENDBRANCH  13  14
ENDBRANCH   8  13
ENDBRANCH   2   3
TORSDOF 5
ENDMDL
MODEL      148
REMARK 921   NORMALIZED FREE ENERGY PREDICTED BY IDOCK:   -3.03 KCAL/MOL
REMARK 922        TOTAL FREE ENERGY PREDICTED BY IDOCK:   -4.49 KCAL/MOL
REMARK 923 INTER-LIGAND FREE ENERGY PREDICTED BY IDOCK:   -3.96 KCAL/MOL
REMARK 924 INTRA-LIGAND FREE ENERGY PREDICTED BY IDOCK:   -0.53 KCAL/MOL
REMARK 927      BINDING AFFINITY PREDICTED BY RF-SCORE:    0.00 PKD
ROOT
HETATM    1  C   UNL     1      -8.179   6.393  63.272  1.00  0.00     0.034 C  
HETATM    2  O   UNL     1      -7.671   6.537  64.593  1.00  0.00    -0.094 OA 
ENDROOT
BRANCH   2   3
HETATM    3  C   UNL     1      -8.181   7.572  65.344  1.00  0.00    -0.135 A  
HETATM    4  C   UNL     1      -8.911   7.455  66.556  1.00  0.00    -0.159 A  
HETATM    5  C   UNL     1      -8.487   9.963  65.335  1.00  0.00    -0.155 A  
HETATM    6  C   UNL     1      -9.371   8.635  67.186  1.00  0.00    -0.151 A  
HETATM    7  C   UNL     1      -7.996   8.814  64.737  1.00  0.00    -0.132 A  
HETATM    8  C   UNL     1      -9.183   9.892  66.555  1.00  0.00    -0.190 A  
BRANCH   4   9
HETATM    9  O   UNL     1      -9.123   6.163  66.936  1.00  0.00    -0.121 OA 
HETATM   10  C   UNL     1     -10.343   5.483  66.747  1.00  0.00    -0.269 C  
ENDBRANCH   4   9
BRANCH   6  11
HETATM   11  O   UNL     1     -10.144   8.649  68.322  1.00  0.00    -0.178 OA 
HETATM   12  C   UNL     1      -9.431   8.458  69.543  1.00  0.00    -0.166 C  
ENDBRANCH   6  11
BRANCH   8  13
HETATM   13  C   UNL     1      -9.731  11.192  67.122  1.00  0.00    -0.177 C  
BRANCH  13  14
HETATM   14  N   UNL     1     -11.195  11.312  66.950  1.00  0.00    -0.353 NA 
HETATM   15  C   UNL     1     -11.861  11.855  68.157  1.00  0.00    -0.270 C  
HETATM   16  C   UNL     1     -11.632  13.363  68.401  1.00  0.00    -0.332 C  
HETATM   17  N   UNL     1     -11.980  14.194  67.233  1.00  0.00    -0.442 NA 
HETATM   18  C   UNL     1     -11.307  13.682  66.030  1.00  0.00    -0.312 C  
HETATM   19  H   UNL     1     -11.777  15.180  67.393  1.00  0.00     0.000 HD 
HETATM   20  C   UNL     1     -11.538  12.171  65.800  1.00  0.00    -0.355 C  
ENDBRANCH  13  14
ENDBRANCH   8  13
ENDBRANCH   2   3
TORSDOF 5
ENDMDL
MODEL      149
REMARK 921   NORMALIZED FREE ENERGY PREDICTED BY IDOCK:   -2.98 KCAL/MOL
REMARK 922        TOTAL FREE ENERGY PREDICTED BY IDOCK:   -4.43 KCAL/MOL
REMARK 923 INTER-LIGAND FREE ENERGY PREDICTED BY IDOCK:   -4.09 KCAL/MOL
REMARK 924 INTRA-LIGAND FREE ENERGY PREDICTED BY IDOCK:   -0.34 KCAL/MOL
REMARK 927      BINDING AFFINITY PREDICTED BY RF-SCORE:    0.00 PKD
ROOT
HETATM    1  C   UNL     1      -7.463   7.129  70.347  1.00  0.00    -0.084 C  
HETATM    2  O   UNL     1      -7.381   7.234  68.930  1.00  0.00    -0.090 OA 
ENDROOT
BRANCH   2   3
HETATM    3  C   UNL     1      -8.255   8.108  68.322  1.00  0.00    -0.129 A  
HETATM    4  C   UNL     1      -8.415   8.305  66.926  1.00  0.00    -0.118 A  
HETATM    5  C   UNL     1      -9.836   9.865  68.799  1.00  0.00    -0.177 A  
HETATM    6  C   UNL     1      -9.358   9.260  66.480  1.00  0.00    -0.178 A  
HETATM    7  C   UNL     1      -8.945   8.899  69.240  1.00  0.00    -0.144 A  
HETATM    8  C   UNL     1     -10.049  10.064  67.424  1.00  0.00    -0.256 A  
BRANCH   4   9
HETATM    9  O   UNL     1      -7.564   7.551  66.173  1.00  0.00    -0.084 OA 
HETATM   10  C   UNL     1      -6.390   8.056  65.579  1.00  0.00    -0.045 C  
ENDBRANCH   4   9
BRANCH   6  11
HETATM   11  O   UNL     1      -9.555   9.590  65.160  1.00  0.00    -0.280 OA 
HETATM   12  C   UNL     1      -8.550  10.426  64.588  1.00  0.00    -0.185 C  
ENDBRANCH   6  11
BRANCH   8  13
HETATM   13  C   UNL     1     -11.005  11.175  67.020  1.00  0.00    -0.289 C  
BRANCH  13  14
HETATM   14  N   UNL     1     -10.334  12.488  66.908  1.00  0.00    -0.228 NA 
HETATM   15  C   UNL     1     -10.774  13.246  65.713  1.00  0.00    -0.277 C  
HETATM   16  C   UNL     1     -12.199  13.833  65.807  1.00  0.00    -0.462 C  
HETATM   17  N   UNL     1     -12.404  14.657  67.013  1.00  0.00    -0.459 NA 
HETATM   18  C   UNL     1     -11.993  13.910  68.212  1.00  0.00    -0.357 C  
HETATM   19  H   UNL     1     -13.362  14.997  67.085  1.00  0.00     0.000 HD 
HETATM   20  C   UNL     1     -10.568  13.322  68.104  1.00  0.00    -0.249 C  
ENDBRANCH  13  14
ENDBRANCH   8  13
ENDBRANCH   2   3
TORSDOF 5
ENDMDL
MODEL      150
REMARK 921   NORMALIZED FREE ENERGY PREDICTED BY IDOCK:   -2.98 KCAL/MOL
REMARK 922        TOTAL FREE ENERGY PREDICTED BY IDOCK:   -4.43 KCAL/MOL
REMARK 923 INTER-LIGAND FREE ENERGY PREDICTED BY IDOCK:   -3.98 KCAL/MOL
REMARK 924 INTRA-LIGAND FREE ENERGY PREDICTED BY IDOCK:   -0.45 KCAL/MOL
REMARK 927      BINDING AFFINITY PREDICTED BY RF-SCORE:    0.00 PKD
ROOT
HETATM    1  C   UNL     1     -13.307   9.976  71.925  1.00  0.00    -0.415 C  
HETATM    2  O   UNL     1     -11.934  10.202  71.625  1.00  0.00    -0.361 OA 
ENDROOT
BRANCH   2   3
HETATM    3  C   UNL     1     -11.329   9.305  70.773  1.00  0.00    -0.287 A  
HETATM    4  C   UNL     1     -10.604   9.620  69.595  1.00  0.00    -0.233 A  
HETATM    5  C   UNL     1     -11.084   6.945  70.350  1.00  0.00    -0.341 A  
HETATM    6  C   UNL     1     -10.060   8.561  68.831  1.00  0.00    -0.203 A  
HETATM    7  C   UNL     1     -11.581   7.980  71.126  1.00  0.00    -0.307 A  
HETATM    8  C   UNL     1     -10.328   7.217  69.196  1.00  0.00    -0.205 A  
BRANCH   4   9
HETATM    9  O   UNL     1     -10.572  10.955  69.320  1.00  0.00    -0.213 OA 
HETATM   10  C   UNL     1     -11.623  11.647  68.685  1.00  0.00    -0.312 C  
ENDBRANCH   4   9
BRANCH   6  11
HETATM   11  O   UNL     1      -9.398   8.733  67.638  1.00  0.00    -0.136 OA 
HETATM   12  C   UNL     1     -10.233   9.035  66.521  1.00  0.00    -0.248 C  
ENDBRANCH   6  11
BRANCH   8  13
HETATM   13  C   UNL     1      -9.860   6.027  68.373  1.00  0.00    -0.130 C  
BRANCH  13  14
HETATM   14  N   UNL     1      -8.573   5.478  68.853  1.00  0.00    -0.100 NA 
HETATM   15  C   UNL     1      -8.718   4.116  69.418  1.00  0.00    -0.084 C  
HETATM   16  C   UNL     1      -8.957   3.002  68.375  1.00  0.00    -0.141 C  
HETATM   17  N   UNL     1      -7.938   2.985  67.309  1.00  0.00    -0.077 NA 
HETATM   18  C   UNL     1      -7.799   4.326  66.720  1.00  0.00    -0.097 C  
HETATM   19  H   UNL     1      -8.137   2.277  66.602  1.00  0.00     0.000 HD 
HETATM   20  C   UNL     1      -7.567   5.432  67.774  1.00  0.00    -0.088 C  
ENDBRANCH  13  14
ENDBRANCH   8  13
ENDBRANCH   2   3
TORSDOF 5
ENDMDL
MODEL      151
REMARK 921   NORMALIZED FREE ENERGY PREDICTED BY IDOCK:   -2.97 KCAL/MOL
REMARK 922        TOTAL FREE ENERGY PREDICTED BY IDOCK:   -4.41 KCAL/MOL
REMARK 923 INTER-LIGAND FREE ENERGY PREDICTED BY IDOCK:   -3.97 KCAL/MOL
REMARK 924 INTRA-LIGAND FREE ENERGY PREDICTED BY IDOCK:   -0.44 KCAL/MOL
REMARK 927      BINDING AFFINITY PREDICTED BY RF-SCORE:    0.00 PKD
ROOT
HETATM    1  C   UNL     1     -13.233  10.369  71.508  1.00  0.00    -0.386 C  
HETATM    2  O   UNL     1     -11.897  10.237  71.034  1.00  0.00    -0.336 OA 
ENDROOT
BRANCH   2   3
HETATM    3  C   UNL     1     -11.299   9.008  71.202  1.00  0.00    -0.307 A  
HETATM    4  C   UNL     1     -10.624   8.256  70.206  1.00  0.00    -0.227 A  
HETATM    5  C   UNL     1     -11.004   7.234  72.809  1.00  0.00    -0.366 A  
HETATM    6  C   UNL     1     -10.078   7.000  70.560  1.00  0.00    -0.191 A  
HETATM    7  C   UNL     1     -11.502   8.486  72.479  1.00  0.00    -0.368 A  
HETATM    8  C   UNL     1     -10.297   6.475  71.860  1.00  0.00    -0.223 A  
BRANCH   4   9
HETATM    9  O   UNL     1     -10.639   8.849  68.979  1.00  0.00    -0.226 OA 
HETATM   10  C   UNL     1      -9.747   9.871  68.594  1.00  0.00    -0.157 C  
ENDBRANCH   4   9
BRANCH   6  11
HETATM   11  O   UNL     1      -9.464   6.150  69.671  1.00  0.00    -0.144 OA 
HETATM   12  C   UNL     1      -8.086   6.426  69.421  1.00  0.00    -0.118 C  
ENDBRANCH   6  11
BRANCH   8  13
HETATM   13  C   UNL     1      -9.825   5.093  72.284  1.00  0.00    -0.171 C  
BRANCH  13  14
HETATM   14  N   UNL     1     -10.286   4.729  73.641  1.00  0.00    -0.184 NA 
HETATM   15  C   UNL     1     -11.244   3.598  73.626  1.00  0.00    -0.185 C  
HETATM   16  C   UNL     1     -10.614   2.220  73.325  1.00  0.00    -0.143 C  
HETATM   17  N   UNL     1      -9.486   1.896  74.218  1.00  0.00    -0.071 NA 
HETATM   18  C   UNL     1      -8.514   2.999  74.226  1.00  0.00    -0.069 C  
HETATM   19  H   UNL     1      -9.051   1.006  73.975  1.00  0.00     0.000 HD 
HETATM   20  C   UNL     1      -9.156   4.373  74.522  1.00  0.00    -0.102 C  
ENDBRANCH  13  14
ENDBRANCH   8  13
ENDBRANCH   2   3
TORSDOF 5
ENDMDL
MODEL      152
REMARK 921   NORMALIZED FREE ENERGY PREDICTED BY IDOCK:   -2.94 KCAL/MOL
REMARK 922        TOTAL FREE ENERGY PREDICTED BY IDOCK:   -4.38 KCAL/MOL
REMARK 923 INTER-LIGAND FREE ENERGY PREDICTED BY IDOCK:   -3.87 KCAL/MOL
REMARK 924 INTRA-LIGAND FREE ENERGY PREDICTED BY IDOCK:   -0.51 KCAL/MOL
REMARK 927      BINDING AFFINITY PREDICTED BY RF-SCORE:    0.00 PKD
ROOT
HETATM    1  C   UNL     1     -12.911  14.049  65.393  1.00  0.00    -0.410 C  
HETATM    2  O   UNL     1     -12.030  14.352  66.469  1.00  0.00    -0.404 OA 
ENDROOT
BRANCH   2   3
HETATM    3  C   UNL     1     -11.056  13.421  66.753  1.00  0.00    -0.292 A  
HETATM    4  C   UNL     1      -9.666  13.672  66.892  1.00  0.00    -0.262 A  
HETATM    5  C   UNL     1     -10.705  11.053  67.033  1.00  0.00    -0.319 A  
HETATM    6  C   UNL     1      -8.807  12.584  67.174  1.00  0.00    -0.202 A  
HETATM    7  C   UNL     1     -11.558  12.121  66.801  1.00  0.00    -0.412 A  
HETATM    8  C   UNL     1      -9.327  11.265  67.214  1.00  0.00    -0.173 A  
BRANCH   4   9
HETATM    9  O   UNL     1      -9.327  14.975  66.676  1.00  0.00    -0.234 OA 
HETATM   10  C   UNL     1      -9.248  15.941  67.699  1.00  0.00    -0.208 C  
ENDBRANCH   4   9
BRANCH   6  11
HETATM   11  O   UNL     1      -7.439  12.687  67.264  1.00  0.00    -0.149 OA 
HETATM   12  C   UNL     1      -6.945  13.106  68.535  1.00  0.00    -0.103 C  
ENDBRANCH   6  11
BRANCH   8  13
HETATM   13  C   UNL     1      -8.454  10.037  67.416  1.00  0.00    -0.121 C  
BRANCH  13  14
HETATM   14  N   UNL     1      -7.752   9.631  66.179  1.00  0.00    -0.101 NA 
HETATM   15  C   UNL     1      -6.360   9.193  66.438  1.00  0.00    -0.065 C  
HETATM   16  C   UNL     1      -6.232   7.814  67.122  1.00  0.00    -0.054 C  
HETATM   17  N   UNL     1      -6.957   6.747  66.406  1.00  0.00    -0.061 NA 
HETATM   18  C   UNL     1      -8.348   7.158  66.161  1.00  0.00    -0.133 C  
HETATM   19  H   UNL     1      -6.903   5.855  66.896  1.00  0.00     0.000 HD 
HETATM   20  C   UNL     1      -8.464   8.541  65.483  1.00  0.00    -0.167 C  
ENDBRANCH  13  14
ENDBRANCH   8  13
ENDBRANCH   2   3
TORSDOF 5
ENDMDL
MODEL      153
REMARK 921   NORMALIZED FREE ENERGY PREDICTED BY IDOCK:   -2.92 KCAL/MOL
REMARK 922        TOTAL FREE ENERGY PREDICTED BY IDOCK:   -4.35 KCAL/MOL
REMARK 923 INTER-LIGAND FREE ENERGY PREDICTED BY IDOCK:   -3.86 KCAL/MOL
REMARK 924 INTRA-LIGAND FREE ENERGY PREDICTED BY IDOCK:   -0.50 KCAL/MOL
REMARK 927      BINDING AFFINITY PREDICTED BY RF-SCORE:    0.00 PKD
ROOT
HETATM    1  C   UNL     1     -11.623  13.546  67.421  1.00  0.00    -0.356 C  
HETATM    2  O   UNL     1     -10.497  12.857  66.892  1.00  0.00    -0.244 OA 
ENDROOT
BRANCH   2   3
HETATM    3  C   UNL     1     -10.079  11.736  67.575  1.00  0.00    -0.192 A  
HETATM    4  C   UNL     1      -8.742  11.279  67.706  1.00  0.00    -0.134 A  
HETATM    5  C   UNL     1     -10.906   9.803  68.754  1.00  0.00    -0.219 A  
HETATM    6  C   UNL     1      -8.500  10.093  68.438  1.00  0.00    -0.118 A  
HETATM    7  C   UNL     1     -11.144  10.988  68.076  1.00  0.00    -0.343 A  
HETATM    8  C   UNL     1      -9.592   9.337  68.938  1.00  0.00    -0.155 A  
BRANCH   4   9
HETATM    9  O   UNL     1      -7.839  12.051  67.037  1.00  0.00    -0.160 OA 
HETATM   10  C   UNL     1      -7.156  13.137  67.621  1.00  0.00    -0.160 C  
ENDBRANCH   4   9
BRANCH   6  11
HETATM   11  O   UNL     1      -7.262   9.513  68.578  1.00  0.00    -0.070 OA 
HETATM   12  C   UNL     1      -6.412  10.125  69.548  1.00  0.00    -0.055 C  
ENDBRANCH   6  11
BRANCH   8  13
HETATM   13  C   UNL     1      -9.418   8.005  69.650  1.00  0.00    -0.163 C  
BRANCH  13  14
HETATM   14  N   UNL     1     -10.689   7.485  70.198  1.00  0.00    -0.236 NA 
HETATM   15  C   UNL     1     -11.073   6.186  69.597  1.00  0.00    -0.419 C  
HETATM   16  C   UNL     1     -10.226   4.981  70.062  1.00  0.00    -0.269 C  
HETATM   17  N   UNL     1     -10.174   4.846  71.530  1.00  0.00    -0.205 NA 
HETATM   18  C   UNL     1      -9.771   6.122  72.141  1.00  0.00    -0.154 C  
HETATM   19  H   UNL     1      -9.572   4.077  71.821  1.00  0.00     0.000 HD 
HETATM   20  C   UNL     1     -10.622   7.320  71.664  1.00  0.00    -0.206 C  
ENDBRANCH  13  14
ENDBRANCH   8  13
ENDBRANCH   2   3
TORSDOF 5
ENDMDL
MODEL      154
REMARK 921   NORMALIZED FREE ENERGY PREDICTED BY IDOCK:   -2.91 KCAL/MOL
REMARK 922        TOTAL FREE ENERGY PREDICTED BY IDOCK:   -4.34 KCAL/MOL
REMARK 923 INTER-LIGAND FREE ENERGY PREDICTED BY IDOCK:   -4.10 KCAL/MOL
REMARK 924 INTRA-LIGAND FREE ENERGY PREDICTED BY IDOCK:   -0.24 KCAL/MOL
REMARK 927      BINDING AFFINITY PREDICTED BY RF-SCORE:    0.00 PKD
ROOT
HETATM    1  C   UNL     1     -14.403   8.488  72.216  1.00  0.00    -0.390 C  
HETATM    2  O   UNL     1     -13.415   9.489  72.434  1.00  0.00    -0.453 OA 
ENDROOT
BRANCH   2   3
HETATM    3  C   UNL     1     -12.431   9.608  71.478  1.00  0.00    -0.386 A  
HETATM    4  C   UNL     1     -12.092  10.783  70.760  1.00  0.00    -0.372 A  
HETATM    5  C   UNL     1     -10.837   8.317  70.212  1.00  0.00    -0.241 A  
HETATM    6  C   UNL     1     -11.055  10.715  69.801  1.00  0.00    -0.295 A  
HETATM    7  C   UNL     1     -11.822   8.388  71.185  1.00  0.00    -0.314 A  
HETATM    8  C   UNL     1     -10.447   9.468  69.505  1.00  0.00    -0.234 A  
BRANCH   4   9
HETATM    9  O   UNL     1     -12.880  11.852  71.070  1.00  0.00    -0.300 OA 
HETATM   10  C   UNL     1     -12.717  12.632  72.233  1.00  0.00     0.163 C  
ENDBRANCH   4   9
BRANCH   6  11
HETATM   11  O   UNL     1     -10.681  11.765  68.995  1.00  0.00    -0.214 OA 
HETATM   12  C   UNL     1     -11.607  12.093  67.959  1.00  0.00    -0.348 C  
ENDBRANCH   6  11
BRANCH   8  13
HETATM   13  C   UNL     1      -9.395   9.297  68.421  1.00  0.00    -0.138 C  
BRANCH  13  14
HETATM   14  N   UNL     1      -8.577   8.080  68.612  1.00  0.00    -0.128 NA 
HETATM   15  C   UNL     1      -8.884   7.032  67.610  1.00  0.00    -0.119 C  
HETATM   16  C   UNL     1      -8.358   7.323  66.187  1.00  0.00    -0.133 C  
HETATM   17  N   UNL     1      -6.915   7.623  66.157  1.00  0.00    -0.064 NA 
HETATM   18  C   UNL     1      -6.597   8.678  67.130  1.00  0.00    -0.058 C  
HETATM   19  H   UNL     1      -6.594   7.861  65.218  1.00  0.00     0.000 HD 
HETATM   20  C   UNL     1      -7.133   8.380  68.548  1.00  0.00    -0.076 C  
ENDBRANCH  13  14
ENDBRANCH   8  13
ENDBRANCH   2   3
TORSDOF 5
ENDMDL
MODEL      155
REMARK 921   NORMALIZED FREE ENERGY PREDICTED BY IDOCK:   -2.89 KCAL/MOL
REMARK 922        TOTAL FREE ENERGY PREDICTED BY IDOCK:   -4.32 KCAL/MOL
REMARK 923 INTER-LIGAND FREE ENERGY PREDICTED BY IDOCK:   -3.89 KCAL/MOL
REMARK 924 INTRA-LIGAND FREE ENERGY PREDICTED BY IDOCK:   -0.42 KCAL/MOL
REMARK 927      BINDING AFFINITY PREDICTED BY RF-SCORE:    0.00 PKD
ROOT
HETATM    1  C   UNL     1     -12.906  13.282  64.721  1.00  0.00    -0.191 C  
HETATM    2  O   UNL     1     -12.650  13.957  65.947  1.00  0.00    -0.478 OA 
ENDROOT
BRANCH   2   3
HETATM    3  C   UNL     1     -11.573  13.517  66.684  1.00  0.00    -0.363 A  
HETATM    4  C   UNL     1     -10.591  14.328  67.309  1.00  0.00    -0.278 A  
HETATM    5  C   UNL     1     -10.407  11.513  67.346  1.00  0.00    -0.235 A  
HETATM    6  C   UNL     1      -9.542  13.697  68.018  1.00  0.00    -0.216 A  
HETATM    7  C   UNL     1     -11.462  12.127  66.688  1.00  0.00    -0.426 A  
HETATM    8  C   UNL     1      -9.435  12.282  68.009  1.00  0.00    -0.206 A  
BRANCH   4   9
HETATM    9  O   UNL     1     -10.772  15.661  67.089  1.00  0.00    -0.309 OA 
HETATM   10  C   UNL     1     -10.163  16.368  66.032  1.00  0.00    -0.356 C  
ENDBRANCH   4   9
BRANCH   6  11
HETATM   11  O   UNL     1      -8.497  14.369  68.606  1.00  0.00    -0.162 OA 
HETATM   12  C   UNL     1      -7.401  14.661  67.741  1.00  0.00    -0.173 C  
ENDBRANCH   6  11
BRANCH   8  13
HETATM   13  C   UNL     1      -8.285  11.536  68.666  1.00  0.00    -0.124 C  
BRANCH  13  14
HETATM   14  N   UNL     1      -7.835  10.373  67.870  1.00  0.00    -0.100 NA 
HETATM   15  C   UNL     1      -6.466  10.554  67.332  1.00  0.00    -0.062 C  
HETATM   16  C   UNL     1      -5.338  10.442  68.380  1.00  0.00    -0.034 C  
HETATM   17  N   UNL     1      -5.397   9.190  69.158  1.00  0.00    -0.036 NA 
HETATM   18  C   UNL     1      -6.744   9.007  69.719  1.00  0.00    -0.049 C  
HETATM   19  H   UNL     1      -4.676   9.153  69.877  1.00  0.00     0.000 HD 
HETATM   20  C   UNL     1      -7.865   9.128  68.663  1.00  0.00    -0.097 C  
ENDBRANCH  13  14
ENDBRANCH   8  13
ENDBRANCH   2   3
TORSDOF 5
ENDMDL
MODEL      156
REMARK 921   NORMALIZED FREE ENERGY PREDICTED BY IDOCK:   -2.89 KCAL/MOL
REMARK 922        TOTAL FREE ENERGY PREDICTED BY IDOCK:   -4.31 KCAL/MOL
REMARK 923 INTER-LIGAND FREE ENERGY PREDICTED BY IDOCK:   -3.83 KCAL/MOL
REMARK 924 INTRA-LIGAND FREE ENERGY PREDICTED BY IDOCK:   -0.48 KCAL/MOL
REMARK 927      BINDING AFFINITY PREDICTED BY RF-SCORE:    0.00 PKD
ROOT
HETATM    1  C   UNL     1     -12.285  15.532  69.391  1.00  0.00    -0.205 C  
HETATM    2  O   UNL     1     -12.524  14.455  68.492  1.00  0.00    -0.101 OA 
ENDROOT
BRANCH   2   3
HETATM    3  C   UNL     1     -11.607  13.427  68.499  1.00  0.00    -0.333 A  
HETATM    4  C   UNL     1     -10.344  13.420  67.853  1.00  0.00    -0.238 A  
HETATM    5  C   UNL     1     -11.309  11.144  69.211  1.00  0.00    -0.349 A  
HETATM    6  C   UNL     1      -9.535  12.265  67.959  1.00  0.00    -0.206 A  
HETATM    7  C   UNL     1     -12.086  12.290  69.148  1.00  0.00    -0.214 A  
HETATM    8  C   UNL     1     -10.035  11.111  68.616  1.00  0.00    -0.210 A  
BRANCH   4   9
HETATM    9  O   UNL     1     -10.092  14.559  67.146  1.00  0.00    -0.248 OA 
HETATM   10  C   UNL     1      -9.948  14.592  65.744  1.00  0.00    -0.338 C  
ENDBRANCH   4   9
BRANCH   6  11
HETATM   11  O   UNL     1      -8.326  12.110  67.324  1.00  0.00    -0.164 OA 
HETATM   12  C   UNL     1      -7.229  12.788  67.936  1.00  0.00    -0.120 C  
ENDBRANCH   6  11
BRANCH   8  13
HETATM   13  C   UNL     1      -9.266   9.801  68.687  1.00  0.00    -0.137 C  
BRANCH  13  14
HETATM   14  N   UNL     1      -9.903   8.726  67.897  1.00  0.00    -0.162 NA 
HETATM   15  C   UNL     1     -10.004   9.069  66.458  1.00  0.00    -0.285 C  
HETATM   16  C   UNL     1      -8.666   9.026  65.687  1.00  0.00    -0.175 C  
HETATM   17  N   UNL     1      -7.956   7.743  65.837  1.00  0.00    -0.101 NA 
HETATM   18  C   UNL     1      -7.827   7.399  67.261  1.00  0.00    -0.114 C  
HETATM   19  H   UNL     1      -7.053   7.749  65.362  1.00  0.00     0.000 HD 
HETATM   20  C   UNL     1      -9.169   7.451  68.023  1.00  0.00    -0.132 C  
ENDBRANCH  13  14
ENDBRANCH   8  13
ENDBRANCH   2   3
TORSDOF 5
ENDMDL
MODEL      157
REMARK 921   NORMALIZED FREE ENERGY PREDICTED BY IDOCK:   -2.85 KCAL/MOL
REMARK 922        TOTAL FREE ENERGY PREDICTED BY IDOCK:   -4.26 KCAL/MOL
REMARK 923 INTER-LIGAND FREE ENERGY PREDICTED BY IDOCK:   -3.69 KCAL/MOL
REMARK 924 INTRA-LIGAND FREE ENERGY PREDICTED BY IDOCK:   -0.58 KCAL/MOL
REMARK 927      BINDING AFFINITY PREDICTED BY RF-SCORE:    0.00 PKD
ROOT
HETATM    1  C   UNL     1      -7.033   9.996  64.414  1.00  0.00    -0.129 C  
HETATM    2  O   UNL     1      -8.295   9.345  64.325  1.00  0.00    -0.151 OA 
ENDROOT
BRANCH   2   3
HETATM    3  C   UNL     1      -9.079   9.353  65.457  1.00  0.00    -0.218 A  
HETATM    4  C   UNL     1      -9.403   8.233  66.266  1.00  0.00    -0.204 A  
HETATM    5  C   UNL     1     -10.493  10.783  66.787  1.00  0.00    -0.305 A  
HETATM    6  C   UNL     1     -10.237   8.430  67.391  1.00  0.00    -0.260 A  
HETATM    7  C   UNL     1      -9.640  10.605  65.709  1.00  0.00    -0.258 A  
HETATM    8  C   UNL     1     -10.808   9.706  67.633  1.00  0.00    -0.276 A  
BRANCH   4   9
HETATM    9  O   UNL     1      -8.886   7.061  65.799  1.00  0.00    -0.144 OA 
HETATM   10  C   UNL     1      -7.727   6.455  66.324  1.00  0.00    -0.099 C  
ENDBRANCH   4   9
BRANCH   6  11
HETATM   11  O   UNL     1     -10.677   7.416  68.209  1.00  0.00    -0.180 OA 
HETATM   12  C   UNL     1      -9.713   6.927  69.141  1.00  0.00    -0.155 C  
ENDBRANCH   6  11
BRANCH   8  13
HETATM   13  C   UNL     1     -11.788   9.972  68.765  1.00  0.00     0.433 C  
BRANCH  13  14
HETATM   14  N   UNL     1     -11.135  10.558  69.954  1.00  0.00    -0.288 NA 
HETATM   15  C   UNL     1     -11.698  11.881  70.313  1.00  0.00    -0.205 C  
HETATM   16  C   UNL     1     -13.107  11.836  70.944  1.00  0.00     0.128 C  
HETATM   17  N   UNL     1     -13.187  10.937  72.110  1.00  0.00    -0.586 NA 
HETATM   18  C   UNL     1     -12.652   9.611  71.765  1.00  0.00    -0.409 C  
HETATM   19  H   UNL     1     -14.133  10.881  72.485  1.00  0.00     0.000 HD 
HETATM   20  C   UNL     1     -11.246   9.670  71.128  1.00  0.00    -0.384 C  
ENDBRANCH  13  14
ENDBRANCH   8  13
ENDBRANCH   2   3
TORSDOF 5
ENDMDL
MODEL      158
REMARK 921   NORMALIZED FREE ENERGY PREDICTED BY IDOCK:   -2.84 KCAL/MOL
REMARK 922        TOTAL FREE ENERGY PREDICTED BY IDOCK:   -4.24 KCAL/MOL
REMARK 923 INTER-LIGAND FREE ENERGY PREDICTED BY IDOCK:   -3.71 KCAL/MOL
REMARK 924 INTRA-LIGAND FREE ENERGY PREDICTED BY IDOCK:   -0.53 KCAL/MOL
REMARK 927      BINDING AFFINITY PREDICTED BY RF-SCORE:    0.00 PKD
ROOT
HETATM    1  C   UNL     1     -10.695   6.941  69.505  1.00  0.00    -0.246 C  
HETATM    2  O   UNL     1      -9.764   7.058  68.434  1.00  0.00    -0.138 OA 
ENDROOT
BRANCH   2   3
HETATM    3  C   UNL     1      -9.631   8.304  67.863  1.00  0.00    -0.152 A  
HETATM    4  C   UNL     1      -8.439   8.867  67.337  1.00  0.00    -0.115 A  
HETATM    5  C   UNL     1     -10.838  10.348  67.442  1.00  0.00    -0.344 A  
HETATM    6  C   UNL     1      -8.488  10.173  66.797  1.00  0.00    -0.126 A  
HETATM    7  C   UNL     1     -10.806   9.052  67.932  1.00  0.00    -0.118 A  
HETATM    8  C   UNL     1      -9.687  10.927  66.879  1.00  0.00    -0.210 A  
BRANCH   4   9
HETATM    9  O   UNL     1      -7.352   8.056  67.475  1.00  0.00    -0.086 OA 
HETATM   10  C   UNL     1      -6.405   8.189  68.511  1.00  0.00    -0.053 C  
ENDBRANCH   4   9
BRANCH   6  11
HETATM   11  O   UNL     1      -7.391  10.851  66.322  1.00  0.00    -0.138 OA 
HETATM   12  C   UNL     1      -6.905  10.406  65.056  1.00  0.00    -0.065 C  
ENDBRANCH   6  11
BRANCH   8  13
HETATM   13  C   UNL     1      -9.791  12.369  66.409  1.00  0.00    -0.240 C  
BRANCH  13  14
HETATM   14  N   UNL     1      -9.449  13.338  67.472  1.00  0.00    -0.212 NA 
HETATM   15  C   UNL     1      -8.635  14.468  66.964  1.00  0.00    -0.217 C  
HETATM   16  C   UNL     1      -9.410  15.488  66.101  1.00  0.00    -0.345 C  
HETATM   17  N   UNL     1     -10.614  16.012  66.772  1.00  0.00    -0.315 NA 
HETATM   18  C   UNL     1     -11.445  14.902  67.262  1.00  0.00    -0.340 C  
HETATM   19  H   UNL     1     -11.140  16.646  66.170  1.00  0.00     0.000 HD 
HETATM   20  C   UNL     1     -10.658  13.886  68.119  1.00  0.00    -0.252 C  
ENDBRANCH  13  14
ENDBRANCH   8  13
ENDBRANCH   2   3
TORSDOF 5
ENDMDL
MODEL      159
REMARK 921   NORMALIZED FREE ENERGY PREDICTED BY IDOCK:   -2.83 KCAL/MOL
REMARK 922        TOTAL FREE ENERGY PREDICTED BY IDOCK:   -4.23 KCAL/MOL
REMARK 923 INTER-LIGAND FREE ENERGY PREDICTED BY IDOCK:   -3.89 KCAL/MOL
REMARK 924 INTRA-LIGAND FREE ENERGY PREDICTED BY IDOCK:   -0.34 KCAL/MOL
REMARK 927      BINDING AFFINITY PREDICTED BY RF-SCORE:    0.00 PKD
ROOT
HETATM    1  C   UNL     1      -8.681   7.429  73.617  1.00  0.00    -0.185 C  
HETATM    2  O   UNL     1      -9.654   7.063  72.645  1.00  0.00    -0.142 OA 
ENDROOT
BRANCH   2   3
HETATM    3  C   UNL     1      -9.592   7.711  71.431  1.00  0.00    -0.158 A  
HETATM    4  C   UNL     1      -9.245   7.131  70.183  1.00  0.00    -0.155 A  
HETATM    5  C   UNL     1      -9.750   9.896  70.427  1.00  0.00    -0.151 A  
HETATM    6  C   UNL     1      -9.222   7.958  69.036  1.00  0.00    -0.147 A  
HETATM    7  C   UNL     1      -9.818   9.082  71.547  1.00  0.00    -0.381 A  
HETATM    8  C   UNL     1      -9.447   9.353  69.166  1.00  0.00    -0.163 A  
BRANCH   4   9
HETATM    9  O   UNL     1      -8.918   5.811  70.273  1.00  0.00    -0.138 OA 
HETATM   10  C   UNL     1      -9.869   4.771  70.304  1.00  0.00    -0.242 C  
ENDBRANCH   4   9
BRANCH   6  11
HETATM   11  O   UNL     1      -8.837   7.532  67.787  1.00  0.00    -0.132 OA 
HETATM   12  C   UNL     1      -9.755   6.654  67.136  1.00  0.00    -0.142 C  
ENDBRANCH   6  11
BRANCH   8  13
HETATM   13  C   UNL     1      -9.344  10.320  67.997  1.00  0.00    -0.138 C  
BRANCH  13  14
HETATM   14  N   UNL     1     -10.611  10.432  67.242  1.00  0.00    -0.252 NA 
HETATM   15  C   UNL     1     -11.634  11.217  67.972  1.00  0.00    -0.263 C  
HETATM   16  C   UNL     1     -11.373  12.738  68.019  1.00  0.00    -0.292 C  
HETATM   17  N   UNL     1     -11.163  13.328  66.684  1.00  0.00    -0.299 NA 
HETATM   18  C   UNL     1     -10.132  12.574  65.954  1.00  0.00    -0.254 C  
HETATM   19  H   UNL     1     -10.943  14.322  66.736  1.00  0.00     0.000 HD 
HETATM   20  C   UNL     1     -10.401  11.053  65.919  1.00  0.00    -0.257 C  
ENDBRANCH  13  14
ENDBRANCH   8  13
ENDBRANCH   2   3
TORSDOF 5
ENDMDL
MODEL      160
REMARK 921   NORMALIZED FREE ENERGY PREDICTED BY IDOCK:   -2.80 KCAL/MOL
REMARK 922        TOTAL FREE ENERGY PREDICTED BY IDOCK:   -4.20 KCAL/MOL
REMARK 923 INTER-LIGAND FREE ENERGY PREDICTED BY IDOCK:   -3.79 KCAL/MOL
REMARK 924 INTRA-LIGAND FREE ENERGY PREDICTED BY IDOCK:   -0.41 KCAL/MOL
REMARK 927      BINDING AFFINITY PREDICTED BY RF-SCORE:    0.00 PKD
ROOT
HETATM    1  C   UNL     1      -7.300   5.523  66.051  1.00  0.00    -0.078 C  
HETATM    2  O   UNL     1      -7.002   6.351  67.169  1.00  0.00    -0.067 OA 
ENDROOT
BRANCH   2   3
HETATM    3  C   UNL     1      -8.005   6.523  68.097  1.00  0.00    -0.110 A  
HETATM    4  C   UNL     1      -8.110   5.875  69.355  1.00  0.00    -0.109 A  
HETATM    5  C   UNL     1     -10.130   7.612  68.428  1.00  0.00    -0.208 A  
HETATM    6  C   UNL     1      -9.222   6.169  70.177  1.00  0.00    -0.155 A  
HETATM    7  C   UNL     1      -9.019   7.363  67.637  1.00  0.00    -0.126 A  
HETATM    8  C   UNL     1     -10.252   7.018  69.696  1.00  0.00    -0.212 A  
BRANCH   4   9
HETATM    9  O   UNL     1      -7.106   4.982  69.588  1.00  0.00    -0.052 OA 
HETATM   10  C   UNL     1      -6.033   5.224  70.468  1.00  0.00    -0.021 C  
ENDBRANCH   4   9
BRANCH   6  11
HETATM   11  O   UNL     1      -9.471   5.557  71.383  1.00  0.00    -0.146 OA 
HETATM   12  C   UNL     1      -9.919   4.205  71.296  1.00  0.00    -0.146 C  
ENDBRANCH   6  11
BRANCH   8  13
HETATM   13  C   UNL     1     -11.522   7.304  70.481  1.00  0.00    -0.279 C  
BRANCH  13  14
HETATM   14  N   UNL     1     -11.267   8.092  71.706  1.00  0.00    -0.255 NA 
HETATM   15  C   UNL     1     -10.691   9.425  71.409  1.00  0.00    -0.337 C  
HETATM   16  C   UNL     1     -11.685  10.440  70.804  1.00  0.00    -0.368 C  
HETATM   17  N   UNL     1     -12.906  10.603  71.615  1.00  0.00    -0.448 NA 
HETATM   18  C   UNL     1     -13.504   9.289  71.899  1.00  0.00    -0.430 C  
HETATM   19  H   UNL     1     -13.573  11.239  71.177  1.00  0.00     0.000 HD 
HETATM   20  C   UNL     1     -12.498   8.280  72.497  1.00  0.00    -0.243 C  
ENDBRANCH  13  14
ENDBRANCH   8  13
ENDBRANCH   2   3
TORSDOF 5
ENDMDL
MODEL      161
REMARK 921   NORMALIZED FREE ENERGY PREDICTED BY IDOCK:   -2.75 KCAL/MOL
REMARK 922        TOTAL FREE ENERGY PREDICTED BY IDOCK:   -4.13 KCAL/MOL
REMARK 923 INTER-LIGAND FREE ENERGY PREDICTED BY IDOCK:   -3.60 KCAL/MOL
REMARK 924 INTRA-LIGAND FREE ENERGY PREDICTED BY IDOCK:   -0.53 KCAL/MOL
REMARK 927      BINDING AFFINITY PREDICTED BY RF-SCORE:    0.00 PKD
ROOT
HETATM    1  C   UNL     1      -5.533   7.150  67.914  1.00  0.00    -0.021 C  
HETATM    2  O   UNL     1      -6.901   7.096  67.529  1.00  0.00    -0.065 OA 
ENDROOT
BRANCH   2   3
HETATM    3  C   UNL     1      -7.816   7.618  68.417  1.00  0.00    -0.121 A  
HETATM    4  C   UNL     1      -8.753   6.885  69.190  1.00  0.00    -0.135 A  
HETATM    5  C   UNL     1      -8.705   9.705  69.232  1.00  0.00    -0.159 A  
HETATM    6  C   UNL     1      -9.628   7.594  70.044  1.00  0.00    -0.164 A  
HETATM    7  C   UNL     1      -7.815   9.012  68.426  1.00  0.00    -0.103 A  
HETATM    8  C   UNL     1      -9.623   9.013  70.041  1.00  0.00    -0.203 A  
BRANCH   4   9
HETATM    9  O   UNL     1      -8.714   5.542  68.955  1.00  0.00    -0.102 OA 
HETATM   10  C   UNL     1      -8.074   4.618  69.807  1.00  0.00    -0.068 C  
ENDBRANCH   4   9
BRANCH   6  11
HETATM   11  O   UNL     1     -10.622   7.004  70.789  1.00  0.00    -0.215 OA 
HETATM   12  C   UNL     1     -11.747   6.541  70.042  1.00  0.00    -0.322 C  
ENDBRANCH   6  11
BRANCH   8  13
HETATM   13  C   UNL     1     -10.598   9.845  70.859  1.00  0.00    -0.184 C  
BRANCH  13  14
HETATM   14  N   UNL     1     -11.849  10.136  70.125  1.00  0.00    -0.246 NA 
HETATM   15  C   UNL     1     -13.035  10.138  71.014  1.00  0.00    -0.385 C  
HETATM   16  C   UNL     1     -13.142  11.362  71.949  1.00  0.00    -0.400 C  
HETATM   17  N   UNL     1     -13.068  12.646  71.227  1.00  0.00    -0.219 NA 
HETATM   18  C   UNL     1     -11.882  12.670  70.358  1.00  0.00    -0.154 C  
HETATM   19  H   UNL     1     -13.090  13.443  71.863  1.00  0.00     0.000 HD 
HETATM   20  C   UNL     1     -11.782  11.437  69.432  1.00  0.00    -0.338 C  
ENDBRANCH  13  14
ENDBRANCH   8  13
ENDBRANCH   2   3
TORSDOF 5
ENDMDL
MODEL      162
REMARK 921   NORMALIZED FREE ENERGY PREDICTED BY IDOCK:   -2.70 KCAL/MOL
REMARK 922        TOTAL FREE ENERGY PREDICTED BY IDOCK:   -4.06 KCAL/MOL
REMARK 923 INTER-LIGAND FREE ENERGY PREDICTED BY IDOCK:   -3.42 KCAL/MOL
REMARK 924 INTRA-LIGAND FREE ENERGY PREDICTED BY IDOCK:   -0.65 KCAL/MOL
REMARK 927      BINDING AFFINITY PREDICTED BY RF-SCORE:    0.00 PKD
ROOT
HETATM    1  C   UNL     1      -8.696   7.977  73.962  1.00  0.00    -0.202 C  
HETATM    2  O   UNL     1      -8.451   8.644  72.730  1.00  0.00    -0.396 OA 
ENDROOT
BRANCH   2   3
HETATM    3  C   UNL     1      -8.760   7.953  71.579  1.00  0.00    -0.125 A  
HETATM    4  C   UNL     1      -9.672   8.360  70.571  1.00  0.00    -0.173 A  
HETATM    5  C   UNL     1      -8.379   5.856  70.453  1.00  0.00    -0.123 A  
HETATM    6  C   UNL     1      -9.874   7.512  69.458  1.00  0.00    -0.169 A  
HETATM    7  C   UNL     1      -8.143   6.704  71.524  1.00  0.00    -0.111 A  
HETATM    8  C   UNL     1      -9.246   6.240  69.416  1.00  0.00    -0.139 A  
BRANCH   4   9
HETATM    9  O   UNL     1     -10.294   9.541  70.850  1.00  0.00    -0.291 OA 
HETATM   10  C   UNL     1     -11.624   9.635  71.307  1.00  0.00    -0.393 C  
ENDBRANCH   4   9
BRANCH   6  11
HETATM   11  O   UNL     1     -10.779   7.761  68.453  1.00  0.00    -0.150 OA 
HETATM   12  C   UNL     1     -10.342   8.688  67.460  1.00  0.00    -0.269 C  
ENDBRANCH   6  11
BRANCH   8  13
HETATM   13  C   UNL     1      -9.489   5.234  68.302  1.00  0.00    -0.124 C  
BRANCH  13  14
HETATM   14  N   UNL     1      -8.495   5.343  67.213  1.00  0.00    -0.107 NA 
HETATM   15  C   UNL     1      -7.551   4.202  67.195  1.00  0.00    -0.077 C  
HETATM   16  C   UNL     1      -8.152   2.871  66.692  1.00  0.00    -0.081 C  
HETATM   17  N   UNL     1      -8.798   2.994  65.372  1.00  0.00    -0.129 NA 
HETATM   18  C   UNL     1      -9.757   4.109  65.380  1.00  0.00    -0.201 C  
HETATM   19  H   UNL     1      -9.233   2.120  65.076  1.00  0.00     0.000 HD 
HETATM   20  C   UNL     1      -9.146   5.433  65.891  1.00  0.00    -0.157 C  
ENDBRANCH  13  14
ENDBRANCH   8  13
ENDBRANCH   2   3
TORSDOF 5
ENDMDL
MODEL      163
REMARK 921   NORMALIZED FREE ENERGY PREDICTED BY IDOCK:   -2.68 KCAL/MOL
REMARK 922        TOTAL FREE ENERGY PREDICTED BY IDOCK:   -4.04 KCAL/MOL
REMARK 923 INTER-LIGAND FREE ENERGY PREDICTED BY IDOCK:   -3.63 KCAL/MOL
REMARK 924 INTRA-LIGAND FREE ENERGY PREDICTED BY IDOCK:   -0.41 KCAL/MOL
REMARK 927      BINDING AFFINITY PREDICTED BY RF-SCORE:    0.00 PKD
ROOT
HETATM    1  C   UNL     1     -11.546  14.565  68.568  1.00  0.00    -0.313 C  
HETATM    2  O   UNL     1     -12.199  13.439  67.994  1.00  0.00    -0.289 OA 
ENDROOT
BRANCH   2   3
HETATM    3  C   UNL     1     -11.395  12.398  67.585  1.00  0.00    -0.312 A  
HETATM    4  C   UNL     1     -11.438  11.062  68.061  1.00  0.00    -0.290 A  
HETATM    5  C   UNL     1      -9.488  11.893  66.199  1.00  0.00    -0.243 A  
HETATM    6  C   UNL     1     -10.522  10.124  67.531  1.00  0.00    -0.253 A  
HETATM    7  C   UNL     1     -10.413  12.805  66.682  1.00  0.00    -0.270 A  
HETATM    8  C   UNL     1      -9.523  10.551  66.618  1.00  0.00    -0.199 A  
BRANCH   4   9
HETATM    9  O   UNL     1     -12.364  10.868  69.043  1.00  0.00    -0.464 OA 
HETATM   10  C   UNL     1     -12.095  11.041  70.416  1.00  0.00    -0.373 C  
ENDBRANCH   4   9
BRANCH   6  11
HETATM   11  O   UNL     1     -10.419   8.822  67.959  1.00  0.00    -0.223 OA 
HETATM   12  C   UNL     1     -10.998   7.851  67.089  1.00  0.00     0.076 C  
ENDBRANCH   6  11
BRANCH   8  13
HETATM   13  C   UNL     1      -8.444   9.625  66.080  1.00  0.00    -0.120 C  
BRANCH  13  14
HETATM   14  N   UNL     1      -7.094   9.988  66.559  1.00  0.00    -0.094 NA 
HETATM   15  C   UNL     1      -6.887   9.635  67.984  1.00  0.00    -0.073 C  
HETATM   16  C   UNL     1      -6.723   8.124  68.260  1.00  0.00    -0.064 C  
HETATM   17  N   UNL     1      -5.666   7.501  67.442  1.00  0.00    -0.034 NA 
HETATM   18  C   UNL     1      -5.870   7.823  66.021  1.00  0.00    -0.037 C  
HETATM   19  H   UNL     1      -5.604   6.496  67.600  1.00  0.00     0.000 HD 
HETATM   20  C   UNL     1      -6.039   9.336  65.758  1.00  0.00    -0.056 C  
ENDBRANCH  13  14
ENDBRANCH   8  13
ENDBRANCH   2   3
TORSDOF 5
ENDMDL
MODEL      164
REMARK 921   NORMALIZED FREE ENERGY PREDICTED BY IDOCK:   -2.66 KCAL/MOL
REMARK 922        TOTAL FREE ENERGY PREDICTED BY IDOCK:   -4.01 KCAL/MOL
REMARK 923 INTER-LIGAND FREE ENERGY PREDICTED BY IDOCK:   -3.55 KCAL/MOL
REMARK 924 INTRA-LIGAND FREE ENERGY PREDICTED BY IDOCK:   -0.46 KCAL/MOL
REMARK 927      BINDING AFFINITY PREDICTED BY RF-SCORE:    0.00 PKD
ROOT
HETATM    1  C   UNL     1      -5.128   7.118  68.330  1.00  0.00    -0.019 C  
HETATM    2  O   UNL     1      -6.137   6.408  67.620  1.00  0.00    -0.019 OA 
ENDROOT
BRANCH   2   3
HETATM    3  C   UNL     1      -7.440   6.638  68.000  1.00  0.00    -0.098 A  
HETATM    4  C   UNL     1      -8.490   7.108  67.168  1.00  0.00    -0.121 A  
HETATM    5  C   UNL     1      -8.885   6.685  69.929  1.00  0.00    -0.144 A  
HETATM    6  C   UNL     1      -9.770   7.299  67.737  1.00  0.00    -0.140 A  
HETATM    7  C   UNL     1      -7.638   6.453  69.368  1.00  0.00    -0.095 A  
HETATM    8  C   UNL     1      -9.959   7.115  69.131  1.00  0.00    -0.168 A  
BRANCH   4   9
HETATM    9  O   UNL     1      -8.090   7.372  65.891  1.00  0.00    -0.113 OA 
HETATM   10  C   UNL     1      -8.246   6.467  64.822  1.00  0.00    -0.092 C  
ENDBRANCH   4   9
BRANCH   6  11
HETATM   11  O   UNL     1     -10.847   7.814  67.054  1.00  0.00    -0.316 OA 
HETATM   12  C   UNL     1     -10.749   9.198  66.722  1.00  0.00    -0.038 C  
ENDBRANCH   6  11
BRANCH   8  13
HETATM   13  C   UNL     1     -11.280   7.393  69.831  1.00  0.00    -0.135 C  
BRANCH  13  14
HETATM   14  N   UNL     1     -11.096   7.902  71.207  1.00  0.00    -0.246 NA 
HETATM   15  C   UNL     1     -10.903   9.371  71.243  1.00  0.00    -0.361 C  
HETATM   16  C   UNL     1     -12.177  10.199  70.965  1.00  0.00    -0.374 C  
HETATM   17  N   UNL     1     -13.305   9.830  71.840  1.00  0.00    -0.426 NA 
HETATM   18  C   UNL     1     -13.525   8.377  71.797  1.00  0.00    -0.364 C  
HETATM   19  H   UNL     1     -14.152  10.351  71.611  1.00  0.00     0.000 HD 
HETATM   20  C   UNL     1     -12.243   7.559  72.071  1.00  0.00    -0.280 C  
ENDBRANCH  13  14
ENDBRANCH   8  13
ENDBRANCH   2   3
TORSDOF 5
ENDMDL
MODEL      165
REMARK 921   NORMALIZED FREE ENERGY PREDICTED BY IDOCK:   -2.62 KCAL/MOL
REMARK 922        TOTAL FREE ENERGY PREDICTED BY IDOCK:   -3.96 KCAL/MOL
REMARK 923 INTER-LIGAND FREE ENERGY PREDICTED BY IDOCK:   -3.76 KCAL/MOL
REMARK 924 INTRA-LIGAND FREE ENERGY PREDICTED BY IDOCK:   -0.20 KCAL/MOL
REMARK 927      BINDING AFFINITY PREDICTED BY RF-SCORE:    0.00 PKD
ROOT
HETATM    1  C   UNL     1      -9.482   9.026  70.079  1.00  0.00    -0.187 C  
HETATM    2  O   UNL     1      -8.264   9.482  69.501  1.00  0.00    -0.110 OA 
ENDROOT
BRANCH   2   3
HETATM    3  C   UNL     1      -8.304  10.693  68.846  1.00  0.00    -0.150 A  
HETATM    4  C   UNL     1      -7.551  11.851  69.170  1.00  0.00     0.117 A  
HETATM    5  C   UNL     1      -9.477  11.883  67.108  1.00  0.00    -0.180 A  
HETATM    6  C   UNL     1      -7.732  13.017  68.390  1.00  0.00    -0.137 A  
HETATM    7  C   UNL     1      -9.270  10.724  67.841  1.00  0.00    -0.151 A  
HETATM    8  C   UNL     1      -8.723  13.040  67.374  1.00  0.00    -0.205 A  
BRANCH   4   9
HETATM    9  O   UNL     1      -6.757  11.690  70.267  1.00  0.00    -0.083 OA 
HETATM   10  C   UNL     1      -5.460  12.229  70.378  1.00  0.00    -0.150 C  
ENDBRANCH   4   9
BRANCH   6  11
HETATM   11  O   UNL     1      -7.114  14.218  68.645  1.00  0.00    -0.098 OA 
HETATM   12  C   UNL     1      -7.749  15.029  69.633  1.00  0.00    -0.115 C  
ENDBRANCH   6  11
BRANCH   8  13
HETATM   13  C   UNL     1      -9.043  14.283  66.559  1.00  0.00    -0.185 C  
BRANCH  13  14
HETATM   14  N   UNL     1     -10.325  14.905  66.954  1.00  0.00    -0.261 NA 
HETATM   15  C   UNL     1     -10.146  16.279  67.481  1.00  0.00    -0.258 C  
HETATM   16  C   UNL     1      -9.805  17.343  66.415  1.00  0.00    -0.302 C  
HETATM   17  N   UNL     1     -10.768  17.367  65.298  1.00  0.00    -0.614 NA 
HETATM   18  C   UNL     1     -10.940  16.014  64.748  1.00  0.00    -0.356 C  
HETATM   19  H   UNL     1     -10.503  18.040  64.580  1.00  0.00     0.000 HD 
HETATM   20  C   UNL     1     -11.274  14.957  65.825  1.00  0.00    -0.334 C  
ENDBRANCH  13  14
ENDBRANCH   8  13
ENDBRANCH   2   3
TORSDOF 5
ENDMDL
MODEL      166
REMARK 921   NORMALIZED FREE ENERGY PREDICTED BY IDOCK:   -2.59 KCAL/MOL
REMARK 922        TOTAL FREE ENERGY PREDICTED BY IDOCK:   -3.92 KCAL/MOL
REMARK 923 INTER-LIGAND FREE ENERGY PREDICTED BY IDOCK:   -3.27 KCAL/MOL
REMARK 924 INTRA-LIGAND FREE ENERGY PREDICTED BY IDOCK:   -0.66 KCAL/MOL
REMARK 927      BINDING AFFINITY PREDICTED BY RF-SCORE:    0.00 PKD
ROOT
HETATM    1  C   UNL     1      -9.042   9.855  62.347  1.00  0.00    -0.290 C  
HETATM    2  O   UNL     1      -8.312  10.333  63.471  1.00  0.00    -0.160 OA 
ENDROOT
BRANCH   2   3
HETATM    3  C   UNL     1      -8.389   9.584  64.624  1.00  0.00    -0.157 A  
HETATM    4  C   UNL     1      -8.797  10.045  65.903  1.00  0.00    -0.144 A  
HETATM    5  C   UNL     1      -7.881   7.405  65.520  1.00  0.00    -0.115 A  
HETATM    6  C   UNL     1      -8.802   9.132  66.982  1.00  0.00    -0.123 A  
HETATM    7  C   UNL     1      -7.916   8.284  64.449  1.00  0.00    -0.144 A  
HETATM    8  C   UNL     1      -8.312   7.813  66.794  1.00  0.00    -0.125 A  
BRANCH   4   9
HETATM    9  O   UNL     1      -9.093  11.376  65.928  1.00  0.00    -0.207 OA 
HETATM   10  C   UNL     1     -10.376  11.897  65.664  1.00  0.00    -0.247 C  
ENDBRANCH   4   9
BRANCH   6  11
HETATM   11  O   UNL     1      -9.110   9.473  68.278  1.00  0.00    -0.127 OA 
HETATM   12  C   UNL     1     -10.505   9.527  68.575  1.00  0.00    -0.217 C  
ENDBRANCH   6  11
BRANCH   8  13
HETATM   13  C   UNL     1      -8.197   6.805  67.926  1.00  0.00    -0.117 C  
BRANCH  13  14
HETATM   14  N   UNL     1      -9.032   5.605  67.704  1.00  0.00    -0.109 NA 
HETATM   15  C   UNL     1      -8.536   4.426  68.453  1.00  0.00    -0.094 C  
HETATM   16  C   UNL     1      -8.781   4.478  69.977  1.00  0.00    -0.080 C  
HETATM   17  N   UNL     1     -10.193   4.722  70.326  1.00  0.00    -0.232 NA 
HETATM   18  C   UNL     1     -10.694   5.904  69.608  1.00  0.00    -0.345 C  
HETATM   19  H   UNL     1     -10.329   4.802  71.333  1.00  0.00     0.000 HD 
HETATM   20  C   UNL     1     -10.438   5.844  68.085  1.00  0.00    -0.233 C  
ENDBRANCH  13  14
ENDBRANCH   8  13
ENDBRANCH   2   3
TORSDOF 5
ENDMDL
MODEL      167
REMARK 921   NORMALIZED FREE ENERGY PREDICTED BY IDOCK:   -2.58 KCAL/MOL
REMARK 922        TOTAL FREE ENERGY PREDICTED BY IDOCK:   -3.92 KCAL/MOL
REMARK 923 INTER-LIGAND FREE ENERGY PREDICTED BY IDOCK:   -3.30 KCAL/MOL
REMARK 924 INTRA-LIGAND FREE ENERGY PREDICTED BY IDOCK:   -0.62 KCAL/MOL
REMARK 927      BINDING AFFINITY PREDICTED BY RF-SCORE:    0.00 PKD
ROOT
HETATM    1  C   UNL     1      -8.938   4.731  64.690  1.00  0.00    -0.138 C  
HETATM    2  O   UNL     1      -8.131   4.769  65.862  1.00  0.00    -0.105 OA 
ENDROOT
BRANCH   2   3
HETATM    3  C   UNL     1      -8.720   5.265  67.004  1.00  0.00    -0.107 A  
HETATM    4  C   UNL     1      -8.732   6.620  67.426  1.00  0.00    -0.118 A  
HETATM    5  C   UNL     1      -9.845   4.577  69.022  1.00  0.00    -0.202 A  
HETATM    6  C   UNL     1      -9.378   6.945  68.640  1.00  0.00    -0.135 A  
HETATM    7  C   UNL     1      -9.252   4.259  67.810  1.00  0.00    -0.178 A  
HETATM    8  C   UNL     1      -9.910   5.913  69.456  1.00  0.00    -0.216 A  
BRANCH   4   9
HETATM    9  O   UNL     1      -8.046   7.451  66.591  1.00  0.00    -0.117 OA 
HETATM   10  C   UNL     1      -6.771   7.975  66.885  1.00  0.00    -0.064 C  
ENDBRANCH   4   9
BRANCH   6  11
HETATM   11  O   UNL     1      -9.399   8.206  69.188  1.00  0.00    -0.151 OA 
HETATM   12  C   UNL     1     -10.308   9.118  68.574  1.00  0.00    -0.207 C  
ENDBRANCH   6  11
BRANCH   8  13
HETATM   13  C   UNL     1     -10.533   6.173  70.818  1.00  0.00    -0.230 C  
BRANCH  13  14
HETATM   14  N   UNL     1      -9.724   5.622  71.926  1.00  0.00    -0.159 NA 
HETATM   15  C   UNL     1      -8.408   6.292  72.051  1.00  0.00    -0.110 C  
HETATM   16  C   UNL     1      -8.462   7.725  72.625  1.00  0.00    -0.135 C  
HETATM   17  N   UNL     1      -9.174   7.801  73.914  1.00  0.00    -0.366 NA 
HETATM   18  C   UNL     1     -10.493   7.161  73.802  1.00  0.00    -0.329 C  
HETATM   19  H   UNL     1      -9.244   8.760  74.256  1.00  0.00     0.000 HD 
HETATM   20  C   UNL     1     -10.428   5.731  73.220  1.00  0.00    -0.233 C  
ENDBRANCH  13  14
ENDBRANCH   8  13
ENDBRANCH   2   3
TORSDOF 5
ENDMDL
MODEL      168
REMARK 921   NORMALIZED FREE ENERGY PREDICTED BY IDOCK:   -2.58 KCAL/MOL
REMARK 922        TOTAL FREE ENERGY PREDICTED BY IDOCK:   -3.91 KCAL/MOL
REMARK 923 INTER-LIGAND FREE ENERGY PREDICTED BY IDOCK:   -3.40 KCAL/MOL
REMARK 924 INTRA-LIGAND FREE ENERGY PREDICTED BY IDOCK:   -0.52 KCAL/MOL
REMARK 927      BINDING AFFINITY PREDICTED BY RF-SCORE:    0.00 PKD
ROOT
HETATM    1  C   UNL     1      -6.322  12.833  67.482  1.00  0.00    -0.162 C  
HETATM    2  O   UNL     1      -6.379  11.520  66.939  1.00  0.00    -0.123 OA 
ENDROOT
BRANCH   2   3
HETATM    3  C   UNL     1      -7.200  10.619  67.580  1.00  0.00    -0.089 A  
HETATM    4  C   UNL     1      -7.162   9.206  67.454  1.00  0.00    -0.080 A  
HETATM    5  C   UNL     1      -9.134  10.487  69.013  1.00  0.00    -0.188 A  
HETATM    6  C   UNL     1      -8.097   8.436  68.184  1.00  0.00    -0.120 A  
HETATM    7  C   UNL     1      -8.192  11.244  68.334  1.00  0.00    -0.149 A  
HETATM    8  C   UNL     1      -9.107   9.083  68.942  1.00  0.00    -0.140 A  
BRANCH   4   9
HETATM    9  O   UNL     1      -6.222   8.768  66.569  1.00  0.00    -0.059 OA 
HETATM   10  C   UNL     1      -6.421   8.729  65.174  1.00  0.00    -0.064 C  
ENDBRANCH   4   9
BRANCH   6  11
HETATM   11  O   UNL     1      -8.206   7.068  68.093  1.00  0.00    -0.118 OA 
HETATM   12  C   UNL     1      -7.146   6.334  68.704  1.00  0.00    -0.082 C  
ENDBRANCH   6  11
BRANCH   8  13
HETATM   13  C   UNL     1     -10.203   8.326  69.675  1.00  0.00    -0.209 C  
BRANCH  13  14
HETATM   14  N   UNL     1      -9.795   7.913  71.035  1.00  0.00    -0.170 NA 
HETATM   15  C   UNL     1     -10.566   8.611  72.091  1.00  0.00    -0.341 C  
HETATM   16  C   UNL     1     -12.029   8.140  72.243  1.00  0.00    -0.377 C  
HETATM   17  N   UNL     1     -12.149   6.682  72.431  1.00  0.00    -0.511 NA 
HETATM   18  C   UNL     1     -11.407   5.974  71.376  1.00  0.00    -0.236 C  
HETATM   19  H   UNL     1     -13.122   6.382  72.480  1.00  0.00     0.000 HD 
HETATM   20  C   UNL     1      -9.947   6.458  71.229  1.00  0.00    -0.182 C  
ENDBRANCH  13  14
ENDBRANCH   8  13
ENDBRANCH   2   3
TORSDOF 5
ENDMDL
MODEL      169
REMARK 921   NORMALIZED FREE ENERGY PREDICTED BY IDOCK:   -2.57 KCAL/MOL
REMARK 922        TOTAL FREE ENERGY PREDICTED BY IDOCK:   -3.89 KCAL/MOL
REMARK 923 INTER-LIGAND FREE ENERGY PREDICTED BY IDOCK:   -3.30 KCAL/MOL
REMARK 924 INTRA-LIGAND FREE ENERGY PREDICTED BY IDOCK:   -0.59 KCAL/MOL
REMARK 927      BINDING AFFINITY PREDICTED BY RF-SCORE:    0.00 PKD
ROOT
HETATM    1  C   UNL     1     -10.442   4.616  65.982  1.00  0.00    -0.264 C  
HETATM    2  O   UNL     1     -10.791   5.879  66.537  1.00  0.00    -0.269 OA 
ENDROOT
BRANCH   2   3
HETATM    3  C   UNL     1     -10.431   6.100  67.847  1.00  0.00    -0.229 A  
HETATM    4  C   UNL     1     -10.395   7.354  68.511  1.00  0.00    -0.198 A  
HETATM    5  C   UNL     1      -9.544   4.990  69.795  1.00  0.00    -0.240 A  
HETATM    6  C   UNL     1      -9.986   7.392  69.864  1.00  0.00    -0.188 A  
HETATM    7  C   UNL     1      -9.987   4.941  68.482  1.00  0.00    -0.185 A  
HETATM    8  C   UNL     1      -9.529   6.207  70.498  1.00  0.00    -0.182 A  
BRANCH   4   9
HETATM    9  O   UNL     1     -10.726   8.402  67.704  1.00  0.00    -0.218 OA 
HETATM   10  C   UNL     1      -9.780   9.274  67.130  1.00  0.00    -0.172 C  
ENDBRANCH   4   9
BRANCH   6  11
HETATM   11  O   UNL     1      -9.844   8.549  70.594  1.00  0.00    -0.177 OA 
HETATM   12  C   UNL     1     -11.055   9.074  71.138  1.00  0.00    -0.301 C  
ENDBRANCH   6  11
BRANCH   8  13
HETATM   13  C   UNL     1      -8.984   6.186  71.917  1.00  0.00    -0.140 C  
BRANCH  13  14
HETATM   14  N   UNL     1      -7.507   6.145  71.956  1.00  0.00    -0.094 NA 
HETATM   15  C   UNL     1      -6.907   7.497  72.055  1.00  0.00    -0.062 C  
HETATM   16  C   UNL     1      -7.058   8.173  73.435  1.00  0.00    -0.131 C  
HETATM   17  N   UNL     1      -6.562   7.335  74.543  1.00  0.00    -0.085 NA 
HETATM   18  C   UNL     1      -7.166   5.995  74.473  1.00  0.00    -0.091 C  
HETATM   19  H   UNL     1      -6.713   7.774  75.451  1.00  0.00     0.000 HD 
HETATM   20  C   UNL     1      -7.015   5.332  73.086  1.00  0.00    -0.080 C  
ENDBRANCH  13  14
ENDBRANCH   8  13
ENDBRANCH   2   3
TORSDOF 5
ENDMDL
MODEL      170
REMARK 921   NORMALIZED FREE ENERGY PREDICTED BY IDOCK:   -2.56 KCAL/MOL
REMARK 922        TOTAL FREE ENERGY PREDICTED BY IDOCK:   -3.89 KCAL/MOL
REMARK 923 INTER-LIGAND FREE ENERGY PREDICTED BY IDOCK:   -3.49 KCAL/MOL
REMARK 924 INTRA-LIGAND FREE ENERGY PREDICTED BY IDOCK:   -0.40 KCAL/MOL
REMARK 927      BINDING AFFINITY PREDICTED BY RF-SCORE:    0.00 PKD
ROOT
HETATM    1  C   UNL     1     -10.841  12.326  67.710  1.00  0.00    -0.221 C  
HETATM    2  O   UNL     1     -10.958  11.488  66.566  1.00  0.00    -0.282 OA 
ENDROOT
BRANCH   2   3
HETATM    3  C   UNL     1     -10.266  10.298  66.596  1.00  0.00    -0.233 A  
HETATM    4  C   UNL     1      -9.256   9.887  65.688  1.00  0.00    -0.194 A  
HETATM    5  C   UNL     1     -10.175   8.174  67.733  1.00  0.00    -0.288 A  
HETATM    6  C   UNL     1      -8.661   8.616  65.867  1.00  0.00    -0.172 A  
HETATM    7  C   UNL     1     -10.730   9.436  67.589  1.00  0.00    -0.295 A  
HETATM    8  C   UNL     1      -9.146   7.745  66.877  1.00  0.00    -0.171 A  
BRANCH   4   9
HETATM    9  O   UNL     1      -9.023  10.790  64.694  1.00  0.00    -0.195 OA 
HETATM   10  C   UNL     1      -9.798  10.877  63.520  1.00  0.00    -0.359 C  
ENDBRANCH   4   9
BRANCH   6  11
HETATM   11  O   UNL     1      -7.724   8.078  65.017  1.00  0.00    -0.097 OA 
HETATM   12  C   UNL     1      -6.367   8.375  65.345  1.00  0.00    -0.048 C  
ENDBRANCH   6  11
BRANCH   8  13
HETATM   13  C   UNL     1      -8.623   6.330  67.069  1.00  0.00    -0.104 C  
BRANCH  13  14
HETATM   14  N   UNL     1      -9.711   5.338  67.206  1.00  0.00    -0.140 NA 
HETATM   15  C   UNL     1      -9.848   4.482  66.004  1.00  0.00    -0.229 C  
HETATM   16  C   UNL     1      -8.731   3.430  65.827  1.00  0.00    -0.123 C  
HETATM   17  N   UNL     1      -8.548   2.579  67.018  1.00  0.00    -0.102 NA 
HETATM   18  C   UNL     1      -8.387   3.415  68.217  1.00  0.00    -0.082 C  
HETATM   19  H   UNL     1      -7.776   1.923  66.903  1.00  0.00     0.000 HD 
HETATM   20  C   UNL     1      -9.507   4.467  68.380  1.00  0.00    -0.154 C  
ENDBRANCH  13  14
ENDBRANCH   8  13
ENDBRANCH   2   3
TORSDOF 5
ENDMDL
MODEL      171
REMARK 921   NORMALIZED FREE ENERGY PREDICTED BY IDOCK:   -2.55 KCAL/MOL
REMARK 922        TOTAL FREE ENERGY PREDICTED BY IDOCK:   -3.88 KCAL/MOL
REMARK 923 INTER-LIGAND FREE ENERGY PREDICTED BY IDOCK:   -4.68 KCAL/MOL
REMARK 924 INTRA-LIGAND FREE ENERGY PREDICTED BY IDOCK:    0.81 KCAL/MOL
REMARK 927      BINDING AFFINITY PREDICTED BY RF-SCORE:    0.00 PKD
ROOT
HETATM    1  C   UNL     1      -9.787  20.317  68.146  1.00  0.00    -0.266 C  
HETATM    2  O   UNL     1      -8.896  19.268  68.507  1.00  0.00    -0.348 OA 
ENDROOT
BRANCH   2   3
HETATM    3  C   UNL     1      -9.185  18.013  68.019  1.00  0.00    -0.272 A  
HETATM    4  C   UNL     1      -9.501  17.684  66.675  1.00  0.00    -0.279 A  
HETATM    5  C   UNL     1      -9.562  15.737  68.716  1.00  0.00    -0.216 A  
HETATM    6  C   UNL     1      -9.785  16.335  66.357  1.00  0.00    -0.288 A  
HETATM    7  C   UNL     1      -9.240  17.049  69.025  1.00  0.00    -0.154 A  
HETATM    8  C   UNL     1      -9.844  15.364  67.390  1.00  0.00    -0.216 A  
BRANCH   4   9
HETATM    9  O   UNL     1      -9.540  18.767  65.848  1.00  0.00    -0.476 OA 
HETATM   10  C   UNL     1     -10.732  19.411  65.460  1.00  0.00    -0.157 C  
ENDBRANCH   4   9
BRANCH   6  11
HETATM   11  O   UNL     1     -10.170  15.903  65.111  1.00  0.00    -0.472 OA 
HETATM   12  C   UNL     1     -11.542  16.128  64.789  1.00  0.00    -0.056 C  
ENDBRANCH   6  11
BRANCH   8  13
HETATM   13  C   UNL     1     -10.236  13.916  67.141  1.00  0.00    -0.258 C  
BRANCH  13  14
HETATM   14  N   UNL     1     -10.076  13.071  68.344  1.00  0.00    -0.234 NA 
HETATM   15  C   UNL     1     -11.363  12.500  68.807  1.00  0.00    -0.293 C  
HETATM   16  C   UNL     1     -11.925  11.366  67.922  1.00  0.00    -0.045 C  
HETATM   17  N   UNL     1     -10.956  10.276  67.700  1.00  0.00    -0.303 NA 
HETATM   18  C   UNL     1      -9.679  10.824  67.218  1.00  0.00    -0.161 C  
HETATM   19  H   UNL     1     -11.324   9.559  67.075  1.00  0.00     0.000 HD 
HETATM   20  C   UNL     1      -9.131  11.962  68.108  1.00  0.00    -0.190 C  
ENDBRANCH  13  14
ENDBRANCH   8  13
ENDBRANCH   2   3
TORSDOF 5
ENDMDL
MODEL      172
REMARK 921   NORMALIZED FREE ENERGY PREDICTED BY IDOCK:   -2.54 KCAL/MOL
REMARK 922        TOTAL FREE ENERGY PREDICTED BY IDOCK:   -3.86 KCAL/MOL
REMARK 923 INTER-LIGAND FREE ENERGY PREDICTED BY IDOCK:   -3.38 KCAL/MOL
REMARK 924 INTRA-LIGAND FREE ENERGY PREDICTED BY IDOCK:   -0.48 KCAL/MOL
REMARK 927      BINDING AFFINITY PREDICTED BY RF-SCORE:    0.00 PKD
ROOT
HETATM    1  C   UNL     1     -10.661  11.353  64.565  1.00  0.00    -0.328 C  
HETATM    2  O   UNL     1      -9.359  11.330  65.140  1.00  0.00    -0.219 OA 
ENDROOT
BRANCH   2   3
HETATM    3  C   UNL     1      -9.084  10.299  66.010  1.00  0.00    -0.161 A  
HETATM    4  C   UNL     1      -7.841  10.038  66.642  1.00  0.00    -0.111 A  
HETATM    5  C   UNL     1     -10.041   8.303  66.965  1.00  0.00    -0.353 A  
HETATM    6  C   UNL     1      -7.739   8.919  67.500  1.00  0.00    -0.100 A  
HETATM    7  C   UNL     1     -10.160   9.424  66.157  1.00  0.00    -0.324 A  
HETATM    8  C   UNL     1      -8.837   8.031  67.637  1.00  0.00    -0.125 A  
BRANCH   4   9
HETATM    9  O   UNL     1      -6.857  10.910  66.279  1.00  0.00    -0.130 OA 
HETATM   10  C   UNL     1      -6.401  11.960  67.103  1.00  0.00    -0.151 C  
ENDBRANCH   4   9
BRANCH   6  11
HETATM   11  O   UNL     1      -6.574   8.523  68.114  1.00  0.00    -0.059 OA 
HETATM   12  C   UNL     1      -6.277   9.192  69.339  1.00  0.00    -0.040 C  
ENDBRANCH   6  11
BRANCH   8  13
HETATM   13  C   UNL     1      -8.773   6.757  68.464  1.00  0.00    -0.124 C  
BRANCH  13  14
HETATM   14  N   UNL     1      -9.980   5.918  68.307  1.00  0.00    -0.137 NA 
HETATM   15  C   UNL     1      -9.681   4.615  67.666  1.00  0.00    -0.161 C  
HETATM   16  C   UNL     1      -8.934   3.606  68.566  1.00  0.00    -0.128 C  
HETATM   17  N   UNL     1      -9.611   3.374  69.855  1.00  0.00    -0.167 NA 
HETATM   18  C   UNL     1      -9.894   4.657  70.516  1.00  0.00    -0.231 C  
HETATM   19  H   UNL     1      -9.081   2.744  70.456  1.00  0.00     0.000 HD 
HETATM   20  C   UNL     1     -10.636   5.660  69.604  1.00  0.00    -0.331 C  
ENDBRANCH  13  14
ENDBRANCH   8  13
ENDBRANCH   2   3
TORSDOF 5
ENDMDL
MODEL      173
REMARK 921   NORMALIZED FREE ENERGY PREDICTED BY IDOCK:   -2.53 KCAL/MOL
REMARK 922        TOTAL FREE ENERGY PREDICTED BY IDOCK:   -3.84 KCAL/MOL
REMARK 923 INTER-LIGAND FREE ENERGY PREDICTED BY IDOCK:   -3.53 KCAL/MOL
REMARK 924 INTRA-LIGAND FREE ENERGY PREDICTED BY IDOCK:   -0.31 KCAL/MOL
REMARK 927      BINDING AFFINITY PREDICTED BY RF-SCORE:    0.00 PKD
ROOT
HETATM    1  C   UNL     1      -6.626  14.231  68.442  1.00  0.00    -0.105 C  
HETATM    2  O   UNL     1      -6.918  13.742  67.137  1.00  0.00    -0.113 OA 
ENDROOT
BRANCH   2   3
HETATM    3  C   UNL     1      -7.778  12.669  67.055  1.00  0.00    -0.014 A  
HETATM    4  C   UNL     1      -9.196  12.721  67.090  1.00  0.00    -0.219 A  
HETATM    5  C   UNL     1      -7.820  10.260  66.992  1.00  0.00    -0.107 A  
HETATM    6  C   UNL     1      -9.920  11.509  67.006  1.00  0.00    -0.200 A  
HETATM    7  C   UNL     1      -7.106  11.448  67.030  1.00  0.00    -0.138 A  
HETATM    8  C   UNL     1      -9.226  10.272  66.987  1.00  0.00    -0.169 A  
BRANCH   4   9
HETATM    9  O   UNL     1      -9.686  13.982  67.259  1.00  0.00    -0.227 OA 
HETATM   10  C   UNL     1     -10.135  14.794  66.199  1.00  0.00    -0.296 C  
ENDBRANCH   4   9
BRANCH   6  11
HETATM   11  O   UNL     1     -11.289  11.422  67.097  1.00  0.00    -0.354 OA 
HETATM   12  C   UNL     1     -11.831  11.729  68.381  1.00  0.00    -0.282 C  
ENDBRANCH   6  11
BRANCH   8  13
HETATM   13  C   UNL     1      -9.934   8.927  66.993  1.00  0.00    -0.233 C  
BRANCH  13  14
HETATM   14  N   UNL     1      -9.021   7.806  67.303  1.00  0.00    -0.126 NA 
HETATM   15  C   UNL     1      -9.012   7.467  68.746  1.00  0.00    -0.129 C  
HETATM   16  C   UNL     1     -10.282   6.746  69.249  1.00  0.00    -0.181 C  
HETATM   17  N   UNL     1     -10.608   5.541  68.464  1.00  0.00    -0.173 NA 
HETATM   18  C   UNL     1     -10.643   5.865  67.030  1.00  0.00    -0.305 C  
HETATM   19  H   UNL     1     -11.475   5.104  68.778  1.00  0.00     0.000 HD 
HETATM   20  C   UNL     1      -9.371   6.592  66.540  1.00  0.00    -0.159 C  
ENDBRANCH  13  14
ENDBRANCH   8  13
ENDBRANCH   2   3
TORSDOF 5
ENDMDL
MODEL      174
REMARK 921   NORMALIZED FREE ENERGY PREDICTED BY IDOCK:   -2.51 KCAL/MOL
REMARK 922        TOTAL FREE ENERGY PREDICTED BY IDOCK:   -3.82 KCAL/MOL
REMARK 923 INTER-LIGAND FREE ENERGY PREDICTED BY IDOCK:   -3.22 KCAL/MOL
REMARK 924 INTRA-LIGAND FREE ENERGY PREDICTED BY IDOCK:   -0.60 KCAL/MOL
REMARK 927      BINDING AFFINITY PREDICTED BY RF-SCORE:    0.00 PKD
ROOT
HETATM    1  C   UNL     1      -5.799  10.645  67.769  1.00  0.00    -0.043 C  
HETATM    2  O   UNL     1      -7.164  10.539  67.381  1.00  0.00    -0.089 OA 
ENDROOT
BRANCH   2   3
HETATM    3  C   UNL     1      -7.952   9.680  68.115  1.00  0.00    -0.100 A  
HETATM    4  C   UNL     1      -8.463   8.428  67.684  1.00  0.00    -0.130 A  
HETATM    5  C   UNL     1      -9.139   9.497  70.205  1.00  0.00    -0.296 A  
HETATM    6  C   UNL     1      -9.270   7.683  68.574  1.00  0.00    -0.143 A  
HETATM    7  C   UNL     1      -8.310  10.211  69.354  1.00  0.00    -0.174 A  
HETATM    8  C   UNL     1      -9.634   8.236  69.829  1.00  0.00    -0.171 A  
BRANCH   4   9
HETATM    9  O   UNL     1      -8.132   8.125  66.396  1.00  0.00    -0.101 OA 
HETATM   10  C   UNL     1      -7.064   7.275  66.043  1.00  0.00    -0.066 C  
ENDBRANCH   4   9
BRANCH   6  11
HETATM   11  O   UNL     1      -9.878   6.494  68.250  1.00  0.00    -0.129 OA 
HETATM   12  C   UNL     1     -10.967   6.599  67.333  1.00  0.00    -0.360 C  
ENDBRANCH   6  11
BRANCH   8  13
HETATM   13  C   UNL     1     -10.575   7.539  70.799  1.00  0.00    -0.220 C  
BRANCH  13  14
HETATM   14  N   UNL     1      -9.937   7.256  72.102  1.00  0.00    -0.164 NA 
HETATM   15  C   UNL     1     -10.905   6.753  73.106  1.00  0.00    -0.284 C  
HETATM   16  C   UNL     1     -11.385   5.303  72.874  1.00  0.00    -0.301 C  
HETATM   17  N   UNL     1     -10.273   4.344  72.742  1.00  0.00    -0.170 NA 
HETATM   18  C   UNL     1      -9.314   4.816  71.732  1.00  0.00    -0.141 C  
HETATM   19  H   UNL     1     -10.604   3.401  72.541  1.00  0.00     0.000 HD 
HETATM   20  C   UNL     1      -8.846   6.270  71.970  1.00  0.00    -0.138 C  
ENDBRANCH  13  14
ENDBRANCH   8  13
ENDBRANCH   2   3
TORSDOF 5
ENDMDL
MODEL      175
REMARK 921   NORMALIZED FREE ENERGY PREDICTED BY IDOCK:   -2.50 KCAL/MOL
REMARK 922        TOTAL FREE ENERGY PREDICTED BY IDOCK:   -3.81 KCAL/MOL
REMARK 923 INTER-LIGAND FREE ENERGY PREDICTED BY IDOCK:   -3.35 KCAL/MOL
REMARK 924 INTRA-LIGAND FREE ENERGY PREDICTED BY IDOCK:   -0.46 KCAL/MOL
REMARK 927      BINDING AFFINITY PREDICTED BY RF-SCORE:    0.00 PKD
ROOT
HETATM    1  C   UNL     1      -8.456   2.524  65.896  1.00  0.00    -0.099 C  
HETATM    2  O   UNL     1      -9.352   2.725  66.983  1.00  0.00    -0.153 OA 
ENDROOT
BRANCH   2   3
HETATM    3  C   UNL     1      -9.543   4.025  67.397  1.00  0.00    -0.177 A  
HETATM    4  C   UNL     1      -9.009   4.624  68.567  1.00  0.00    -0.110 A  
HETATM    5  C   UNL     1     -10.775   6.030  66.875  1.00  0.00    -0.407 A  
HETATM    6  C   UNL     1      -9.324   5.975  68.840  1.00  0.00    -0.123 A  
HETATM    7  C   UNL     1     -10.434   4.719  66.579  1.00  0.00    -0.251 A  
HETATM    8  C   UNL     1     -10.236   6.670  68.005  1.00  0.00    -0.193 A  
BRANCH   4   9
HETATM    9  O   UNL     1      -8.274   3.763  69.327  1.00  0.00    -0.057 OA 
HETATM   10  C   UNL     1      -8.840   2.820  70.208  1.00  0.00    -0.085 C  
ENDBRANCH   4   9
BRANCH   6  11
HETATM   11  O   UNL     1      -8.925   6.645  69.972  1.00  0.00    -0.143 OA 
HETATM   12  C   UNL     1      -9.629   6.295  71.163  1.00  0.00    -0.175 C  
ENDBRANCH   6  11
BRANCH   8  13
HETATM   13  C   UNL     1     -10.698   8.091  68.287  1.00  0.00    -0.023 C  
BRANCH  13  14
HETATM   14  N   UNL     1     -10.069   9.081  67.386  1.00  0.00    -0.212 NA 
HETATM   15  C   UNL     1     -10.875  10.318  67.257  1.00  0.00    -0.250 C  
HETATM   16  C   UNL     1     -10.855  11.237  68.498  1.00  0.00    -0.205 C  
HETATM   17  N   UNL     1      -9.490  11.584  68.935  1.00  0.00    -0.399 NA 
HETATM   18  C   UNL     1      -8.683  10.365  69.091  1.00  0.00    -0.166 C  
HETATM   19  H   UNL     1      -9.493  12.150  69.783  1.00  0.00     0.000 HD 
HETATM   20  C   UNL     1      -8.715   9.450  67.846  1.00  0.00    -0.120 C  
ENDBRANCH  13  14
ENDBRANCH   8  13
ENDBRANCH   2   3
TORSDOF 5
ENDMDL
MODEL      176
REMARK 921   NORMALIZED FREE ENERGY PREDICTED BY IDOCK:   -2.50 KCAL/MOL
REMARK 922        TOTAL FREE ENERGY PREDICTED BY IDOCK:   -3.81 KCAL/MOL
REMARK 923 INTER-LIGAND FREE ENERGY PREDICTED BY IDOCK:   -3.24 KCAL/MOL
REMARK 924 INTRA-LIGAND FREE ENERGY PREDICTED BY IDOCK:   -0.57 KCAL/MOL
REMARK 927      BINDING AFFINITY PREDICTED BY RF-SCORE:    0.00 PKD
ROOT
HETATM    1  C   UNL     1     -11.321   9.683  70.934  1.00  0.00    -0.360 C  
HETATM    2  O   UNL     1     -10.135   9.944  70.193  1.00  0.00    -0.250 OA 
ENDROOT
BRANCH   2   3
HETATM    3  C   UNL     1      -9.715   8.958  69.328  1.00  0.00    -0.165 A  
HETATM    4  C   UNL     1      -9.497   9.097  67.933  1.00  0.00    -0.141 A  
HETATM    5  C   UNL     1      -9.236   6.598  69.214  1.00  0.00    -0.140 A  
HETATM    6  C   UNL     1      -9.076   7.966  67.196  1.00  0.00    -0.137 A  
HETATM    7  C   UNL     1      -9.605   7.714  69.949  1.00  0.00    -0.160 A  
HETATM    8  C   UNL     1      -8.974   6.704  67.837  1.00  0.00    -0.112 A  
BRANCH   4   9
HETATM    9  O   UNL     1      -9.785  10.345  67.463  1.00  0.00    -0.165 OA 
HETATM   10  C   UNL     1      -8.861  11.409  67.456  1.00  0.00    -0.146 C  
ENDBRANCH   4   9
BRANCH   6  11
HETATM   11  O   UNL     1      -8.898   7.957  65.833  1.00  0.00    -0.163 OA 
HETATM   12  C   UNL     1      -7.657   8.496  65.380  1.00  0.00    -0.088 C  
ENDBRANCH   6  11
BRANCH   8  13
HETATM   13  C   UNL     1      -8.621   5.425  67.094  1.00  0.00    -0.108 C  
BRANCH  13  14
HETATM   14  N   UNL     1      -9.731   4.448  67.090  1.00  0.00    -0.197 NA 
HETATM   15  C   UNL     1     -10.632   4.623  65.926  1.00  0.00    -0.223 C  
HETATM   16  C   UNL     1     -10.044   4.162  64.575  1.00  0.00    -0.157 C  
HETATM   17  N   UNL     1      -9.550   2.773  64.607  1.00  0.00    -0.237 NA 
HETATM   18  C   UNL     1      -8.634   2.588  65.743  1.00  0.00    -0.115 C  
HETATM   19  H   UNL     1      -9.120   2.501  63.723  1.00  0.00     0.000 HD 
HETATM   20  C   UNL     1      -9.231   3.059  67.088  1.00  0.00    -0.175 C  
ENDBRANCH  13  14
ENDBRANCH   8  13
ENDBRANCH   2   3
TORSDOF 5
ENDMDL
MODEL      177
REMARK 921   NORMALIZED FREE ENERGY PREDICTED BY IDOCK:   -2.49 KCAL/MOL
REMARK 922        TOTAL FREE ENERGY PREDICTED BY IDOCK:   -3.79 KCAL/MOL
REMARK 923 INTER-LIGAND FREE ENERGY PREDICTED BY IDOCK:   -3.56 KCAL/MOL
REMARK 924 INTRA-LIGAND FREE ENERGY PREDICTED BY IDOCK:   -0.23 KCAL/MOL
REMARK 927      BINDING AFFINITY PREDICTED BY RF-SCORE:    0.00 PKD
ROOT
HETATM    1  C   UNL     1      -6.839   7.524  71.440  1.00  0.00    -0.050 C  
HETATM    2  O   UNL     1      -6.781   7.985  70.096  1.00  0.00    -0.037 OA 
ENDROOT
BRANCH   2   3
HETATM    3  C   UNL     1      -7.684   8.961  69.735  1.00  0.00    -0.078 A  
HETATM    4  C   UNL     1      -9.098   8.849  69.753  1.00  0.00    -0.150 A  
HETATM    5  C   UNL     1      -7.824  11.170  68.779  1.00  0.00    -0.142 A  
HETATM    6  C   UNL     1      -9.871   9.956  69.334  1.00  0.00    -0.217 A  
HETATM    7  C   UNL     1      -7.062  10.103  69.231  1.00  0.00    -0.076 A  
HETATM    8  C   UNL     1      -9.228  11.111  68.816  1.00  0.00    -0.151 A  
BRANCH   4   9
HETATM    9  O   UNL     1      -9.537   7.617  70.140  1.00  0.00    -0.168 OA 
HETATM   10  C   UNL     1     -10.073   6.664  69.251  1.00  0.00    -0.169 C  
ENDBRANCH   4   9
BRANCH   6  11
HETATM   11  O   UNL     1     -11.242   9.947  69.241  1.00  0.00    -0.211 OA 
HETATM   12  C   UNL     1     -11.934   9.965  70.489  1.00  0.00    -0.239 C  
ENDBRANCH   6  11
BRANCH   8  13
HETATM   13  C   UNL     1      -9.991  12.302  68.258  1.00  0.00    -0.216 C  
BRANCH  13  14
HETATM   14  N   UNL     1     -10.394  12.106  66.849  1.00  0.00    -0.211 NA 
HETATM   15  C   UNL     1     -11.852  12.280  66.650  1.00  0.00    -0.289 C  
HETATM   16  C   UNL     1     -12.347  13.741  66.729  1.00  0.00    -0.321 C  
HETATM   17  N   UNL     1     -11.617  14.646  65.821  1.00  0.00    -0.348 NA 
HETATM   18  C   UNL     1     -10.167  14.502  66.022  1.00  0.00    -0.315 C  
HETATM   19  H   UNL     1     -11.922  15.614  65.920  1.00  0.00     0.000 HD 
HETATM   20  C   UNL     1      -9.685  13.036  65.947  1.00  0.00    -0.178 C  
ENDBRANCH  13  14
ENDBRANCH   8  13
ENDBRANCH   2   3
TORSDOF 5
ENDMDL
MODEL      178
REMARK 921   NORMALIZED FREE ENERGY PREDICTED BY IDOCK:   -2.40 KCAL/MOL
REMARK 922        TOTAL FREE ENERGY PREDICTED BY IDOCK:   -3.67 KCAL/MOL
REMARK 923 INTER-LIGAND FREE ENERGY PREDICTED BY IDOCK:   -3.22 KCAL/MOL
REMARK 924 INTRA-LIGAND FREE ENERGY PREDICTED BY IDOCK:   -0.45 KCAL/MOL
REMARK 927      BINDING AFFINITY PREDICTED BY RF-SCORE:    0.00 PKD
ROOT
HETATM    1  C   UNL     1     -11.741  12.705  68.276  1.00  0.00    -0.342 C  
HETATM    2  O   UNL     1     -10.506  12.746  67.570  1.00  0.00    -0.216 OA 
ENDROOT
BRANCH   2   3
HETATM    3  C   UNL     1      -9.871  11.541  67.363  1.00  0.00    -0.186 A  
HETATM    4  C   UNL     1      -8.531  11.225  67.706  1.00  0.00    -0.126 A  
HETATM    5  C   UNL     1     -10.165   9.384  66.328  1.00  0.00    -0.284 A  
HETATM    6  C   UNL     1      -8.042   9.933  67.404  1.00  0.00    -0.113 A  
HETATM    7  C   UNL     1     -10.664  10.633  66.661  1.00  0.00    -0.246 A  
HETATM    8  C   UNL     1      -8.855   9.020  66.684  1.00  0.00    -0.152 A  
BRANCH   4   9
HETATM    9  O   UNL     1      -7.854  12.271  68.258  1.00  0.00    -0.138 OA 
HETATM   10  C   UNL     1      -6.869  13.013  67.574  1.00  0.00    -0.151 C  
ENDBRANCH   4   9
BRANCH   6  11
HETATM   11  O   UNL     1      -6.746   9.529  67.624  1.00  0.00    -0.063 OA 
HETATM   12  C   UNL     1      -6.408   9.293  68.990  1.00  0.00    -0.043 C  
ENDBRANCH   6  11
BRANCH   8  13
HETATM   13  C   UNL     1      -8.367   7.650  66.240  1.00  0.00    -0.133 C  
BRANCH  13  14
HETATM   14  N   UNL     1      -8.467   6.637  67.313  1.00  0.00    -0.119 NA 
HETATM   15  C   UNL     1      -9.871   6.278  67.619  1.00  0.00    -0.121 C  
HETATM   16  C   UNL     1     -10.565   5.406  66.549  1.00  0.00    -0.289 C  
HETATM   17  N   UNL     1      -9.807   4.185  66.221  1.00  0.00    -0.283 NA 
HETATM   18  C   UNL     1      -8.415   4.527  65.891  1.00  0.00    -0.114 C  
HETATM   19  H   UNL     1     -10.253   3.646  65.479  1.00  0.00     0.000 HD 
HETATM   20  C   UNL     1      -7.733   5.404  66.965  1.00  0.00    -0.100 C  
ENDBRANCH  13  14
ENDBRANCH   8  13
ENDBRANCH   2   3
TORSDOF 5
ENDMDL
MODEL      179
REMARK 921   NORMALIZED FREE ENERGY PREDICTED BY IDOCK:   -2.39 KCAL/MOL
REMARK 922        TOTAL FREE ENERGY PREDICTED BY IDOCK:   -3.66 KCAL/MOL
REMARK 923 INTER-LIGAND FREE ENERGY PREDICTED BY IDOCK:   -3.19 KCAL/MOL
REMARK 924 INTRA-LIGAND FREE ENERGY PREDICTED BY IDOCK:   -0.47 KCAL/MOL
REMARK 927      BINDING AFFINITY PREDICTED BY RF-SCORE:    0.00 PKD
ROOT
HETATM    1  C   UNL     1     -12.014  12.445  69.170  1.00  0.00    -0.240 C  
HETATM    2  O   UNL     1     -12.102  11.198  68.490  1.00  0.00    -0.586 OA 
ENDROOT
BRANCH   2   3
HETATM    3  C   UNL     1     -10.920  10.654  68.037  1.00  0.00    -0.282 A  
HETATM    4  C   UNL     1     -10.033   9.829  68.775  1.00  0.00    -0.169 A  
HETATM    5  C   UNL     1      -9.415  10.666  66.153  1.00  0.00    -0.218 A  
HETATM    6  C   UNL     1      -8.853   9.370  68.147  1.00  0.00    -0.124 A  
HETATM    7  C   UNL     1     -10.596  11.082  66.749  1.00  0.00    -0.317 A  
HETATM    8  C   UNL     1      -8.529   9.817  66.839  1.00  0.00    -0.120 A  
BRANCH   4   9
HETATM    9  O   UNL     1     -10.433   9.624  70.063  1.00  0.00    -0.222 OA 
HETATM   10  C   UNL     1     -10.921   8.391  70.542  1.00  0.00    -0.242 C  
ENDBRANCH   4   9
BRANCH   6  11
HETATM   11  O   UNL     1      -7.885   8.624  68.776  1.00  0.00    -0.102 OA 
HETATM   12  C   UNL     1      -7.209   9.286  69.846  1.00  0.00    -0.071 C  
ENDBRANCH   6  11
BRANCH   8  13
HETATM   13  C   UNL     1      -7.234   9.446  66.135  1.00  0.00    -0.092 C  
BRANCH  13  14
HETATM   14  N   UNL     1      -7.464   8.669  64.898  1.00  0.00    -0.090 NA 
HETATM   15  C   UNL     1      -6.201   8.337  64.197  1.00  0.00    -0.066 C  
HETATM   16  C   UNL     1      -5.347   7.247  64.882  1.00  0.00    -0.029 C  
HETATM   17  N   UNL     1      -6.101   6.008  65.146  1.00  0.00    -0.029 NA 
HETATM   18  C   UNL     1      -7.348   6.317  65.863  1.00  0.00    -0.080 C  
HETATM   19  H   UNL     1      -5.538   5.317  65.642  1.00  0.00     0.000 HD 
HETATM   20  C   UNL     1      -8.190   7.413  65.173  1.00  0.00    -0.113 C  
ENDBRANCH  13  14
ENDBRANCH   8  13
ENDBRANCH   2   3
TORSDOF 5
ENDMDL
MODEL      180
REMARK 921   NORMALIZED FREE ENERGY PREDICTED BY IDOCK:   -2.38 KCAL/MOL
REMARK 922        TOTAL FREE ENERGY PREDICTED BY IDOCK:   -3.65 KCAL/MOL
REMARK 923 INTER-LIGAND FREE ENERGY PREDICTED BY IDOCK:   -3.14 KCAL/MOL
REMARK 924 INTRA-LIGAND FREE ENERGY PREDICTED BY IDOCK:   -0.51 KCAL/MOL
REMARK 927      BINDING AFFINITY PREDICTED BY RF-SCORE:    0.00 PKD
ROOT
HETATM    1  C   UNL     1      -7.826  13.428  67.537  1.00  0.00    -0.176 C  
HETATM    2  O   UNL     1      -7.548  12.038  67.423  1.00  0.00    -0.133 OA 
ENDROOT
BRANCH   2   3
HETATM    3  C   UNL     1      -7.961  11.236  68.463  1.00  0.00    -0.145 A  
HETATM    4  C   UNL     1      -7.131  10.446  69.301  1.00  0.00    -0.090 A  
HETATM    5  C   UNL     1      -9.941  10.385  69.545  1.00  0.00    -0.229 A  
HETATM    6  C   UNL     1      -7.735   9.671  70.317  1.00  0.00    -0.172 A  
HETATM    7  C   UNL     1      -9.350  11.181  68.576  1.00  0.00    -0.190 A  
HETATM    8  C   UNL     1      -9.150   9.618  70.418  1.00  0.00    -0.245 A  
BRANCH   4   9
HETATM    9  O   UNL     1      -5.811  10.507  68.964  1.00  0.00    -0.041 OA 
HETATM   10  C   UNL     1      -5.210   9.667  68.005  1.00  0.00    -0.040 C  
ENDBRANCH   4   9
BRANCH   6  11
HETATM   11  O   UNL     1      -7.047   8.816  71.145  1.00  0.00    -0.072 OA 
HETATM   12  C   UNL     1      -6.592   7.611  70.529  1.00  0.00    -0.038 C  
ENDBRANCH   6  11
BRANCH   8  13
HETATM   13  C   UNL     1      -9.874   8.734  71.421  1.00  0.00    -0.283 C  
BRANCH  13  14
HETATM   14  N   UNL     1     -10.929   7.910  70.792  1.00  0.00    -0.247 NA 
HETATM   15  C   UNL     1     -10.375   6.736  70.077  1.00  0.00    -0.199 C  
HETATM   16  C   UNL     1      -9.853   5.607  70.993  1.00  0.00    -0.178 C  
HETATM   17  N   UNL     1     -10.855   5.155  71.977  1.00  0.00    -0.171 NA 
HETATM   18  C   UNL     1     -11.397   6.307  72.712  1.00  0.00    -0.201 C  
HETATM   19  H   UNL     1     -10.479   4.444  72.604  1.00  0.00     0.000 HD 
HETATM   20  C   UNL     1     -11.910   7.433  71.786  1.00  0.00    -0.294 C  
ENDBRANCH  13  14
ENDBRANCH   8  13
ENDBRANCH   2   3
TORSDOF 5
ENDMDL
MODEL      181
REMARK 921   NORMALIZED FREE ENERGY PREDICTED BY IDOCK:   -2.37 KCAL/MOL
REMARK 922        TOTAL FREE ENERGY PREDICTED BY IDOCK:   -3.64 KCAL/MOL
REMARK 923 INTER-LIGAND FREE ENERGY PREDICTED BY IDOCK:   -3.17 KCAL/MOL
REMARK 924 INTRA-LIGAND FREE ENERGY PREDICTED BY IDOCK:   -0.48 KCAL/MOL
REMARK 927      BINDING AFFINITY PREDICTED BY RF-SCORE:    0.00 PKD
ROOT
HETATM    1  C   UNL     1      -7.874   7.139  72.572  1.00  0.00    -0.092 C  
HETATM    2  O   UNL     1      -7.845   6.254  71.458  1.00  0.00    -0.099 OA 
ENDROOT
BRANCH   2   3
HETATM    3  C   UNL     1      -8.168   6.791  70.231  1.00  0.00    -0.125 A  
HETATM    4  C   UNL     1      -9.447   6.779  69.617  1.00  0.00    -0.146 A  
HETATM    5  C   UNL     1      -7.191   7.830  68.288  1.00  0.00    -0.089 A  
HETATM    6  C   UNL     1      -9.590   7.371  68.340  1.00  0.00    -0.148 A  
HETATM    7  C   UNL     1      -7.054   7.291  69.558  1.00  0.00    -0.074 A  
HETATM    8  C   UNL     1      -8.448   7.871  67.661  1.00  0.00    -0.127 A  
BRANCH   4   9
HETATM    9  O   UNL     1     -10.393   6.126  70.350  1.00  0.00    -0.192 OA 
HETATM   10  C   UNL     1     -11.437   6.779  71.036  1.00  0.00    -0.324 C  
ENDBRANCH   4   9
BRANCH   6  11
HETATM   11  O   UNL     1     -10.757   7.363  67.614  1.00  0.00    -0.237 OA 
HETATM   12  C   UNL     1     -10.986   6.181  66.848  1.00  0.00    -0.305 C  
ENDBRANCH   6  11
BRANCH   8  13
HETATM   13  C   UNL     1      -8.506   8.434  66.250  1.00  0.00    -0.127 C  
BRANCH  13  14
HETATM   14  N   UNL     1      -8.709   9.898  66.232  1.00  0.00    -0.137 NA 
HETATM   15  C   UNL     1      -7.494  10.630  65.804  1.00  0.00    -0.114 C  
HETATM   16  C   UNL     1      -7.169  10.522  64.297  1.00  0.00     0.114 C  
HETATM   17  N   UNL     1      -8.302  10.907  63.435  1.00  0.00    -0.371 NA 
HETATM   18  C   UNL     1      -9.512  10.171  63.832  1.00  0.00    -0.275 C  
HETATM   19  H   UNL     1      -8.088  10.783  62.446  1.00  0.00     0.000 HD 
HETATM   20  C   UNL     1      -9.823  10.281  65.342  1.00  0.00    -0.296 C  
ENDBRANCH  13  14
ENDBRANCH   8  13
ENDBRANCH   2   3
TORSDOF 5
ENDMDL
MODEL      182
REMARK 921   NORMALIZED FREE ENERGY PREDICTED BY IDOCK:   -2.37 KCAL/MOL
REMARK 922        TOTAL FREE ENERGY PREDICTED BY IDOCK:   -3.64 KCAL/MOL
REMARK 923 INTER-LIGAND FREE ENERGY PREDICTED BY IDOCK:   -3.15 KCAL/MOL
REMARK 924 INTRA-LIGAND FREE ENERGY PREDICTED BY IDOCK:   -0.49 KCAL/MOL
REMARK 927      BINDING AFFINITY PREDICTED BY RF-SCORE:    0.00 PKD
ROOT
HETATM    1  C   UNL     1     -12.302  10.634  70.909  1.00  0.00    -0.401 C  
HETATM    2  O   UNL     1     -10.969  10.477  70.438  1.00  0.00    -0.287 OA 
ENDROOT
BRANCH   2   3
HETATM    3  C   UNL     1     -10.294   9.349  70.851  1.00  0.00    -0.310 A  
HETATM    4  C   UNL     1      -8.890   9.150  70.824  1.00  0.00    -0.239 A  
HETATM    5  C   UNL     1     -10.647   7.097  71.634  1.00  0.00    -0.229 A  
HETATM    6  C   UNL     1      -8.372   7.915  71.279  1.00  0.00    -0.113 A  
HETATM    7  C   UNL     1     -11.157   8.321  71.231  1.00  0.00    -0.296 A  
HETATM    8  C   UNL     1      -9.259   6.873  71.657  1.00  0.00    -0.146 A  
BRANCH   4   9
HETATM    9  O   UNL     1      -8.205  10.202  70.292  1.00  0.00    -0.107 OA 
HETATM   10  C   UNL     1      -7.682  10.213  68.983  1.00  0.00    -0.100 C  
ENDBRANCH   4   9
BRANCH   6  11
HETATM   11  O   UNL     1      -7.040   7.576  71.239  1.00  0.00    -0.057 OA 
HETATM   12  C   UNL     1      -6.262   8.045  72.339  1.00  0.00    -0.052 C  
ENDBRANCH   6  11
BRANCH   8  13
HETATM   13  C   UNL     1      -8.782   5.489  72.065  1.00  0.00    -0.131 C  
BRANCH  13  14
HETATM   14  N   UNL     1      -9.898   4.588  72.425  1.00  0.00    -0.159 NA 
HETATM   15  C   UNL     1      -9.808   3.277  71.739  1.00  0.00    -0.159 C  
HETATM   16  C   UNL     1      -8.704   2.340  72.275  1.00  0.00    -0.066 C  
HETATM   17  N   UNL     1      -8.787   2.127  73.732  1.00  0.00    -0.062 NA 
HETATM   18  C   UNL     1      -8.854   3.420  74.430  1.00  0.00    -0.086 C  
HETATM   19  H   UNL     1      -8.023   1.546  74.077  1.00  0.00     0.000 HD 
HETATM   20  C   UNL     1      -9.958   4.351  73.881  1.00  0.00    -0.150 C  
ENDBRANCH  13  14
ENDBRANCH   8  13
ENDBRANCH   2   3
TORSDOF 5
ENDMDL
MODEL      183
REMARK 921   NORMALIZED FREE ENERGY PREDICTED BY IDOCK:   -2.32 KCAL/MOL
REMARK 922        TOTAL FREE ENERGY PREDICTED BY IDOCK:   -3.57 KCAL/MOL
REMARK 923 INTER-LIGAND FREE ENERGY PREDICTED BY IDOCK:   -3.17 KCAL/MOL
REMARK 924 INTRA-LIGAND FREE ENERGY PREDICTED BY IDOCK:   -0.41 KCAL/MOL
REMARK 927      BINDING AFFINITY PREDICTED BY RF-SCORE:    0.00 PKD
ROOT
HETATM    1  C   UNL     1     -10.436   6.924  69.438  1.00  0.00    -0.217 C  
HETATM    2  O   UNL     1      -9.578   7.689  68.600  1.00  0.00    -0.150 OA 
ENDROOT
BRANCH   2   3
HETATM    3  C   UNL     1      -9.812   9.046  68.548  1.00  0.00    -0.169 A  
HETATM    4  C   UNL     1      -8.831  10.071  68.555  1.00  0.00    -0.120 A  
HETATM    5  C   UNL     1     -11.586  10.677  68.586  1.00  0.00    -0.297 A  
HETATM    6  C   UNL     1      -9.259  11.418  68.508  1.00  0.00    -0.174 A  
HETATM    7  C   UNL     1     -11.171   9.355  68.586  1.00  0.00     0.122 A  
HETATM    8  C   UNL     1     -10.645  11.721  68.555  1.00  0.00    -0.242 A  
BRANCH   4   9
HETATM    9  O   UNL     1      -7.556   9.598  68.661  1.00  0.00    -0.078 OA 
HETATM   10  C   UNL     1      -6.819   9.602  69.863  1.00  0.00    -0.075 C  
ENDBRANCH   4   9
BRANCH   6  11
HETATM   11  O   UNL     1      -8.412  12.498  68.578  1.00  0.00    -0.146 OA 
HETATM   12  C   UNL     1      -7.648  12.747  67.399  1.00  0.00    -0.152 C  
ENDBRANCH   6  11
BRANCH   8  13
HETATM   13  C   UNL     1     -11.179  13.143  68.605  1.00  0.00    -0.276 C  
BRANCH  13  14
HETATM   14  N   UNL     1     -10.790  13.851  69.843  1.00  0.00     0.146 NA 
HETATM   15  C   UNL     1     -10.570  15.300  69.619  1.00  0.00    -0.276 C  
HETATM   16  C   UNL     1     -11.857  16.124  69.394  1.00  0.00    -0.151 C  
HETATM   17  N   UNL     1     -12.853  15.939  70.466  1.00  0.00    -0.664 NA 
HETATM   18  C   UNL     1     -13.101  14.506  70.685  1.00  0.00    -0.250 C  
HETATM   19  H   UNL     1     -13.715  16.450  70.278  1.00  0.00     0.000 HD 
HETATM   20  C   UNL     1     -11.806  13.691  70.902  1.00  0.00     0.003 C  
ENDBRANCH  13  14
ENDBRANCH   8  13
ENDBRANCH   2   3
TORSDOF 5
ENDMDL
MODEL      184
REMARK 921   NORMALIZED FREE ENERGY PREDICTED BY IDOCK:   -2.31 KCAL/MOL
REMARK 922        TOTAL FREE ENERGY PREDICTED BY IDOCK:   -3.56 KCAL/MOL
REMARK 923 INTER-LIGAND FREE ENERGY PREDICTED BY IDOCK:   -3.00 KCAL/MOL
REMARK 924 INTRA-LIGAND FREE ENERGY PREDICTED BY IDOCK:   -0.56 KCAL/MOL
REMARK 927      BINDING AFFINITY PREDICTED BY RF-SCORE:    0.00 PKD
ROOT
HETATM    1  C   UNL     1     -10.299   4.399  64.033  1.00  0.00     0.145 C  
HETATM    2  O   UNL     1      -9.204   4.813  64.843  1.00  0.00    -0.156 OA 
ENDROOT
BRANCH   2   3
HETATM    3  C   UNL     1      -9.427   4.878  66.200  1.00  0.00    -0.161 A  
HETATM    4  C   UNL     1      -9.077   3.893  67.160  1.00  0.00    -0.156 A  
HETATM    5  C   UNL     1     -10.505   6.213  67.893  1.00  0.00    -0.286 A  
HETATM    6  C   UNL     1      -9.398   4.127  68.517  1.00  0.00    -0.156 A  
HETATM    7  C   UNL     1     -10.153   6.010  66.568  1.00  0.00    -0.191 A  
HETATM    8  C   UNL     1     -10.143   5.279  68.879  1.00  0.00    -0.254 A  
BRANCH   4   9
HETATM    9  O   UNL     1      -8.499   2.786  66.612  1.00  0.00    -0.092 OA 
HETATM   10  C   UNL     1      -9.140   1.534  66.522  1.00  0.00    -0.044 C  
ENDBRANCH   4   9
BRANCH   6  11
HETATM   11  O   UNL     1      -9.173   3.222  69.528  1.00  0.00    -0.127 OA 
HETATM   12  C   UNL     1      -7.822   3.145  69.982  1.00  0.00    -0.043 C  
ENDBRANCH   6  11
BRANCH   8  13
HETATM   13  C   UNL     1     -10.607   5.550  70.301  1.00  0.00    -0.287 C  
BRANCH  13  14
HETATM   14  N   UNL     1     -10.512   6.980  70.665  1.00  0.00    -0.208 NA 
HETATM   15  C   UNL     1     -11.437   7.345  71.765  1.00  0.00    -0.265 C  
HETATM   16  C   UNL     1     -11.023   6.825  73.159  1.00  0.00    -0.246 C  
HETATM   17  N   UNL     1      -9.647   7.204  73.530  1.00  0.00    -0.201 NA 
HETATM   18  C   UNL     1      -8.712   6.828  72.458  1.00  0.00    -0.123 C  
HETATM   19  H   UNL     1      -9.372   6.812  74.430  1.00  0.00     0.000 HD 
HETATM   20  C   UNL     1      -9.140   7.348  71.067  1.00  0.00    -0.152 C  
ENDBRANCH  13  14
ENDBRANCH   8  13
ENDBRANCH   2   3
TORSDOF 5
ENDMDL
MODEL      185
REMARK 921   NORMALIZED FREE ENERGY PREDICTED BY IDOCK:   -2.25 KCAL/MOL
REMARK 922        TOTAL FREE ENERGY PREDICTED BY IDOCK:   -3.48 KCAL/MOL
REMARK 923 INTER-LIGAND FREE ENERGY PREDICTED BY IDOCK:   -3.08 KCAL/MOL
REMARK 924 INTRA-LIGAND FREE ENERGY PREDICTED BY IDOCK:   -0.40 KCAL/MOL
REMARK 927      BINDING AFFINITY PREDICTED BY RF-SCORE:    0.00 PKD
ROOT
HETATM    1  C   UNL     1     -12.697  11.015  71.469  1.00  0.00    -0.415 C  
HETATM    2  O   UNL     1     -12.766   9.975  70.500  1.00  0.00    -0.236 OA 
ENDROOT
BRANCH   2   3
HETATM    3  C   UNL     1     -11.898   8.918  70.663  1.00  0.00    -0.128 A  
HETATM    4  C   UNL     1     -12.240   7.601  71.064  1.00  0.00    -0.236 A  
HETATM    5  C   UNL     1      -9.554   8.357  70.654  1.00  0.00    -0.195 A  
HETATM    6  C   UNL     1     -11.209   6.642  71.191  1.00  0.00    -0.292 A  
HETATM    7  C   UNL     1     -10.566   9.289  70.484  1.00  0.00    -0.309 A  
HETATM    8  C   UNL     1      -9.856   7.032  71.014  1.00  0.00    -0.185 A  
BRANCH   4   9
HETATM    9  O   UNL     1     -13.568   7.446  71.333  1.00  0.00    -0.379 OA 
HETATM   10  C   UNL     1     -14.181   7.888  72.523  1.00  0.00     0.092 C  
ENDBRANCH   4   9
BRANCH   6  11
HETATM   11  O   UNL     1     -11.403   5.356  71.637  1.00  0.00    -0.084 OA 
HETATM   12  C   UNL     1     -11.500   5.214  73.053  1.00  0.00    -0.274 C  
ENDBRANCH   6  11
BRANCH   8  13
HETATM   13  C   UNL     1      -8.687   6.084  71.227  1.00  0.00    -0.136 C  
BRANCH  13  14
HETATM   14  N   UNL     1      -8.021   5.712  69.960  1.00  0.00    -0.089 NA 
HETATM   15  C   UNL     1      -6.555   5.559  70.118  1.00  0.00    -0.042 C  
HETATM   16  C   UNL     1      -6.114   4.288  70.878  1.00  0.00    -0.014 C  
HETATM   17  N   UNL     1      -6.678   3.051  70.306  1.00  0.00    -0.033 NA 
HETATM   18  C   UNL     1      -8.137   3.178  70.165  1.00  0.00    -0.045 C  
HETATM   19  H   UNL     1      -6.418   2.227  70.848  1.00  0.00     0.000 HD 
HETATM   20  C   UNL     1      -8.566   4.455  69.409  1.00  0.00    -0.080 C  
ENDBRANCH  13  14
ENDBRANCH   8  13
ENDBRANCH   2   3
TORSDOF 5
ENDMDL
MODEL      186
REMARK 921   NORMALIZED FREE ENERGY PREDICTED BY IDOCK:   -2.23 KCAL/MOL
REMARK 922        TOTAL FREE ENERGY PREDICTED BY IDOCK:   -3.46 KCAL/MOL
REMARK 923 INTER-LIGAND FREE ENERGY PREDICTED BY IDOCK:   -2.92 KCAL/MOL
REMARK 924 INTRA-LIGAND FREE ENERGY PREDICTED BY IDOCK:   -0.54 KCAL/MOL
REMARK 927      BINDING AFFINITY PREDICTED BY RF-SCORE:    0.00 PKD
ROOT
HETATM    1  C   UNL     1     -10.780   9.365  68.088  1.00  0.00    -0.178 C  
HETATM    2  O   UNL     1      -9.829   9.505  69.138  1.00  0.00    -0.165 OA 
ENDROOT
BRANCH   2   3
HETATM    3  C   UNL     1      -9.554   8.377  69.879  1.00  0.00    -0.171 A  
HETATM    4  C   UNL     1     -10.251   7.936  71.034  1.00  0.00    -0.197 A  
HETATM    5  C   UNL     1      -7.962   6.580  70.097  1.00  0.00    -0.112 A  
HETATM    6  C   UNL     1      -9.817   6.754  71.677  1.00  0.00    -0.165 A  
HETATM    7  C   UNL     1      -8.410   7.714  69.437  1.00  0.00    -0.131 A  
HETATM    8  C   UNL     1      -8.648   6.091  71.223  1.00  0.00    -0.129 A  
BRANCH   4   9
HETATM    9  O   UNL     1     -11.256   8.777  71.411  1.00  0.00    -0.252 OA 
HETATM   10  C   UNL     1     -12.624   8.443  71.337  1.00  0.00    -0.277 C  
ENDBRANCH   4   9
BRANCH   6  11
HETATM   11  O   UNL     1     -10.366   6.264  72.839  1.00  0.00    -0.191 OA 
HETATM   12  C   UNL     1     -10.032   6.991  74.020  1.00  0.00    -0.316 C  
ENDBRANCH   6  11
BRANCH   8  13
HETATM   13  C   UNL     1      -8.065   4.872  71.919  1.00  0.00    -0.114 C  
BRANCH  13  14
HETATM   14  N   UNL     1      -8.325   3.618  71.179  1.00  0.00    -0.067 NA 
HETATM   15  C   UNL     1      -7.489   2.494  71.663  1.00  0.00    -0.040 C  
HETATM   16  C   UNL     1      -7.902   1.925  73.038  1.00  0.00    -0.045 C  
HETATM   17  N   UNL     1      -9.324   1.539  73.097  1.00  0.00    -0.065 NA 
HETATM   18  C   UNL     1     -10.170   2.653  72.642  1.00  0.00    -0.159 C  
HETATM   19  H   UNL     1      -9.592   1.211  74.025  1.00  0.00     0.000 HD 
HETATM   20  C   UNL     1      -9.744   3.219  71.269  1.00  0.00    -0.151 C  
ENDBRANCH  13  14
ENDBRANCH   8  13
ENDBRANCH   2   3
TORSDOF 5
ENDMDL
MODEL      187
REMARK 921   NORMALIZED FREE ENERGY PREDICTED BY IDOCK:   -2.21 KCAL/MOL
REMARK 922        TOTAL FREE ENERGY PREDICTED BY IDOCK:   -3.43 KCAL/MOL
REMARK 923 INTER-LIGAND FREE ENERGY PREDICTED BY IDOCK:   -3.37 KCAL/MOL
REMARK 924 INTRA-LIGAND FREE ENERGY PREDICTED BY IDOCK:   -0.06 KCAL/MOL
REMARK 927      BINDING AFFINITY PREDICTED BY RF-SCORE:    0.00 PKD
ROOT
HETATM    1  C   UNL     1     -12.680  11.449  71.561  1.00  0.00    -0.357 C  
HETATM    2  O   UNL     1     -12.791  10.366  70.644  1.00  0.00    -0.353 OA 
ENDROOT
BRANCH   2   3
HETATM    3  C   UNL     1     -11.614   9.820  70.185  1.00  0.00    -0.182 A  
HETATM    4  C   UNL     1     -10.736   8.974  70.913  1.00  0.00    -0.253 A  
HETATM    5  C   UNL     1     -10.103   9.848  68.306  1.00  0.00    -0.185 A  
HETATM    6  C   UNL     1      -9.558   8.515  70.280  1.00  0.00    -0.167 A  
HETATM    7  C   UNL     1     -11.282  10.265  68.906  1.00  0.00    -0.259 A  
HETATM    8  C   UNL     1      -9.227   8.980  68.981  1.00  0.00    -0.140 A  
BRANCH   4   9
HETATM    9  O   UNL     1     -11.142   8.752  72.196  1.00  0.00    -0.355 OA 
HETATM   10  C   UNL     1     -11.041   7.503  72.841  1.00  0.00    -0.375 C  
ENDBRANCH   4   9
BRANCH   6  11
HETATM   11  O   UNL     1      -8.599   7.750  70.900  1.00  0.00    -0.125 OA 
HETATM   12  C   UNL     1      -7.588   8.486  71.588  1.00  0.00    -0.108 C  
ENDBRANCH   6  11
BRANCH   8  13
HETATM   13  C   UNL     1      -7.933   8.608  68.274  1.00  0.00    -0.110 C  
BRANCH  13  14
HETATM   14  N   UNL     1      -8.149   7.667  67.155  1.00  0.00    -0.116 NA 
HETATM   15  C   UNL     1      -7.196   7.887  66.041  1.00  0.00    -0.073 C  
HETATM   16  C   UNL     1      -5.750   7.425  66.325  1.00  0.00    -0.032 C  
HETATM   17  N   UNL     1      -5.671   6.021  66.768  1.00  0.00    -0.016 NA 
HETATM   18  C   UNL     1      -6.595   5.791  67.889  1.00  0.00    -0.053 C  
HETATM   19  H   UNL     1      -4.716   5.747  66.998  1.00  0.00     0.000 HD 
HETATM   20  C   UNL     1      -8.036   6.262  67.596  1.00  0.00    -0.117 C  
ENDBRANCH  13  14
ENDBRANCH   8  13
ENDBRANCH   2   3
TORSDOF 5
ENDMDL
MODEL      188
REMARK 921   NORMALIZED FREE ENERGY PREDICTED BY IDOCK:   -2.16 KCAL/MOL
REMARK 922        TOTAL FREE ENERGY PREDICTED BY IDOCK:   -3.36 KCAL/MOL
REMARK 923 INTER-LIGAND FREE ENERGY PREDICTED BY IDOCK:   -2.95 KCAL/MOL
REMARK 924 INTRA-LIGAND FREE ENERGY PREDICTED BY IDOCK:   -0.42 KCAL/MOL
REMARK 927      BINDING AFFINITY PREDICTED BY RF-SCORE:    0.00 PKD
ROOT
HETATM    1  C   UNL     1      -9.996   4.254  65.064  1.00  0.00    -0.188 C  
HETATM    2  O   UNL     1      -9.086   5.236  65.544  1.00  0.00    -0.159 OA 
ENDROOT
BRANCH   2   3
HETATM    3  C   UNL     1      -8.949   5.339  66.911  1.00  0.00    -0.109 A  
HETATM    4  C   UNL     1      -7.730   5.350  67.637  1.00  0.00    -0.092 A  
HETATM    5  C   UNL     1     -10.223   5.387  68.957  1.00  0.00    -0.291 A  
HETATM    6  C   UNL     1      -7.782   5.451  69.047  1.00  0.00    -0.089 A  
HETATM    7  C   UNL     1     -10.176   5.334  67.572  1.00  0.00    -0.229 A  
HETATM    8  C   UNL     1      -9.037   5.438  69.710  1.00  0.00    -0.157 A  
BRANCH   4   9
HETATM    9  O   UNL     1      -6.628   5.206  66.846  1.00  0.00    -0.050 OA 
HETATM   10  C   UNL     1      -6.007   3.967  66.591  1.00  0.00    -0.024 C  
ENDBRANCH   4   9
BRANCH   6  11
HETATM   11  O   UNL     1      -6.678   5.403  69.864  1.00  0.00    -0.047 OA 
HETATM   12  C   UNL     1      -6.189   4.092  70.146  1.00  0.00    -0.026 C  
ENDBRANCH   6  11
BRANCH   8  13
HETATM   13  C   UNL     1      -9.172   5.446  71.224  1.00  0.00    -0.146 C  
BRANCH  13  14
HETATM   14  N   UNL     1      -8.846   6.761  71.815  1.00  0.00    -0.129 NA 
HETATM   15  C   UNL     1     -10.057   7.561  72.114  1.00  0.00    -0.194 C  
HETATM   16  C   UNL     1     -10.875   7.069  73.329  1.00  0.00    -0.311 C  
HETATM   17  N   UNL     1     -10.063   6.932  74.552  1.00  0.00    -0.468 NA 
HETATM   18  C   UNL     1      -8.868   6.120  74.278  1.00  0.00    -0.131 C  
HETATM   19  H   UNL     1     -10.606   6.560  75.331  1.00  0.00     0.000 HD 
HETATM   20  C   UNL     1      -8.061   6.618  73.058  1.00  0.00    -0.106 C  
ENDBRANCH  13  14
ENDBRANCH   8  13
ENDBRANCH   2   3
TORSDOF 5
ENDMDL
MODEL      189
REMARK 921   NORMALIZED FREE ENERGY PREDICTED BY IDOCK:   -1.99 KCAL/MOL
REMARK 922        TOTAL FREE ENERGY PREDICTED BY IDOCK:   -3.15 KCAL/MOL
REMARK 923 INTER-LIGAND FREE ENERGY PREDICTED BY IDOCK:   -2.74 KCAL/MOL
REMARK 924 INTRA-LIGAND FREE ENERGY PREDICTED BY IDOCK:   -0.41 KCAL/MOL
REMARK 927      BINDING AFFINITY PREDICTED BY RF-SCORE:    0.00 PKD
ROOT
HETATM    1  C   UNL     1      -7.111   6.647  72.870  1.00  0.00    -0.076 C  
HETATM    2  O   UNL     1      -7.869   5.763  72.052  1.00  0.00    -0.104 OA 
ENDROOT
BRANCH   2   3
HETATM    3  C   UNL     1      -8.542   6.325  70.991  1.00  0.00    -0.132 A  
HETATM    4  C   UNL     1      -9.335   5.636  70.036  1.00  0.00    -0.149 A  
HETATM    5  C   UNL     1      -8.857   8.408  69.820  1.00  0.00    -0.134 A  
HETATM    6  C   UNL     1      -9.946   6.380  69.000  1.00  0.00    -0.149 A  
HETATM    7  C   UNL     1      -8.293   7.691  70.863  1.00  0.00    -0.112 A  
HETATM    8  C   UNL     1      -9.679   7.769  68.875  1.00  0.00    -0.160 A  
BRANCH   4   9
HETATM    9  O   UNL     1      -9.360   4.286  70.227  1.00  0.00    -0.123 OA 
HETATM   10  C   UNL     1      -8.327   3.420  69.816  1.00  0.00    -0.052 C  
ENDBRANCH   4   9
BRANCH   6  11
HETATM   11  O   UNL     1     -10.678   5.822  67.979  1.00  0.00    -0.242 OA 
HETATM   12  C   UNL     1      -9.908   5.231  66.933  1.00  0.00    -0.171 C  
ENDBRANCH   6  11
BRANCH   8  13
HETATM   13  C   UNL     1     -10.220   8.616  67.735  1.00  0.00    -0.225 C  
BRANCH  13  14
HETATM   14  N   UNL     1      -9.247   9.628  67.269  1.00  0.00    -0.134 NA 
HETATM   15  C   UNL     1      -8.465   9.162  66.100  1.00  0.00    -0.129 C  
HETATM   16  C   UNL     1      -9.252   9.114  64.772  1.00  0.00    -0.018 C  
HETATM   17  N   UNL     1      -9.908  10.394  64.445  1.00  0.00    -0.328 NA 
HETATM   18  C   UNL     1     -10.708  10.859  65.588  1.00  0.00    -0.108 C  
HETATM   19  H   UNL     1     -10.463  10.331  63.592  1.00  0.00     0.000 HD 
HETATM   20  C   UNL     1      -9.912  10.896  66.912  1.00  0.00    -0.194 C  
ENDBRANCH  13  14
ENDBRANCH   8  13
ENDBRANCH   2   3
TORSDOF 5
ENDMDL
MODEL      190
REMARK 921   NORMALIZED FREE ENERGY PREDICTED BY IDOCK:   -1.94 KCAL/MOL
REMARK 922        TOTAL FREE ENERGY PREDICTED BY IDOCK:   -3.08 KCAL/MOL
REMARK 923 INTER-LIGAND FREE ENERGY PREDICTED BY IDOCK:   -2.66 KCAL/MOL
REMARK 924 INTRA-LIGAND FREE ENERGY PREDICTED BY IDOCK:   -0.42 KCAL/MOL
REMARK 927      BINDING AFFINITY PREDICTED BY RF-SCORE:    0.00 PKD
ROOT
HETATM    1  C   UNL     1      -5.506  11.418  70.112  1.00  0.00    -0.105 C  
HETATM    2  O   UNL     1      -6.926  11.481  70.168  1.00  0.00     0.014 OA 
ENDROOT
BRANCH   2   3
HETATM    3  C   UNL     1      -7.616  10.466  69.542  1.00  0.00    -0.156 A  
HETATM    4  C   UNL     1      -8.519  10.605  68.456  1.00  0.00    -0.136 A  
HETATM    5  C   UNL     1      -8.077   8.104  69.684  1.00  0.00    -0.118 A  
HETATM    6  C   UNL     1      -9.150   9.447  67.947  1.00  0.00    -0.129 A  
HETATM    7  C   UNL     1      -7.421   9.230  70.158  1.00  0.00    -0.098 A  
HETATM    8  C   UNL     1      -8.949   8.195  68.585  1.00  0.00    -0.137 A  
BRANCH   4   9
HETATM    9  O   UNL     1      -8.701  11.900  68.068  1.00  0.00    -0.158 OA 
HETATM   10  C   UNL     1      -9.858  12.648  68.363  1.00  0.00    -0.200 C  
ENDBRANCH   4   9
BRANCH   6  11
HETATM   11  O   UNL     1     -10.092   9.459  66.946  1.00  0.00    -0.211 OA 
HETATM   12  C   UNL     1      -9.576   9.662  65.631  1.00  0.00    -0.271 C  
ENDBRANCH   6  11
BRANCH   8  13
HETATM   13  C   UNL     1      -9.666   6.924  68.157  1.00  0.00    -0.131 C  
BRANCH  13  14
HETATM   14  N   UNL     1      -9.244   6.460  66.818  1.00  0.00    -0.137 NA 
HETATM   15  C   UNL     1      -7.812   6.080  66.778  1.00  0.00    -0.101 C  
HETATM   16  C   UNL     1      -7.474   4.753  67.492  1.00  0.00    -0.079 C  
HETATM   17  N   UNL     1      -8.294   3.621  67.021  1.00  0.00    -0.098 NA 
HETATM   18  C   UNL     1      -9.721   3.974  67.077  1.00  0.00    -0.178 C  
HETATM   19  H   UNL     1      -8.093   2.764  67.536  1.00  0.00     0.000 HD 
HETATM   20  C   UNL     1     -10.047   5.306  66.366  1.00  0.00    -0.226 C  
ENDBRANCH  13  14
ENDBRANCH   8  13
ENDBRANCH   2   3
TORSDOF 5
ENDMDL
MODEL      191
REMARK 921   NORMALIZED FREE ENERGY PREDICTED BY IDOCK:   -1.88 KCAL/MOL
REMARK 922        TOTAL FREE ENERGY PREDICTED BY IDOCK:   -3.01 KCAL/MOL
REMARK 923 INTER-LIGAND FREE ENERGY PREDICTED BY IDOCK:   -2.52 KCAL/MOL
REMARK 924 INTRA-LIGAND FREE ENERGY PREDICTED BY IDOCK:   -0.49 KCAL/MOL
REMARK 927      BINDING AFFINITY PREDICTED BY RF-SCORE:    0.00 PKD
ROOT
HETATM    1  C   UNL     1      -9.928   3.950  64.111  1.00  0.00    -0.191 C  
HETATM    2  O   UNL     1      -8.560   4.218  64.393  1.00  0.00    -0.110 OA 
ENDROOT
BRANCH   2   3
HETATM    3  C   UNL     1      -8.278   4.782  65.617  1.00  0.00    -0.113 A  
HETATM    4  C   UNL     1      -7.577   4.168  66.687  1.00  0.00    -0.089 A  
HETATM    5  C   UNL     1      -8.706   6.739  66.958  1.00  0.00    -0.114 A  
HETATM    6  C   UNL     1      -7.390   4.899  67.883  1.00  0.00    -0.071 A  
HETATM    7  C   UNL     1      -8.852   6.044  65.768  1.00  0.00    -0.143 A  
HETATM    8  C   UNL     1      -7.985   6.180  68.028  1.00  0.00    -0.110 A  
BRANCH   4   9
HETATM    9  O   UNL     1      -7.206   2.883  66.422  1.00  0.00    -0.063 OA 
HETATM   10  C   UNL     1      -8.068   1.776  66.563  1.00  0.00    -0.076 C  
ENDBRANCH   4   9
BRANCH   6  11
HETATM   11  O   UNL     1      -6.790   4.391  69.010  1.00  0.00    -0.045 OA 
HETATM   12  C   UNL     1      -7.546   3.401  69.706  1.00  0.00    -0.044 C  
ENDBRANCH   6  11
BRANCH   8  13
HETATM   13  C   UNL     1      -7.911   6.985  69.315  1.00  0.00    -0.119 C  
BRANCH  13  14
HETATM   14  N   UNL     1      -9.051   6.716  70.218  1.00  0.00    -0.155 NA 
HETATM   15  C   UNL     1      -8.614   6.404  71.600  1.00  0.00    -0.129 C  
HETATM   16  C   UNL     1      -8.092   7.616  72.403  1.00  0.00    -0.108 C  
HETATM   17  N   UNL     1      -9.044   8.741  72.432  1.00  0.00    -0.375 NA 
HETATM   18  C   UNL     1      -9.470   9.079  71.065  1.00  0.00    -0.274 C  
HETATM   19  H   UNL     1      -8.665   9.550  72.924  1.00  0.00     0.000 HD 
HETATM   20  C   UNL     1      -9.985   7.858  70.269  1.00  0.00    -0.189 C  
ENDBRANCH  13  14
ENDBRANCH   8  13
ENDBRANCH   2   3
TORSDOF 5
ENDMDL
MODEL      192
REMARK 921   NORMALIZED FREE ENERGY PREDICTED BY IDOCK:   -1.83 KCAL/MOL
REMARK 922        TOTAL FREE ENERGY PREDICTED BY IDOCK:   -2.95 KCAL/MOL
REMARK 923 INTER-LIGAND FREE ENERGY PREDICTED BY IDOCK:   -3.00 KCAL/MOL
REMARK 924 INTRA-LIGAND FREE ENERGY PREDICTED BY IDOCK:    0.06 KCAL/MOL
REMARK 927      BINDING AFFINITY PREDICTED BY RF-SCORE:    0.00 PKD
ROOT
HETATM    1  C   UNL     1     -10.534  10.960  65.821  1.00  0.00    -0.210 C  
HETATM    2  O   UNL     1      -9.665  11.082  66.941  1.00  0.00    -0.183 OA 
ENDROOT
BRANCH   2   3
HETATM    3  C   UNL     1      -9.563   9.986  67.770  1.00  0.00    -0.148 A  
HETATM    4  C   UNL     1      -8.764   8.834  67.550  1.00  0.00    -0.134 A  
HETATM    5  C   UNL     1     -10.491   9.017  69.772  1.00  0.00    -0.227 A  
HETATM    6  C   UNL     1      -8.794   7.795  68.508  1.00  0.00    -0.130 A  
HETATM    7  C   UNL     1     -10.431  10.058  68.859  1.00  0.00    -0.229 A  
HETATM    8  C   UNL     1      -9.687   7.876  69.609  1.00  0.00    -0.173 A  
BRANCH   4   9
HETATM    9  O   UNL     1      -8.084   8.866  66.368  1.00  0.00    -0.107 OA 
HETATM   10  C   UNL     1      -8.375   8.023  65.276  1.00  0.00    -0.143 C  
ENDBRANCH   4   9
BRANCH   6  11
HETATM   11  O   UNL     1      -8.120   6.605  68.375  1.00  0.00    -0.113 OA 
HETATM   12  C   UNL     1      -8.836   5.576  67.691  1.00  0.00    -0.105 C  
ENDBRANCH   6  11
BRANCH   8  13
HETATM   13  C   UNL     1      -9.847   6.758  70.627  1.00  0.00    -0.179 C  
BRANCH  13  14
HETATM   14  N   UNL     1      -8.885   6.868  71.745  1.00  0.00    -0.131 NA 
HETATM   15  C   UNL     1      -9.067   8.116  72.524  1.00  0.00    -0.235 C  
HETATM   16  C   UNL     1     -10.321   8.142  73.424  1.00  0.00     0.270 C  
HETATM   17  N   UNL     1     -10.402   6.982  74.331  1.00  0.00    -0.480 NA 
HETATM   18  C   UNL     1     -10.247   5.733  73.571  1.00  0.00    -0.213 C  
HETATM   19  H   UNL     1     -11.259   6.988  74.884  1.00  0.00     0.000 HD 
HETATM   20  C   UNL     1      -8.992   5.722  72.669  1.00  0.00    -0.131 C  
ENDBRANCH  13  14
ENDBRANCH   8  13
ENDBRANCH   2   3
TORSDOF 5
ENDMDL
MODEL      193
REMARK 921   NORMALIZED FREE ENERGY PREDICTED BY IDOCK:   -1.83 KCAL/MOL
REMARK 922        TOTAL FREE ENERGY PREDICTED BY IDOCK:   -2.94 KCAL/MOL
REMARK 923 INTER-LIGAND FREE ENERGY PREDICTED BY IDOCK:   -3.01 KCAL/MOL
REMARK 924 INTRA-LIGAND FREE ENERGY PREDICTED BY IDOCK:    0.07 KCAL/MOL
REMARK 927      BINDING AFFINITY PREDICTED BY RF-SCORE:    0.00 PKD
ROOT
HETATM    1  C   UNL     1      -8.241  18.371  66.654  1.00  0.00    -0.266 C  
HETATM    2  O   UNL     1      -7.376  17.248  66.781  1.00  0.00    -0.170 OA 
ENDROOT
BRANCH   2   3
HETATM    3  C   UNL     1      -7.961  16.053  67.137  1.00  0.00    -0.201 A  
HETATM    4  C   UNL     1      -7.287  14.873  67.543  1.00  0.00    -0.204 A  
HETATM    5  C   UNL     1     -10.090  14.927  67.234  1.00  0.00    -0.235 A  
HETATM    6  C   UNL     1      -8.055  13.729  67.861  1.00  0.00    -0.166 A  
HETATM    7  C   UNL     1      -9.345  16.064  66.964  1.00  0.00    -0.233 A  
HETATM    8  C   UNL     1      -9.462  13.749  67.675  1.00  0.00    -0.217 A  
BRANCH   4   9
HETATM    9  O   UNL     1      -5.928  14.992  67.522  1.00  0.00    -0.310 OA 
HETATM   10  C   UNL     1      -5.183  15.608  68.548  1.00  0.00    -0.097 C  
ENDBRANCH   4   9
BRANCH   6  11
HETATM   11  O   UNL     1      -7.517  12.510  68.199  1.00  0.00    -0.097 OA 
HETATM   12  C   UNL     1      -7.207  11.657  67.098  1.00  0.00    -0.145 C  
ENDBRANCH   6  11
BRANCH   8  13
HETATM   13  C   UNL     1     -10.343  12.532  67.902  1.00  0.00    -0.216 C  
BRANCH  13  14
HETATM   14  N   UNL     1     -10.221  11.991  69.273  1.00  0.00     0.159 NA 
HETATM   15  C   UNL     1     -11.464  12.167  70.061  1.00  0.00    -0.075 C  
HETATM   16  C   UNL     1     -12.626  11.234  69.655  1.00  0.00     0.022 C  
HETATM   17  N   UNL     1     -12.246   9.810  69.649  1.00  0.00    -0.231 NA 
HETATM   18  C   UNL     1     -11.026   9.614  68.851  1.00  0.00    -0.121 C  
HETATM   19  H   UNL     1     -13.009   9.212  69.332  1.00  0.00     0.000 HD 
HETATM   20  C   UNL     1      -9.873  10.557  69.263  1.00  0.00    -0.205 C  
ENDBRANCH  13  14
ENDBRANCH   8  13
ENDBRANCH   2   3
TORSDOF 5
ENDMDL
MODEL      194
REMARK 921   NORMALIZED FREE ENERGY PREDICTED BY IDOCK:   -1.82 KCAL/MOL
REMARK 922        TOTAL FREE ENERGY PREDICTED BY IDOCK:   -2.93 KCAL/MOL
REMARK 923 INTER-LIGAND FREE ENERGY PREDICTED BY IDOCK:   -3.11 KCAL/MOL
REMARK 924 INTRA-LIGAND FREE ENERGY PREDICTED BY IDOCK:    0.18 KCAL/MOL
REMARK 927      BINDING AFFINITY PREDICTED BY RF-SCORE:    0.00 PKD
ROOT
HETATM    1  C   UNL     1     -11.624  14.527  64.522  1.00  0.00    -0.377 C  
HETATM    2  O   UNL     1     -12.090  14.723  65.852  1.00  0.00    -0.246 OA 
ENDROOT
BRANCH   2   3
HETATM    3  C   UNL     1     -11.136  14.981  66.812  1.00  0.00    -0.326 A  
HETATM    4  C   UNL     1     -10.692  16.261  67.236  1.00  0.00    -0.265 A  
HETATM    5  C   UNL     1      -9.522  13.897  68.236  1.00  0.00    -0.217 A  
HETATM    6  C   UNL     1      -9.689  16.334  68.230  1.00  0.00    -0.222 A  
HETATM    7  C   UNL     1     -10.536  13.819  67.295  1.00  0.00    -0.275 A  
HETATM    8  C   UNL     1      -9.081  15.145  68.709  1.00  0.00    -0.200 A  
BRANCH   4   9
HETATM    9  O   UNL     1     -11.283  17.288  66.562  1.00  0.00     0.291 OA 
HETATM   10  C   UNL     1     -10.651  18.011  65.530  1.00  0.00     0.012 C  
ENDBRANCH   4   9
BRANCH   6  11
HETATM   11  O   UNL     1      -9.129  17.509  68.673  1.00  0.00    -0.278 OA 
HETATM   12  C   UNL     1     -10.062  18.526  69.036  1.00  0.00    -0.237 C  
ENDBRANCH   6  11
BRANCH   8  13
HETATM   13  C   UNL     1      -7.932  15.147  69.704  1.00  0.00    -0.113 C  
BRANCH  13  14
HETATM   14  N   UNL     1      -6.610  15.080  69.045  1.00  0.00    -0.103 NA 
HETATM   15  C   UNL     1      -5.492  15.140  70.015  1.00  0.00    -0.118 C  
HETATM   16  C   UNL     1      -5.289  13.856  70.850  1.00  0.00    -0.151 C  
HETATM   17  N   UNL     1      -5.153  12.645  70.019  1.00  0.00    -0.081 NA 
HETATM   18  C   UNL     1      -6.269  12.559  69.065  1.00  0.00    -0.087 C  
HETATM   19  H   UNL     1      -5.069  11.801  70.585  1.00  0.00     0.000 HD 
HETATM   20  C   UNL     1      -6.466  13.850  68.241  1.00  0.00    -0.111 C  
ENDBRANCH  13  14
ENDBRANCH   8  13
ENDBRANCH   2   3
TORSDOF 5
ENDMDL
MODEL      195
REMARK 921   NORMALIZED FREE ENERGY PREDICTED BY IDOCK:   -1.80 KCAL/MOL
REMARK 922        TOTAL FREE ENERGY PREDICTED BY IDOCK:   -2.90 KCAL/MOL
REMARK 923 INTER-LIGAND FREE ENERGY PREDICTED BY IDOCK:   -2.45 KCAL/MOL
REMARK 924 INTRA-LIGAND FREE ENERGY PREDICTED BY IDOCK:   -0.46 KCAL/MOL
REMARK 927      BINDING AFFINITY PREDICTED BY RF-SCORE:    0.00 PKD
ROOT
HETATM    1  C   UNL     1     -11.001   6.101  66.238  1.00  0.00     0.370 C  
HETATM    2  O   UNL     1     -10.532   7.103  67.133  1.00  0.00    -0.252 OA 
ENDROOT
BRANCH   2   3
HETATM    3  C   UNL     1     -10.229   6.698  68.414  1.00  0.00    -0.171 A  
HETATM    4  C   UNL     1     -10.340   7.478  69.593  1.00  0.00    -0.225 A  
HETATM    5  C   UNL     1      -9.279   4.865  69.659  1.00  0.00    -0.172 A  
HETATM    6  C   UNL     1      -9.970   6.897  70.828  1.00  0.00    -0.190 A  
HETATM    7  C   UNL     1      -9.682   5.415  68.452  1.00  0.00    -0.179 A  
HETATM    8  C   UNL     1      -9.408   5.594  70.854  1.00  0.00    -0.190 A  
BRANCH   4   9
HETATM    9  O   UNL     1     -10.758   8.755  69.359  1.00  0.00    -0.224 OA 
HETATM   10  C   UNL     1      -9.890   9.864  69.305  1.00  0.00    -0.207 C  
ENDBRANCH   4   9
BRANCH   6  11
HETATM   11  O   UNL     1      -9.967   7.570  72.026  1.00  0.00    -0.171 OA 
HETATM   12  C   UNL     1     -11.258   7.854  72.565  1.00  0.00    -0.376 C  
ENDBRANCH   6  11
BRANCH   8  13
HETATM   13  C   UNL     1      -8.898   4.939  72.128  1.00  0.00    -0.128 C  
BRANCH  13  14
HETATM   14  N   UNL     1      -7.477   4.542  72.032  1.00  0.00    -0.080 NA 
HETATM   15  C   UNL     1      -6.662   5.090  73.142  1.00  0.00    -0.068 C  
HETATM   16  C   UNL     1      -6.896   4.414  74.512  1.00  0.00    -0.066 C  
HETATM   17  N   UNL     1      -6.739   2.949  74.464  1.00  0.00    -0.033 NA 
HETATM   18  C   UNL     1      -7.559   2.387  73.381  1.00  0.00    -0.042 C  
HETATM   19  H   UNL     1      -6.944   2.514  75.364  1.00  0.00     0.000 HD 
HETATM   20  C   UNL     1      -7.322   3.074  72.018  1.00  0.00    -0.047 C  
ENDBRANCH  13  14
ENDBRANCH   8  13
ENDBRANCH   2   3
TORSDOF 5
ENDMDL
MODEL      196
REMARK 921   NORMALIZED FREE ENERGY PREDICTED BY IDOCK:   -1.79 KCAL/MOL
REMARK 922        TOTAL FREE ENERGY PREDICTED BY IDOCK:   -2.89 KCAL/MOL
REMARK 923 INTER-LIGAND FREE ENERGY PREDICTED BY IDOCK:   -2.51 KCAL/MOL
REMARK 924 INTRA-LIGAND FREE ENERGY PREDICTED BY IDOCK:   -0.38 KCAL/MOL
REMARK 927      BINDING AFFINITY PREDICTED BY RF-SCORE:    0.00 PKD
ROOT
HETATM    1  C   UNL     1      -8.110  11.252  67.324  1.00  0.00    -0.140 C  
HETATM    2  O   UNL     1      -9.082  10.566  68.104  1.00  0.00    -0.136 OA 
ENDROOT
BRANCH   2   3
HETATM    3  C   UNL     1      -9.124   9.195  67.977  1.00  0.00    -0.131 A  
HETATM    4  C   UNL     1      -8.917   8.246  69.011  1.00  0.00    -0.147 A  
HETATM    5  C   UNL     1      -9.324   7.437  66.339  1.00  0.00    -0.206 A  
HETATM    6  C   UNL     1      -8.986   6.870  68.692  1.00  0.00    -0.129 A  
HETATM    7  C   UNL     1      -9.302   8.787  66.655  1.00  0.00    -0.242 A  
HETATM    8  C   UNL     1      -9.160   6.466  67.342  1.00  0.00    -0.111 A  
BRANCH   4   9
HETATM    9  O   UNL     1      -8.617   8.814  70.214  1.00  0.00    -0.131 OA 
HETATM   10  C   UNL     1      -7.365   8.685  70.848  1.00  0.00    -0.077 C  
ENDBRANCH   4   9
BRANCH   6  11
HETATM   11  O   UNL     1      -8.737   5.858  69.588  1.00  0.00    -0.125 OA 
HETATM   12  C   UNL     1      -9.892   5.317  70.228  1.00  0.00    -0.215 C  
ENDBRANCH   6  11
BRANCH   8  13
HETATM   13  C   UNL     1      -9.149   5.009  66.907  1.00  0.00    -0.117 C  
BRANCH  13  14
HETATM   14  N   UNL     1      -8.336   4.787  65.692  1.00  0.00    -0.116 NA 
HETATM   15  C   UNL     1      -7.167   3.912  65.948  1.00  0.00    -0.071 C  
HETATM   16  C   UNL     1      -7.508   2.420  66.154  1.00  0.00    -0.067 C  
HETATM   17  N   UNL     1      -8.311   1.856  65.054  1.00  0.00    -0.081 NA 
HETATM   18  C   UNL     1      -9.489   2.700  64.803  1.00  0.00    -0.116 C  
HETATM   19  H   UNL     1      -8.569   0.885  65.229  1.00  0.00     0.000 HD 
HETATM   20  C   UNL     1      -9.137   4.191  64.604  1.00  0.00    -0.146 C  
ENDBRANCH  13  14
ENDBRANCH   8  13
ENDBRANCH   2   3
TORSDOF 5
ENDMDL
MODEL      197
REMARK 921   NORMALIZED FREE ENERGY PREDICTED BY IDOCK:   -1.77 KCAL/MOL
REMARK 922        TOTAL FREE ENERGY PREDICTED BY IDOCK:   -2.87 KCAL/MOL
REMARK 923 INTER-LIGAND FREE ENERGY PREDICTED BY IDOCK:   -2.73 KCAL/MOL
REMARK 924 INTRA-LIGAND FREE ENERGY PREDICTED BY IDOCK:   -0.14 KCAL/MOL
REMARK 927      BINDING AFFINITY PREDICTED BY RF-SCORE:    0.00 PKD
ROOT
HETATM    1  C   UNL     1      -9.862   4.894  67.430  1.00  0.00    -0.178 C  
HETATM    2  O   UNL     1      -9.725   5.541  66.171  1.00  0.00    -0.158 OA 
ENDROOT
BRANCH   2   3
HETATM    3  C   UNL     1      -9.201   6.814  66.181  1.00  0.00    -0.084 A  
HETATM    4  C   UNL     1      -8.205   7.324  65.309  1.00  0.00    -0.125 A  
HETATM    5  C   UNL     1      -9.230   8.877  67.429  1.00  0.00    -0.157 A  
HETATM    6  C   UNL     1      -7.777   8.661  65.477  1.00  0.00    -0.092 A  
HETATM    7  C   UNL     1      -9.686   7.581  67.241  1.00  0.00    -0.217 A  
HETATM    8  C   UNL     1      -8.272   9.430  66.562  1.00  0.00    -0.115 A  
BRANCH   4   9
HETATM    9  O   UNL     1      -7.740   6.399  64.421  1.00  0.00    -0.095 OA 
HETATM   10  C   UNL     1      -6.707   5.486  64.714  1.00  0.00    -0.044 C  
ENDBRANCH   4   9
BRANCH   6  11
HETATM   11  O   UNL     1      -6.774   9.246  64.741  1.00  0.00    -0.077 OA 
HETATM   12  C   UNL     1      -5.455   9.049  65.251  1.00  0.00    -0.038 C  
ENDBRANCH   6  11
BRANCH   8  13
HETATM   13  C   UNL     1      -7.789  10.840  66.864  1.00  0.00    -0.130 C  
BRANCH  13  14
HETATM   14  N   UNL     1      -8.749  11.603  67.690  1.00  0.00    -0.151 NA 
HETATM   15  C   UNL     1      -8.131  12.795  68.316  1.00  0.00    -0.154 C  
HETATM   16  C   UNL     1      -7.838  13.959  67.343  1.00  0.00    -0.161 C  
HETATM   17  N   UNL     1      -9.022  14.371  66.566  1.00  0.00    -0.447 NA 
HETATM   18  C   UNL     1      -9.635  13.201  65.919  1.00  0.00    -0.108 C  
HETATM   19  H   UNL     1      -8.801  15.106  65.895  1.00  0.00     0.000 HD 
HETATM   20  C   UNL     1      -9.916  12.041  66.900  1.00  0.00    -0.202 C  
ENDBRANCH  13  14
ENDBRANCH   8  13
ENDBRANCH   2   3
TORSDOF 5
ENDMDL
MODEL      198
REMARK 921   NORMALIZED FREE ENERGY PREDICTED BY IDOCK:   -1.71 KCAL/MOL
REMARK 922        TOTAL FREE ENERGY PREDICTED BY IDOCK:   -2.79 KCAL/MOL
REMARK 923 INTER-LIGAND FREE ENERGY PREDICTED BY IDOCK:   -3.34 KCAL/MOL
REMARK 924 INTRA-LIGAND FREE ENERGY PREDICTED BY IDOCK:    0.55 KCAL/MOL
REMARK 927      BINDING AFFINITY PREDICTED BY RF-SCORE:    0.00 PKD
ROOT
HETATM    1  C   UNL     1     -11.610  14.507  64.533  1.00  0.00    -0.377 C  
HETATM    2  O   UNL     1     -12.033  14.735  65.872  1.00  0.00    -0.281 OA 
ENDROOT
BRANCH   2   3
HETATM    3  C   UNL     1     -11.052  15.049  66.787  1.00  0.00    -0.326 A  
HETATM    4  C   UNL     1     -10.622  16.352  67.148  1.00  0.00    -0.276 A  
HETATM    5  C   UNL     1      -9.364  14.052  68.190  1.00  0.00    -0.201 A  
HETATM    6  C   UNL     1      -9.586  16.484  68.102  1.00  0.00    -0.226 A  
HETATM    7  C   UNL     1     -10.409  13.918  67.289  1.00  0.00    -0.257 A  
HETATM    8  C   UNL     1      -8.935  15.326  68.601  1.00  0.00    -0.193 A  
BRANCH   4   9
HETATM    9  O   UNL     1     -11.259  17.341  66.459  1.00  0.00     0.291 OA 
HETATM   10  C   UNL     1     -10.679  18.042  65.382  1.00  0.00     0.163 C  
ENDBRANCH   4   9
BRANCH   6  11
HETATM   11  O   UNL     1      -9.038  17.686  68.482  1.00  0.00    -0.273 OA 
HETATM   12  C   UNL     1      -9.980  18.691  68.856  1.00  0.00    -0.354 C  
ENDBRANCH   6  11
BRANCH   8  13
HETATM   13  C   UNL     1      -7.752  15.390  69.554  1.00  0.00    -0.210 C  
BRANCH  13  14
HETATM   14  N   UNL     1      -6.466  15.113  68.880  1.00  0.00    -0.095 NA 
HETATM   15  C   UNL     1      -6.454  15.581  67.474  1.00  0.00    -0.156 C  
HETATM   16  C   UNL     1      -6.366  17.113  67.302  1.00  0.00    -0.159 C  
HETATM   17  N   UNL     1      -5.229  17.710  68.026  1.00  0.00    -0.135 NA 
HETATM   18  C   UNL     1      -5.239  17.273  69.431  1.00  0.00    -0.162 C  
HETATM   19  H   UNL     1      -5.214  18.726  67.943  1.00  0.00     0.000 HD 
HETATM   20  C   UNL     1      -5.333  15.739  69.591  1.00  0.00    -0.114 C  
ENDBRANCH  13  14
ENDBRANCH   8  13
ENDBRANCH   2   3
TORSDOF 5
ENDMDL
MODEL      199
REMARK 921   NORMALIZED FREE ENERGY PREDICTED BY IDOCK:   -1.69 KCAL/MOL
REMARK 922        TOTAL FREE ENERGY PREDICTED BY IDOCK:   -2.75 KCAL/MOL
REMARK 923 INTER-LIGAND FREE ENERGY PREDICTED BY IDOCK:   -2.26 KCAL/MOL
REMARK 924 INTRA-LIGAND FREE ENERGY PREDICTED BY IDOCK:   -0.49 KCAL/MOL
REMARK 927      BINDING AFFINITY PREDICTED BY RF-SCORE:    0.00 PKD
ROOT
HETATM    1  C   UNL     1      -8.609  10.237  69.035  1.00  0.00    -0.162 C  
HETATM    2  O   UNL     1      -7.448   9.946  68.266  1.00  0.00    -0.079 OA 
ENDROOT
BRANCH   2   3
HETATM    3  C   UNL     1      -7.591   9.029  67.248  1.00  0.00    -0.088 A  
HETATM    4  C   UNL     1      -7.288   9.237  65.878  1.00  0.00    -0.094 A  
HETATM    5  C   UNL     1      -8.443   6.825  66.774  1.00  0.00    -0.117 A  
HETATM    6  C   UNL     1      -7.512   8.179  64.967  1.00  0.00    -0.087 A  
HETATM    7  C   UNL     1      -8.183   7.843  67.679  1.00  0.00    -0.124 A  
HETATM    8  C   UNL     1      -8.122   6.978  65.414  1.00  0.00    -0.133 A  
BRANCH   4   9
HETATM    9  O   UNL     1      -6.850  10.499  65.606  1.00  0.00    -0.131 OA 
HETATM   10  C   UNL     1      -5.509  10.813  65.306  1.00  0.00    -0.124 C  
ENDBRANCH   4   9
BRANCH   6  11
HETATM   11  O   UNL     1      -7.323   8.279  63.608  1.00  0.00    -0.097 OA 
HETATM   12  C   UNL     1      -8.307   9.045  62.914  1.00  0.00    -0.202 C  
ENDBRANCH   6  11
BRANCH   8  13
HETATM   13  C   UNL     1      -8.482   5.835  64.479  1.00  0.00    -0.040 C  
BRANCH  13  14
HETATM   14  N   UNL     1      -8.763   4.577  65.204  1.00  0.00    -0.130 NA 
HETATM   15  C   UNL     1     -10.110   4.039  64.898  1.00  0.00    -0.205 C  
HETATM   16  C   UNL     1     -10.256   3.417  63.492  1.00  0.00    -0.208 C  
HETATM   17  N   UNL     1      -9.240   2.385  63.211  1.00  0.00    -0.091 NA 
HETATM   18  C   UNL     1      -7.895   2.911  63.488  1.00  0.00    -0.072 C  
HETATM   19  H   UNL     1      -9.319   2.020  62.263  1.00  0.00     0.000 HD 
HETATM   20  C   UNL     1      -7.763   3.537  64.895  1.00  0.00    -0.078 C  
ENDBRANCH  13  14
ENDBRANCH   8  13
ENDBRANCH   2   3
TORSDOF 5
ENDMDL
MODEL      200
REMARK 921   NORMALIZED FREE ENERGY PREDICTED BY IDOCK:   -1.65 KCAL/MOL
REMARK 922        TOTAL FREE ENERGY PREDICTED BY IDOCK:   -2.71 KCAL/MOL
REMARK 923 INTER-LIGAND FREE ENERGY PREDICTED BY IDOCK:   -2.67 KCAL/MOL
REMARK 924 INTRA-LIGAND FREE ENERGY PREDICTED BY IDOCK:   -0.04 KCAL/MOL
REMARK 927      BINDING AFFINITY PREDICTED BY RF-SCORE:    0.00 PKD
ROOT
HETATM    1  C   UNL     1     -10.504  10.895  65.924  1.00  0.00    -0.221 C  
HETATM    2  O   UNL     1      -9.540  10.740  66.958  1.00  0.00    -0.166 OA 
ENDROOT
BRANCH   2   3
HETATM    3  C   UNL     1      -9.422   9.485  67.512  1.00  0.00    -0.130 A  
HETATM    4  C   UNL     1     -10.212   8.949  68.561  1.00  0.00    -0.197 A  
HETATM    5  C   UNL     1      -8.046   7.505  67.474  1.00  0.00    -0.113 A  
HETATM    6  C   UNL     1      -9.938   7.638  69.014  1.00  0.00    -0.181 A  
HETATM    7  C   UNL     1      -8.339   8.773  66.996  1.00  0.00    -0.103 A  
HETATM    8  C   UNL     1      -8.830   6.925  68.487  1.00  0.00    -0.124 A  
BRANCH   4   9
HETATM    9  O   UNL     1     -11.135   9.829  69.046  1.00  0.00    -0.196 OA 
HETATM   10  C   UNL     1     -10.978  10.541  70.252  1.00  0.00    -0.235 C  
ENDBRANCH   4   9
BRANCH   6  11
HETATM   11  O   UNL     1     -10.586   7.035  70.066  1.00  0.00    -0.216 OA 
HETATM   12  C   UNL     1      -9.992   7.247  71.346  1.00  0.00    -0.187 C  
ENDBRANCH   6  11
BRANCH   8  13
HETATM   13  C   UNL     1      -8.414   5.552  68.990  1.00  0.00    -0.101 C  
BRANCH  13  14
HETATM   14  N   UNL     1      -9.105   4.455  68.279  1.00  0.00    -0.120 NA 
HETATM   15  C   UNL     1      -8.831   4.467  66.822  1.00  0.00    -0.112 C  
HETATM   16  C   UNL     1      -7.410   4.008  66.427  1.00  0.00    -0.076 C  
HETATM   17  N   UNL     1      -7.057   2.688  66.982  1.00  0.00    -0.049 NA 
HETATM   18  C   UNL     1      -7.302   2.667  68.432  1.00  0.00    -0.048 C  
HETATM   19  H   UNL     1      -6.100   2.421  66.753  1.00  0.00     0.000 HD 
HETATM   20  C   UNL     1      -8.723   3.134  68.815  1.00  0.00    -0.098 C  
ENDBRANCH  13  14
ENDBRANCH   8  13
ENDBRANCH   2   3
TORSDOF 5
ENDMDL
MODEL      201
REMARK 921   NORMALIZED FREE ENERGY PREDICTED BY IDOCK:   -1.31 KCAL/MOL
REMARK 922        TOTAL FREE ENERGY PREDICTED BY IDOCK:   -2.27 KCAL/MOL
REMARK 923 INTER-LIGAND FREE ENERGY PREDICTED BY IDOCK:   -1.87 KCAL/MOL
REMARK 924 INTRA-LIGAND FREE ENERGY PREDICTED BY IDOCK:   -0.40 KCAL/MOL
REMARK 927      BINDING AFFINITY PREDICTED BY RF-SCORE:    0.00 PKD
ROOT
HETATM    1  C   UNL     1      -9.978   9.486  69.055  1.00  0.00    -0.180 C  
HETATM    2  O   UNL     1      -8.720   8.840  69.216  1.00  0.00    -0.132 OA 
ENDROOT
BRANCH   2   3
HETATM    3  C   UNL     1      -8.727   7.622  69.858  1.00  0.00    -0.139 A  
HETATM    4  C   UNL     1      -8.048   6.447  69.444  1.00  0.00    -0.118 A  
HETATM    5  C   UNL     1      -9.742   6.443  71.700  1.00  0.00    -0.174 A  
HETATM    6  C   UNL     1      -8.181   5.277  70.227  1.00  0.00    -0.095 A  
HETATM    7  C   UNL     1      -9.580   7.605  70.962  1.00  0.00    -0.169 A  
HETATM    8  C   UNL     1      -9.057   5.269  71.343  1.00  0.00    -0.167 A  
BRANCH   4   9
HETATM    9  O   UNL     1      -7.373   6.599  68.269  1.00  0.00    -0.085 OA 
HETATM   10  C   UNL     1      -6.075   7.142  68.179  1.00  0.00    -0.034 C  
ENDBRANCH   4   9
BRANCH   6  11
HETATM   11  O   UNL     1      -7.631   4.061  69.894  1.00  0.00    -0.051 OA 
HETATM   12  C   UNL     1      -6.207   4.048  69.792  1.00  0.00    -0.027 C  
ENDBRANCH   6  11
BRANCH   8  13
HETATM   13  C   UNL     1      -9.325   4.025  72.175  1.00  0.00    -0.128 C  
BRANCH  13  14
HETATM   14  N   UNL     1      -8.866   4.168  73.573  1.00  0.00    -0.094 NA 
HETATM   15  C   UNL     1      -9.425   3.120  74.460  1.00  0.00    -0.093 C  
HETATM   16  C   UNL     1      -8.817   1.714  74.264  1.00  0.00    -0.054 C  
HETATM   17  N   UNL     1      -7.346   1.705  74.361  1.00  0.00    -0.028 NA 
HETATM   18  C   UNL     1      -6.774   2.724  73.468  1.00  0.00    -0.023 C  
HETATM   19  H   UNL     1      -6.957   0.779  74.181  1.00  0.00     0.000 HD 
HETATM   20  C   UNL     1      -7.394   4.125  73.669  1.00  0.00    -0.075 C  
ENDBRANCH  13  14
ENDBRANCH   8  13
ENDBRANCH   2   3
TORSDOF 5
ENDMDL
MODEL      202
REMARK 921   NORMALIZED FREE ENERGY PREDICTED BY IDOCK:   -1.25 KCAL/MOL
REMARK 922        TOTAL FREE ENERGY PREDICTED BY IDOCK:   -2.19 KCAL/MOL
REMARK 923 INTER-LIGAND FREE ENERGY PREDICTED BY IDOCK:   -2.24 KCAL/MOL
REMARK 924 INTRA-LIGAND FREE ENERGY PREDICTED BY IDOCK:    0.05 KCAL/MOL
REMARK 927      BINDING AFFINITY PREDICTED BY RF-SCORE:    0.00 PKD
ROOT
HETATM    1  C   UNL     1     -11.960  10.337  70.574  1.00  0.00    -0.323 C  
HETATM    2  O   UNL     1     -10.824  10.532  69.739  1.00  0.00    -0.256 OA 
ENDROOT
BRANCH   2   3
HETATM    3  C   UNL     1      -9.779   9.649  69.896  1.00  0.00    -0.231 A  
HETATM    4  C   UNL     1      -8.480   9.774  69.341  1.00  0.00    -0.159 A  
HETATM    5  C   UNL     1      -9.229   7.491  70.820  1.00  0.00    -0.158 A  
HETATM    6  C   UNL     1      -7.532   8.756  69.600  1.00  0.00    -0.071 A  
HETATM    7  C   UNL     1     -10.148   8.507  70.607  1.00  0.00    -0.225 A  
HETATM    8  C   UNL     1      -7.920   7.596  70.318  1.00  0.00    -0.101 A  
BRANCH   4   9
HETATM    9  O   UNL     1      -8.331  10.880  68.558  1.00  0.00    -0.127 OA 
HETATM   10  C   UNL     1      -8.555  10.888  67.167  1.00  0.00    -0.130 C  
ENDBRANCH   4   9
BRANCH   6  11
HETATM   11  O   UNL     1      -6.266   8.728  69.065  1.00  0.00    -0.043 OA 
HETATM   12  C   UNL     1      -5.404   9.783  69.491  1.00  0.00    -0.034 C  
ENDBRANCH   6  11
BRANCH   8  13
HETATM   13  C   UNL     1      -6.988   6.418  70.554  1.00  0.00    -0.064 C  
BRANCH  13  14
HETATM   14  N   UNL     1      -7.452   5.538  71.647  1.00  0.00    -0.090 NA 
HETATM   15  C   UNL     1      -8.482   4.573  71.195  1.00  0.00    -0.106 C  
HETATM   16  C   UNL     1      -7.950   3.421  70.314  1.00  0.00    -0.046 C  
HETATM   17  N   UNL     1      -6.833   2.689  70.938  1.00  0.00    -0.032 NA 
HETATM   18  C   UNL     1      -5.790   3.631  71.372  1.00  0.00    -0.013 C  
HETATM   19  H   UNL     1      -6.461   1.964  70.324  1.00  0.00     0.000 HD 
HETATM   20  C   UNL     1      -6.335   4.781  72.247  1.00  0.00    -0.033 C  
ENDBRANCH  13  14
ENDBRANCH   8  13
ENDBRANCH   2   3
TORSDOF 5
ENDMDL
MODEL      203
REMARK 921   NORMALIZED FREE ENERGY PREDICTED BY IDOCK:   -1.11 KCAL/MOL
REMARK 922        TOTAL FREE ENERGY PREDICTED BY IDOCK:   -2.02 KCAL/MOL
REMARK 923 INTER-LIGAND FREE ENERGY PREDICTED BY IDOCK:   -4.05 KCAL/MOL
REMARK 924 INTRA-LIGAND FREE ENERGY PREDICTED BY IDOCK:    2.03 KCAL/MOL
REMARK 927      BINDING AFFINITY PREDICTED BY RF-SCORE:    0.00 PKD
ROOT
HETATM    1  C   UNL     1     -10.682  15.540  64.519  1.00  0.00     0.016 C  
HETATM    2  O   UNL     1     -11.118  15.661  65.868  1.00  0.00    -0.272 OA 
ENDROOT
BRANCH   2   3
HETATM    3  C   UNL     1     -10.217  16.191  66.765  1.00  0.00    -0.281 A  
HETATM    4  C   UNL     1     -10.157  17.539  67.202  1.00  0.00    -0.321 A  
HETATM    5  C   UNL     1      -8.240  15.643  68.030  1.00  0.00    -0.146 A  
HETATM    6  C   UNL     1      -9.150  17.908  68.124  1.00  0.00    -0.278 A  
HETATM    7  C   UNL     1      -9.252  15.266  67.162  1.00  0.00    -0.223 A  
HETATM    8  C   UNL     1      -8.169  16.961  68.515  1.00  0.00    -0.249 A  
BRANCH   4   9
HETATM    9  O   UNL     1     -11.087  18.341  66.609  1.00  0.00     0.045 OA 
HETATM   10  C   UNL     1     -10.782  19.277  65.601  1.00  0.00    -0.251 C  
ENDBRANCH   4   9
BRANCH   6  11
HETATM   11  O   UNL     1      -8.946  19.193  68.568  1.00  0.00    -0.340 OA 
HETATM   12  C   UNL     1     -10.086  19.820  69.154  1.00  0.00    -0.285 C  
ENDBRANCH   6  11
BRANCH   8  13
HETATM   13  C   UNL     1      -7.001  17.307  69.425  1.00  0.00    -0.123 C  
BRANCH  13  14
HETATM   14  N   UNL     1      -5.825  17.798  68.676  1.00  0.00    -0.178 NA 
HETATM   15  C   UNL     1      -6.179  18.268  67.316  1.00  0.00    -0.168 C  
HETATM   16  C   UNL     1      -6.935  19.615  67.272  1.00  0.00    -0.207 C  
HETATM   17  N   UNL     1      -6.235  20.691  67.997  1.00  0.00    -0.280 NA 
HETATM   18  C   UNL     1      -5.897  20.248  69.358  1.00  0.00    -0.325 C  
HETATM   19  H   UNL     1      -6.770  21.559  68.000  1.00  0.00     0.000 HD 
HETATM   20  C   UNL     1      -5.146  18.898  69.389  1.00  0.00    -0.187 C  
ENDBRANCH  13  14
ENDBRANCH   8  13
ENDBRANCH   2   3
TORSDOF 5
ENDMDL
MODEL      204
REMARK 921   NORMALIZED FREE ENERGY PREDICTED BY IDOCK:   -1.10 KCAL/MOL
REMARK 922        TOTAL FREE ENERGY PREDICTED BY IDOCK:   -1.99 KCAL/MOL
REMARK 923 INTER-LIGAND FREE ENERGY PREDICTED BY IDOCK:   -2.18 KCAL/MOL
REMARK 924 INTRA-LIGAND FREE ENERGY PREDICTED BY IDOCK:    0.19 KCAL/MOL
REMARK 927      BINDING AFFINITY PREDICTED BY RF-SCORE:    0.00 PKD
ROOT
HETATM    1  C   UNL     1     -10.246  11.790  68.400  1.00  0.00    -0.206 C  
HETATM    2  O   UNL     1     -10.310  11.055  67.183  1.00  0.00    -0.202 OA 
ENDROOT
BRANCH   2   3
HETATM    3  C   UNL     1      -9.577   9.891  67.123  1.00  0.00    -0.162 A  
HETATM    4  C   UNL     1      -8.236   9.761  66.678  1.00  0.00    -0.120 A  
HETATM    5  C   UNL     1      -9.761   7.505  67.413  1.00  0.00    -0.204 A  
HETATM    6  C   UNL     1      -7.645   8.477  66.673  1.00  0.00    -0.082 A  
HETATM    7  C   UNL     1     -10.331   8.768  67.462  1.00  0.00    -0.334 A  
HETATM    8  C   UNL     1      -8.423   7.340  67.014  1.00  0.00    -0.118 A  
BRANCH   4   9
HETATM    9  O   UNL     1      -7.693  10.937  66.250  1.00  0.00    -0.149 OA 
HETATM   10  C   UNL     1      -6.325  11.256  66.372  1.00  0.00    -0.091 C  
ENDBRANCH   4   9
BRANCH   6  11
HETATM   11  O   UNL     1      -6.381   8.212  66.202  1.00  0.00    -0.045 OA 
HETATM   12  C   UNL     1      -5.351   8.228  67.190  1.00  0.00    -0.037 C  
ENDBRANCH   6  11
BRANCH   8  13
HETATM   13  C   UNL     1      -7.888   5.919  66.940  1.00  0.00    -0.101 C  
BRANCH  13  14
HETATM   14  N   UNL     1      -7.092   5.551  68.131  1.00  0.00    -0.065 NA 
HETATM   15  C   UNL     1      -7.930   4.991  69.218  1.00  0.00    -0.079 C  
HETATM   16  C   UNL     1      -8.454   3.562  68.962  1.00  0.00    -0.070 C  
HETATM   17  N   UNL     1      -7.382   2.606  68.628  1.00  0.00    -0.048 NA 
HETATM   18  C   UNL     1      -6.554   3.136  67.534  1.00  0.00    -0.037 C  
HETATM   19  H   UNL     1      -7.749   1.679  68.414  1.00  0.00     0.000 HD 
HETATM   20  C   UNL     1      -6.041   4.569  67.799  1.00  0.00    -0.031 C  
ENDBRANCH  13  14
ENDBRANCH   8  13
ENDBRANCH   2   3
TORSDOF 5
ENDMDL
MODEL      205
REMARK 921   NORMALIZED FREE ENERGY PREDICTED BY IDOCK:   -0.86 KCAL/MOL
REMARK 922        TOTAL FREE ENERGY PREDICTED BY IDOCK:   -1.69 KCAL/MOL
REMARK 923 INTER-LIGAND FREE ENERGY PREDICTED BY IDOCK:   -1.98 KCAL/MOL
REMARK 924 INTRA-LIGAND FREE ENERGY PREDICTED BY IDOCK:    0.30 KCAL/MOL
REMARK 927      BINDING AFFINITY PREDICTED BY RF-SCORE:    0.00 PKD
ROOT
HETATM    1  C   UNL     1     -11.210  16.439  64.379  1.00  0.00    -0.016 C  
HETATM    2  O   UNL     1     -11.406  16.842  65.729  1.00  0.00     0.284 OA 
ENDROOT
BRANCH   2   3
HETATM    3  C   UNL     1     -10.291  16.864  66.538  1.00  0.00    -0.299 A  
HETATM    4  C   UNL     1     -10.019  15.990  67.622  1.00  0.00    -0.239 A  
HETATM    5  C   UNL     1      -8.296  18.135  67.000  1.00  0.00    -0.250 A  
HETATM    6  C   UNL     1      -8.822  16.170  68.353  1.00  0.00    -0.188 A  
HETATM    7  C   UNL     1      -9.446  17.935  66.252  1.00  0.00    -0.234 A  
HETATM    8  C   UNL     1      -7.972  17.268  68.058  1.00  0.00    -0.215 A  
BRANCH   4   9
HETATM    9  O   UNL     1     -11.016  15.089  67.853  1.00  0.00    -0.272 OA 
HETATM   10  C   UNL     1     -10.841  13.693  67.771  1.00  0.00    -0.253 C  
ENDBRANCH   4   9
BRANCH   6  11
HETATM   11  O   UNL     1      -8.479  15.435  69.463  1.00  0.00    -0.256 OA 
HETATM   12  C   UNL     1      -7.644  14.306  69.209  1.00  0.00     0.012 C  
ENDBRANCH   6  11
BRANCH   8  13
HETATM   13  C   UNL     1      -6.720  17.583  68.860  1.00  0.00    -0.239 C  
BRANCH  13  14
HETATM   14  N   UNL     1      -6.324  19.005  68.758  1.00  0.00    -0.239 NA 
HETATM   15  C   UNL     1      -7.439  19.925  69.087  1.00  0.00    -0.148 C  
HETATM   16  C   UNL     1      -7.799  19.996  70.587  1.00  0.00     1.351 C  
HETATM   17  N   UNL     1      -6.639  20.304  71.444  1.00  0.00    -0.333 NA 
HETATM   18  C   UNL     1      -5.532  19.383  71.146  1.00  0.00    -0.261 C  
HETATM   19  H   UNL     1      -6.884  20.298  72.433  1.00  0.00     0.000 HD 
HETATM   20  C   UNL     1      -5.184  19.316  69.642  1.00  0.00    -0.191 C  
ENDBRANCH  13  14
ENDBRANCH   8  13
ENDBRANCH   2   3
TORSDOF 5
ENDMDL
MODEL      206
REMARK 921   NORMALIZED FREE ENERGY PREDICTED BY IDOCK:   -0.73 KCAL/MOL
REMARK 922        TOTAL FREE ENERGY PREDICTED BY IDOCK:   -1.52 KCAL/MOL
REMARK 923 INTER-LIGAND FREE ENERGY PREDICTED BY IDOCK:   -1.86 KCAL/MOL
REMARK 924 INTRA-LIGAND FREE ENERGY PREDICTED BY IDOCK:    0.34 KCAL/MOL
REMARK 927      BINDING AFFINITY PREDICTED BY RF-SCORE:    0.00 PKD
ROOT
HETATM    1  C   UNL     1     -11.078   6.492  66.875  1.00  0.00    -0.272 C  
HETATM    2  O   UNL     1      -9.859   5.806  67.132  1.00  0.00    -0.126 OA 
ENDROOT
BRANCH   2   3
HETATM    3  C   UNL     1      -9.254   6.050  68.344  1.00  0.00    -0.114 A  
HETATM    4  C   UNL     1      -8.215   6.984  68.595  1.00  0.00    -0.122 A  
HETATM    5  C   UNL     1      -9.166   5.268  70.623  1.00  0.00    -0.187 A  
HETATM    6  C   UNL     1      -7.703   7.091  69.909  1.00  0.00    -0.108 A  
HETATM    7  C   UNL     1      -9.702   5.190  69.347  1.00  0.00    -0.248 A  
HETATM    8  C   UNL     1      -8.161   6.206  70.920  1.00  0.00    -0.126 A  
BRANCH   4   9
HETATM    9  O   UNL     1      -7.799   7.643  67.476  1.00  0.00    -0.114 OA 
HETATM   10  C   UNL     1      -6.505   7.517  66.932  1.00  0.00    -0.056 C  
ENDBRANCH   4   9
BRANCH   6  11
HETATM   11  O   UNL     1      -6.654   7.905  70.263  1.00  0.00    -0.037 OA 
HETATM   12  C   UNL     1      -6.976   9.291  70.382  1.00  0.00    -0.085 C  
ENDBRANCH   6  11
BRANCH   8  13
HETATM   13  C   UNL     1      -7.592   6.195  72.330  1.00  0.00    -0.096 C  
BRANCH  13  14
HETATM   14  N   UNL     1      -6.234   5.613  72.388  1.00  0.00    -0.039 NA 
HETATM   15  C   UNL     1      -5.947   4.982  73.698  1.00  0.00    -0.030 C  
HETATM   16  C   UNL     1      -6.676   3.644  73.947  1.00  0.00    -0.044 C  
HETATM   17  N   UNL     1      -6.456   2.660  72.870  1.00  0.00    -0.013 NA 
HETATM   18  C   UNL     1      -6.759   3.263  71.564  1.00  0.00    -0.026 C  
HETATM   19  H   UNL     1      -6.982   1.801  73.025  1.00  0.00     0.000 HD 
HETATM   20  C   UNL     1      -6.029   4.605  71.329  1.00  0.00    -0.017 C  
ENDBRANCH  13  14
ENDBRANCH   8  13
ENDBRANCH   2   3
TORSDOF 5
ENDMDL
MODEL      207
REMARK 921   NORMALIZED FREE ENERGY PREDICTED BY IDOCK:   -0.49 KCAL/MOL
REMARK 922        TOTAL FREE ENERGY PREDICTED BY IDOCK:   -1.20 KCAL/MOL
REMARK 923 INTER-LIGAND FREE ENERGY PREDICTED BY IDOCK:   -1.87 KCAL/MOL
REMARK 924 INTRA-LIGAND FREE ENERGY PREDICTED BY IDOCK:    0.67 KCAL/MOL
REMARK 927      BINDING AFFINITY PREDICTED BY RF-SCORE:    0.00 PKD
ROOT
HETATM    1  C   UNL     1     -11.120  16.443  64.576  1.00  0.00    -0.093 C  
HETATM    2  O   UNL     1     -11.549  15.997  65.857  1.00  0.00     0.292 OA 
ENDROOT
BRANCH   2   3
HETATM    3  C   UNL     1     -10.576  15.510  66.702  1.00  0.00    -0.307 A  
HETATM    4  C   UNL     1      -9.341  16.136  67.015  1.00  0.00    -0.218 A  
HETATM    5  C   UNL     1      -9.980  13.574  68.009  1.00  0.00    -0.248 A  
HETATM    6  C   UNL     1      -8.454  15.478  67.898  1.00  0.00    -0.143 A  
HETATM    7  C   UNL     1     -10.873  14.234  67.179  1.00  0.00    -0.296 A  
HETATM    8  C   UNL     1      -8.763  14.177  68.372  1.00  0.00    -0.178 A  
BRANCH   4   9
HETATM    9  O   UNL     1      -9.149  17.312  66.353  1.00  0.00    -0.256 OA 
HETATM   10  C   UNL     1      -8.961  18.550  66.999  1.00  0.00    -0.274 C  
ENDBRANCH   4   9
BRANCH   6  11
HETATM   11  O   UNL     1      -7.203  15.948  68.224  1.00  0.00    -0.112 OA 
HETATM   12  C   UNL     1      -7.141  16.731  69.415  1.00  0.00    -0.143 C  
ENDBRANCH   6  11
BRANCH   8  13
HETATM   13  C   UNL     1      -7.818  13.369  69.246  1.00  0.00     0.450 C  
BRANCH  13  14
HETATM   14  N   UNL     1      -7.936  11.913  69.013  1.00  0.00     0.054 NA 
HETATM   15  C   UNL     1      -7.767  11.555  67.585  1.00  0.00    -0.123 C  
HETATM   16  C   UNL     1      -6.318  11.656  67.059  1.00  0.00    -0.149 C  
HETATM   17  N   UNL     1      -5.356  10.892  67.874  1.00  0.00    -0.039 NA 
HETATM   18  C   UNL     1      -5.495  11.253  69.293  1.00  0.00    -0.040 C  
HETATM   19  H   UNL     1      -4.398  11.008  67.543  1.00  0.00     0.000 HD 
HETATM   20  C   UNL     1      -6.949  11.154  69.806  1.00  0.00    -0.050 C  
ENDBRANCH  13  14
ENDBRANCH   8  13
ENDBRANCH   2   3
TORSDOF 5
ENDMDL
MODEL      208
REMARK 921   NORMALIZED FREE ENERGY PREDICTED BY IDOCK:   -0.26 KCAL/MOL
REMARK 922        TOTAL FREE ENERGY PREDICTED BY IDOCK:   -0.91 KCAL/MOL
REMARK 923 INTER-LIGAND FREE ENERGY PREDICTED BY IDOCK:   -3.50 KCAL/MOL
REMARK 924 INTRA-LIGAND FREE ENERGY PREDICTED BY IDOCK:    2.59 KCAL/MOL
REMARK 927      BINDING AFFINITY PREDICTED BY RF-SCORE:    0.00 PKD
ROOT
HETATM    1  C   UNL     1      -7.357   7.688  71.840  1.00  0.00    -0.070 C  
HETATM    2  O   UNL     1      -8.009   8.936  71.640  1.00  0.00    -0.278 OA 
ENDROOT
BRANCH   2   3
HETATM    3  C   UNL     1      -8.613   9.132  70.418  1.00  0.00    -0.209 A  
HETATM    4  C   UNL     1      -7.982   9.080  69.148  1.00  0.00    -0.101 A  
HETATM    5  C   UNL     1     -10.703   9.779  69.406  1.00  0.00    -0.250 A  
HETATM    6  C   UNL     1      -8.763   9.321  67.994  1.00  0.00    -0.125 A  
HETATM    7  C   UNL     1      -9.953   9.500  70.538  1.00  0.00    -0.335 A  
HETATM    8  C   UNL     1     -10.123   9.701  68.128  1.00  0.00    -0.205 A  
BRANCH   4   9
HETATM    9  O   UNL     1      -6.641   8.846  69.221  1.00  0.00    -0.048 OA 
HETATM   10  C   UNL     1      -5.662   9.806  68.895  1.00  0.00    -0.035 C  
ENDBRANCH   4   9
BRANCH   6  11
HETATM   11  O   UNL     1      -8.255   9.366  66.717  1.00  0.00    -0.111 OA 
HETATM   12  C   UNL     1      -8.703   8.326  65.849  1.00  0.00    -0.159 C  
ENDBRANCH   6  11
BRANCH   8  13
HETATM   13  C   UNL     1     -11.000  10.069  66.941  1.00  0.00    -0.000 C  
BRANCH  13  14
HETATM   14  N   UNL     1     -10.604  11.351  66.320  1.00  0.00    -0.256 NA 
HETATM   15  C   UNL     1     -11.705  12.343  66.323  1.00  0.00    -0.395 C  
HETATM   16  C   UNL     1     -12.020  12.957  67.705  1.00  0.00    -0.289 C  
HETATM   17  N   UNL     1     -10.834  13.539  68.360  1.00  0.00    -0.258 NA 
HETATM   18  C   UNL     1      -9.738  12.558  68.385  1.00  0.00    -0.189 C  
HETATM   19  H   UNL     1     -11.048  13.896  69.290  1.00  0.00     0.000 HD 
HETATM   20  C   UNL     1      -9.436  11.946  66.999  1.00  0.00    -0.188 C  
ENDBRANCH  13  14
ENDBRANCH   8  13
ENDBRANCH   2   3
TORSDOF 5
ENDMDL
MODEL      209
REMARK 921   NORMALIZED FREE ENERGY PREDICTED BY IDOCK:    1.22 KCAL/MOL
REMARK 922        TOTAL FREE ENERGY PREDICTED BY IDOCK:    1.00 KCAL/MOL
REMARK 923 INTER-LIGAND FREE ENERGY PREDICTED BY IDOCK:   -1.08 KCAL/MOL
REMARK 924 INTRA-LIGAND FREE ENERGY PREDICTED BY IDOCK:    2.08 KCAL/MOL
REMARK 927      BINDING AFFINITY PREDICTED BY RF-SCORE:    0.00 PKD
ROOT
HETATM    1  C   UNL     1     -13.032  13.116  69.898  1.00  0.00     0.725 C  
HETATM    2  O   UNL     1     -12.273  12.626  68.799  1.00  0.00    -0.178 OA 
ENDROOT
BRANCH   2   3
HETATM    3  C   UNL     1     -11.168  13.362  68.431  1.00  0.00    -0.279 A  
HETATM    4  C   UNL     1     -11.161  14.518  67.609  1.00  0.00    -0.304 A  
HETATM    5  C   UNL     1      -8.761  13.381  68.561  1.00  0.00    -0.071 A  
HETATM    6  C   UNL     1      -9.923  15.139  67.325  1.00  0.00    -0.230 A  
HETATM    7  C   UNL     1      -9.975  12.793  68.879  1.00  0.00     0.098 A  
HETATM    8  C   UNL     1      -8.715  14.548  67.779  1.00  0.00    -0.174 A  
BRANCH   4   9
HETATM    9  O   UNL     1     -12.396  14.856  67.142  1.00  0.00    -0.026 OA 
HETATM   10  C   UNL     1     -12.956  14.332  65.959  1.00  0.00     0.106 C  
ENDBRANCH   4   9
BRANCH   6  11
HETATM   11  O   UNL     1      -9.778  16.220  66.488  1.00  0.00    -0.235 OA 
HETATM   12  C   UNL     1      -8.577  16.233  65.717  1.00  0.00     0.223 C  
ENDBRANCH   6  11
BRANCH   8  13
HETATM   13  C   UNL     1      -7.342  15.103  67.434  1.00  0.00    -0.205 C  
BRANCH  13  14
HETATM   14  N   UNL     1      -6.680  15.738  68.594  1.00  0.00    -0.114 NA 
HETATM   15  C   UNL     1      -5.835  16.890  68.199  1.00  0.00    -0.119 C  
HETATM   16  C   UNL     1      -6.617  18.155  67.784  1.00  0.00    -0.189 C  
HETATM   17  N   UNL     1      -7.592  18.589  68.802  1.00  0.00    -0.300 NA 
HETATM   18  C   UNL     1      -8.455  17.462  69.188  1.00  0.00     0.064 C  
HETATM   19  H   UNL     1      -8.134  19.395  68.492  1.00  0.00     0.000 HD 
HETATM   20  C   UNL     1      -7.662  16.200  69.595  1.00  0.00     0.127 C  
ENDBRANCH  13  14
ENDBRANCH   8  13
ENDBRANCH   2   3
TORSDOF 5
ENDMDL
