MODEL        1
REMARK 921   NORMALIZED FREE ENERGY PREDICTED BY IDOCK:   -7.01 KCAL/MOL
REMARK 922        TOTAL FREE ENERGY PREDICTED BY IDOCK:  -10.41 KCAL/MOL
REMARK 923 INTER-LIGAND FREE ENERGY PREDICTED BY IDOCK:   -9.47 KCAL/MOL
REMARK 924 INTRA-LIGAND FREE ENERGY PREDICTED BY IDOCK:   -0.94 KCAL/MOL
REMARK 927      BINDING AFFINITY PREDICTED BY RF-SCORE:    0.00 PKD
ROOT
HETATM    1  C   UNL     1     -10.767  14.272  64.965  1.00  0.00    -0.435 C  
HETATM    2  C   UNL     1     -10.630  15.716  65.439  1.00  0.00    -0.436 C  
HETATM    3  C   UNL     1     -10.221  16.067  66.917  1.00  0.00    -0.280 C  
HETATM    4  N   UNL     1      -8.894  15.511  67.347  1.00  0.00    -0.184 NA 
HETATM    5  C   UNL     1     -10.182  17.651  67.080  1.00  0.00    -0.342 A  
HETATM    6  C   UNL     1     -11.377  15.668  67.914  1.00  0.00    -0.302 C  
HETATM    7  C   UNL     1     -10.443  18.542  66.020  1.00  0.00    -0.433 A  
HETATM    8  C   UNL     1      -9.772  19.611  68.501  1.00  0.00    -0.493 A  
HETATM    9  C   UNL     1      -8.709  14.063  67.308  1.00  0.00    -0.218 C  
HETATM   10  C   UNL     1      -7.738  16.140  66.705  1.00  0.00    -0.230 C  
HETATM   11  C   UNL     1     -10.347  19.927  66.188  1.00  0.00    -0.604 A  
HETATM   12  C   UNL     1     -10.005  20.461  67.424  1.00  0.00    -0.556 A  
HETATM   13  C   UNL     1      -9.857  18.226  68.332  1.00  0.00    -0.386 A  
ENDROOT
BRANCH   6  14
HETATM   14  O   UNL     1     -11.846  14.318  67.887  1.00  0.00    -0.342 OA 
BRANCH  14  15
HETATM   15  C   UNL     1     -12.147  13.805  69.107  1.00  0.00    -0.333 C  
HETATM   16  O   UNL     1     -12.684  14.390  70.033  1.00  0.00    -0.301 OA 
BRANCH  15  17
HETATM   17  C   UNL     1     -11.881  12.352  69.120  1.00  0.00    -0.352 A  
HETATM   18  C   UNL     1     -10.995  10.425  67.949  1.00  0.00    -0.297 A  
HETATM   19  C   UNL     1     -11.419  11.755  67.945  1.00  0.00    -0.387 A  
HETATM   20  C   UNL     1     -11.940  11.601  70.300  1.00  0.00    -0.445 A  
HETATM   21  C   UNL     1     -11.004   9.683  69.154  1.00  0.00    -0.151 A  
HETATM   22  C   UNL     1     -11.505  10.272  70.335  1.00  0.00    -0.335 A  
BRANCH  18  23
HETATM   23  O   UNL     1     -10.480   9.804  66.834  1.00  0.00    -0.238 OA 
HETATM   24  C   UNL     1      -9.921  10.653  65.836  1.00  0.00    -0.255 C  
ENDBRANCH  18  23
BRANCH  21  25
HETATM   25  O   UNL     1     -10.571   8.382  69.037  1.00  0.00    -0.218 OA 
HETATM   26  C   UNL     1      -9.249   8.088  69.474  1.00  0.00    -0.152 C  
ENDBRANCH  21  25
BRANCH  22  27
HETATM   27  O   UNL     1     -11.552   9.519  71.477  1.00  0.00    -0.357 OA 
HETATM   28  C   UNL     1     -12.824   9.267  72.065  1.00  0.00    -0.415 C  
ENDBRANCH  22  27
ENDBRANCH  15  17
ENDBRANCH  14  15
ENDBRANCH   6  14
TORSDOF 6
ENDMDL
MODEL        2
REMARK 921   NORMALIZED FREE ENERGY PREDICTED BY IDOCK:   -6.72 KCAL/MOL
REMARK 922        TOTAL FREE ENERGY PREDICTED BY IDOCK:  -10.02 KCAL/MOL
REMARK 923 INTER-LIGAND FREE ENERGY PREDICTED BY IDOCK:   -9.18 KCAL/MOL
REMARK 924 INTRA-LIGAND FREE ENERGY PREDICTED BY IDOCK:   -0.84 KCAL/MOL
REMARK 927      BINDING AFFINITY PREDICTED BY RF-SCORE:    0.00 PKD
ROOT
HETATM    1  C   UNL     1     -10.737  14.215  65.018  1.00  0.00    -0.429 C  
HETATM    2  C   UNL     1     -10.615  15.663  65.482  1.00  0.00    -0.422 C  
HETATM    3  C   UNL     1     -10.217  16.029  66.960  1.00  0.00    -0.282 C  
HETATM    4  N   UNL     1      -8.887  15.487  67.400  1.00  0.00    -0.184 NA 
HETATM    5  C   UNL     1     -10.192  17.614  67.111  1.00  0.00    -0.342 A  
HETATM    6  C   UNL     1     -11.374  15.627  67.953  1.00  0.00    -0.302 C  
HETATM    7  C   UNL     1     -10.454  18.495  66.043  1.00  0.00    -0.433 A  
HETATM    8  C   UNL     1      -9.806  19.589  68.519  1.00  0.00    -0.518 A  
HETATM    9  C   UNL     1      -8.690  14.041  67.373  1.00  0.00    -0.207 C  
HETATM   10  C   UNL     1      -7.733  16.122  66.760  1.00  0.00    -0.253 C  
HETATM   11  C   UNL     1     -10.371  19.882  66.201  1.00  0.00    -0.604 A  
HETATM   12  C   UNL     1     -10.040  20.429  67.435  1.00  0.00    -0.500 A  
HETATM   13  C   UNL     1      -9.878  18.201  68.360  1.00  0.00    -0.380 A  
ENDROOT
BRANCH   6  14
HETATM   14  O   UNL     1     -11.832  14.273  67.934  1.00  0.00    -0.342 OA 
BRANCH  14  15
HETATM   15  C   UNL     1     -12.159  13.775  69.154  1.00  0.00    -0.333 C  
HETATM   16  O   UNL     1     -12.834  14.323  70.009  1.00  0.00    -0.233 OA 
BRANCH  15  17
HETATM   17  C   UNL     1     -11.716  12.370  69.257  1.00  0.00    -0.386 A  
HETATM   18  C   UNL     1     -11.641  10.341  70.580  1.00  0.00    -0.338 A  
HETATM   19  C   UNL     1     -11.887  11.712  70.477  1.00  0.00    -0.328 A  
HETATM   20  C   UNL     1     -11.271  11.653  68.141  1.00  0.00    -0.325 A  
HETATM   21  C   UNL     1     -11.243   9.606  69.437  1.00  0.00    -0.077 A  
HETATM   22  C   UNL     1     -11.033  10.276  68.213  1.00  0.00    -0.264 A  
BRANCH  18  23
HETATM   23  O   UNL     1     -11.846   9.633  71.741  1.00  0.00    -0.386 OA 
HETATM   24  C   UNL     1     -13.195   9.515  72.183  1.00  0.00    -0.451 C  
ENDBRANCH  18  23
BRANCH  21  25
HETATM   25  O   UNL     1     -11.022   8.266  69.659  1.00  0.00    -0.199 OA 
HETATM   26  C   UNL     1      -9.678   7.846  69.861  1.00  0.00    -0.176 C  
ENDBRANCH  21  25
BRANCH  22  27
HETATM   27  O   UNL     1     -10.599   9.553  67.134  1.00  0.00    -0.257 OA 
HETATM   28  C   UNL     1     -10.182  10.263  65.972  1.00  0.00    -0.228 C  
ENDBRANCH  22  27
ENDBRANCH  15  17
ENDBRANCH  14  15
ENDBRANCH   6  14
TORSDOF 6
ENDMDL
MODEL        3
REMARK 921   NORMALIZED FREE ENERGY PREDICTED BY IDOCK:   -6.41 KCAL/MOL
REMARK 922        TOTAL FREE ENERGY PREDICTED BY IDOCK:   -9.59 KCAL/MOL
REMARK 923 INTER-LIGAND FREE ENERGY PREDICTED BY IDOCK:   -8.70 KCAL/MOL
REMARK 924 INTRA-LIGAND FREE ENERGY PREDICTED BY IDOCK:   -0.89 KCAL/MOL
REMARK 927      BINDING AFFINITY PREDICTED BY RF-SCORE:    0.00 PKD
ROOT
HETATM    1  C   UNL     1      -8.879   9.910  70.137  1.00  0.00    -0.146 C  
HETATM    2  C   UNL     1      -9.170   8.778  71.118  1.00  0.00    -0.299 C  
HETATM    3  C   UNL     1     -10.425   7.842  70.954  1.00  0.00    -0.203 C  
HETATM    4  N   UNL     1     -10.483   7.098  69.651  1.00  0.00    -0.222 NA 
HETATM    5  C   UNL     1     -10.437   6.782  72.143  1.00  0.00    -0.231 A  
HETATM    6  C   UNL     1     -11.750   8.652  71.230  1.00  0.00    -0.289 C  
HETATM    7  C   UNL     1      -9.432   6.718  73.129  1.00  0.00    -0.166 A  
HETATM    8  C   UNL     1     -11.502   4.860  73.239  1.00  0.00    -0.359 A  
HETATM    9  C   UNL     1     -10.511   7.875  68.416  1.00  0.00    -0.166 C  
HETATM   10  C   UNL     1      -9.476   6.044  69.510  1.00  0.00    -0.139 C  
HETATM   11  C   UNL     1      -9.449   5.738  74.128  1.00  0.00    -0.146 A  
HETATM   12  C   UNL     1     -10.478   4.806  74.179  1.00  0.00    -0.335 A  
HETATM   13  C   UNL     1     -11.482   5.832  72.234  1.00  0.00    -0.320 A  
ENDROOT
BRANCH   6  14
HETATM   14  O   UNL     1     -11.976   9.842  70.472  1.00  0.00    -0.267 OA 
BRANCH  14  15
HETATM   15  C   UNL     1     -12.649  10.813  71.140  1.00  0.00    -0.428 C  
HETATM   16  O   UNL     1     -13.323  10.674  72.147  1.00  0.00    -0.444 OA 
BRANCH  15  17
HETATM   17  C   UNL     1     -12.318  12.135  70.570  1.00  0.00    -0.358 A  
HETATM   18  C   UNL     1     -11.603  13.408  68.636  1.00  0.00    -0.327 A  
HETATM   19  C   UNL     1     -11.777  12.183  69.283  1.00  0.00    -0.386 A  
HETATM   20  C   UNL     1     -12.664  13.326  71.219  1.00  0.00    -0.411 A  
HETATM   21  C   UNL     1     -12.003  14.607  69.272  1.00  0.00    -0.302 A  
HETATM   22  C   UNL     1     -12.515  14.565  70.586  1.00  0.00    -0.343 A  
BRANCH  18  23
HETATM   23  O   UNL     1     -11.127  13.508  67.349  1.00  0.00    -0.270 OA 
HETATM   24  C   UNL     1     -11.824  12.764  66.354  1.00  0.00    -0.408 C  
ENDBRANCH  18  23
BRANCH  21  25
HETATM   25  O   UNL     1     -11.778  15.753  68.542  1.00  0.00    -0.383 OA 
HETATM   26  C   UNL     1     -10.599  16.495  68.831  1.00  0.00    -0.326 C  
ENDBRANCH  21  25
BRANCH  22  27
HETATM   27  O   UNL     1     -12.848  15.743  71.201  1.00  0.00    -0.486 OA 
HETATM   28  C   UNL     1     -12.012  16.211  72.254  1.00  0.00    -0.546 C  
ENDBRANCH  22  27
ENDBRANCH  15  17
ENDBRANCH  14  15
ENDBRANCH   6  14
TORSDOF 6
ENDMDL
MODEL        4
REMARK 921   NORMALIZED FREE ENERGY PREDICTED BY IDOCK:   -6.32 KCAL/MOL
REMARK 922        TOTAL FREE ENERGY PREDICTED BY IDOCK:   -9.47 KCAL/MOL
REMARK 923 INTER-LIGAND FREE ENERGY PREDICTED BY IDOCK:   -8.86 KCAL/MOL
REMARK 924 INTRA-LIGAND FREE ENERGY PREDICTED BY IDOCK:   -0.61 KCAL/MOL
REMARK 927      BINDING AFFINITY PREDICTED BY RF-SCORE:    0.00 PKD
ROOT
HETATM    1  C   UNL     1      -8.447   9.189  70.755  1.00  0.00    -0.256 C  
HETATM    2  C   UNL     1      -8.735   7.982  71.643  1.00  0.00    -0.169 C  
HETATM    3  C   UNL     1     -10.129   7.253  71.622  1.00  0.00    -0.184 C  
HETATM    4  N   UNL     1     -10.528   6.707  70.281  1.00  0.00    -0.202 NA 
HETATM    5  C   UNL     1     -10.100   6.051  72.668  1.00  0.00    -0.198 A  
HETATM    6  C   UNL     1     -11.244   8.185  72.234  1.00  0.00    -0.359 C  
HETATM    7  C   UNL     1      -8.962   5.721  73.430  1.00  0.00    -0.126 A  
HETATM    8  C   UNL     1     -11.244   4.157  73.730  1.00  0.00    -0.260 A  
HETATM    9  C   UNL     1     -10.648   7.642  69.166  1.00  0.00    -0.186 C  
HETATM   10  C   UNL     1      -9.736   5.558  69.835  1.00  0.00    -0.174 C  
HETATM   11  C   UNL     1      -8.957   4.625  74.300  1.00  0.00    -0.108 A  
HETATM   12  C   UNL     1     -10.094   3.840  74.445  1.00  0.00    -0.217 A  
HETATM   13  C   UNL     1     -11.248   5.245  72.853  1.00  0.00    -0.375 A  
ENDROOT
BRANCH   6  14
HETATM   14  O   UNL     1     -11.411   9.487  71.667  1.00  0.00    -0.381 OA 
BRANCH  14  15
HETATM   15  C   UNL     1     -12.683   9.961  71.716  1.00  0.00    -0.428 C  
HETATM   16  O   UNL     1     -13.648   9.410  72.217  1.00  0.00    -0.447 OA 
BRANCH  15  17
HETATM   17  C   UNL     1     -12.720  11.349  71.212  1.00  0.00    -0.498 A  
HETATM   18  C   UNL     1     -13.123  13.690  71.694  1.00  0.00    -0.372 A  
HETATM   19  C   UNL     1     -13.219  12.344  72.056  1.00  0.00    -0.514 A  
HETATM   20  C   UNL     1     -12.145  11.705  69.987  1.00  0.00    -0.395 A  
HETATM   21  C   UNL     1     -12.492  14.052  70.480  1.00  0.00    -0.359 A  
HETATM   22  C   UNL     1     -12.021  13.046  69.609  1.00  0.00    -0.302 A  
BRANCH  18  23
HETATM   23  O   UNL     1     -13.546  14.712  72.511  1.00  0.00    -0.409 OA 
HETATM   24  C   UNL     1     -12.644  15.124  73.533  1.00  0.00    -0.554 C  
ENDBRANCH  18  23
BRANCH  21  25
HETATM   25  O   UNL     1     -12.461  15.404  70.224  1.00  0.00    -0.376 OA 
HETATM   26  C   UNL     1     -11.193  16.050  70.260  1.00  0.00    -0.389 C  
ENDBRANCH  21  25
BRANCH  22  27
HETATM   27  O   UNL     1     -11.461  13.419  68.416  1.00  0.00    -0.273 OA 
HETATM   28  C   UNL     1     -11.524  12.503  67.328  1.00  0.00    -0.353 C  
ENDBRANCH  22  27
ENDBRANCH  15  17
ENDBRANCH  14  15
ENDBRANCH   6  14
TORSDOF 6
ENDMDL
MODEL        5
REMARK 921   NORMALIZED FREE ENERGY PREDICTED BY IDOCK:   -6.26 KCAL/MOL
REMARK 922        TOTAL FREE ENERGY PREDICTED BY IDOCK:   -9.39 KCAL/MOL
REMARK 923 INTER-LIGAND FREE ENERGY PREDICTED BY IDOCK:   -8.87 KCAL/MOL
REMARK 924 INTRA-LIGAND FREE ENERGY PREDICTED BY IDOCK:   -0.52 KCAL/MOL
REMARK 927      BINDING AFFINITY PREDICTED BY RF-SCORE:    0.00 PKD
ROOT
HETATM    1  C   UNL     1     -10.678  18.799  67.953  1.00  0.00    -0.347 C  
HETATM    2  C   UNL     1      -9.664  17.729  68.346  1.00  0.00    -0.333 C  
HETATM    3  C   UNL     1      -8.542  17.248  67.354  1.00  0.00    -0.205 C  
HETATM    4  N   UNL     1      -7.622  18.334  66.876  1.00  0.00    -0.211 NA 
HETATM    5  C   UNL     1      -7.667  16.124  68.069  1.00  0.00    -0.143 A  
HETATM    6  C   UNL     1      -9.179  16.446  66.154  1.00  0.00    -0.330 C  
HETATM    7  C   UNL     1      -7.890  15.702  69.395  1.00  0.00    -0.222 A  
HETATM    8  C   UNL     1      -5.783  14.552  67.985  1.00  0.00    -0.140 A  
HETATM    9  C   UNL     1      -8.206  19.465  66.161  1.00  0.00    -0.311 C  
HETATM   10  C   UNL     1      -6.717  18.857  67.903  1.00  0.00    -0.215 C  
HETATM   11  C   UNL     1      -7.068  14.750  70.007  1.00  0.00    -0.030 A  
HETATM   12  C   UNL     1      -6.012  14.181  69.306  1.00  0.00    -0.097 A  
HETATM   13  C   UNL     1      -6.598  15.511  67.374  1.00  0.00    -0.174 A  
ENDROOT
BRANCH   6  14
HETATM   14  O   UNL     1     -10.206  17.087  65.393  1.00  0.00    -0.605 OA 
BRANCH  14  15
HETATM   15  C   UNL     1     -11.075  16.233  64.795  1.00  0.00    -0.281 C  
HETATM   16  O   UNL     1     -11.673  16.415  63.748  1.00  0.00    -1.049 OA 
BRANCH  15  17
HETATM   17  C   UNL     1     -11.083  14.942  65.512  1.00  0.00    -0.353 A  
HETATM   18  C   UNL     1     -11.731  13.707  67.493  1.00  0.00    -0.371 A  
HETATM   19  C   UNL     1     -11.546  14.921  66.829  1.00  0.00    -0.275 A  
HETATM   20  C   UNL     1     -10.780  13.737  64.866  1.00  0.00    -0.410 A  
HETATM   21  C   UNL     1     -11.476  12.487  66.821  1.00  0.00    -0.362 A  
HETATM   22  C   UNL     1     -10.973  12.507  65.503  1.00  0.00    -0.287 A  
BRANCH  18  23
HETATM   23  O   UNL     1     -12.237  13.626  68.770  1.00  0.00    -0.339 OA 
HETATM   24  C   UNL     1     -11.741  14.574  69.711  1.00  0.00    -0.303 C  
ENDBRANCH  18  23
BRANCH  21  25
HETATM   25  O   UNL     1     -11.687  11.355  67.576  1.00  0.00    -0.568 OA 
HETATM   26  C   UNL     1     -10.622  10.915  68.411  1.00  0.00    -0.194 C  
ENDBRANCH  21  25
BRANCH  22  27
HETATM   27  O   UNL     1     -10.685  11.316  64.891  1.00  0.00    -0.303 OA 
HETATM   28  C   UNL     1     -10.207  11.347  63.550  1.00  0.00    -0.413 C  
ENDBRANCH  22  27
ENDBRANCH  15  17
ENDBRANCH  14  15
ENDBRANCH   6  14
TORSDOF 6
ENDMDL
MODEL        6
REMARK 921   NORMALIZED FREE ENERGY PREDICTED BY IDOCK:   -6.26 KCAL/MOL
REMARK 922        TOTAL FREE ENERGY PREDICTED BY IDOCK:   -9.39 KCAL/MOL
REMARK 923 INTER-LIGAND FREE ENERGY PREDICTED BY IDOCK:   -8.18 KCAL/MOL
REMARK 924 INTRA-LIGAND FREE ENERGY PREDICTED BY IDOCK:   -1.20 KCAL/MOL
REMARK 927      BINDING AFFINITY PREDICTED BY RF-SCORE:    0.00 PKD
ROOT
HETATM    1  C   UNL     1     -10.206  15.496  65.466  1.00  0.00    -0.415 C  
HETATM    2  C   UNL     1      -9.879  14.096  65.978  1.00  0.00    -0.329 C  
HETATM    3  C   UNL     1     -10.991  13.144  66.554  1.00  0.00    -0.286 C  
HETATM    4  N   UNL     1     -12.104  12.832  65.595  1.00  0.00    -0.454 NA 
HETATM    5  C   UNL     1     -10.316  11.774  67.007  1.00  0.00    -0.243 A  
HETATM    6  C   UNL     1     -11.535  13.705  67.924  1.00  0.00    -0.314 C  
HETATM    7  C   UNL     1      -8.941  11.505  66.853  1.00  0.00    -0.179 A  
HETATM    8  C   UNL     1     -10.555   9.520  67.951  1.00  0.00    -0.299 A  
HETATM    9  C   UNL     1     -12.888  13.943  65.065  1.00  0.00    -0.268 C  
HETATM   10  C   UNL     1     -11.715  11.969  64.477  1.00  0.00    -0.305 C  
HETATM   11  C   UNL     1      -8.393  10.270  67.214  1.00  0.00    -0.121 A  
HETATM   12  C   UNL     1      -9.199   9.276  67.756  1.00  0.00    -0.141 A  
HETATM   13  C   UNL     1     -11.107  10.751  67.581  1.00  0.00    -0.384 A  
ENDROOT
BRANCH   6  14
HETATM   14  O   UNL     1     -12.036  15.044  67.947  1.00  0.00    -0.291 OA 
BRANCH  14  15
HETATM   15  C   UNL     1     -11.784  15.716  69.099  1.00  0.00    -0.390 C  
HETATM   16  O   UNL     1     -12.337  15.556  70.174  1.00  0.00    -0.373 OA 
BRANCH  15  17
HETATM   17  C   UNL     1     -10.602  16.585  68.924  1.00  0.00    -0.326 A  
HETATM   18  C   UNL     1      -8.187  16.783  68.950  1.00  0.00    -0.224 A  
HETATM   19  C   UNL     1      -9.347  16.067  69.252  1.00  0.00    -0.244 A  
HETATM   20  C   UNL     1     -10.693  17.841  68.313  1.00  0.00    -0.255 A  
HETATM   21  C   UNL     1      -8.278  18.028  68.282  1.00  0.00    -0.292 A  
HETATM   22  C   UNL     1      -9.546  18.571  67.984  1.00  0.00    -0.312 A  
BRANCH  18  23
HETATM   23  O   UNL     1      -6.925  16.296  69.199  1.00  0.00    -0.182 OA 
HETATM   24  C   UNL     1      -6.837  14.926  69.582  1.00  0.00    -0.181 C  
ENDBRANCH  18  23
BRANCH  21  25
HETATM   25  O   UNL     1      -7.072  18.646  68.042  1.00  0.00    -0.229 OA 
HETATM   26  C   UNL     1      -6.654  19.649  68.960  1.00  0.00    -0.323 C  
ENDBRANCH  21  25
BRANCH  22  27
HETATM   27  O   UNL     1      -9.611  19.800  67.384  1.00  0.00    -0.320 OA 
HETATM   28  C   UNL     1     -10.202  19.888  66.092  1.00  0.00    -0.503 C  
ENDBRANCH  22  27
ENDBRANCH  15  17
ENDBRANCH  14  15
ENDBRANCH   6  14
TORSDOF 6
ENDMDL
MODEL        7
REMARK 921   NORMALIZED FREE ENERGY PREDICTED BY IDOCK:   -6.23 KCAL/MOL
REMARK 922        TOTAL FREE ENERGY PREDICTED BY IDOCK:   -9.35 KCAL/MOL
REMARK 923 INTER-LIGAND FREE ENERGY PREDICTED BY IDOCK:   -8.38 KCAL/MOL
REMARK 924 INTRA-LIGAND FREE ENERGY PREDICTED BY IDOCK:   -0.97 KCAL/MOL
REMARK 927      BINDING AFFINITY PREDICTED BY RF-SCORE:    0.00 PKD
ROOT
HETATM    1  C   UNL     1      -8.453  12.464  68.189  1.00  0.00    -0.180 C  
HETATM    2  C   UNL     1      -9.103  11.106  68.437  1.00  0.00    -0.168 C  
HETATM    3  C   UNL     1      -9.388  10.099  67.262  1.00  0.00    -0.152 C  
HETATM    4  N   UNL     1      -8.170   9.683  66.488  1.00  0.00    -0.119 NA 
HETATM    5  C   UNL     1     -10.078   8.792  67.858  1.00  0.00    -0.257 A  
HETATM    6  C   UNL     1     -10.520  10.662  66.320  1.00  0.00    -0.203 C  
HETATM    7  C   UNL     1     -10.330   8.613  69.232  1.00  0.00    -0.228 A  
HETATM    8  C   UNL     1     -11.024   6.557  67.489  1.00  0.00    -0.444 A  
HETATM    9  C   UNL     1      -7.388  10.721  65.824  1.00  0.00    -0.061 C  
HETATM   10  C   UNL     1      -7.250   8.814  67.227  1.00  0.00    -0.080 C  
HETATM   11  C   UNL     1     -10.891   7.429  69.725  1.00  0.00    -0.246 A  
HETATM   12  C   UNL     1     -11.231   6.400  68.855  1.00  0.00    -0.385 A  
HETATM   13  C   UNL     1     -10.455   7.735  66.996  1.00  0.00    -0.419 A  
ENDROOT
BRANCH   6  14
HETATM   14  O   UNL     1     -10.337  11.964  65.759  1.00  0.00    -0.232 OA 
BRANCH  14  15
HETATM   15  C   UNL     1     -11.460  12.725  65.730  1.00  0.00    -0.348 C  
HETATM   16  O   UNL     1     -12.584  12.358  65.430  1.00  0.00    -0.637 OA 
BRANCH  15  17
HETATM   17  C   UNL     1     -11.173  14.064  66.282  1.00  0.00    -0.320 A  
HETATM   18  C   UNL     1     -11.352  15.583  68.162  1.00  0.00    -0.345 A  
HETATM   19  C   UNL     1     -11.725  14.400  67.520  1.00  0.00    -0.416 A  
HETATM   20  C   UNL     1     -10.259  14.933  65.674  1.00  0.00    -0.382 A  
HETATM   21  C   UNL     1     -10.387  16.434  67.572  1.00  0.00    -0.288 A  
HETATM   22  C   UNL     1      -9.856  16.115  66.304  1.00  0.00    -0.307 A  
BRANCH  18  23
HETATM   23  O   UNL     1     -11.822  15.935  69.406  1.00  0.00    -0.362 OA 
HETATM   24  C   UNL     1     -12.174  14.865  70.279  1.00  0.00    -0.335 C  
ENDBRANCH  18  23
BRANCH  21  25
HETATM   25  O   UNL     1     -10.102  17.573  68.290  1.00  0.00    -0.304 OA 
HETATM   26  C   UNL     1     -10.550  18.814  67.759  1.00  0.00    -0.390 C  
ENDBRANCH  21  25
BRANCH  22  27
HETATM   27  O   UNL     1      -8.962  16.980  65.729  1.00  0.00    -0.526 OA 
HETATM   28  C   UNL     1      -7.619  16.972  66.202  1.00  0.00    -0.245 C  
ENDBRANCH  22  27
ENDBRANCH  15  17
ENDBRANCH  14  15
ENDBRANCH   6  14
TORSDOF 6
ENDMDL
MODEL        8
REMARK 921   NORMALIZED FREE ENERGY PREDICTED BY IDOCK:   -6.21 KCAL/MOL
REMARK 922        TOTAL FREE ENERGY PREDICTED BY IDOCK:   -9.33 KCAL/MOL
REMARK 923 INTER-LIGAND FREE ENERGY PREDICTED BY IDOCK:   -8.47 KCAL/MOL
REMARK 924 INTRA-LIGAND FREE ENERGY PREDICTED BY IDOCK:   -0.86 KCAL/MOL
REMARK 927      BINDING AFFINITY PREDICTED BY RF-SCORE:    0.00 PKD
ROOT
HETATM    1  C   UNL     1     -10.218   8.553  68.280  1.00  0.00    -0.244 C  
HETATM    2  C   UNL     1      -9.341   8.489  69.527  1.00  0.00    -0.161 C  
HETATM    3  C   UNL     1      -9.941   8.163  70.945  1.00  0.00    -0.187 C  
HETATM    4  N   UNL     1     -10.643   6.839  71.035  1.00  0.00    -0.219 NA 
HETATM    5  C   UNL     1      -8.765   8.186  72.020  1.00  0.00    -0.221 A  
HETATM    6  C   UNL     1     -10.854   9.349  71.439  1.00  0.00    -0.360 C  
HETATM    7  C   UNL     1      -7.418   8.427  71.685  1.00  0.00    -0.118 A  
HETATM    8  C   UNL     1      -8.038   7.911  74.349  1.00  0.00    -0.293 A  
HETATM    9  C   UNL     1     -11.782   6.602  70.154  1.00  0.00    -0.351 C  
HETATM   10  C   UNL     1      -9.755   5.676  70.963  1.00  0.00    -0.173 C  
HETATM   11  C   UNL     1      -6.406   8.387  72.650  1.00  0.00    -0.087 A  
HETATM   12  C   UNL     1      -6.714   8.122  73.978  1.00  0.00    -0.148 A  
HETATM   13  C   UNL     1      -9.050   7.940  73.385  1.00  0.00    -0.347 A  
ENDROOT
BRANCH   6  14
HETATM   14  O   UNL     1     -11.922   9.770  70.587  1.00  0.00    -0.277 OA 
BRANCH  14  15
HETATM   15  C   UNL     1     -12.693  10.762  71.102  1.00  0.00    -0.431 C  
HETATM   16  O   UNL     1     -13.487  10.666  72.022  1.00  0.00    -0.375 OA 
BRANCH  15  17
HETATM   17  C   UNL     1     -12.318  12.055  70.495  1.00  0.00    -0.369 A  
HETATM   18  C   UNL     1     -11.560  13.247  68.526  1.00  0.00    -0.333 A  
HETATM   19  C   UNL     1     -11.776  12.048  69.208  1.00  0.00    -0.389 A  
HETATM   20  C   UNL     1     -12.622  13.275  71.111  1.00  0.00    -0.412 A  
HETATM   21  C   UNL     1     -11.919  14.477  69.129  1.00  0.00    -0.309 A  
HETATM   22  C   UNL     1     -12.432  14.489  70.443  1.00  0.00    -0.347 A  
BRANCH  18  23
HETATM   23  O   UNL     1     -11.082  13.295  67.237  1.00  0.00    -0.267 OA 
HETATM   24  C   UNL     1     -11.866  12.642  66.244  1.00  0.00    -0.410 C  
ENDBRANCH  18  23
BRANCH  21  25
HETATM   25  O   UNL     1     -11.655  15.593  68.367  1.00  0.00    -0.365 OA 
HETATM   26  C   UNL     1     -10.487  16.342  68.681  1.00  0.00    -0.293 C  
ENDBRANCH  21  25
BRANCH  22  27
HETATM   27  O   UNL     1     -12.723  15.695  71.024  1.00  0.00    -0.444 OA 
HETATM   28  C   UNL     1     -11.965  16.094  72.162  1.00  0.00    -0.537 C  
ENDBRANCH  22  27
ENDBRANCH  15  17
ENDBRANCH  14  15
ENDBRANCH   6  14
TORSDOF 6
ENDMDL
MODEL        9
REMARK 921   NORMALIZED FREE ENERGY PREDICTED BY IDOCK:   -6.18 KCAL/MOL
REMARK 922        TOTAL FREE ENERGY PREDICTED BY IDOCK:   -9.28 KCAL/MOL
REMARK 923 INTER-LIGAND FREE ENERGY PREDICTED BY IDOCK:   -8.16 KCAL/MOL
REMARK 924 INTRA-LIGAND FREE ENERGY PREDICTED BY IDOCK:   -1.12 KCAL/MOL
REMARK 927      BINDING AFFINITY PREDICTED BY RF-SCORE:    0.00 PKD
ROOT
HETATM    1  C   UNL     1     -10.256  15.540  65.445  1.00  0.00    -0.409 C  
HETATM    2  C   UNL     1      -9.924  14.118  65.887  1.00  0.00    -0.331 C  
HETATM    3  C   UNL     1     -11.016  13.164  66.498  1.00  0.00    -0.286 C  
HETATM    4  N   UNL     1     -12.191  12.904  65.599  1.00  0.00    -0.473 NA 
HETATM    5  C   UNL     1     -10.339  11.768  66.861  1.00  0.00    -0.247 A  
HETATM    6  C   UNL     1     -11.465  13.684  67.917  1.00  0.00    -0.314 C  
HETATM    7  C   UNL     1      -8.981  11.483  66.612  1.00  0.00    -0.185 A  
HETATM    8  C   UNL     1     -10.560   9.487  67.740  1.00  0.00    -0.318 A  
HETATM    9  C   UNL     1     -12.986  14.045  65.158  1.00  0.00    -0.223 C  
HETATM   10  C   UNL     1     -11.887  12.074  64.430  1.00  0.00    -0.313 C  
HETATM   11  C   UNL     1      -8.434  10.227  66.897  1.00  0.00    -0.126 A  
HETATM   12  C   UNL     1      -9.224   9.228  67.453  1.00  0.00    -0.145 A  
HETATM   13  C   UNL     1     -11.111  10.738  67.447  1.00  0.00    -0.363 A  
ENDROOT
BRANCH   6  14
HETATM   14  O   UNL     1     -11.938  15.030  68.017  1.00  0.00    -0.296 OA 
BRANCH  14  15
HETATM   15  C   UNL     1     -11.538  15.683  69.138  1.00  0.00    -0.383 C  
HETATM   16  O   UNL     1     -11.992  15.551  70.262  1.00  0.00    -0.322 OA 
BRANCH  15  17
HETATM   17  C   UNL     1     -10.332  16.485  68.847  1.00  0.00    -0.292 A  
HETATM   18  C   UNL     1      -9.411  18.623  68.175  1.00  0.00    -0.318 A  
HETATM   19  C   UNL     1     -10.503  17.764  68.312  1.00  0.00    -0.368 A  
HETATM   20  C   UNL     1      -9.053  16.058  69.223  1.00  0.00    -0.235 A  
HETATM   21  C   UNL     1      -8.127  18.210  68.606  1.00  0.00    -0.288 A  
HETATM   22  C   UNL     1      -7.946  16.905  69.112  1.00  0.00    -0.102 A  
BRANCH  18  23
HETATM   23  O   UNL     1      -9.531  19.911  67.706  1.00  0.00    -0.337 OA 
HETATM   24  C   UNL     1     -10.068  20.063  66.396  1.00  0.00    -0.487 C  
ENDBRANCH  18  23
BRANCH  21  25
HETATM   25  O   UNL     1      -7.127  19.136  68.416  1.00  0.00    -0.258 OA 
HETATM   26  C   UNL     1      -6.658  19.840  69.560  1.00  0.00    -0.353 C  
ENDBRANCH  21  25
BRANCH  22  27
HETATM   27  O   UNL     1      -6.686  16.510  69.475  1.00  0.00    -0.220 OA 
HETATM   28  C   UNL     1      -6.475  15.136  69.784  1.00  0.00    -0.166 C  
ENDBRANCH  22  27
ENDBRANCH  15  17
ENDBRANCH  14  15
ENDBRANCH   6  14
TORSDOF 6
ENDMDL
MODEL       10
REMARK 921   NORMALIZED FREE ENERGY PREDICTED BY IDOCK:   -6.13 KCAL/MOL
REMARK 922        TOTAL FREE ENERGY PREDICTED BY IDOCK:   -9.22 KCAL/MOL
REMARK 923 INTER-LIGAND FREE ENERGY PREDICTED BY IDOCK:   -9.14 KCAL/MOL
REMARK 924 INTRA-LIGAND FREE ENERGY PREDICTED BY IDOCK:   -0.08 KCAL/MOL
REMARK 927      BINDING AFFINITY PREDICTED BY RF-SCORE:    0.00 PKD
ROOT
HETATM    1  C   UNL     1      -8.580  14.403  68.631  1.00  0.00    -0.161 C  
HETATM    2  C   UNL     1      -9.321  13.778  67.453  1.00  0.00    -0.226 C  
HETATM    3  C   UNL     1     -10.805  14.172  67.105  1.00  0.00    -0.290 C  
HETATM    4  N   UNL     1     -11.011  15.631  66.815  1.00  0.00    -0.279 NA 
HETATM    5  C   UNL     1     -11.278  13.333  65.837  1.00  0.00    -0.309 A  
HETATM    6  C   UNL     1     -11.787  13.650  68.223  1.00  0.00    -0.369 C  
HETATM    7  C   UNL     1     -10.441  12.427  65.155  1.00  0.00    -0.321 A  
HETATM    8  C   UNL     1     -13.026  12.803  64.196  1.00  0.00    -0.083 A  
HETATM    9  C   UNL     1     -10.668  16.595  67.856  1.00  0.00    -0.344 C  
HETATM   10  C   UNL     1     -10.421  16.087  65.554  1.00  0.00    -0.405 C  
HETATM   11  C   UNL     1     -10.875  11.747  64.013  1.00  0.00    -0.446 A  
HETATM   12  C   UNL     1     -12.163  11.940  63.529  1.00  0.00    -0.591 A  
HETATM   13  C   UNL     1     -12.591  13.492  65.333  1.00  0.00    -0.531 A  
ENDROOT
BRANCH   6  14
HETATM   14  O   UNL     1     -11.526  14.035  69.575  1.00  0.00    -0.259 OA 
BRANCH  14  15
HETATM   15  C   UNL     1     -12.409  13.539  70.479  1.00  0.00    -0.342 C  
HETATM   16  O   UNL     1     -13.280  14.158  71.065  1.00  0.00    -0.336 OA 
BRANCH  15  17
HETATM   17  C   UNL     1     -12.283  12.068  70.547  1.00  0.00    -0.414 A  
HETATM   18  C   UNL     1     -10.952  10.104  70.055  1.00  0.00    -0.307 A  
HETATM   19  C   UNL     1     -11.210  11.466  69.886  1.00  0.00    -0.221 A  
HETATM   20  C   UNL     1     -13.115  11.293  71.363  1.00  0.00    -0.395 A  
HETATM   21  C   UNL     1     -11.761   9.333  70.923  1.00  0.00    -0.296 A  
HETATM   22  C   UNL     1     -12.868   9.931  71.563  1.00  0.00    -0.421 A  
BRANCH  18  23
HETATM   23  O   UNL     1      -9.877   9.473  69.473  1.00  0.00    -0.173 OA 
HETATM   24  C   UNL     1      -8.594  10.038  69.726  1.00  0.00    -0.173 C  
ENDBRANCH  18  23
BRANCH  21  25
HETATM   25  O   UNL     1     -11.417   8.003  71.007  1.00  0.00    -0.274 OA 
HETATM   26  C   UNL     1     -10.595   7.605  72.098  1.00  0.00    -0.232 C  
ENDBRANCH  21  25
BRANCH  22  27
HETATM   27  O   UNL     1     -13.667   9.153  72.358  1.00  0.00    -0.464 OA 
HETATM   28  C   UNL     1     -14.393   8.091  71.747  1.00  0.00    -0.478 C  
ENDBRANCH  22  27
ENDBRANCH  15  17
ENDBRANCH  14  15
ENDBRANCH   6  14
TORSDOF 6
ENDMDL
MODEL       11
REMARK 921   NORMALIZED FREE ENERGY PREDICTED BY IDOCK:   -6.11 KCAL/MOL
REMARK 922        TOTAL FREE ENERGY PREDICTED BY IDOCK:   -9.18 KCAL/MOL
REMARK 923 INTER-LIGAND FREE ENERGY PREDICTED BY IDOCK:   -8.38 KCAL/MOL
REMARK 924 INTRA-LIGAND FREE ENERGY PREDICTED BY IDOCK:   -0.80 KCAL/MOL
REMARK 927      BINDING AFFINITY PREDICTED BY RF-SCORE:    0.00 PKD
ROOT
HETATM    1  C   UNL     1     -10.274   8.558  68.445  1.00  0.00    -0.236 C  
HETATM    2  C   UNL     1      -9.304   8.571  69.623  1.00  0.00    -0.157 C  
HETATM    3  C   UNL     1      -9.737   8.086  71.056  1.00  0.00    -0.160 C  
HETATM    4  N   UNL     1     -10.221   6.666  71.115  1.00  0.00    -0.193 NA 
HETATM    5  C   UNL     1      -8.500   8.241  72.049  1.00  0.00    -0.227 A  
HETATM    6  C   UNL     1     -10.780   9.091  71.682  1.00  0.00    -0.371 C  
HETATM    7  C   UNL     1      -7.235   8.705  71.638  1.00  0.00    -0.109 A  
HETATM    8  C   UNL     1      -7.563   7.970  74.302  1.00  0.00    -0.246 A  
HETATM    9  C   UNL     1     -11.375   6.298  70.301  1.00  0.00    -0.388 C  
HETATM   10  C   UNL     1      -9.175   5.661  70.913  1.00  0.00    -0.155 C  
HETATM   11  C   UNL     1      -6.158   8.777  72.527  1.00  0.00    -0.065 A  
HETATM   12  C   UNL     1      -6.319   8.403  73.855  1.00  0.00    -0.136 A  
HETATM   13  C   UNL     1      -8.639   7.887  73.412  1.00  0.00    -0.285 A  
ENDROOT
BRANCH   6  14
HETATM   14  O   UNL     1     -11.962   9.380  70.931  1.00  0.00    -0.288 OA 
BRANCH  14  15
HETATM   15  C   UNL     1     -12.868  10.150  71.587  1.00  0.00    -0.454 C  
HETATM   16  O   UNL     1     -13.565   9.814  72.529  1.00  0.00    -0.356 OA 
BRANCH  15  17
HETATM   17  C   UNL     1     -12.784  11.544  71.105  1.00  0.00    -0.458 A  
HETATM   18  C   UNL     1     -13.067  13.899  71.599  1.00  0.00    -0.367 A  
HETATM   19  C   UNL     1     -13.272  12.558  71.932  1.00  0.00    -0.495 A  
HETATM   20  C   UNL     1     -12.109  11.878  69.926  1.00  0.00    -0.344 A  
HETATM   21  C   UNL     1     -12.337  14.235  70.434  1.00  0.00    -0.352 A  
HETATM   22  C   UNL     1     -11.875  13.212  69.579  1.00  0.00    -0.322 A  
BRANCH  18  23
HETATM   23  O   UNL     1     -13.477  14.937  72.405  1.00  0.00    -0.357 OA 
HETATM   24  C   UNL     1     -12.690  15.189  73.565  1.00  0.00    -0.547 C  
ENDBRANCH  18  23
BRANCH  21  25
HETATM   25  O   UNL     1     -12.203  15.586  70.205  1.00  0.00    -0.357 OA 
HETATM   26  C   UNL     1     -10.922  16.166  70.425  1.00  0.00    -0.309 C  
ENDBRANCH  21  25
BRANCH  22  27
HETATM   27  O   UNL     1     -11.215  13.563  68.431  1.00  0.00    -0.249 OA 
HETATM   28  C   UNL     1     -11.988  13.823  67.264  1.00  0.00    -0.401 C  
ENDBRANCH  22  27
ENDBRANCH  15  17
ENDBRANCH  14  15
ENDBRANCH   6  14
TORSDOF 6
ENDMDL
MODEL       12
REMARK 921   NORMALIZED FREE ENERGY PREDICTED BY IDOCK:   -6.09 KCAL/MOL
REMARK 922        TOTAL FREE ENERGY PREDICTED BY IDOCK:   -9.17 KCAL/MOL
REMARK 923 INTER-LIGAND FREE ENERGY PREDICTED BY IDOCK:   -8.41 KCAL/MOL
REMARK 924 INTRA-LIGAND FREE ENERGY PREDICTED BY IDOCK:   -0.76 KCAL/MOL
REMARK 927      BINDING AFFINITY PREDICTED BY RF-SCORE:    0.00 PKD
ROOT
HETATM    1  C   UNL     1     -11.037   6.552  69.040  1.00  0.00    -0.375 C  
HETATM    2  C   UNL     1      -9.989   6.614  70.148  1.00  0.00    -0.190 C  
HETATM    3  C   UNL     1     -10.268   7.351  71.510  1.00  0.00    -0.192 C  
HETATM    4  N   UNL     1     -11.447   6.824  72.276  1.00  0.00    -0.270 NA 
HETATM    5  C   UNL     1      -8.974   7.239  72.433  1.00  0.00    -0.149 A  
HETATM    6  C   UNL     1     -10.365   8.909  71.279  1.00  0.00    -0.285 C  
HETATM    7  C   UNL     1      -7.812   6.541  72.048  1.00  0.00    -0.099 A  
HETATM    8  C   UNL     1      -7.861   7.727  74.566  1.00  0.00    -0.250 A  
HETATM    9  C   UNL     1     -12.756   6.854  71.632  1.00  0.00    -0.352 C  
HETATM   10  C   UNL     1     -11.248   5.491  72.851  1.00  0.00    -0.305 C  
HETATM   11  C   UNL     1      -6.714   6.419  72.907  1.00  0.00    -0.069 A  
HETATM   12  C   UNL     1      -6.741   7.004  74.167  1.00  0.00    -0.081 A  
HETATM   13  C   UNL     1      -8.963   7.842  73.713  1.00  0.00    -0.335 A  
ENDROOT
BRANCH   6  14
HETATM   14  O   UNL     1     -11.305   9.384  70.312  1.00  0.00    -0.249 OA 
BRANCH  14  15
HETATM   15  C   UNL     1     -12.084  10.408  70.744  1.00  0.00    -0.364 C  
HETATM   16  O   UNL     1     -12.713  10.458  71.788  1.00  0.00    -0.416 OA 
BRANCH  15  17
HETATM   17  C   UNL     1     -11.941  11.564  69.836  1.00  0.00    -0.426 A  
HETATM   18  C   UNL     1     -11.882  12.377  67.554  1.00  0.00    -0.284 A  
HETATM   19  C   UNL     1     -11.851  11.318  68.464  1.00  0.00    -0.355 A  
HETATM   20  C   UNL     1     -12.038  12.882  70.297  1.00  0.00    -0.377 A  
HETATM   21  C   UNL     1     -12.035  13.705  68.019  1.00  0.00    -0.350 A  
HETATM   22  C   UNL     1     -12.089  13.959  69.406  1.00  0.00    -0.337 A  
BRANCH  18  23
HETATM   23  O   UNL     1     -11.853  12.189  66.191  1.00  0.00    -0.543 OA 
HETATM   24  C   UNL     1     -10.726  11.491  65.670  1.00  0.00    -0.267 C  
ENDBRANCH  18  23
BRANCH  21  25
HETATM   25  O   UNL     1     -12.047  14.666  67.033  1.00  0.00    -0.357 OA 
HETATM   26  C   UNL     1     -10.823  15.337  66.755  1.00  0.00    -0.312 C  
ENDBRANCH  21  25
BRANCH  22  27
HETATM   27  O   UNL     1     -12.185  15.256  69.834  1.00  0.00    -0.329 OA 
HETATM   28  C   UNL     1     -12.823  15.507  71.082  1.00  0.00    -0.489 C  
ENDBRANCH  22  27
ENDBRANCH  15  17
ENDBRANCH  14  15
ENDBRANCH   6  14
TORSDOF 6
ENDMDL
MODEL       13
REMARK 921   NORMALIZED FREE ENERGY PREDICTED BY IDOCK:   -6.09 KCAL/MOL
REMARK 922        TOTAL FREE ENERGY PREDICTED BY IDOCK:   -9.16 KCAL/MOL
REMARK 923 INTER-LIGAND FREE ENERGY PREDICTED BY IDOCK:   -8.33 KCAL/MOL
REMARK 924 INTRA-LIGAND FREE ENERGY PREDICTED BY IDOCK:   -0.83 KCAL/MOL
REMARK 927      BINDING AFFINITY PREDICTED BY RF-SCORE:    0.00 PKD
ROOT
HETATM    1  C   UNL     1      -8.231  12.092  68.203  1.00  0.00    -0.163 C  
HETATM    2  C   UNL     1      -8.857  10.734  68.509  1.00  0.00    -0.149 C  
HETATM    3  C   UNL     1      -9.325   9.761  67.365  1.00  0.00    -0.134 C  
HETATM    4  N   UNL     1      -8.240   9.353  66.410  1.00  0.00    -0.110 NA 
HETATM    5  C   UNL     1      -9.939   8.447  68.023  1.00  0.00    -0.221 A  
HETATM    6  C   UNL     1     -10.575  10.361  66.614  1.00  0.00    -0.178 C  
HETATM    7  C   UNL     1      -9.989   8.233  69.415  1.00  0.00    -0.188 A  
HETATM    8  C   UNL     1     -10.960   6.232  67.742  1.00  0.00    -0.427 A  
HETATM    9  C   UNL     1      -7.549  10.401  65.664  1.00  0.00    -0.150 C  
HETATM   10  C   UNL     1      -7.234   8.456  66.984  1.00  0.00    -0.080 C  
HETATM   11  C   UNL     1     -10.488   7.043  69.955  1.00  0.00    -0.233 A  
HETATM   12  C   UNL     1     -10.966   6.041  69.120  1.00  0.00    -0.429 A  
HETATM   13  C   UNL     1     -10.453   7.417  67.200  1.00  0.00    -0.403 A  
ENDROOT
BRANCH   6  14
HETATM   14  O   UNL     1     -10.458  11.675  66.064  1.00  0.00    -0.236 OA 
BRANCH  14  15
HETATM   15  C   UNL     1     -11.583  12.428  66.166  1.00  0.00    -0.396 C  
HETATM   16  O   UNL     1     -12.519  12.451  65.385  1.00  0.00    -0.637 OA 
BRANCH  15  17
HETATM   17  C   UNL     1     -11.607  13.120  67.470  1.00  0.00    -0.398 A  
HETATM   18  C   UNL     1     -11.625  15.226  68.669  1.00  0.00    -0.354 A  
HETATM   19  C   UNL     1     -11.445  14.507  67.485  1.00  0.00    -0.375 A  
HETATM   20  C   UNL     1     -11.927  12.449  68.656  1.00  0.00    -0.272 A  
HETATM   21  C   UNL     1     -12.002  14.553  69.855  1.00  0.00    -0.328 A  
HETATM   22  C   UNL     1     -12.130  13.148  69.851  1.00  0.00    -0.287 A  
BRANCH  18  23
HETATM   23  O   UNL     1     -11.532  16.598  68.728  1.00  0.00    -0.238 OA 
HETATM   24  C   UNL     1     -10.591  17.209  67.850  1.00  0.00    -0.376 C  
ENDBRANCH  18  23
BRANCH  21  25
HETATM   25  O   UNL     1     -12.145  15.361  70.960  1.00  0.00    -0.302 OA 
HETATM   26  C   UNL     1     -13.442  15.465  71.534  1.00  0.00    -0.513 C  
ENDBRANCH  21  25
BRANCH  22  27
HETATM   27  O   UNL     1     -12.446  12.513  71.023  1.00  0.00    -0.369 OA 
HETATM   28  C   UNL     1     -12.338  11.093  71.069  1.00  0.00    -0.382 C  
ENDBRANCH  22  27
ENDBRANCH  15  17
ENDBRANCH  14  15
ENDBRANCH   6  14
TORSDOF 6
ENDMDL
MODEL       14
REMARK 921   NORMALIZED FREE ENERGY PREDICTED BY IDOCK:   -6.08 KCAL/MOL
REMARK 922        TOTAL FREE ENERGY PREDICTED BY IDOCK:   -9.15 KCAL/MOL
REMARK 923 INTER-LIGAND FREE ENERGY PREDICTED BY IDOCK:   -8.14 KCAL/MOL
REMARK 924 INTRA-LIGAND FREE ENERGY PREDICTED BY IDOCK:   -1.01 KCAL/MOL
REMARK 927      BINDING AFFINITY PREDICTED BY RF-SCORE:    0.00 PKD
ROOT
HETATM    1  C   UNL     1      -8.169  12.262  67.903  1.00  0.00    -0.161 C  
HETATM    2  C   UNL     1      -8.772  10.906  68.255  1.00  0.00    -0.140 C  
HETATM    3  C   UNL     1      -9.337   9.939  67.149  1.00  0.00    -0.146 C  
HETATM    4  N   UNL     1      -8.337   9.532  66.106  1.00  0.00    -0.114 NA 
HETATM    5  C   UNL     1      -9.899   8.623  67.851  1.00  0.00    -0.211 A  
HETATM    6  C   UNL     1     -10.644  10.546  66.508  1.00  0.00    -0.174 C  
HETATM    7  C   UNL     1      -9.833   8.404  69.241  1.00  0.00    -0.186 A  
HETATM    8  C   UNL     1     -10.947   6.413  67.647  1.00  0.00    -0.441 A  
HETATM    9  C   UNL     1      -7.707  10.581  65.310  1.00  0.00    -0.085 C  
HETATM   10  C   UNL     1      -7.289   8.630  66.590  1.00  0.00    -0.081 C  
HETATM   11  C   UNL     1     -10.289   7.213  69.816  1.00  0.00    -0.224 A  
HETATM   12  C   UNL     1     -10.839   6.215  69.020  1.00  0.00    -0.416 A  
HETATM   13  C   UNL     1     -10.482   7.598  67.069  1.00  0.00    -0.419 A  
ENDROOT
BRANCH   6  14
HETATM   14  O   UNL     1     -10.568  11.862  65.955  1.00  0.00    -0.248 OA 
BRANCH  14  15
HETATM   15  C   UNL     1     -11.725  12.568  66.030  1.00  0.00    -0.417 C  
HETATM   16  O   UNL     1     -12.662  12.520  65.251  1.00  0.00    -0.654 OA 
BRANCH  15  17
HETATM   17  C   UNL     1     -11.778  13.310  67.306  1.00  0.00    -0.424 A  
HETATM   18  C   UNL     1     -12.029  13.220  69.715  1.00  0.00    -0.324 A  
HETATM   19  C   UNL     1     -12.125  12.608  68.463  1.00  0.00    -0.130 A  
HETATM   20  C   UNL     1     -11.356  14.641  67.405  1.00  0.00    -0.368 A  
HETATM   21  C   UNL     1     -11.550  14.548  69.818  1.00  0.00    -0.295 A  
HETATM   22  C   UNL     1     -11.235  15.271  68.648  1.00  0.00    -0.296 A  
BRANCH  18  23
HETATM   23  O   UNL     1     -12.304  12.559  70.890  1.00  0.00    -0.372 OA 
HETATM   24  C   UNL     1     -12.318  11.136  70.830  1.00  0.00    -0.406 C  
ENDBRANCH  18  23
BRANCH  21  25
HETATM   25  O   UNL     1     -11.504  15.049  71.099  1.00  0.00    -0.317 OA 
HETATM   26  C   UNL     1     -12.624  15.801  71.552  1.00  0.00    -0.455 C  
ENDBRANCH  21  25
BRANCH  22  27
HETATM   27  O   UNL     1     -10.822  16.571  68.769  1.00  0.00    -0.308 OA 
HETATM   28  C   UNL     1     -10.247  17.204  67.630  1.00  0.00    -0.329 C  
ENDBRANCH  22  27
ENDBRANCH  15  17
ENDBRANCH  14  15
ENDBRANCH   6  14
TORSDOF 6
ENDMDL
MODEL       15
REMARK 921   NORMALIZED FREE ENERGY PREDICTED BY IDOCK:   -6.08 KCAL/MOL
REMARK 922        TOTAL FREE ENERGY PREDICTED BY IDOCK:   -9.15 KCAL/MOL
REMARK 923 INTER-LIGAND FREE ENERGY PREDICTED BY IDOCK:   -8.24 KCAL/MOL
REMARK 924 INTRA-LIGAND FREE ENERGY PREDICTED BY IDOCK:   -0.91 KCAL/MOL
REMARK 927      BINDING AFFINITY PREDICTED BY RF-SCORE:    0.00 PKD
ROOT
HETATM    1  C   UNL     1      -8.598  10.436  68.298  1.00  0.00    -0.128 C  
HETATM    2  C   UNL     1      -8.816   9.734  69.635  1.00  0.00    -0.224 C  
HETATM    3  C   UNL     1     -10.103   8.874  69.918  1.00  0.00    -0.195 C  
HETATM    4  N   UNL     1     -10.308   7.727  68.970  1.00  0.00    -0.209 NA 
HETATM    5  C   UNL     1     -10.022   8.295  71.401  1.00  0.00    -0.250 A  
HETATM    6  C   UNL     1     -11.375   9.802  70.003  1.00  0.00    -0.220 C  
HETATM    7  C   UNL     1      -8.927   8.522  72.258  1.00  0.00    -0.299 A  
HETATM    8  C   UNL     1     -11.019   6.940  73.188  1.00  0.00    -0.297 A  
HETATM    9  C   UNL     1     -10.439   8.025  67.548  1.00  0.00    -0.260 C  
HETATM   10  C   UNL     1      -9.345   6.634  69.125  1.00  0.00    -0.134 C  
HETATM   11  C   UNL     1      -8.868   7.954  73.535  1.00  0.00    -0.333 A  
HETATM   12  C   UNL     1      -9.909   7.158  73.997  1.00  0.00    -0.314 A  
HETATM   13  C   UNL     1     -11.076   7.498  71.908  1.00  0.00    -0.277 A  
ENDROOT
BRANCH   6  14
HETATM   14  O   UNL     1     -11.647  10.665  68.895  1.00  0.00    -0.274 OA 
BRANCH  14  15
HETATM   15  C   UNL     1     -11.900  11.954  69.238  1.00  0.00    -0.318 C  
HETATM   16  O   UNL     1     -12.152  12.377  70.354  1.00  0.00    -0.359 OA 
BRANCH  15  17
HETATM   17  C   UNL     1     -11.664  12.837  68.078  1.00  0.00    -0.405 A  
HETATM   18  C   UNL     1     -11.100  15.053  67.275  1.00  0.00    -0.334 A  
HETATM   19  C   UNL     1     -11.490  14.203  68.312  1.00  0.00    -0.335 A  
HETATM   20  C   UNL     1     -11.468  12.326  66.789  1.00  0.00    -0.421 A  
HETATM   21  C   UNL     1     -10.851  14.526  65.985  1.00  0.00    -0.310 A  
HETATM   22  C   UNL     1     -11.061  13.153  65.737  1.00  0.00    -0.273 A  
BRANCH  18  23
HETATM   23  O   UNL     1     -10.862  16.395  67.462  1.00  0.00    -0.315 OA 
HETATM   24  C   UNL     1     -10.297  16.771  68.715  1.00  0.00    -0.318 C  
ENDBRANCH  18  23
BRANCH  21  25
HETATM   25  O   UNL     1     -10.478  15.457  65.041  1.00  0.00    -0.406 OA 
HETATM   26  C   UNL     1     -11.516  16.146  64.353  1.00  0.00    -0.193 C  
ENDBRANCH  21  25
BRANCH  22  27
HETATM   27  O   UNL     1     -10.862  12.675  64.469  1.00  0.00    -0.300 OA 
HETATM   28  C   UNL     1     -12.001  12.484  63.636  1.00  0.00    -0.537 C  
ENDBRANCH  22  27
ENDBRANCH  15  17
ENDBRANCH  14  15
ENDBRANCH   6  14
TORSDOF 6
ENDMDL
MODEL       16
REMARK 921   NORMALIZED FREE ENERGY PREDICTED BY IDOCK:   -6.04 KCAL/MOL
REMARK 922        TOTAL FREE ENERGY PREDICTED BY IDOCK:   -9.10 KCAL/MOL
REMARK 923 INTER-LIGAND FREE ENERGY PREDICTED BY IDOCK:   -8.63 KCAL/MOL
REMARK 924 INTRA-LIGAND FREE ENERGY PREDICTED BY IDOCK:   -0.47 KCAL/MOL
REMARK 927      BINDING AFFINITY PREDICTED BY RF-SCORE:    0.00 PKD
ROOT
HETATM    1  C   UNL     1     -11.436   6.683  72.729  1.00  0.00    -0.167 C  
HETATM    2  C   UNL     1     -11.122   6.571  71.240  1.00  0.00    -0.321 C  
HETATM    3  C   UNL     1     -10.198   7.614  70.508  1.00  0.00    -0.201 C  
HETATM    4  N   UNL     1      -8.812   7.725  71.073  1.00  0.00    -0.139 NA 
HETATM    5  C   UNL     1     -10.086   7.215  68.969  1.00  0.00    -0.183 A  
HETATM    6  C   UNL     1     -10.915   9.016  70.426  1.00  0.00    -0.247 C  
HETATM    7  C   UNL     1     -10.707   6.074  68.422  1.00  0.00    -0.351 A  
HETATM    8  C   UNL     1      -9.166   7.669  66.739  1.00  0.00    -0.197 A  
HETATM    9  C   UNL     1      -8.668   8.110  72.474  1.00  0.00    -0.203 C  
HETATM   10  C   UNL     1      -7.963   6.556  70.828  1.00  0.00    -0.115 C  
HETATM   11  C   UNL     1     -10.542   5.727  67.077  1.00  0.00    -0.373 A  
HETATM   12  C   UNL     1      -9.768   6.518  66.238  1.00  0.00    -0.067 A  
HETATM   13  C   UNL     1      -9.321   8.012  68.085  1.00  0.00    -0.145 A  
ENDROOT
BRANCH   6  14
HETATM   14  O   UNL     1     -11.375   9.604  71.646  1.00  0.00    -0.374 OA 
BRANCH  14  15
HETATM   15  C   UNL     1     -12.669  10.013  71.617  1.00  0.00    -0.435 C  
HETATM   16  O   UNL     1     -13.643   9.382  71.990  1.00  0.00    -0.405 OA 
BRANCH  15  17
HETATM   17  C   UNL     1     -12.737  11.433  71.213  1.00  0.00    -0.498 A  
HETATM   18  C   UNL     1     -13.091  13.735  71.882  1.00  0.00    -0.388 A  
HETATM   19  C   UNL     1     -13.166  12.368  72.158  1.00  0.00    -0.491 A  
HETATM   20  C   UNL     1     -12.251  11.872  69.976  1.00  0.00    -0.291 A  
HETATM   21  C   UNL     1     -12.549  14.180  70.652  1.00  0.00    -0.351 A  
HETATM   22  C   UNL     1     -12.149  13.236  69.683  1.00  0.00    -0.270 A  
BRANCH  18  23
HETATM   23  O   UNL     1     -13.447  14.699  72.797  1.00  0.00    -0.453 OA 
HETATM   24  C   UNL     1     -12.504  14.977  73.828  1.00  0.00    -0.533 C  
ENDBRANCH  18  23
BRANCH  21  25
HETATM   25  O   UNL     1     -12.530  15.546  70.489  1.00  0.00    -0.399 OA 
HETATM   26  C   UNL     1     -11.269  16.200  70.571  1.00  0.00    -0.363 C  
ENDBRANCH  21  25
BRANCH  22  27
HETATM   27  O   UNL     1     -11.676  13.689  68.480  1.00  0.00    -0.313 OA 
HETATM   28  C   UNL     1     -11.871  12.874  67.329  1.00  0.00    -0.356 C  
ENDBRANCH  22  27
ENDBRANCH  15  17
ENDBRANCH  14  15
ENDBRANCH   6  14
TORSDOF 6
ENDMDL
MODEL       17
REMARK 921   NORMALIZED FREE ENERGY PREDICTED BY IDOCK:   -6.03 KCAL/MOL
REMARK 922        TOTAL FREE ENERGY PREDICTED BY IDOCK:   -9.08 KCAL/MOL
REMARK 923 INTER-LIGAND FREE ENERGY PREDICTED BY IDOCK:   -8.56 KCAL/MOL
REMARK 924 INTRA-LIGAND FREE ENERGY PREDICTED BY IDOCK:   -0.52 KCAL/MOL
REMARK 927      BINDING AFFINITY PREDICTED BY RF-SCORE:    0.00 PKD
ROOT
HETATM    1  C   UNL     1      -8.498  13.994  68.443  1.00  0.00    -0.166 C  
HETATM    2  C   UNL     1      -9.220  13.397  67.239  1.00  0.00    -0.222 C  
HETATM    3  C   UNL     1     -10.727  13.729  66.929  1.00  0.00    -0.280 C  
HETATM    4  N   UNL     1     -11.015  15.188  66.726  1.00  0.00    -0.321 NA 
HETATM    5  C   UNL     1     -11.171  12.938  65.619  1.00  0.00    -0.325 A  
HETATM    6  C   UNL     1     -11.664  13.091  68.025  1.00  0.00    -0.355 C  
HETATM    7  C   UNL     1     -10.295  12.120  64.879  1.00  0.00    -0.321 A  
HETATM    8  C   UNL     1     -12.910  12.408  63.969  1.00  0.00    -0.371 A  
HETATM    9  C   UNL     1     -10.712  16.109  67.817  1.00  0.00    -0.325 C  
HETATM   10  C   UNL     1     -10.468  15.747  65.487  1.00  0.00    -0.403 C  
HETATM   11  C   UNL     1     -10.708  11.483  63.703  1.00  0.00    -0.491 A  
HETATM   12  C   UNL     1     -12.011  11.632  63.245  1.00  0.00    -0.235 A  
HETATM   13  C   UNL     1     -12.497  13.054  65.139  1.00  0.00    -0.552 A  
ENDROOT
BRANCH   6  14
HETATM   14  O   UNL     1     -11.407  13.412  69.395  1.00  0.00    -0.260 OA 
BRANCH  14  15
HETATM   15  C   UNL     1     -12.171  12.728  70.284  1.00  0.00    -0.277 C  
HETATM   16  O   UNL     1     -13.181  13.126  70.838  1.00  0.00    -0.048 OA 
BRANCH  15  17
HETATM   17  C   UNL     1     -11.700  11.331  70.378  1.00  0.00    -0.398 A  
HETATM   18  C   UNL     1     -12.099   9.089  71.207  1.00  0.00    -0.314 A  
HETATM   19  C   UNL     1     -12.399  10.453  71.210  1.00  0.00    -0.507 A  
HETATM   20  C   UNL     1     -10.677  10.840  69.558  1.00  0.00    -0.268 A  
HETATM   21  C   UNL     1     -11.102   8.586  70.338  1.00  0.00    -0.231 A  
HETATM   22  C   UNL     1     -10.369   9.476  69.524  1.00  0.00    -0.217 A  
BRANCH  18  23
HETATM   23  O   UNL     1     -12.792   8.173  71.964  1.00  0.00    -0.324 OA 
HETATM   24  C   UNL     1     -14.186   8.053  71.696  1.00  0.00    -0.452 C  
ENDBRANCH  18  23
BRANCH  21  25
HETATM   25  O   UNL     1     -10.888   7.229  70.426  1.00  0.00    -0.234 OA 
HETATM   26  C   UNL     1     -11.329   6.423  69.339  1.00  0.00    -0.377 C  
ENDBRANCH  21  25
BRANCH  22  27
HETATM   27  O   UNL     1      -9.375   8.972  68.728  1.00  0.00    -0.139 OA 
HETATM   28  C   UNL     1      -9.453   9.203  67.325  1.00  0.00    -0.148 C  
ENDBRANCH  22  27
ENDBRANCH  15  17
ENDBRANCH  14  15
ENDBRANCH   6  14
TORSDOF 6
ENDMDL
MODEL       18
REMARK 921   NORMALIZED FREE ENERGY PREDICTED BY IDOCK:   -6.03 KCAL/MOL
REMARK 922        TOTAL FREE ENERGY PREDICTED BY IDOCK:   -9.08 KCAL/MOL
REMARK 923 INTER-LIGAND FREE ENERGY PREDICTED BY IDOCK:   -8.09 KCAL/MOL
REMARK 924 INTRA-LIGAND FREE ENERGY PREDICTED BY IDOCK:   -0.99 KCAL/MOL
REMARK 927      BINDING AFFINITY PREDICTED BY RF-SCORE:    0.00 PKD
ROOT
HETATM    1  C   UNL     1      -8.662  10.308  69.044  1.00  0.00    -0.164 C  
HETATM    2  C   UNL     1      -8.834   9.509  70.333  1.00  0.00    -0.279 C  
HETATM    3  C   UNL     1      -9.995   8.462  70.509  1.00  0.00    -0.185 C  
HETATM    4  N   UNL     1      -9.994   7.352  69.497  1.00  0.00    -0.176 NA 
HETATM    5  C   UNL     1      -9.895   7.820  71.964  1.00  0.00    -0.226 A  
HETATM    6  C   UNL     1     -11.389   9.197  70.576  1.00  0.00    -0.257 C  
HETATM    7  C   UNL     1      -8.880   8.150  72.884  1.00  0.00    -0.307 A  
HETATM    8  C   UNL     1     -10.762   6.240  73.632  1.00  0.00    -0.229 A  
HETATM    9  C   UNL     1     -10.107   7.708  68.086  1.00  0.00    -0.186 C  
HETATM   10  C   UNL     1      -8.892   6.399  69.646  1.00  0.00    -0.137 C  
HETATM   11  C   UNL     1      -8.794   7.526  74.133  1.00  0.00    -0.276 A  
HETATM   12  C   UNL     1      -9.729   6.567  74.504  1.00  0.00    -0.331 A  
HETATM   13  C   UNL     1     -10.844   6.855  72.379  1.00  0.00    -0.267 A  
ENDROOT
BRANCH   6  14
HETATM   14  O   UNL     1     -11.735  10.073  69.500  1.00  0.00    -0.131 OA 
BRANCH  14  15
HETATM   15  C   UNL     1     -12.104  11.319  69.890  1.00  0.00    -0.341 C  
HETATM   16  O   UNL     1     -12.452  11.663  71.007  1.00  0.00    -0.379 OA 
BRANCH  15  17
HETATM   17  C   UNL     1     -11.869  12.278  68.791  1.00  0.00    -0.356 A  
HETATM   18  C   UNL     1     -11.722  12.654  66.401  1.00  0.00    -0.405 A  
HETATM   19  C   UNL     1     -11.777  11.780  67.489  1.00  0.00    -0.312 A  
HETATM   20  C   UNL     1     -11.883  13.661  69.002  1.00  0.00    -0.393 A  
HETATM   21  C   UNL     1     -11.790  14.052  66.613  1.00  0.00    -0.419 A  
HETATM   22  C   UNL     1     -11.847  14.558  67.929  1.00  0.00    -0.336 A  
BRANCH  18  23
HETATM   23  O   UNL     1     -11.686  12.218  65.097  1.00  0.00    -0.362 OA 
HETATM   24  C   UNL     1     -10.591  11.381  64.737  1.00  0.00    -0.316 C  
ENDBRANCH  18  23
BRANCH  21  25
HETATM   25  O   UNL     1     -11.722  14.815  65.470  1.00  0.00    -0.342 OA 
HETATM   26  C   UNL     1     -10.455  15.360  65.119  1.00  0.00    -0.411 C  
ENDBRANCH  21  25
BRANCH  22  27
HETATM   27  O   UNL     1     -11.860  15.915  68.112  1.00  0.00    -0.231 OA 
HETATM   28  C   UNL     1     -10.696  16.533  68.652  1.00  0.00    -0.334 C  
ENDBRANCH  22  27
ENDBRANCH  15  17
ENDBRANCH  14  15
ENDBRANCH   6  14
TORSDOF 6
ENDMDL
MODEL       19
REMARK 921   NORMALIZED FREE ENERGY PREDICTED BY IDOCK:   -6.00 KCAL/MOL
REMARK 922        TOTAL FREE ENERGY PREDICTED BY IDOCK:   -9.04 KCAL/MOL
REMARK 923 INTER-LIGAND FREE ENERGY PREDICTED BY IDOCK:   -8.73 KCAL/MOL
REMARK 924 INTRA-LIGAND FREE ENERGY PREDICTED BY IDOCK:   -0.31 KCAL/MOL
REMARK 927      BINDING AFFINITY PREDICTED BY RF-SCORE:    0.00 PKD
ROOT
HETATM    1  C   UNL     1     -12.193   6.361  72.195  1.00  0.00    -0.278 C  
HETATM    2  C   UNL     1     -11.612   6.387  70.784  1.00  0.00    -0.402 C  
HETATM    3  C   UNL     1     -10.440   7.360  70.388  1.00  0.00    -0.221 C  
HETATM    4  N   UNL     1      -9.187   7.188  71.197  1.00  0.00    -0.157 NA 
HETATM    5  C   UNL     1     -10.084   7.141  68.851  1.00  0.00    -0.177 A  
HETATM    6  C   UNL     1     -10.945   8.854  70.393  1.00  0.00    -0.244 C  
HETATM    7  C   UNL     1     -10.725   6.184  68.040  1.00  0.00    -0.370 A  
HETATM    8  C   UNL     1      -8.699   7.721  66.908  1.00  0.00    -0.136 A  
HETATM    9  C   UNL     1      -9.270   7.373  72.643  1.00  0.00    -0.145 C  
HETATM   10  C   UNL     1      -8.461   5.944  70.932  1.00  0.00    -0.127 C  
HETATM   11  C   UNL     1     -10.349   5.984  66.707  1.00  0.00    -0.296 A  
HETATM   12  C   UNL     1      -9.333   6.746  66.144  1.00  0.00    -0.095 A  
HETATM   13  C   UNL     1      -9.068   7.916  68.243  1.00  0.00    -0.134 A  
ENDROOT
BRANCH   6  14
HETATM   14  O   UNL     1     -11.555   9.350  71.587  1.00  0.00    -0.362 OA 
BRANCH  14  15
HETATM   15  C   UNL     1     -12.772   9.921  71.399  1.00  0.00    -0.403 C  
HETATM   16  O   UNL     1     -13.857   9.371  71.480  1.00  0.00    -0.336 OA 
BRANCH  15  17
HETATM   17  C   UNL     1     -12.620  11.382  71.238  1.00  0.00    -0.480 A  
HETATM   18  C   UNL     1     -12.020  13.228  69.787  1.00  0.00    -0.324 A  
HETATM   19  C   UNL     1     -12.035  11.859  70.062  1.00  0.00    -0.409 A  
HETATM   20  C   UNL     1     -13.170  12.287  72.153  1.00  0.00    -0.466 A  
HETATM   21  C   UNL     1     -12.625  14.137  70.688  1.00  0.00    -0.351 A  
HETATM   22  C   UNL     1     -13.183  13.661  71.893  1.00  0.00    -0.411 A  
BRANCH  18  23
HETATM   23  O   UNL     1     -11.508  13.747  68.620  1.00  0.00    -0.259 OA 
HETATM   24  C   UNL     1     -11.874  13.082  67.415  1.00  0.00    -0.357 C  
ENDBRANCH  18  23
BRANCH  21  25
HETATM   25  O   UNL     1     -12.544  15.460  70.317  1.00  0.00    -0.377 OA 
HETATM   26  C   UNL     1     -11.342  16.156  70.624  1.00  0.00    -0.370 C  
ENDBRANCH  21  25
BRANCH  22  27
HETATM   27  O   UNL     1     -13.717  14.565  72.773  1.00  0.00    -0.519 OA 
HETATM   28  C   UNL     1     -12.832  15.249  73.655  1.00  0.00    -0.525 C  
ENDBRANCH  22  27
ENDBRANCH  15  17
ENDBRANCH  14  15
ENDBRANCH   6  14
TORSDOF 6
ENDMDL
MODEL       20
REMARK 921   NORMALIZED FREE ENERGY PREDICTED BY IDOCK:   -6.00 KCAL/MOL
REMARK 922        TOTAL FREE ENERGY PREDICTED BY IDOCK:   -9.04 KCAL/MOL
REMARK 923 INTER-LIGAND FREE ENERGY PREDICTED BY IDOCK:   -8.33 KCAL/MOL
REMARK 924 INTRA-LIGAND FREE ENERGY PREDICTED BY IDOCK:   -0.71 KCAL/MOL
REMARK 927      BINDING AFFINITY PREDICTED BY RF-SCORE:    0.00 PKD
ROOT
HETATM    1  C   UNL     1     -10.901   6.994  68.897  1.00  0.00    -0.203 C  
HETATM    2  C   UNL     1      -9.857   7.024  70.009  1.00  0.00    -0.181 C  
HETATM    3  C   UNL     1     -10.176   7.624  71.429  1.00  0.00    -0.185 C  
HETATM    4  N   UNL     1     -11.319   6.963  72.143  1.00  0.00    -0.256 NA 
HETATM    5  C   UNL     1      -8.875   7.511  72.342  1.00  0.00    -0.162 A  
HETATM    6  C   UNL     1     -10.367   9.186  71.331  1.00  0.00    -0.338 C  
HETATM    7  C   UNL     1      -7.674   6.919  71.902  1.00  0.00    -0.094 A  
HETATM    8  C   UNL     1      -7.788   7.880  74.512  1.00  0.00    -0.270 A  
HETATM    9  C   UNL     1     -12.629   6.970  71.501  1.00  0.00    -0.385 C  
HETATM   10  C   UNL     1     -11.039   5.600  72.603  1.00  0.00    -0.282 C  
HETATM   11  C   UNL     1      -6.569   6.790  72.750  1.00  0.00    -0.066 A  
HETATM   12  C   UNL     1      -6.628   7.263  74.055  1.00  0.00    -0.077 A  
HETATM   13  C   UNL     1      -8.897   8.001  73.669  1.00  0.00    -0.326 A  
ENDROOT
BRANCH   6  14
HETATM   14  O   UNL     1     -11.336   9.685  70.406  1.00  0.00    -0.251 OA 
BRANCH  14  15
HETATM   15  C   UNL     1     -12.262  10.512  70.956  1.00  0.00    -0.400 C  
HETATM   16  O   UNL     1     -12.914  10.310  71.966  1.00  0.00    -0.432 OA 
BRANCH  15  17
HETATM   17  C   UNL     1     -12.264  11.806  70.242  1.00  0.00    -0.381 A  
HETATM   18  C   UNL     1     -12.474  14.216  70.378  1.00  0.00    -0.357 A  
HETATM   19  C   UNL     1     -12.615  12.953  70.957  1.00  0.00    -0.376 A  
HETATM   20  C   UNL     1     -11.792  11.926  68.930  1.00  0.00    -0.366 A  
HETATM   21  C   UNL     1     -11.945  14.340  69.071  1.00  0.00    -0.325 A  
HETATM   22  C   UNL     1     -11.625  13.180  68.333  1.00  0.00    -0.337 A  
BRANCH  18  23
HETATM   23  O   UNL     1     -12.752  15.381  71.056  1.00  0.00    -0.381 OA 
HETATM   24  C   UNL     1     -13.909  15.372  71.887  1.00  0.00    -0.517 C  
ENDBRANCH  18  23
BRANCH  21  25
HETATM   25  O   UNL     1     -11.857  15.631  68.601  1.00  0.00    -0.372 OA 
HETATM   26  C   UNL     1     -10.576  16.249  68.617  1.00  0.00    -0.297 C  
ENDBRANCH  21  25
BRANCH  22  27
HETATM   27  O   UNL     1     -11.163  13.322  67.052  1.00  0.00    -0.276 OA 
HETATM   28  C   UNL     1     -11.870  12.664  66.005  1.00  0.00    -0.436 C  
ENDBRANCH  22  27
ENDBRANCH  15  17
ENDBRANCH  14  15
ENDBRANCH   6  14
TORSDOF 6
ENDMDL
MODEL       21
REMARK 921   NORMALIZED FREE ENERGY PREDICTED BY IDOCK:   -5.97 KCAL/MOL
REMARK 922        TOTAL FREE ENERGY PREDICTED BY IDOCK:   -8.99 KCAL/MOL
REMARK 923 INTER-LIGAND FREE ENERGY PREDICTED BY IDOCK:   -8.13 KCAL/MOL
REMARK 924 INTRA-LIGAND FREE ENERGY PREDICTED BY IDOCK:   -0.86 KCAL/MOL
REMARK 927      BINDING AFFINITY PREDICTED BY RF-SCORE:    0.00 PKD
ROOT
HETATM    1  C   UNL     1      -8.727  12.351  67.665  1.00  0.00    -0.178 C  
HETATM    2  C   UNL     1      -9.147  11.380  68.764  1.00  0.00    -0.096 C  
HETATM    3  C   UNL     1     -10.640  10.912  68.931  1.00  0.00    -0.210 C  
HETATM    4  N   UNL     1     -11.218  10.228  67.725  1.00  0.00    -0.297 NA 
HETATM    5  C   UNL     1     -10.734   9.916  70.171  1.00  0.00    -0.361 A  
HETATM    6  C   UNL     1     -11.539  12.114  69.413  1.00  0.00    -0.317 C  
HETATM    7  C   UNL     1      -9.615   9.525  70.931  1.00  0.00    -0.216 A  
HETATM    8  C   UNL     1     -12.097   8.456  71.599  1.00  0.00    -0.359 A  
HETATM    9  C   UNL     1     -11.262  10.969  66.468  1.00  0.00    -0.005 C  
HETATM   10  C   UNL     1     -10.661   8.899  67.458  1.00  0.00    -0.237 C  
HETATM   11  C   UNL     1      -9.728   8.607  71.981  1.00  0.00    -0.391 A  
HETATM   12  C   UNL     1     -10.966   8.068  72.310  1.00  0.00    -0.377 A  
HETATM   13  C   UNL     1     -11.984   9.366  70.543  1.00  0.00    -0.154 A  
ENDROOT
BRANCH   6  14
HETATM   14  O   UNL     1     -11.529  13.312  68.632  1.00  0.00    -0.260 OA 
BRANCH  14  15
HETATM   15  C   UNL     1     -11.329  14.447  69.349  1.00  0.00    -0.281 C  
HETATM   16  O   UNL     1     -11.477  14.586  70.552  1.00  0.00    -0.259 OA 
BRANCH  15  17
HETATM   17  C   UNL     1     -10.734  15.487  68.486  1.00  0.00    -0.259 A  
HETATM   18  C   UNL     1     -10.454  16.375  66.248  1.00  0.00    -0.293 A  
HETATM   19  C   UNL     1     -10.851  15.342  67.101  1.00  0.00    -0.321 A  
HETATM   20  C   UNL     1     -10.192  16.664  69.015  1.00  0.00    -0.301 A  
HETATM   21  C   UNL     1      -9.957  17.586  66.787  1.00  0.00    -0.313 A  
HETATM   22  C   UNL     1      -9.804  17.720  68.183  1.00  0.00    -0.326 A  
BRANCH  18  23
HETATM   23  O   UNL     1     -10.598  16.308  64.882  1.00  0.00    -0.650 OA 
HETATM   24  C   UNL     1     -11.699  15.544  64.396  1.00  0.00    -0.242 C  
ENDBRANCH  18  23
BRANCH  21  25
HETATM   25  O   UNL     1      -9.592  18.528  65.852  1.00  0.00    -0.494 OA 
HETATM   26  C   UNL     1     -10.496  19.601  65.614  1.00  0.00    -0.349 C  
ENDBRANCH  21  25
BRANCH  22  27
HETATM   27  O   UNL     1      -9.273  18.881  68.678  1.00  0.00    -0.343 OA 
HETATM   28  C   UNL     1     -10.169  19.922  69.058  1.00  0.00    -0.242 C  
ENDBRANCH  22  27
ENDBRANCH  15  17
ENDBRANCH  14  15
ENDBRANCH   6  14
TORSDOF 6
ENDMDL
MODEL       22
REMARK 921   NORMALIZED FREE ENERGY PREDICTED BY IDOCK:   -5.94 KCAL/MOL
REMARK 922        TOTAL FREE ENERGY PREDICTED BY IDOCK:   -8.96 KCAL/MOL
REMARK 923 INTER-LIGAND FREE ENERGY PREDICTED BY IDOCK:   -8.26 KCAL/MOL
REMARK 924 INTRA-LIGAND FREE ENERGY PREDICTED BY IDOCK:   -0.70 KCAL/MOL
REMARK 927      BINDING AFFINITY PREDICTED BY RF-SCORE:    0.00 PKD
ROOT
HETATM    1  C   UNL     1     -11.503  10.738  69.637  1.00  0.00    -0.376 C  
HETATM    2  C   UNL     1     -10.799   9.857  68.610  1.00  0.00    -0.244 C  
HETATM    3  C   UNL     1     -10.049  10.468  67.370  1.00  0.00    -0.197 C  
HETATM    4  N   UNL     1      -8.942  11.421  67.717  1.00  0.00    -0.143 NA 
HETATM    5  C   UNL     1      -9.439   9.282  66.498  1.00  0.00    -0.259 A  
HETATM    6  C   UNL     1     -11.083  11.108  66.366  1.00  0.00    -0.138 C  
HETATM    7  C   UNL     1      -9.554   7.924  66.857  1.00  0.00    -0.263 A  
HETATM    8  C   UNL     1      -8.144   8.557  64.542  1.00  0.00    -0.158 A  
HETATM    9  C   UNL     1      -9.276  12.610  68.496  1.00  0.00    -0.067 C  
HETATM   10  C   UNL     1      -7.766  10.790  68.322  1.00  0.00    -0.109 C  
HETATM   11  C   UNL     1      -8.960   6.913  66.094  1.00  0.00    -0.157 A  
HETATM   12  C   UNL     1      -8.250   7.229  64.943  1.00  0.00    -0.075 A  
HETATM   13  C   UNL     1      -8.728   9.570  65.309  1.00  0.00    -0.193 A  
ENDROOT
BRANCH   6  14
HETATM   14  O   UNL     1     -11.986  12.093  66.874  1.00  0.00    -0.603 OA 
BRANCH  14  15
HETATM   15  C   UNL     1     -12.195  13.144  66.040  1.00  0.00    -0.414 C  
HETATM   16  O   UNL     1     -12.860  13.144  65.018  1.00  0.00    -0.692 OA 
BRANCH  15  17
HETATM   17  C   UNL     1     -11.630  14.373  66.632  1.00  0.00    -0.396 A  
HETATM   18  C   UNL     1     -11.314  15.732  68.614  1.00  0.00    -0.369 A  
HETATM   19  C   UNL     1     -11.951  14.676  67.957  1.00  0.00    -0.292 A  
HETATM   20  C   UNL     1     -10.682  15.150  65.955  1.00  0.00    -0.333 A  
HETATM   21  C   UNL     1     -10.316  16.482  67.945  1.00  0.00    -0.294 A  
HETATM   22  C   UNL     1     -10.017  16.201  66.595  1.00  0.00    -0.260 A  
BRANCH  18  23
HETATM   23  O   UNL     1     -11.550  16.038  69.934  1.00  0.00    -0.324 OA 
HETATM   24  C   UNL     1     -12.611  15.331  70.570  1.00  0.00    -0.399 C  
ENDBRANCH  18  23
BRANCH  21  25
HETATM   25  O   UNL     1      -9.762  17.499  68.688  1.00  0.00    -0.295 OA 
HETATM   26  C   UNL     1     -10.145  18.831  68.366  1.00  0.00    -0.393 C  
ENDBRANCH  21  25
BRANCH  22  27
HETATM   27  O   UNL     1      -9.085  16.973  65.954  1.00  0.00    -0.510 OA 
HETATM   28  C   UNL     1      -7.720  16.836  66.335  1.00  0.00    -0.310 C  
ENDBRANCH  22  27
ENDBRANCH  15  17
ENDBRANCH  14  15
ENDBRANCH   6  14
TORSDOF 6
ENDMDL
MODEL       23
REMARK 921   NORMALIZED FREE ENERGY PREDICTED BY IDOCK:   -5.86 KCAL/MOL
REMARK 922        TOTAL FREE ENERGY PREDICTED BY IDOCK:   -8.85 KCAL/MOL
REMARK 923 INTER-LIGAND FREE ENERGY PREDICTED BY IDOCK:   -8.04 KCAL/MOL
REMARK 924 INTRA-LIGAND FREE ENERGY PREDICTED BY IDOCK:   -0.82 KCAL/MOL
REMARK 927      BINDING AFFINITY PREDICTED BY RF-SCORE:    0.00 PKD
ROOT
HETATM    1  C   UNL     1     -12.116  14.063  66.839  1.00  0.00    -0.465 C  
HETATM    2  C   UNL     1     -12.478  14.513  68.251  1.00  0.00     0.208 C  
HETATM    3  C   UNL     1     -11.412  14.542  69.409  1.00  0.00    -0.285 C  
HETATM    4  N   UNL     1     -10.221  15.415  69.140  1.00  0.00    -0.226 NA 
HETATM    5  C   UNL     1     -12.116  15.045  70.747  1.00  0.00    -0.377 A  
HETATM    6  C   UNL     1     -10.990  13.073  69.800  1.00  0.00     0.306 C  
HETATM    7  C   UNL     1     -13.471  15.428  70.808  1.00  0.00    -0.324 A  
HETATM    8  C   UNL     1     -11.945  15.620  73.128  1.00  0.00    -0.584 A  
HETATM    9  C   UNL     1      -9.401  15.118  67.969  1.00  0.00    -0.187 C  
HETATM   10  C   UNL     1     -10.508  16.851  69.149  1.00  0.00    -0.335 C  
HETATM   11  C   UNL     1     -14.040  15.916  71.989  1.00  0.00    -0.116 A  
HETATM   12  C   UNL     1     -13.277  16.018  73.145  1.00  0.00    -0.633 A  
HETATM   13  C   UNL     1     -11.370  15.142  71.946  1.00  0.00    -0.381 A  
ENDROOT
BRANCH   6  14
HETATM   14  O   UNL     1     -10.501  12.220  68.762  1.00  0.00    -0.220 OA 
BRANCH  14  15
HETATM   15  C   UNL     1     -11.115  11.011  68.695  1.00  0.00    -0.240 C  
HETATM   16  O   UNL     1     -11.655  10.519  67.718  1.00  0.00    -0.462 OA 
BRANCH  15  17
HETATM   17  C   UNL     1     -10.900  10.269  69.954  1.00  0.00    -0.355 A  
HETATM   18  C   UNL     1     -11.887   9.181  71.881  1.00  0.00    -0.369 A  
HETATM   19  C   UNL     1     -12.006  10.018  70.769  1.00  0.00    -0.426 A  
HETATM   20  C   UNL     1      -9.663   9.696  70.271  1.00  0.00    -0.314 A  
HETATM   21  C   UNL     1     -10.649   8.559  72.169  1.00  0.00    -0.349 A  
HETATM   22  C   UNL     1      -9.522   8.841  71.368  1.00  0.00    -0.259 A  
BRANCH  18  23
HETATM   23  O   UNL     1     -12.955   8.855  72.685  1.00  0.00    -0.407 OA 
HETATM   24  C   UNL     1     -14.065   8.231  72.046  1.00  0.00    -0.395 C  
ENDBRANCH  18  23
BRANCH  21  25
HETATM   25  O   UNL     1     -10.648   7.762  73.291  1.00  0.00    -0.364 OA 
HETATM   26  C   UNL     1     -10.774   6.358  73.099  1.00  0.00    -0.268 C  
ENDBRANCH  21  25
BRANCH  22  27
HETATM   27  O   UNL     1      -8.322   8.268  71.697  1.00  0.00    -0.121 OA 
HETATM   28  C   UNL     1      -7.710   7.398  70.750  1.00  0.00    -0.088 C  
ENDBRANCH  22  27
ENDBRANCH  15  17
ENDBRANCH  14  15
ENDBRANCH   6  14
TORSDOF 6
ENDMDL
MODEL       24
REMARK 921   NORMALIZED FREE ENERGY PREDICTED BY IDOCK:   -5.86 KCAL/MOL
REMARK 922        TOTAL FREE ENERGY PREDICTED BY IDOCK:   -8.85 KCAL/MOL
REMARK 923 INTER-LIGAND FREE ENERGY PREDICTED BY IDOCK:   -8.06 KCAL/MOL
REMARK 924 INTRA-LIGAND FREE ENERGY PREDICTED BY IDOCK:   -0.79 KCAL/MOL
REMARK 927      BINDING AFFINITY PREDICTED BY RF-SCORE:    0.00 PKD
ROOT
HETATM    1  C   UNL     1      -7.019  10.395  66.685  1.00  0.00    -0.111 C  
HETATM    2  C   UNL     1      -7.977  10.175  67.852  1.00  0.00    -0.101 C  
HETATM    3  C   UNL     1      -9.459  10.704  67.817  1.00  0.00    -0.153 C  
HETATM    4  N   UNL     1     -10.285  10.174  66.680  1.00  0.00    -0.224 NA 
HETATM    5  C   UNL     1     -10.177  10.319  69.186  1.00  0.00    -0.234 A  
HETATM    6  C   UNL     1      -9.478  12.280  67.874  1.00  0.00    -0.200 C  
HETATM    7  C   UNL     1      -9.544   9.585  70.209  1.00  0.00    -0.314 A  
HETATM    8  C   UNL     1     -12.195  10.345  70.584  1.00  0.00    -0.441 A  
HETATM    9  C   UNL     1      -9.829  10.435  65.318  1.00  0.00    -0.297 C  
HETATM   10  C   UNL     1     -10.623   8.753  66.789  1.00  0.00    -0.150 C  
HETATM   11  C   UNL     1     -10.224   9.220  71.376  1.00  0.00    -0.371 A  
HETATM   12  C   UNL     1     -11.549   9.593  71.560  1.00  0.00    -0.451 A  
HETATM   13  C   UNL     1     -11.521  10.702  69.413  1.00  0.00    -0.356 A  
ENDROOT
BRANCH   6  14
HETATM   14  O   UNL     1      -8.725  12.994  66.891  1.00  0.00    -0.207 OA 
BRANCH  14  15
HETATM   15  C   UNL     1      -8.094  14.099  67.363  1.00  0.00    -0.189 C  
HETATM   16  O   UNL     1      -6.945  14.168  67.766  1.00  0.00    -0.146 OA 
BRANCH  15  17
HETATM   17  C   UNL     1      -8.950  15.287  67.169  1.00  0.00    -0.227 A  
HETATM   18  C   UNL     1      -9.523  17.533  67.875  1.00  0.00    -0.277 A  
HETATM   19  C   UNL     1      -8.862  16.324  68.101  1.00  0.00    -0.183 A  
HETATM   20  C   UNL     1      -9.727  15.457  66.017  1.00  0.00    -0.370 A  
HETATM   21  C   UNL     1     -10.264  17.723  66.684  1.00  0.00    -0.361 A  
HETATM   22  C   UNL     1     -10.385  16.664  65.759  1.00  0.00    -0.321 A  
BRANCH  18  23
HETATM   23  O   UNL     1      -9.426  18.606  68.731  1.00  0.00    -0.340 OA 
HETATM   24  C   UNL     1      -8.153  19.241  68.811  1.00  0.00    -0.356 C  
ENDBRANCH  18  23
BRANCH  21  25
HETATM   25  O   UNL     1     -10.877  18.950  66.573  1.00  0.00    -0.328 OA 
HETATM   26  C   UNL     1     -10.264  19.916  65.727  1.00  0.00    -0.386 C  
ENDBRANCH  21  25
BRANCH  22  27
HETATM   27  O   UNL     1     -11.149  16.853  64.638  1.00  0.00    -0.934 OA 
HETATM   28  C   UNL     1     -11.826  15.728  64.087  1.00  0.00    -0.030 C  
ENDBRANCH  22  27
ENDBRANCH  15  17
ENDBRANCH  14  15
ENDBRANCH   6  14
TORSDOF 6
ENDMDL
MODEL       25
REMARK 921   NORMALIZED FREE ENERGY PREDICTED BY IDOCK:   -5.85 KCAL/MOL
REMARK 922        TOTAL FREE ENERGY PREDICTED BY IDOCK:   -8.84 KCAL/MOL
REMARK 923 INTER-LIGAND FREE ENERGY PREDICTED BY IDOCK:   -8.05 KCAL/MOL
REMARK 924 INTRA-LIGAND FREE ENERGY PREDICTED BY IDOCK:   -0.79 KCAL/MOL
REMARK 927      BINDING AFFINITY PREDICTED BY RF-SCORE:    0.00 PKD
ROOT
HETATM    1  C   UNL     1      -7.038  10.587  66.429  1.00  0.00    -0.128 C  
HETATM    2  C   UNL     1      -7.819  10.240  67.694  1.00  0.00    -0.098 C  
HETATM    3  C   UNL     1      -9.330  10.642  67.870  1.00  0.00    -0.148 C  
HETATM    4  N   UNL     1     -10.250  10.089  66.820  1.00  0.00    -0.227 NA 
HETATM    5  C   UNL     1      -9.834  10.144  69.297  1.00  0.00    -0.235 A  
HETATM    6  C   UNL     1      -9.467  12.207  68.008  1.00  0.00    -0.201 C  
HETATM    7  C   UNL     1      -9.018   9.427  70.195  1.00  0.00    -0.256 A  
HETATM    8  C   UNL     1     -11.652   9.942  70.935  1.00  0.00    -0.456 A  
HETATM    9  C   UNL     1      -9.995  10.441  65.427  1.00  0.00    -0.295 C  
HETATM   10  C   UNL     1     -10.457   8.641  66.899  1.00  0.00    -0.258 C  
HETATM   11  C   UNL     1      -9.512   8.960  71.418  1.00  0.00    -0.344 A  
HETATM   12  C   UNL     1     -10.828   9.211  71.785  1.00  0.00    -0.416 A  
HETATM   13  C   UNL     1     -11.163  10.402  69.708  1.00  0.00    -0.353 A  
ENDROOT
BRANCH   6  14
HETATM   14  O   UNL     1      -8.905  13.021  66.975  1.00  0.00    -0.213 OA 
BRANCH  14  15
HETATM   15  C   UNL     1      -8.045  13.973  67.418  1.00  0.00    -0.185 C  
HETATM   16  O   UNL     1      -6.920  13.795  67.855  1.00  0.00    -0.118 OA 
BRANCH  15  17
HETATM   17  C   UNL     1      -8.598  15.315  67.145  1.00  0.00    -0.236 A  
HETATM   18  C   UNL     1     -10.124  16.671  65.839  1.00  0.00    -0.320 A  
HETATM   19  C   UNL     1      -9.444  15.468  66.044  1.00  0.00    -0.387 A  
HETATM   20  C   UNL     1      -8.414  16.384  68.030  1.00  0.00    -0.183 A  
HETATM   21  C   UNL     1      -9.979  17.733  66.764  1.00  0.00    -0.333 A  
HETATM   22  C   UNL     1      -9.096  17.593  67.856  1.00  0.00    -0.260 A  
BRANCH  18  23
HETATM   23  O   UNL     1     -11.011  16.858  64.804  1.00  0.00    -0.772 OA 
HETATM   24  C   UNL     1     -11.736  15.709  64.374  1.00  0.00    -0.218 C  
ENDBRANCH  18  23
BRANCH  21  25
HETATM   25  O   UNL     1     -10.690  18.870  66.457  1.00  0.00    -0.391 OA 
HETATM   26  C   UNL     1      -9.968  19.971  65.919  1.00  0.00    -0.368 C  
ENDBRANCH  21  25
BRANCH  22  27
HETATM   27  O   UNL     1      -8.933  18.651  68.710  1.00  0.00    -0.320 OA 
HETATM   28  C   UNL     1      -7.620  19.170  68.896  1.00  0.00    -0.336 C  
ENDBRANCH  22  27
ENDBRANCH  15  17
ENDBRANCH  14  15
ENDBRANCH   6  14
TORSDOF 6
ENDMDL
MODEL       26
REMARK 921   NORMALIZED FREE ENERGY PREDICTED BY IDOCK:   -5.82 KCAL/MOL
REMARK 922        TOTAL FREE ENERGY PREDICTED BY IDOCK:   -8.80 KCAL/MOL
REMARK 923 INTER-LIGAND FREE ENERGY PREDICTED BY IDOCK:   -8.22 KCAL/MOL
REMARK 924 INTRA-LIGAND FREE ENERGY PREDICTED BY IDOCK:   -0.58 KCAL/MOL
REMARK 927      BINDING AFFINITY PREDICTED BY RF-SCORE:    0.00 PKD
ROOT
HETATM    1  C   UNL     1      -8.324  11.552  68.039  1.00  0.00    -0.146 C  
HETATM    2  C   UNL     1      -8.864  10.673  69.164  1.00  0.00    -0.133 C  
HETATM    3  C   UNL     1     -10.375  10.235  69.220  1.00  0.00    -0.231 C  
HETATM    4  N   UNL     1     -10.846   9.465  68.020  1.00  0.00    -0.189 NA 
HETATM    5  C   UNL     1     -10.605   9.340  70.517  1.00  0.00    -0.309 A  
HETATM    6  C   UNL     1     -11.294  11.481  69.519  1.00  0.00    -0.274 C  
HETATM    7  C   UNL     1      -9.571   8.997  71.411  1.00  0.00    -0.356 A  
HETATM    8  C   UNL     1     -12.125   8.010  71.914  1.00  0.00    -0.359 A  
HETATM    9  C   UNL     1     -10.756  10.106  66.712  1.00  0.00    -0.121 C  
HETATM   10  C   UNL     1     -10.290   8.114  67.910  1.00  0.00    -0.220 C  
HETATM   11  C   UNL     1      -9.801   8.164  72.512  1.00  0.00    -0.363 A  
HETATM   12  C   UNL     1     -11.074   7.666  72.759  1.00  0.00    -0.437 A  
HETATM   13  C   UNL     1     -11.894   8.833  70.808  1.00  0.00    -0.209 A  
ENDROOT
BRANCH   6  14
HETATM   14  O   UNL     1     -11.188  12.614  68.654  1.00  0.00    -0.246 OA 
BRANCH  14  15
HETATM   15  C   UNL     1     -11.562  13.789  69.221  1.00  0.00    -0.312 C  
HETATM   16  O   UNL     1     -11.967  13.954  70.359  1.00  0.00    -0.313 OA 
BRANCH  15  17
HETATM   17  C   UNL     1     -11.252  14.907  68.307  1.00  0.00    -0.306 A  
HETATM   18  C   UNL     1     -10.102  17.013  67.967  1.00  0.00    -0.305 A  
HETATM   19  C   UNL     1     -10.563  16.008  68.821  1.00  0.00    -0.262 A  
HETATM   20  C   UNL     1     -11.500  14.827  66.932  1.00  0.00    -0.354 A  
HETATM   21  C   UNL     1     -10.306  16.903  66.571  1.00  0.00    -0.299 A  
HETATM   22  C   UNL     1     -11.033  15.811  66.054  1.00  0.00    -0.177 A  
BRANCH  18  23
HETATM   23  O   UNL     1      -9.370  18.090  68.412  1.00  0.00    -0.284 OA 
HETATM   24  C   UNL     1      -7.969  17.885  68.569  1.00  0.00    -0.298 C  
ENDBRANCH  18  23
BRANCH  21  25
HETATM   25  O   UNL     1      -9.813  17.953  65.830  1.00  0.00    -0.540 OA 
HETATM   26  C   UNL     1     -10.629  19.113  65.712  1.00  0.00    -0.341 C  
ENDBRANCH  21  25
BRANCH  22  27
HETATM   27  O   UNL     1     -11.263  15.752  64.705  1.00  0.00    -0.445 OA 
HETATM   28  C   UNL     1     -12.131  14.736  64.213  1.00  0.00    -0.394 C  
ENDBRANCH  22  27
ENDBRANCH  15  17
ENDBRANCH  14  15
ENDBRANCH   6  14
TORSDOF 6
ENDMDL
MODEL       27
REMARK 921   NORMALIZED FREE ENERGY PREDICTED BY IDOCK:   -5.81 KCAL/MOL
REMARK 922        TOTAL FREE ENERGY PREDICTED BY IDOCK:   -8.79 KCAL/MOL
REMARK 923 INTER-LIGAND FREE ENERGY PREDICTED BY IDOCK:   -8.29 KCAL/MOL
REMARK 924 INTRA-LIGAND FREE ENERGY PREDICTED BY IDOCK:   -0.50 KCAL/MOL
REMARK 927      BINDING AFFINITY PREDICTED BY RF-SCORE:    0.00 PKD
ROOT
HETATM    1  C   UNL     1     -10.827  18.856  67.949  1.00  0.00    -0.272 C  
HETATM    2  C   UNL     1      -9.727  17.863  68.314  1.00  0.00    -0.327 C  
HETATM    3  C   UNL     1      -8.580  17.490  67.304  1.00  0.00    -0.225 C  
HETATM    4  N   UNL     1      -7.754  18.655  66.839  1.00  0.00    -0.225 NA 
HETATM    5  C   UNL     1      -7.612  16.427  67.991  1.00  0.00    -0.158 A  
HETATM    6  C   UNL     1      -9.163  16.662  66.095  1.00  0.00    -0.277 C  
HETATM    7  C   UNL     1      -7.788  15.964  69.310  1.00  0.00    -0.226 A  
HETATM    8  C   UNL     1      -5.610  15.011  67.862  1.00  0.00    -0.133 A  
HETATM    9  C   UNL     1      -8.432  19.748  66.150  1.00  0.00    -0.341 C  
HETATM   10  C   UNL     1      -6.884  19.229  67.868  1.00  0.00    -0.235 C  
HETATM   11  C   UNL     1      -6.887  15.070  69.898  1.00  0.00    -0.162 A  
HETATM   12  C   UNL     1      -5.796  14.599  69.178  1.00  0.00    -0.099 A  
HETATM   13  C   UNL     1      -6.504  15.913  67.276  1.00  0.00    -0.174 A  
ENDROOT
BRANCH   6  14
HETATM   14  O   UNL     1     -10.245  17.233  65.354  1.00  0.00    -0.604 OA 
BRANCH  14  15
HETATM   15  C   UNL     1     -11.121  16.326  64.853  1.00  0.00    -0.290 C  
HETATM   16  O   UNL     1     -11.797  16.442  63.844  1.00  0.00    -1.034 OA 
BRANCH  15  17
HETATM   17  C   UNL     1     -11.032  15.066  65.620  1.00  0.00    -0.357 A  
HETATM   18  C   UNL     1     -10.227  12.783  65.718  1.00  0.00    -0.289 A  
HETATM   19  C   UNL     1     -10.486  13.946  64.989  1.00  0.00    -0.428 A  
HETATM   20  C   UNL     1     -11.342  15.010  66.984  1.00  0.00    -0.319 A  
HETATM   21  C   UNL     1     -10.490  12.745  67.108  1.00  0.00    -0.233 A  
HETATM   22  C   UNL     1     -11.077  13.863  67.739  1.00  0.00    -0.262 A  
BRANCH  18  23
HETATM   23  O   UNL     1      -9.639  11.671  65.160  1.00  0.00    -0.233 OA 
HETATM   24  C   UNL     1     -10.374  11.012  64.133  1.00  0.00    -0.369 C  
ENDBRANCH  18  23
BRANCH  21  25
HETATM   25  O   UNL     1     -10.202  11.547  67.720  1.00  0.00    -0.177 OA 
HETATM   26  C   UNL     1     -11.273  10.629  67.906  1.00  0.00    -0.308 C  
ENDBRANCH  21  25
BRANCH  22  27
HETATM   27  O   UNL     1     -11.370  13.785  69.075  1.00  0.00    -0.258 OA 
HETATM   28  C   UNL     1     -11.357  14.987  69.838  1.00  0.00    -0.278 C  
ENDBRANCH  22  27
ENDBRANCH  15  17
ENDBRANCH  14  15
ENDBRANCH   6  14
TORSDOF 6
ENDMDL
MODEL       28
REMARK 921   NORMALIZED FREE ENERGY PREDICTED BY IDOCK:   -5.80 KCAL/MOL
REMARK 922        TOTAL FREE ENERGY PREDICTED BY IDOCK:   -8.76 KCAL/MOL
REMARK 923 INTER-LIGAND FREE ENERGY PREDICTED BY IDOCK:   -7.95 KCAL/MOL
REMARK 924 INTRA-LIGAND FREE ENERGY PREDICTED BY IDOCK:   -0.82 KCAL/MOL
REMARK 927      BINDING AFFINITY PREDICTED BY RF-SCORE:    0.00 PKD
ROOT
HETATM    1  C   UNL     1     -11.634  10.040  71.173  1.00  0.00    -0.460 C  
HETATM    2  C   UNL     1     -11.459   8.592  71.622  1.00  0.00    -0.365 C  
HETATM    3  C   UNL     1     -10.370   7.653  70.982  1.00  0.00    -0.202 C  
HETATM    4  N   UNL     1      -8.960   8.153  71.113  1.00  0.00    -0.139 NA 
HETATM    5  C   UNL     1     -10.462   6.216  71.663  1.00  0.00    -0.267 A  
HETATM    6  C   UNL     1     -10.741   7.325  69.485  1.00  0.00    -0.232 C  
HETATM    7  C   UNL     1     -11.369   5.910  72.697  1.00  0.00    -0.337 A  
HETATM    8  C   UNL     1      -9.619   3.917  71.851  1.00  0.00    -0.217 A  
HETATM    9  C   UNL     1      -8.633   9.451  70.531  1.00  0.00    -0.223 C  
HETATM   10  C   UNL     1      -8.428   8.112  72.478  1.00  0.00    -0.185 C  
HETATM   11  C   UNL     1     -11.385   4.651  73.308  1.00  0.00    -0.393 A  
HETATM   12  C   UNL     1     -10.507   3.659  72.891  1.00  0.00    -0.239 A  
HETATM   13  C   UNL     1      -9.595   5.178  71.247  1.00  0.00    -0.218 A  
ENDROOT
BRANCH   6  14
HETATM   14  O   UNL     1     -10.965   8.422  68.596  1.00  0.00     0.008 OA 
BRANCH  14  15
HETATM   15  C   UNL     1     -10.256   8.360  67.440  1.00  0.00    -0.260 C  
HETATM   16  O   UNL     1      -9.715   7.374  66.967  1.00  0.00    -0.166 OA 
BRANCH  15  17
HETATM   17  C   UNL     1     -10.361   9.644  66.718  1.00  0.00    -0.292 A  
HETATM   18  C   UNL     1     -10.054  10.854  64.640  1.00  0.00    -0.328 A  
HETATM   19  C   UNL     1      -9.835   9.720  65.426  1.00  0.00    -0.365 A  
HETATM   20  C   UNL     1     -11.090  10.723  67.232  1.00  0.00    -0.339 A  
HETATM   21  C   UNL     1     -10.837  11.921  65.142  1.00  0.00    -0.300 A  
HETATM   22  C   UNL     1     -11.338  11.862  66.459  1.00  0.00    -0.341 A  
BRANCH  18  23
HETATM   23  O   UNL     1      -9.607  10.959  63.344  1.00  0.00    -0.265 OA 
HETATM   24  C   UNL     1      -9.040   9.784  62.770  1.00  0.00    -0.269 C  
ENDBRANCH  18  23
BRANCH  21  25
HETATM   25  O   UNL     1     -10.981  12.987  64.283  1.00  0.00    -0.358 OA 
HETATM   26  C   UNL     1     -12.195  13.079  63.547  1.00  0.00    -0.501 C  
ENDBRANCH  21  25
BRANCH  22  27
HETATM   27  O   UNL     1     -12.050  12.928  66.941  1.00  0.00    -0.388 OA 
HETATM   28  C   UNL     1     -11.348  13.938  67.658  1.00  0.00    -0.309 C  
ENDBRANCH  22  27
ENDBRANCH  15  17
ENDBRANCH  14  15
ENDBRANCH   6  14
TORSDOF 6
ENDMDL
MODEL       29
REMARK 921   NORMALIZED FREE ENERGY PREDICTED BY IDOCK:   -5.79 KCAL/MOL
REMARK 922        TOTAL FREE ENERGY PREDICTED BY IDOCK:   -8.75 KCAL/MOL
REMARK 923 INTER-LIGAND FREE ENERGY PREDICTED BY IDOCK:   -8.02 KCAL/MOL
REMARK 924 INTRA-LIGAND FREE ENERGY PREDICTED BY IDOCK:   -0.73 KCAL/MOL
REMARK 927      BINDING AFFINITY PREDICTED BY RF-SCORE:    0.00 PKD
ROOT
HETATM    1  C   UNL     1      -7.436  10.175  67.654  1.00  0.00    -0.090 C  
HETATM    2  C   UNL     1      -8.195   9.669  68.878  1.00  0.00    -0.110 C  
HETATM    3  C   UNL     1      -9.764   9.546  68.887  1.00  0.00    -0.164 C  
HETATM    4  N   UNL     1     -10.325   8.645  67.825  1.00  0.00    -0.235 NA 
HETATM    5  C   UNL     1     -10.231   9.003  70.310  1.00  0.00    -0.235 A  
HETATM    6  C   UNL     1     -10.425  10.978  68.854  1.00  0.00    -0.204 C  
HETATM    7  C   UNL     1      -9.331   8.667  71.340  1.00  0.00    -0.305 A  
HETATM    8  C   UNL     1     -12.052   8.307  71.803  1.00  0.00    -0.364 A  
HETATM    9  C   UNL     1     -10.046   8.968  66.429  1.00  0.00    -0.281 C  
HETATM   10  C   UNL     1     -10.050   7.221  68.031  1.00  0.00    -0.172 C  
HETATM   11  C   UNL     1      -9.776   8.142  72.558  1.00  0.00    -0.357 A  
HETATM   12  C   UNL     1     -11.134   7.956  72.787  1.00  0.00    -0.462 A  
HETATM   13  C   UNL     1     -11.608   8.822  70.580  1.00  0.00    -0.236 A  
ENDROOT
BRANCH   6  14
HETATM   14  O   UNL     1     -10.052  11.863  67.795  1.00  0.00    -0.185 OA 
BRANCH  14  15
HETATM   15  C   UNL     1     -11.092  12.511  67.214  1.00  0.00    -0.274 C  
HETATM   16  O   UNL     1     -12.081  12.004  66.713  1.00  0.00    -0.613 OA 
BRANCH  15  17
HETATM   17  C   UNL     1     -10.951  13.968  67.415  1.00  0.00    -0.302 A  
HETATM   18  C   UNL     1     -11.251  15.868  68.888  1.00  0.00    -0.343 A  
HETATM   19  C   UNL     1     -11.500  14.532  68.569  1.00  0.00    -0.327 A  
HETATM   20  C   UNL     1     -10.168  14.758  66.565  1.00  0.00    -0.281 A  
HETATM   21  C   UNL     1     -10.415  16.651  68.056  1.00  0.00    -0.320 A  
HETATM   22  C   UNL     1      -9.890  16.094  66.870  1.00  0.00    -0.241 A  
BRANCH  18  23
HETATM   23  O   UNL     1     -11.721  16.458  70.039  1.00  0.00    -0.136 OA 
HETATM   24  C   UNL     1     -12.563  15.659  70.864  1.00  0.00    -0.449 C  
ENDBRANCH  18  23
BRANCH  21  25
HETATM   25  O   UNL     1     -10.246  17.954  68.465  1.00  0.00    -0.363 OA 
HETATM   26  C   UNL     1     -10.875  18.971  67.695  1.00  0.00    -0.352 C  
ENDBRANCH  21  25
BRANCH  22  27
HETATM   27  O   UNL     1      -9.126  16.885  66.055  1.00  0.00    -0.448 OA 
HETATM   28  C   UNL     1      -7.711  16.733  66.103  1.00  0.00    -0.173 C  
ENDBRANCH  22  27
ENDBRANCH  15  17
ENDBRANCH  14  15
ENDBRANCH   6  14
TORSDOF 6
ENDMDL
MODEL       30
REMARK 921   NORMALIZED FREE ENERGY PREDICTED BY IDOCK:   -5.78 KCAL/MOL
REMARK 922        TOTAL FREE ENERGY PREDICTED BY IDOCK:   -8.74 KCAL/MOL
REMARK 923 INTER-LIGAND FREE ENERGY PREDICTED BY IDOCK:   -8.03 KCAL/MOL
REMARK 924 INTRA-LIGAND FREE ENERGY PREDICTED BY IDOCK:   -0.71 KCAL/MOL
REMARK 927      BINDING AFFINITY PREDICTED BY RF-SCORE:    0.00 PKD
ROOT
HETATM    1  C   UNL     1      -9.406  11.367  65.439  1.00  0.00    -0.206 C  
HETATM    2  C   UNL     1     -10.175  11.542  66.745  1.00  0.00    -0.254 C  
HETATM    3  C   UNL     1     -10.430  12.964  67.371  1.00  0.00    -0.233 C  
HETATM    4  N   UNL     1     -11.180  13.912  66.481  1.00  0.00    -0.315 NA 
HETATM    5  C   UNL     1     -11.246  12.791  68.728  1.00  0.00    -0.327 A  
HETATM    6  C   UNL     1      -9.075  13.585  67.885  1.00  0.00    -0.204 C  
HETATM    7  C   UNL     1     -11.677  11.541  69.215  1.00  0.00    -0.397 A  
HETATM    8  C   UNL     1     -12.338  13.819  70.673  1.00  0.00    -0.445 A  
HETATM    9  C   UNL     1     -10.600  14.243  65.183  1.00  0.00    -0.406 C  
HETATM   10  C   UNL     1     -12.590  13.568  66.281  1.00  0.00    -0.239 C  
HETATM   11  C   UNL     1     -12.438  11.434  70.385  1.00  0.00    -0.345 A  
HETATM   12  C   UNL     1     -12.774  12.571  71.108  1.00  0.00    -0.340 A  
HETATM   13  C   UNL     1     -11.587  13.929  69.498  1.00  0.00    -0.358 A  
ENDROOT
BRANCH   6  14
HETATM   14  O   UNL     1      -7.994  13.693  66.957  1.00  0.00    -0.091 OA 
BRANCH  14  15
HETATM   15  C   UNL     1      -6.928  14.397  67.416  1.00  0.00    -0.064 C  
HETATM   16  O   UNL     1      -5.786  13.992  67.547  1.00  0.00    -0.341 OA 
BRANCH  15  17
HETATM   17  C   UNL     1      -7.303  15.815  67.591  1.00  0.00    -0.187 A  
HETATM   18  C   UNL     1      -6.915  17.905  68.755  1.00  0.00    -0.262 A  
HETATM   19  C   UNL     1      -6.724  16.526  68.645  1.00  0.00    -0.152 A  
HETATM   20  C   UNL     1      -8.098  16.489  66.656  1.00  0.00    -0.314 A  
HETATM   21  C   UNL     1      -7.674  18.594  67.778  1.00  0.00    -0.237 A  
HETATM   22  C   UNL     1      -8.290  17.873  66.734  1.00  0.00    -0.252 A  
BRANCH  18  23
HETATM   23  O   UNL     1      -6.324  18.662  69.739  1.00  0.00    -0.249 OA 
HETATM   24  C   UNL     1      -5.385  17.994  70.577  1.00  0.00    -0.267 C  
ENDBRANCH  18  23
BRANCH  21  25
HETATM   25  O   UNL     1      -7.799  19.948  67.992  1.00  0.00    -0.295 OA 
HETATM   26  C   UNL     1      -7.015  20.816  67.182  1.00  0.00    -0.348 C  
ENDBRANCH  21  25
BRANCH  22  27
HETATM   27  O   UNL     1      -9.062  18.554  65.830  1.00  0.00    -0.477 OA 
HETATM   28  C   UNL     1     -10.456  18.675  66.092  1.00  0.00    -0.430 C  
ENDBRANCH  22  27
ENDBRANCH  15  17
ENDBRANCH  14  15
ENDBRANCH   6  14
TORSDOF 6
ENDMDL
MODEL       31
REMARK 921   NORMALIZED FREE ENERGY PREDICTED BY IDOCK:   -5.76 KCAL/MOL
REMARK 922        TOTAL FREE ENERGY PREDICTED BY IDOCK:   -8.72 KCAL/MOL
REMARK 923 INTER-LIGAND FREE ENERGY PREDICTED BY IDOCK:   -7.99 KCAL/MOL
REMARK 924 INTRA-LIGAND FREE ENERGY PREDICTED BY IDOCK:   -0.73 KCAL/MOL
REMARK 927      BINDING AFFINITY PREDICTED BY RF-SCORE:    0.00 PKD
ROOT
HETATM    1  C   UNL     1     -11.527   6.637  70.074  1.00  0.00    -0.434 C  
HETATM    2  C   UNL     1     -11.032   6.102  68.733  1.00  0.00    -0.421 C  
HETATM    3  C   UNL     1      -9.837   6.777  67.963  1.00  0.00    -0.136 C  
HETATM    4  N   UNL     1      -8.548   6.826  68.731  1.00  0.00    -0.123 NA 
HETATM    5  C   UNL     1      -9.586   5.985  66.603  1.00  0.00    -0.179 A  
HETATM    6  C   UNL     1     -10.262   8.201  67.433  1.00  0.00    -0.258 C  
HETATM    7  C   UNL     1     -10.324   4.845  66.227  1.00  0.00    -0.336 A  
HETATM    8  C   UNL     1      -8.293   5.713  64.534  1.00  0.00    -0.108 A  
HETATM    9  C   UNL     1      -8.534   7.532  70.008  1.00  0.00    -0.137 C  
HETATM   10  C   UNL     1      -7.905   5.522  68.918  1.00  0.00    -0.095 C  
HETATM   11  C   UNL     1     -10.040   4.145  65.050  1.00  0.00    -0.220 A  
HETATM   12  C   UNL     1      -9.021   4.573  64.208  1.00  0.00    -0.150 A  
HETATM   13  C   UNL     1      -8.569   6.409  65.715  1.00  0.00    -0.152 A  
ENDROOT
BRANCH   6  14
HETATM   14  O   UNL     1     -10.772   9.141  68.382  1.00  0.00    -0.194 OA 
BRANCH  14  15
HETATM   15  C   UNL     1     -10.936  10.397  67.892  1.00  0.00    -0.297 C  
HETATM   16  O   UNL     1     -10.704  10.774  66.756  1.00  0.00    -0.255 OA 
BRANCH  15  17
HETATM   17  C   UNL     1     -11.607  11.244  68.900  1.00  0.00    -0.386 A  
HETATM   18  C   UNL     1     -12.691  11.380  71.062  1.00  0.00    -0.349 A  
HETATM   19  C   UNL     1     -12.192  10.619  70.003  1.00  0.00    -0.373 A  
HETATM   20  C   UNL     1     -11.544  12.641  68.849  1.00  0.00    -0.363 A  
HETATM   21  C   UNL     1     -12.578  12.791  71.035  1.00  0.00    -0.271 A  
HETATM   22  C   UNL     1     -12.020  13.426  69.905  1.00  0.00    -0.338 A  
BRANCH  18  23
HETATM   23  O   UNL     1     -13.227  10.815  72.197  1.00  0.00    -0.473 OA 
HETATM   24  C   UNL     1     -13.575   9.436  72.116  1.00  0.00    -0.457 C  
ENDBRANCH  18  23
BRANCH  21  25
HETATM   25  O   UNL     1     -13.109  13.436  72.129  1.00  0.00    -0.390 OA 
HETATM   26  C   UNL     1     -14.404  14.007  71.990  1.00  0.00    -0.459 C  
ENDBRANCH  21  25
BRANCH  22  27
HETATM   27  O   UNL     1     -11.968  14.794  69.878  1.00  0.00    -0.292 OA 
HETATM   28  C   UNL     1     -11.454  15.425  68.709  1.00  0.00    -0.341 C  
ENDBRANCH  22  27
ENDBRANCH  15  17
ENDBRANCH  14  15
ENDBRANCH   6  14
TORSDOF 6
ENDMDL
MODEL       32
REMARK 921   NORMALIZED FREE ENERGY PREDICTED BY IDOCK:   -5.76 KCAL/MOL
REMARK 922        TOTAL FREE ENERGY PREDICTED BY IDOCK:   -8.72 KCAL/MOL
REMARK 923 INTER-LIGAND FREE ENERGY PREDICTED BY IDOCK:   -8.02 KCAL/MOL
REMARK 924 INTRA-LIGAND FREE ENERGY PREDICTED BY IDOCK:   -0.69 KCAL/MOL
REMARK 927      BINDING AFFINITY PREDICTED BY RF-SCORE:    0.00 PKD
ROOT
HETATM    1  C   UNL     1      -7.622   9.699  67.878  1.00  0.00    -0.083 C  
HETATM    2  C   UNL     1      -8.188   9.195  69.203  1.00  0.00    -0.117 C  
HETATM    3  C   UNL     1      -9.737   9.140  69.474  1.00  0.00    -0.173 C  
HETATM    4  N   UNL     1     -10.510   8.291  68.507  1.00  0.00    -0.193 NA 
HETATM    5  C   UNL     1      -9.984   8.582  70.946  1.00  0.00    -0.237 A  
HETATM    6  C   UNL     1     -10.326  10.599  69.580  1.00  0.00    -0.182 C  
HETATM    7  C   UNL     1      -8.940   8.180  71.803  1.00  0.00    -0.216 A  
HETATM    8  C   UNL     1     -11.558   7.927  72.712  1.00  0.00    -0.387 A  
HETATM    9  C   UNL     1     -10.454   8.638  67.090  1.00  0.00    -0.289 C  
HETATM   10  C   UNL     1     -10.271   6.852  68.638  1.00  0.00    -0.173 C  
HETATM   11  C   UNL     1      -9.198   7.645  73.070  1.00  0.00    -0.256 A  
HETATM   12  C   UNL     1     -10.505   7.512  73.521  1.00  0.00    -0.362 A  
HETATM   13  C   UNL     1     -11.303   8.453  71.442  1.00  0.00    -0.317 A  
ENDROOT
BRANCH   6  14
HETATM   14  O   UNL     1     -10.094  11.494  68.489  1.00  0.00    -0.197 OA 
BRANCH  14  15
HETATM   15  C   UNL     1     -11.199  12.161  68.067  1.00  0.00    -0.264 C  
HETATM   16  O   UNL     1     -12.273  11.673  67.757  1.00  0.00    -0.560 OA 
BRANCH  15  17
HETATM   17  C   UNL     1     -10.982  13.617  68.188  1.00  0.00    -0.273 A  
HETATM   18  C   UNL     1     -10.645  15.736  67.061  1.00  0.00    -0.316 A  
HETATM   19  C   UNL     1     -10.694  14.340  67.028  1.00  0.00    -0.290 A  
HETATM   20  C   UNL     1     -11.198  14.298  69.392  1.00  0.00    -0.313 A  
HETATM   21  C   UNL     1     -10.918  16.425  68.267  1.00  0.00    -0.355 A  
HETATM   22  C   UNL     1     -11.173  15.695  69.447  1.00  0.00    -0.313 A  
BRANCH  18  23
HETATM   23  O   UNL     1     -10.421  16.499  65.938  1.00  0.00    -0.337 OA 
HETATM   24  C   UNL     1     -11.137  16.128  64.764  1.00  0.00    -0.333 C  
ENDBRANCH  18  23
BRANCH  21  25
HETATM   25  O   UNL     1     -10.835  17.796  68.181  1.00  0.00    -0.329 OA 
HETATM   26  C   UNL     1      -9.565  18.393  68.413  1.00  0.00    -0.345 C  
ENDBRANCH  21  25
BRANCH  22  27
HETATM   27  O   UNL     1     -11.383  16.383  70.613  1.00  0.00    -0.368 OA 
HETATM   28  C   UNL     1     -12.313  15.849  71.551  1.00  0.00    -0.448 C  
ENDBRANCH  22  27
ENDBRANCH  15  17
ENDBRANCH  14  15
ENDBRANCH   6  14
TORSDOF 6
ENDMDL
MODEL       33
REMARK 921   NORMALIZED FREE ENERGY PREDICTED BY IDOCK:   -5.72 KCAL/MOL
REMARK 922        TOTAL FREE ENERGY PREDICTED BY IDOCK:   -8.66 KCAL/MOL
REMARK 923 INTER-LIGAND FREE ENERGY PREDICTED BY IDOCK:   -7.69 KCAL/MOL
REMARK 924 INTRA-LIGAND FREE ENERGY PREDICTED BY IDOCK:   -0.96 KCAL/MOL
REMARK 927      BINDING AFFINITY PREDICTED BY RF-SCORE:    0.00 PKD
ROOT
HETATM    1  C   UNL     1     -11.610  12.281  65.843  1.00  0.00    -0.450 C  
HETATM    2  C   UNL     1     -11.158  11.118  66.722  1.00  0.00    -0.280 C  
HETATM    3  C   UNL     1     -10.348  11.350  68.051  1.00  0.00    -0.184 C  
HETATM    4  N   UNL     1     -11.049  12.206  69.067  1.00  0.00    -0.241 NA 
HETATM    5  C   UNL     1     -10.027   9.938  68.714  1.00  0.00    -0.183 A  
HETATM    6  C   UNL     1      -8.903  11.889  67.723  1.00  0.00    -0.166 C  
HETATM    7  C   UNL     1     -10.463   8.714  68.169  1.00  0.00    -0.241 A  
HETATM    8  C   UNL     1      -9.022   8.654  70.550  1.00  0.00    -0.185 A  
HETATM    9  C   UNL     1     -11.418  13.565  68.685  1.00  0.00    -0.308 C  
HETATM   10  C   UNL     1     -12.211  11.571  69.694  1.00  0.00    -0.229 C  
HETATM   11  C   UNL     1     -10.206   7.496  68.808  1.00  0.00    -0.206 A  
HETATM   12  C   UNL     1      -9.494   7.466  70.000  1.00  0.00    -0.161 A  
HETATM   13  C   UNL     1      -9.286   9.873  69.918  1.00  0.00    -0.250 A  
ENDROOT
BRANCH   6  14
HETATM   14  O   UNL     1      -8.795  13.068  66.921  1.00  0.00    -0.214 OA 
BRANCH  14  15
HETATM   15  C   UNL     1      -8.029  14.048  67.465  1.00  0.00    -0.187 C  
HETATM   16  O   UNL     1      -6.949  13.911  68.015  1.00  0.00    -0.106 OA 
BRANCH  15  17
HETATM   17  C   UNL     1      -8.612  15.369  67.156  1.00  0.00    -0.235 A  
HETATM   18  C   UNL     1     -10.092  16.673  65.747  1.00  0.00    -0.277 A  
HETATM   19  C   UNL     1      -9.384  15.495  65.998  1.00  0.00    -0.379 A  
HETATM   20  C   UNL     1      -8.532  16.440  68.053  1.00  0.00    -0.183 A  
HETATM   21  C   UNL     1     -10.053  17.735  66.682  1.00  0.00    -0.350 A  
HETATM   22  C   UNL     1      -9.245  17.624  67.833  1.00  0.00    -0.267 A  
BRANCH  18  23
HETATM   23  O   UNL     1     -10.910  16.830  64.652  1.00  0.00    -0.835 OA 
HETATM   24  C   UNL     1     -11.867  15.800  64.421  1.00  0.00    -0.148 C  
ENDBRANCH  18  23
BRANCH  21  25
HETATM   25  O   UNL     1     -10.783  18.846  66.327  1.00  0.00    -0.395 OA 
HETATM   26  C   UNL     1     -10.071  19.961  65.805  1.00  0.00    -0.345 C  
ENDBRANCH  21  25
BRANCH  22  27
HETATM   27  O   UNL     1      -9.183  18.684  68.698  1.00  0.00    -0.333 OA 
HETATM   28  C   UNL     1      -7.972  19.431  68.760  1.00  0.00    -0.356 C  
ENDBRANCH  22  27
ENDBRANCH  15  17
ENDBRANCH  14  15
ENDBRANCH   6  14
TORSDOF 6
ENDMDL
MODEL       34
REMARK 921   NORMALIZED FREE ENERGY PREDICTED BY IDOCK:   -5.71 KCAL/MOL
REMARK 922        TOTAL FREE ENERGY PREDICTED BY IDOCK:   -8.64 KCAL/MOL
REMARK 923 INTER-LIGAND FREE ENERGY PREDICTED BY IDOCK:   -7.96 KCAL/MOL
REMARK 924 INTRA-LIGAND FREE ENERGY PREDICTED BY IDOCK:   -0.69 KCAL/MOL
REMARK 927      BINDING AFFINITY PREDICTED BY RF-SCORE:    0.00 PKD
ROOT
HETATM    1  C   UNL     1     -10.518   8.164  66.947  1.00  0.00    -0.379 C  
HETATM    2  C   UNL     1     -10.832   9.642  66.728  1.00  0.00    -0.051 C  
HETATM    3  C   UNL     1      -9.693  10.717  66.578  1.00  0.00    -0.196 C  
HETATM    4  N   UNL     1      -8.745  10.468  65.441  1.00  0.00    -0.178 NA 
HETATM    5  C   UNL     1     -10.360  12.150  66.376  1.00  0.00    -0.246 A  
HETATM    6  C   UNL     1      -8.934  10.905  67.948  1.00  0.00    -0.141 C  
HETATM    7  C   UNL     1     -11.753  12.350  66.310  1.00  0.00    -0.457 A  
HETATM    8  C   UNL     1     -10.092  14.564  66.013  1.00  0.00    -0.336 A  
HETATM    9  C   UNL     1      -7.994   9.216  65.432  1.00  0.00    -0.106 C  
HETATM   10  C   UNL     1      -9.329  10.663  64.111  1.00  0.00    -0.258 C  
HETATM   11  C   UNL     1     -12.300  13.617  66.078  1.00  0.00    -0.493 A  
HETATM   12  C   UNL     1     -11.471  14.721  65.923  1.00  0.00    -0.319 A  
HETATM   13  C   UNL     1      -9.542  13.297  66.235  1.00  0.00    -0.244 A  
ENDROOT
BRANCH   6  14
HETATM   14  O   UNL     1      -8.375   9.743  68.566  1.00  0.00    -0.107 OA 
BRANCH  14  15
HETATM   15  C   UNL     1      -8.339   9.793  69.922  1.00  0.00    -0.184 C  
HETATM   16  O   UNL     1      -7.401  10.151  70.615  1.00  0.00    -0.306 OA 
BRANCH  15  17
HETATM   17  C   UNL     1      -9.680   9.504  70.470  1.00  0.00    -0.325 A  
HETATM   18  C   UNL     1     -11.032   8.161  71.967  1.00  0.00    -0.286 A  
HETATM   19  C   UNL     1      -9.830   8.384  71.291  1.00  0.00    -0.255 A  
HETATM   20  C   UNL     1     -10.751  10.391  70.307  1.00  0.00    -0.249 A  
HETATM   21  C   UNL     1     -12.095   9.087  71.844  1.00  0.00    -0.378 A  
HETATM   22  C   UNL     1     -11.959  10.199  70.986  1.00  0.00    -0.378 A  
BRANCH  18  23
HETATM   23  O   UNL     1     -11.215   7.106  72.830  1.00  0.00    -0.291 OA 
HETATM   24  C   UNL     1     -10.114   6.775  73.673  1.00  0.00    -0.296 C  
ENDBRANCH  18  23
BRANCH  21  25
HETATM   25  O   UNL     1     -13.232   8.761  72.549  1.00  0.00    -0.400 OA 
HETATM   26  C   UNL     1     -14.381   8.380  71.802  1.00  0.00    -0.472 C  
ENDBRANCH  21  25
BRANCH  22  27
HETATM   27  O   UNL     1     -13.019  11.053  70.843  1.00  0.00    -0.316 OA 
HETATM   28  C   UNL     1     -13.085  12.193  71.695  1.00  0.00    -0.310 C  
ENDBRANCH  22  27
ENDBRANCH  15  17
ENDBRANCH  14  15
ENDBRANCH   6  14
TORSDOF 6
ENDMDL
MODEL       35
REMARK 921   NORMALIZED FREE ENERGY PREDICTED BY IDOCK:   -5.69 KCAL/MOL
REMARK 922        TOTAL FREE ENERGY PREDICTED BY IDOCK:   -8.62 KCAL/MOL
REMARK 923 INTER-LIGAND FREE ENERGY PREDICTED BY IDOCK:   -7.70 KCAL/MOL
REMARK 924 INTRA-LIGAND FREE ENERGY PREDICTED BY IDOCK:   -0.92 KCAL/MOL
REMARK 927      BINDING AFFINITY PREDICTED BY RF-SCORE:    0.00 PKD
ROOT
HETATM    1  C   UNL     1     -10.168   7.993  68.387  1.00  0.00    -0.239 C  
HETATM    2  C   UNL     1      -9.278   8.060  69.625  1.00  0.00    -0.152 C  
HETATM    3  C   UNL     1      -9.878   8.018  71.079  1.00  0.00    -0.174 C  
HETATM    4  N   UNL     1     -10.683   6.788  71.387  1.00  0.00    -0.222 NA 
HETATM    5  C   UNL     1      -8.687   8.119  72.133  1.00  0.00    -0.234 A  
HETATM    6  C   UNL     1     -10.686   9.340  71.377  1.00  0.00    -0.362 C  
HETATM    7  C   UNL     1      -7.331   8.192  71.758  1.00  0.00    -0.094 A  
HETATM    8  C   UNL     1      -7.945   8.167  74.473  1.00  0.00    -0.293 A  
HETATM    9  C   UNL     1     -11.851   6.505  70.560  1.00  0.00    -0.328 C  
HETATM   10  C   UNL     1      -9.892   5.560  71.502  1.00  0.00    -0.171 C  
HETATM   11  C   UNL     1      -6.309   8.227  72.712  1.00  0.00    -0.089 A  
HETATM   12  C   UNL     1      -6.614   8.207  74.068  1.00  0.00    -0.142 A  
HETATM   13  C   UNL     1      -8.967   8.122  73.520  1.00  0.00    -0.295 A  
ENDROOT
BRANCH   6  14
HETATM   14  O   UNL     1     -11.731   9.702  70.471  1.00  0.00    -0.263 OA 
BRANCH  14  15
HETATM   15  C   UNL     1     -12.347  10.875  70.768  1.00  0.00    -0.390 C  
HETATM   16  O   UNL     1     -12.864  11.181  71.829  1.00  0.00    -0.422 OA 
BRANCH  15  17
HETATM   17  C   UNL     1     -12.166  11.831  69.657  1.00  0.00    -0.248 A  
HETATM   18  C   UNL     1     -11.811  14.129  68.973  1.00  0.00    -0.348 A  
HETATM   19  C   UNL     1     -12.144  13.195  69.957  1.00  0.00    -0.375 A  
HETATM   20  C   UNL     1     -11.875  11.405  68.356  1.00  0.00    -0.344 A  
HETATM   21  C   UNL     1     -11.464  13.692  67.672  1.00  0.00    -0.325 A  
HETATM   22  C   UNL     1     -11.521  12.318  67.357  1.00  0.00    -0.352 A  
BRANCH  18  23
HETATM   23  O   UNL     1     -11.720  15.478  69.228  1.00  0.00    -0.324 OA 
HETATM   24  C   UNL     1     -10.840  15.868  70.278  1.00  0.00    -0.340 C  
ENDBRANCH  18  23
BRANCH  21  25
HETATM   25  O   UNL     1     -11.160  14.700  66.785  1.00  0.00    -0.320 OA 
HETATM   26  C   UNL     1      -9.806  14.818  66.365  1.00  0.00    -0.280 C  
ENDBRANCH  21  25
BRANCH  22  27
HETATM   27  O   UNL     1     -11.232  11.924  66.078  1.00  0.00    -0.318 OA 
HETATM   28  C   UNL     1     -10.284  10.877  65.895  1.00  0.00    -0.257 C  
ENDBRANCH  22  27
ENDBRANCH  15  17
ENDBRANCH  14  15
ENDBRANCH   6  14
TORSDOF 6
ENDMDL
MODEL       36
REMARK 921   NORMALIZED FREE ENERGY PREDICTED BY IDOCK:   -5.65 KCAL/MOL
REMARK 922        TOTAL FREE ENERGY PREDICTED BY IDOCK:   -8.57 KCAL/MOL
REMARK 923 INTER-LIGAND FREE ENERGY PREDICTED BY IDOCK:   -7.70 KCAL/MOL
REMARK 924 INTRA-LIGAND FREE ENERGY PREDICTED BY IDOCK:   -0.87 KCAL/MOL
REMARK 927      BINDING AFFINITY PREDICTED BY RF-SCORE:    0.00 PKD
ROOT
HETATM    1  C   UNL     1     -10.272  16.827  68.603  1.00  0.00    -0.298 C  
HETATM    2  C   UNL     1      -9.147  17.842  68.419  1.00  0.00    -0.278 C  
HETATM    3  C   UNL     1      -8.595  18.216  66.993  1.00  0.00    -0.254 C  
HETATM    4  N   UNL     1      -9.623  18.773  66.052  1.00  0.00    -0.487 NA 
HETATM    5  C   UNL     1      -7.427  19.287  67.157  1.00  0.00    -0.243 A  
HETATM    6  C   UNL     1      -7.825  16.991  66.367  1.00  0.00    -0.308 C  
HETATM    7  C   UNL     1      -7.027  19.806  68.404  1.00  0.00    -0.339 A  
HETATM    8  C   UNL     1      -5.747  20.745  66.117  1.00  0.00    -0.246 A  
HETATM    9  C   UNL     1     -10.781  17.945  65.729  1.00  0.00    -0.089 C  
HETATM   10  C   UNL     1     -10.099  20.114  66.399  1.00  0.00    -0.445 C  
HETATM   11  C   UNL     1      -6.032  20.785  68.504  1.00  0.00    -0.388 A  
HETATM   12  C   UNL     1      -5.398  21.259  67.362  1.00  0.00    -0.357 A  
HETATM   13  C   UNL     1      -6.748  19.774  66.015  1.00  0.00    -0.253 A  
ENDROOT
BRANCH   6  14
HETATM   14  O   UNL     1      -8.519  15.745  66.265  1.00  0.00    -0.298 OA 
BRANCH  14  15
HETATM   15  C   UNL     1      -7.888  14.701  66.861  1.00  0.00     0.125 C  
HETATM   16  O   UNL     1      -6.741  14.681  67.273  1.00  0.00    -0.280 OA 
BRANCH  15  17
HETATM   17  C   UNL     1      -8.849  13.606  67.102  1.00  0.00    -0.237 A  
HETATM   18  C   UNL     1      -9.391  11.597  68.344  1.00  0.00    -0.191 A  
HETATM   19  C   UNL     1      -8.465  12.566  67.952  1.00  0.00    -0.171 A  
HETATM   20  C   UNL     1     -10.164  13.658  66.624  1.00  0.00    -0.276 A  
HETATM   21  C   UNL     1     -10.734  11.682  67.903  1.00  0.00    -0.202 A  
HETATM   22  C   UNL     1     -11.114  12.710  67.015  1.00  0.00    -0.281 A  
BRANCH  18  23
HETATM   23  O   UNL     1      -9.082  10.584  69.222  1.00  0.00    -0.189 OA 
HETATM   24  C   UNL     1      -7.697  10.363  69.475  1.00  0.00    -0.156 C  
ENDBRANCH  18  23
BRANCH  21  25
HETATM   25  O   UNL     1     -11.554  10.670  68.347  1.00  0.00    -0.349 OA 
HETATM   26  C   UNL     1     -12.278  10.892  69.552  1.00  0.00    -0.261 C  
ENDBRANCH  21  25
BRANCH  22  27
HETATM   27  O   UNL     1     -12.406  12.742  66.561  1.00  0.00    -0.476 OA 
HETATM   28  C   UNL     1     -12.652  13.284  65.267  1.00  0.00    -0.470 C  
ENDBRANCH  22  27
ENDBRANCH  15  17
ENDBRANCH  14  15
ENDBRANCH   6  14
TORSDOF 6
ENDMDL
MODEL       37
REMARK 921   NORMALIZED FREE ENERGY PREDICTED BY IDOCK:   -5.62 KCAL/MOL
REMARK 922        TOTAL FREE ENERGY PREDICTED BY IDOCK:   -8.52 KCAL/MOL
REMARK 923 INTER-LIGAND FREE ENERGY PREDICTED BY IDOCK:   -7.76 KCAL/MOL
REMARK 924 INTRA-LIGAND FREE ENERGY PREDICTED BY IDOCK:   -0.76 KCAL/MOL
REMARK 927      BINDING AFFINITY PREDICTED BY RF-SCORE:    0.00 PKD
ROOT
HETATM    1  C   UNL     1     -11.717   9.817  71.119  1.00  0.00    -0.465 C  
HETATM    2  C   UNL     1     -11.481   8.379  71.572  1.00  0.00    -0.335 C  
HETATM    3  C   UNL     1     -10.321   7.502  70.971  1.00  0.00    -0.199 C  
HETATM    4  N   UNL     1      -8.945   8.076  71.153  1.00  0.00    -0.137 NA 
HETATM    5  C   UNL     1     -10.360   6.060  71.647  1.00  0.00    -0.260 A  
HETATM    6  C   UNL     1     -10.620   7.159  69.461  1.00  0.00    -0.234 C  
HETATM    7  C   UNL     1     -11.286   5.703  72.648  1.00  0.00    -0.356 A  
HETATM    8  C   UNL     1      -9.403   3.809  71.863  1.00  0.00    -0.194 A  
HETATM    9  C   UNL     1      -8.667   9.391  70.585  1.00  0.00    -0.211 C  
HETATM   10  C   UNL     1      -8.461   8.060  72.536  1.00  0.00    -0.162 C  
HETATM   11  C   UNL     1     -11.256   4.443  73.256  1.00  0.00    -0.364 A  
HETATM   12  C   UNL     1     -10.312   3.501  72.870  1.00  0.00    -0.246 A  
HETATM   13  C   UNL     1      -9.424   5.071  71.261  1.00  0.00    -0.209 A  
ENDROOT
BRANCH   6  14
HETATM   14  O   UNL     1     -10.870   8.245  68.566  1.00  0.00    -0.069 OA 
BRANCH  14  15
HETATM   15  C   UNL     1      -9.949   8.380  67.577  1.00  0.00    -0.200 C  
HETATM   16  O   UNL     1      -9.019   7.628  67.339  1.00  0.00    -0.126 OA 
BRANCH  15  17
HETATM   17  C   UNL     1     -10.322   9.503  66.694  1.00  0.00    -0.280 A  
HETATM   18  C   UNL     1     -11.406  11.660  66.475  1.00  0.00    -0.263 A  
HETATM   19  C   UNL     1     -11.158  10.497  67.208  1.00  0.00    -0.284 A  
HETATM   20  C   UNL     1      -9.751   9.667  65.427  1.00  0.00    -0.365 A  
HETATM   21  C   UNL     1     -10.784  11.849  65.217  1.00  0.00    -0.283 A  
HETATM   22  C   UNL     1      -9.969  10.830  64.680  1.00  0.00    -0.324 A  
BRANCH  18  23
HETATM   23  O   UNL     1     -12.175  12.694  66.956  1.00  0.00    -0.466 OA 
HETATM   24  C   UNL     1     -11.857  13.169  68.261  1.00  0.00    -0.349 C  
ENDBRANCH  18  23
BRANCH  21  25
HETATM   25  O   UNL     1     -11.106  13.027  64.583  1.00  0.00    -0.304 OA 
HETATM   26  C   UNL     1     -12.112  12.980  63.579  1.00  0.00    -0.542 C  
ENDBRANCH  21  25
BRANCH  22  27
HETATM   27  O   UNL     1      -9.420  11.013  63.439  1.00  0.00    -0.249 OA 
HETATM   28  C   UNL     1      -9.143   9.861  62.649  1.00  0.00    -0.286 C  
ENDBRANCH  22  27
ENDBRANCH  15  17
ENDBRANCH  14  15
ENDBRANCH   6  14
TORSDOF 6
ENDMDL
MODEL       38
REMARK 921   NORMALIZED FREE ENERGY PREDICTED BY IDOCK:   -5.60 KCAL/MOL
REMARK 922        TOTAL FREE ENERGY PREDICTED BY IDOCK:   -8.50 KCAL/MOL
REMARK 923 INTER-LIGAND FREE ENERGY PREDICTED BY IDOCK:   -7.64 KCAL/MOL
REMARK 924 INTRA-LIGAND FREE ENERGY PREDICTED BY IDOCK:   -0.86 KCAL/MOL
REMARK 927      BINDING AFFINITY PREDICTED BY RF-SCORE:    0.00 PKD
ROOT
HETATM    1  C   UNL     1     -11.791  12.615  67.672  1.00  0.00    -0.390 C  
HETATM    2  C   UNL     1     -11.072  11.981  66.485  1.00  0.00    -0.362 C  
HETATM    3  C   UNL     1      -9.699  11.231  66.653  1.00  0.00    -0.196 C  
HETATM    4  N   UNL     1      -9.734  10.070  67.604  1.00  0.00    -0.155 NA 
HETATM    5  C   UNL     1      -9.222  10.702  65.227  1.00  0.00    -0.230 A  
HETATM    6  C   UNL     1      -8.557  12.256  67.016  1.00  0.00    -0.191 C  
HETATM    7  C   UNL     1      -9.975  10.876  64.049  1.00  0.00    -0.403 A  
HETATM    8  C   UNL     1      -7.566   9.491  63.878  1.00  0.00    -0.122 A  
HETATM    9  C   UNL     1     -10.120  10.326  68.989  1.00  0.00    -0.213 C  
HETATM   10  C   UNL     1     -10.492   8.913  67.121  1.00  0.00    -0.274 C  
HETATM   11  C   UNL     1      -9.549  10.351  62.825  1.00  0.00    -0.311 A  
HETATM   12  C   UNL     1      -8.350   9.654  62.740  1.00  0.00    -0.162 A  
HETATM   13  C   UNL     1      -7.996  10.006  65.105  1.00  0.00    -0.145 A  
ENDROOT
BRANCH   6  14
HETATM   14  O   UNL     1      -8.751  13.096  68.156  1.00  0.00    -0.182 OA 
BRANCH  14  15
HETATM   15  C   UNL     1      -8.007  14.232  68.148  1.00  0.00    -0.140 C  
HETATM   16  O   UNL     1      -6.800  14.316  68.297  1.00  0.00    -0.088 OA 
BRANCH  15  17
HETATM   17  C   UNL     1      -8.852  15.381  67.760  1.00  0.00    -0.170 A  
HETATM   18  C   UNL     1      -9.465  17.693  68.150  1.00  0.00    -0.286 A  
HETATM   19  C   UNL     1      -8.818  16.525  68.561  1.00  0.00    -0.228 A  
HETATM   20  C   UNL     1      -9.560  15.402  66.553  1.00  0.00    -0.298 A  
HETATM   21  C   UNL     1     -10.135  17.729  66.903  1.00  0.00    -0.342 A  
HETATM   22  C   UNL     1     -10.201  16.564  66.111  1.00  0.00    -0.346 A  
BRANCH  18  23
HETATM   23  O   UNL     1      -9.417  18.863  68.872  1.00  0.00    -0.347 OA 
HETATM   24  C   UNL     1      -8.156  19.524  68.928  1.00  0.00    -0.282 C  
ENDBRANCH  18  23
BRANCH  21  25
HETATM   25  O   UNL     1     -10.740  18.929  66.606  1.00  0.00    -0.398 OA 
HETATM   26  C   UNL     1      -9.992  19.872  65.847  1.00  0.00    -0.393 C  
ENDBRANCH  21  25
BRANCH  22  27
HETATM   27  O   UNL     1     -10.898  16.609  64.933  1.00  0.00    -0.697 OA 
HETATM   28  C   UNL     1     -11.646  15.459  64.549  1.00  0.00    -0.296 C  
ENDBRANCH  22  27
ENDBRANCH  15  17
ENDBRANCH  14  15
ENDBRANCH   6  14
TORSDOF 6
ENDMDL
MODEL       39
REMARK 921   NORMALIZED FREE ENERGY PREDICTED BY IDOCK:   -5.59 KCAL/MOL
REMARK 922        TOTAL FREE ENERGY PREDICTED BY IDOCK:   -8.49 KCAL/MOL
REMARK 923 INTER-LIGAND FREE ENERGY PREDICTED BY IDOCK:   -7.54 KCAL/MOL
REMARK 924 INTRA-LIGAND FREE ENERGY PREDICTED BY IDOCK:   -0.95 KCAL/MOL
REMARK 927      BINDING AFFINITY PREDICTED BY RF-SCORE:    0.00 PKD
ROOT
HETATM    1  C   UNL     1     -11.538  12.712  67.090  1.00  0.00    -0.434 C  
HETATM    2  C   UNL     1     -10.840  11.894  66.007  1.00  0.00    -0.342 C  
HETATM    3  C   UNL     1      -9.495  11.126  66.287  1.00  0.00    -0.196 C  
HETATM    4  N   UNL     1      -9.575  10.110  67.390  1.00  0.00    -0.152 NA 
HETATM    5  C   UNL     1      -9.034  10.388  64.953  1.00  0.00    -0.225 A  
HETATM    6  C   UNL     1      -8.317  12.150  66.514  1.00  0.00     0.020 C  
HETATM    7  C   UNL     1      -9.777  10.424  63.756  1.00  0.00    -0.351 A  
HETATM    8  C   UNL     1      -7.420   8.943  63.797  1.00  0.00    -0.112 A  
HETATM    9  C   UNL     1      -9.955  10.568  68.723  1.00  0.00    -0.192 C  
HETATM   10  C   UNL     1     -10.374   8.925  67.065  1.00  0.00    -0.269 C  
HETATM   11  C   UNL     1      -9.366   9.720  62.619  1.00  0.00    -0.173 A  
HETATM   12  C   UNL     1      -8.194   8.975  62.641  1.00  0.00    -0.179 A  
HETATM   13  C   UNL     1      -7.834   9.638  64.938  1.00  0.00    -0.123 A  
ENDROOT
BRANCH   6  14
HETATM   14  O   UNL     1      -8.483  13.146  67.526  1.00  0.00    -0.173 OA 
BRANCH  14  15
HETATM   15  C   UNL     1      -7.586  14.163  67.464  1.00  0.00    -0.184 C  
HETATM   16  O   UNL     1      -6.371  14.067  67.482  1.00  0.00    -0.284 OA 
BRANCH  15  17
HETATM   17  C   UNL     1      -8.289  15.435  67.198  1.00  0.00    -0.247 A  
HETATM   18  C   UNL     1      -9.983  16.609  65.923  1.00  0.00    -0.295 A  
HETATM   19  C   UNL     1      -9.172  15.488  66.117  1.00  0.00    -0.379 A  
HETATM   20  C   UNL     1      -8.201  16.523  68.074  1.00  0.00    -0.172 A  
HETATM   21  C   UNL     1      -9.932  17.686  66.841  1.00  0.00    -0.323 A  
HETATM   22  C   UNL     1      -9.014  17.650  67.912  1.00  0.00    -0.250 A  
BRANCH  18  23
HETATM   23  O   UNL     1     -10.909  16.691  64.910  1.00  0.00    -0.697 OA 
HETATM   24  C   UNL     1     -11.604  15.490  64.585  1.00  0.00    -0.281 C  
ENDBRANCH  18  23
BRANCH  21  25
HETATM   25  O   UNL     1     -10.770  18.737  66.546  1.00  0.00    -0.382 OA 
HETATM   26  C   UNL     1     -10.191  19.890  65.945  1.00  0.00    -0.451 C  
ENDBRANCH  21  25
BRANCH  22  27
HETATM   27  O   UNL     1      -8.947  18.725  68.757  1.00  0.00    -0.330 OA 
HETATM   28  C   UNL     1      -7.728  19.459  68.817  1.00  0.00    -0.362 C  
ENDBRANCH  22  27
ENDBRANCH  15  17
ENDBRANCH  14  15
ENDBRANCH   6  14
TORSDOF 6
ENDMDL
MODEL       40
REMARK 921   NORMALIZED FREE ENERGY PREDICTED BY IDOCK:   -5.58 KCAL/MOL
REMARK 922        TOTAL FREE ENERGY PREDICTED BY IDOCK:   -8.48 KCAL/MOL
REMARK 923 INTER-LIGAND FREE ENERGY PREDICTED BY IDOCK:   -7.77 KCAL/MOL
REMARK 924 INTRA-LIGAND FREE ENERGY PREDICTED BY IDOCK:   -0.71 KCAL/MOL
REMARK 927      BINDING AFFINITY PREDICTED BY RF-SCORE:    0.00 PKD
ROOT
HETATM    1  C   UNL     1      -8.962  16.136  65.622  1.00  0.00     0.134 C  
HETATM    2  C   UNL     1      -8.205  17.291  66.273  1.00  0.00    -0.302 C  
HETATM    3  C   UNL     1      -8.065  17.413  67.835  1.00  0.00    -0.220 C  
HETATM    4  N   UNL     1      -7.398  16.241  68.496  1.00  0.00    -0.160 NA 
HETATM    5  C   UNL     1      -7.233  18.728  68.178  1.00  0.00    -0.273 A  
HETATM    6  C   UNL     1      -9.465  17.738  68.486  1.00  0.00    -0.304 C  
HETATM    7  C   UNL     1      -6.700  19.581  67.192  1.00  0.00    -0.212 A  
HETATM    8  C   UNL     1      -6.222  20.199  69.863  1.00  0.00    -0.380 A  
HETATM    9  C   UNL     1      -8.008  14.924  68.340  1.00  0.00    -0.134 C  
HETATM   10  C   UNL     1      -5.966  16.122  68.214  1.00  0.00    -0.110 C  
HETATM   11  C   UNL     1      -5.929  20.698  67.530  1.00  0.00    -0.284 A  
HETATM   12  C   UNL     1      -5.684  21.003  68.864  1.00  0.00    -0.329 A  
HETATM   13  C   UNL     1      -6.984  19.076  69.527  1.00  0.00    -0.167 A  
ENDROOT
BRANCH   6  14
HETATM   14  O   UNL     1     -10.555  16.858  68.201  1.00  0.00    -0.330 OA 
BRANCH  14  15
HETATM   15  C   UNL     1     -11.046  16.206  69.286  1.00  0.00    -0.327 C  
HETATM   16  O   UNL     1     -11.281  16.686  70.382  1.00  0.00    -0.260 OA 
BRANCH  15  17
HETATM   17  C   UNL     1     -11.427  14.829  68.913  1.00  0.00    -0.321 A  
HETATM   18  C   UNL     1     -11.566  13.144  67.176  1.00  0.00    -0.361 A  
HETATM   19  C   UNL     1     -11.378  14.473  67.563  1.00  0.00    -0.355 A  
HETATM   20  C   UNL     1     -11.691  13.849  69.877  1.00  0.00    -0.358 A  
HETATM   21  C   UNL     1     -11.779  12.145  68.156  1.00  0.00    -0.341 A  
HETATM   22  C   UNL     1     -11.866  12.508  69.517  1.00  0.00    -0.310 A  
BRANCH  18  23
HETATM   23  O   UNL     1     -11.474  12.730  65.867  1.00  0.00    -0.322 OA 
HETATM   24  C   UNL     1     -10.188  12.826  65.260  1.00  0.00    -0.279 C  
ENDBRANCH  18  23
BRANCH  21  25
HETATM   25  O   UNL     1     -11.957  10.874  67.659  1.00  0.00    -0.512 OA 
HETATM   26  C   UNL     1     -10.834  10.002  67.668  1.00  0.00    -0.278 C  
ENDBRANCH  21  25
BRANCH  22  27
HETATM   27  O   UNL     1     -12.123  11.533  70.443  1.00  0.00    -0.350 OA 
HETATM   28  C   UNL     1     -12.937  11.866  71.563  1.00  0.00    -0.323 C  
ENDBRANCH  22  27
ENDBRANCH  15  17
ENDBRANCH  14  15
ENDBRANCH   6  14
TORSDOF 6
ENDMDL
MODEL       41
REMARK 921   NORMALIZED FREE ENERGY PREDICTED BY IDOCK:   -5.57 KCAL/MOL
REMARK 922        TOTAL FREE ENERGY PREDICTED BY IDOCK:   -8.45 KCAL/MOL
REMARK 923 INTER-LIGAND FREE ENERGY PREDICTED BY IDOCK:   -7.68 KCAL/MOL
REMARK 924 INTRA-LIGAND FREE ENERGY PREDICTED BY IDOCK:   -0.78 KCAL/MOL
REMARK 927      BINDING AFFINITY PREDICTED BY RF-SCORE:    0.00 PKD
ROOT
HETATM    1  C   UNL     1      -8.528   9.103  69.114  1.00  0.00    -0.132 C  
HETATM    2  C   UNL     1      -8.925   8.205  70.281  1.00  0.00    -0.146 C  
HETATM    3  C   UNL     1     -10.352   7.547  70.372  1.00  0.00    -0.214 C  
HETATM    4  N   UNL     1     -10.706   6.662  69.212  1.00  0.00    -0.242 NA 
HETATM    5  C   UNL     1     -10.441   6.687  71.710  1.00  0.00    -0.233 A  
HETATM    6  C   UNL     1     -11.448   8.652  70.625  1.00  0.00    -0.228 C  
HETATM    7  C   UNL     1      -9.364   6.545  72.607  1.00  0.00    -0.145 A  
HETATM    8  C   UNL     1     -11.737   5.208  73.179  1.00  0.00    -0.189 A  
HETATM    9  C   UNL     1     -10.718   7.249  67.876  1.00  0.00    -0.172 C  
HETATM   10  C   UNL     1      -9.952   5.407  69.156  1.00  0.00    -0.197 C  
HETATM   11  C   UNL     1      -9.462   5.738  73.746  1.00  0.00    -0.140 A  
HETATM   12  C   UNL     1     -10.645   5.064  74.028  1.00  0.00    -0.348 A  
HETATM   13  C   UNL     1     -11.638   6.006  72.035  1.00  0.00    -0.333 A  
ENDROOT
BRANCH   6  14
HETATM   14  O   UNL     1     -11.517   9.748  69.709  1.00  0.00    -0.201 OA 
BRANCH  14  15
HETATM   15  C   UNL     1     -12.044  10.884  70.233  1.00  0.00    -0.355 C  
HETATM   16  O   UNL     1     -12.363  11.073  71.395  1.00  0.00    -0.328 OA 
BRANCH  15  17
HETATM   17  C   UNL     1     -12.031  11.957  69.218  1.00  0.00    -0.342 A  
HETATM   18  C   UNL     1     -11.866  14.329  68.752  1.00  0.00    -0.341 A  
HETATM   19  C   UNL     1     -12.045  13.283  69.659  1.00  0.00    -0.331 A  
HETATM   20  C   UNL     1     -11.861  11.683  67.856  1.00  0.00    -0.273 A  
HETATM   21  C   UNL     1     -11.641  14.049  67.383  1.00  0.00    -0.368 A  
HETATM   22  C   UNL     1     -11.663  12.712  66.930  1.00  0.00    -0.383 A  
BRANCH  18  23
HETATM   23  O   UNL     1     -11.816  15.649  69.139  1.00  0.00    -0.363 OA 
HETATM   24  C   UNL     1     -10.748  16.016  70.007  1.00  0.00    -0.328 C  
ENDBRANCH  18  23
BRANCH  21  25
HETATM   25  O   UNL     1     -11.484  15.157  66.582  1.00  0.00    -0.300 OA 
HETATM   26  C   UNL     1     -10.162  15.496  66.180  1.00  0.00    -0.306 C  
ENDBRANCH  21  25
BRANCH  22  27
HETATM   27  O   UNL     1     -11.494  12.468  65.593  1.00  0.00    -0.326 OA 
HETATM   28  C   UNL     1     -12.642  12.507  64.751  1.00  0.00    -0.413 C  
ENDBRANCH  22  27
ENDBRANCH  15  17
ENDBRANCH  14  15
ENDBRANCH   6  14
TORSDOF 6
ENDMDL
MODEL       42
REMARK 921   NORMALIZED FREE ENERGY PREDICTED BY IDOCK:   -5.57 KCAL/MOL
REMARK 922        TOTAL FREE ENERGY PREDICTED BY IDOCK:   -8.45 KCAL/MOL
REMARK 923 INTER-LIGAND FREE ENERGY PREDICTED BY IDOCK:   -7.67 KCAL/MOL
REMARK 924 INTRA-LIGAND FREE ENERGY PREDICTED BY IDOCK:   -0.79 KCAL/MOL
REMARK 927      BINDING AFFINITY PREDICTED BY RF-SCORE:    0.00 PKD
ROOT
HETATM    1  C   UNL     1     -12.033  14.138  66.643  1.00  0.00    -0.470 C  
HETATM    2  C   UNL     1     -12.400  14.489  68.082  1.00  0.00     0.030 C  
HETATM    3  C   UNL     1     -11.332  14.469  69.238  1.00  0.00    -0.285 C  
HETATM    4  N   UNL     1     -10.163  15.385  69.022  1.00  0.00    -0.222 NA 
HETATM    5  C   UNL     1     -12.043  14.870  70.606  1.00  0.00    -0.366 A  
HETATM    6  C   UNL     1     -10.874  12.989  69.533  1.00  0.00     0.197 C  
HETATM    7  C   UNL     1     -13.406  15.216  70.693  1.00  0.00    -0.304 A  
HETATM    8  C   UNL     1     -11.878  15.295  73.018  1.00  0.00    -0.502 A  
HETATM    9  C   UNL     1      -9.340  15.184  67.834  1.00  0.00    -0.185 C  
HETATM   10  C   UNL     1     -10.484  16.811  69.123  1.00  0.00    -0.343 C  
HETATM   11  C   UNL     1     -13.984  15.613  71.904  1.00  0.00    -0.487 A  
HETATM   12  C   UNL     1     -13.219  15.660  73.063  1.00  0.00    -0.664 A  
HETATM   13  C   UNL     1     -11.296  14.907  71.807  1.00  0.00    -0.175 A  
ENDROOT
BRANCH   6  14
HETATM   14  O   UNL     1     -10.368  12.215  68.443  1.00  0.00    -0.219 OA 
BRANCH  14  15
HETATM   15  C   UNL     1     -10.971  11.009  68.285  1.00  0.00    -0.235 C  
HETATM   16  O   UNL     1     -11.592  10.624  67.309  1.00  0.00    -0.392 OA 
BRANCH  15  17
HETATM   17  C   UNL     1     -10.631  10.127  69.421  1.00  0.00    -0.261 A  
HETATM   18  C   UNL     1      -8.930   9.318  70.945  1.00  0.00    -0.209 A  
HETATM   19  C   UNL     1      -9.287  10.003  69.781  1.00  0.00    -0.233 A  
HETATM   20  C   UNL     1     -11.619   9.538  70.219  1.00  0.00    -0.219 A  
HETATM   21  C   UNL     1      -9.933   8.770  71.780  1.00  0.00    -0.326 A  
HETATM   22  C   UNL     1     -11.288   8.862  71.398  1.00  0.00    -0.309 A  
BRANCH  18  23
HETATM   23  O   UNL     1      -7.627   9.213  71.376  1.00  0.00    -0.293 OA 
HETATM   24  C   UNL     1      -6.631   9.781  70.531  1.00  0.00    -0.117 C  
ENDBRANCH  18  23
BRANCH  21  25
HETATM   25  O   UNL     1      -9.463   8.113  72.894  1.00  0.00    -0.248 OA 
HETATM   26  C   UNL     1      -9.250   6.710  72.788  1.00  0.00    -0.135 C  
ENDBRANCH  21  25
BRANCH  22  27
HETATM   27  O   UNL     1     -12.237   8.280  72.196  1.00  0.00    -0.325 OA 
HETATM   28  C   UNL     1     -13.006   7.210  71.655  1.00  0.00    -0.370 C  
ENDBRANCH  22  27
ENDBRANCH  15  17
ENDBRANCH  14  15
ENDBRANCH   6  14
TORSDOF 6
ENDMDL
MODEL       43
REMARK 921   NORMALIZED FREE ENERGY PREDICTED BY IDOCK:   -5.56 KCAL/MOL
REMARK 922        TOTAL FREE ENERGY PREDICTED BY IDOCK:   -8.45 KCAL/MOL
REMARK 923 INTER-LIGAND FREE ENERGY PREDICTED BY IDOCK:   -7.58 KCAL/MOL
REMARK 924 INTRA-LIGAND FREE ENERGY PREDICTED BY IDOCK:   -0.87 KCAL/MOL
REMARK 927      BINDING AFFINITY PREDICTED BY RF-SCORE:    0.00 PKD
ROOT
HETATM    1  C   UNL     1     -12.529  15.016  68.771  1.00  0.00     0.155 C  
HETATM    2  C   UNL     1     -11.172  15.696  68.615  1.00  0.00    -0.338 C  
HETATM    3  C   UNL     1     -10.113  15.200  67.561  1.00  0.00    -0.232 C  
HETATM    4  N   UNL     1     -10.594  15.218  66.138  1.00  0.00    -0.303 NA 
HETATM    5  C   UNL     1      -8.812  16.114  67.666  1.00  0.00    -0.191 A  
HETATM    6  C   UNL     1      -9.550  13.787  67.975  1.00  0.00    -0.214 C  
HETATM    7  C   UNL     1      -8.705  17.203  68.554  1.00  0.00    -0.261 A  
HETATM    8  C   UNL     1      -6.558  16.666  66.866  1.00  0.00    -0.242 A  
HETATM    9  C   UNL     1     -11.768  14.420  65.799  1.00  0.00    -0.362 C  
HETATM   10  C   UNL     1     -10.768  16.559  65.575  1.00  0.00    -0.256 C  
HETATM   11  C   UNL     1      -7.566  18.015  68.581  1.00  0.00    -0.297 A  
HETATM   12  C   UNL     1      -6.497  17.752  67.734  1.00  0.00    -0.188 A  
HETATM   13  C   UNL     1      -7.699  15.859  66.831  1.00  0.00    -0.268 A  
ENDROOT
BRANCH   6  14
HETATM   14  O   UNL     1     -10.488  12.732  68.197  1.00  0.00    -0.222 OA 
BRANCH  14  15
HETATM   15  C   UNL     1      -9.924  11.525  68.459  1.00  0.00    -0.204 C  
HETATM   16  O   UNL     1      -8.894  11.082  67.980  1.00  0.00    -0.130 OA 
BRANCH  15  17
HETATM   17  C   UNL     1     -10.652  10.859  69.558  1.00  0.00    -0.217 A  
HETATM   18  C   UNL     1     -12.520  10.911  71.102  1.00  0.00    -0.405 A  
HETATM   19  C   UNL     1     -11.695  11.554  70.176  1.00  0.00    -0.395 A  
HETATM   20  C   UNL     1     -10.421   9.520  69.892  1.00  0.00    -0.269 A  
HETATM   21  C   UNL     1     -12.318   9.542  71.398  1.00  0.00    -0.364 A  
HETATM   22  C   UNL     1     -11.243   8.849  70.803  1.00  0.00    -0.272 A  
BRANCH  18  23
HETATM   23  O   UNL     1     -13.594  11.531  71.697  1.00  0.00    -0.091 OA 
HETATM   24  C   UNL     1     -13.406  12.886  72.095  1.00  0.00    -0.515 C  
ENDBRANCH  18  23
BRANCH  21  25
HETATM   25  O   UNL     1     -13.186   9.017  72.328  1.00  0.00    -0.401 OA 
HETATM   26  C   UNL     1     -14.275   8.238  71.845  1.00  0.00    -0.454 C  
ENDBRANCH  21  25
BRANCH  22  27
HETATM   27  O   UNL     1     -11.036   7.538  71.143  1.00  0.00    -0.244 OA 
HETATM   28  C   UNL     1     -11.335   6.537  70.176  1.00  0.00    -0.402 C  
ENDBRANCH  22  27
ENDBRANCH  15  17
ENDBRANCH  14  15
ENDBRANCH   6  14
TORSDOF 6
ENDMDL
MODEL       44
REMARK 921   NORMALIZED FREE ENERGY PREDICTED BY IDOCK:   -5.55 KCAL/MOL
REMARK 922        TOTAL FREE ENERGY PREDICTED BY IDOCK:   -8.43 KCAL/MOL
REMARK 923 INTER-LIGAND FREE ENERGY PREDICTED BY IDOCK:   -7.61 KCAL/MOL
REMARK 924 INTRA-LIGAND FREE ENERGY PREDICTED BY IDOCK:   -0.82 KCAL/MOL
REMARK 927      BINDING AFFINITY PREDICTED BY RF-SCORE:    0.00 PKD
ROOT
HETATM    1  C   UNL     1     -12.652  13.346  66.954  1.00  0.00     0.109 C  
HETATM    2  C   UNL     1     -11.848  14.573  67.375  1.00  0.00    -0.416 C  
HETATM    3  C   UNL     1     -10.351  14.773  66.934  1.00  0.00    -0.267 C  
HETATM    4  N   UNL     1     -10.137  14.802  65.448  1.00  0.00    -0.371 NA 
HETATM    5  C   UNL     1      -9.810  16.140  67.549  1.00  0.00    -0.237 A  
HETATM    6  C   UNL     1      -9.425  13.711  67.642  1.00  0.00    -0.221 C  
HETATM    7  C   UNL     1     -10.608  17.006  68.323  1.00  0.00    -0.372 A  
HETATM    8  C   UNL     1      -7.978  17.755  67.802  1.00  0.00    -0.225 A  
HETATM    9  C   UNL     1     -10.535  13.631  64.672  1.00  0.00    -0.423 C  
HETATM   10  C   UNL     1     -10.663  15.996  64.783  1.00  0.00    -0.204 C  
HETATM   11  C   UNL     1     -10.113  18.223  68.802  1.00  0.00    -0.393 A  
HETATM   12  C   UNL     1      -8.803  18.601  68.536  1.00  0.00    -0.361 A  
HETATM   13  C   UNL     1      -8.474  16.542  67.313  1.00  0.00    -0.201 A  
ENDROOT
BRANCH   6  14
HETATM   14  O   UNL     1      -9.756  12.328  67.490  1.00  0.00    -0.185 OA 
BRANCH  14  15
HETATM   15  C   UNL     1      -9.212  11.515  68.430  1.00  0.00    -0.190 C  
HETATM   16  O   UNL     1      -8.026  11.378  68.679  1.00  0.00    -0.135 OA 
BRANCH  15  17
HETATM   17  C   UNL     1     -10.281  10.915  69.254  1.00  0.00    -0.190 A  
HETATM   18  C   UNL     1     -11.044   9.013  70.547  1.00  0.00    -0.254 A  
HETATM   19  C   UNL     1     -10.150   9.578  69.634  1.00  0.00    -0.228 A  
HETATM   20  C   UNL     1     -11.330  11.682  69.774  1.00  0.00    -0.276 A  
HETATM   21  C   UNL     1     -12.072   9.805  71.113  1.00  0.00    -0.370 A  
HETATM   22  C   UNL     1     -12.228  11.146  70.702  1.00  0.00    -0.397 A  
BRANCH  18  23
HETATM   23  O   UNL     1     -10.928   7.718  70.998  1.00  0.00    -0.237 OA 
HETATM   24  C   UNL     1     -11.383   6.696  70.116  1.00  0.00    -0.382 C  
ENDBRANCH  18  23
BRANCH  21  25
HETATM   25  O   UNL     1     -12.895   9.141  71.994  1.00  0.00    -0.350 OA 
HETATM   26  C   UNL     1     -14.121   8.628  71.488  1.00  0.00    -0.343 C  
ENDBRANCH  21  25
BRANCH  22  27
HETATM   27  O   UNL     1     -13.261  11.877  71.225  1.00  0.00    -0.216 OA 
HETATM   28  C   UNL     1     -13.063  13.273  71.425  1.00  0.00    -0.277 C  
ENDBRANCH  22  27
ENDBRANCH  15  17
ENDBRANCH  14  15
ENDBRANCH   6  14
TORSDOF 6
ENDMDL
MODEL       45
REMARK 921   NORMALIZED FREE ENERGY PREDICTED BY IDOCK:   -5.55 KCAL/MOL
REMARK 922        TOTAL FREE ENERGY PREDICTED BY IDOCK:   -8.43 KCAL/MOL
REMARK 923 INTER-LIGAND FREE ENERGY PREDICTED BY IDOCK:   -7.51 KCAL/MOL
REMARK 924 INTRA-LIGAND FREE ENERGY PREDICTED BY IDOCK:   -0.92 KCAL/MOL
REMARK 927      BINDING AFFINITY PREDICTED BY RF-SCORE:    0.00 PKD
ROOT
HETATM    1  C   UNL     1      -8.338  12.359  67.489  1.00  0.00    -0.173 C  
HETATM    2  C   UNL     1      -8.779  11.382  68.576  1.00  0.00    -0.149 C  
HETATM    3  C   UNL     1     -10.290  10.989  68.773  1.00  0.00    -0.199 C  
HETATM    4  N   UNL     1     -10.935  10.368  67.568  1.00  0.00    -0.304 NA 
HETATM    5  C   UNL     1     -10.404   9.968  69.990  1.00  0.00    -0.323 A  
HETATM    6  C   UNL     1     -11.111  12.225  69.309  1.00  0.00    -0.158 C  
HETATM    7  C   UNL     1      -9.287   9.499  70.710  1.00  0.00    -0.218 A  
HETATM    8  C   UNL     1     -11.803   8.546  71.421  1.00  0.00    -0.345 A  
HETATM    9  C   UNL     1     -10.974  11.142  66.331  1.00  0.00    -0.186 C  
HETATM   10  C   UNL     1     -10.457   9.019  67.253  1.00  0.00    -0.273 C  
HETATM   11  C   UNL     1      -9.421   8.562  71.740  1.00  0.00    -0.328 A  
HETATM   12  C   UNL     1     -10.676   8.080  72.090  1.00  0.00    -0.339 A  
HETATM   13  C   UNL     1     -11.671   9.475  70.384  1.00  0.00    -0.227 A  
ENDROOT
BRANCH   6  14
HETATM   14  O   UNL     1     -11.058  13.440  68.558  1.00  0.00    -0.246 OA 
BRANCH  14  15
HETATM   15  C   UNL     1     -11.542  14.525  69.213  1.00  0.00    -0.302 C  
HETATM   16  O   UNL     1     -12.519  14.563  69.943  1.00  0.00    -0.316 OA 
BRANCH  15  17
HETATM   17  C   UNL     1     -10.612  15.662  69.056  1.00  0.00    -0.234 A  
HETATM   18  C   UNL     1      -8.315  16.433  69.005  1.00  0.00    -0.225 A  
HETATM   19  C   UNL     1      -9.254  15.442  69.299  1.00  0.00    -0.259 A  
HETATM   20  C   UNL     1     -11.031  16.893  68.538  1.00  0.00    -0.290 A  
HETATM   21  C   UNL     1      -8.735  17.657  68.431  1.00  0.00    -0.284 A  
HETATM   22  C   UNL     1     -10.109  17.895  68.219  1.00  0.00    -0.375 A  
BRANCH  18  23
HETATM   23  O   UNL     1      -6.962  16.249  69.172  1.00  0.00    -0.182 OA 
HETATM   24  C   UNL     1      -6.538  14.937  69.531  1.00  0.00    -0.154 C  
ENDBRANCH  18  23
BRANCH  21  25
HETATM   25  O   UNL     1      -7.724  18.560  68.190  1.00  0.00    -0.267 OA 
HETATM   26  C   UNL     1      -7.513  19.582  69.157  1.00  0.00    -0.305 C  
ENDBRANCH  21  25
BRANCH  22  27
HETATM   27  O   UNL     1     -10.496  19.107  67.711  1.00  0.00    -0.392 OA 
HETATM   28  C   UNL     1     -10.627  19.232  66.298  1.00  0.00    -0.454 C  
ENDBRANCH  22  27
ENDBRANCH  15  17
ENDBRANCH  14  15
ENDBRANCH   6  14
TORSDOF 6
ENDMDL
MODEL       46
REMARK 921   NORMALIZED FREE ENERGY PREDICTED BY IDOCK:   -5.53 KCAL/MOL
REMARK 922        TOTAL FREE ENERGY PREDICTED BY IDOCK:   -8.41 KCAL/MOL
REMARK 923 INTER-LIGAND FREE ENERGY PREDICTED BY IDOCK:   -7.51 KCAL/MOL
REMARK 924 INTRA-LIGAND FREE ENERGY PREDICTED BY IDOCK:   -0.90 KCAL/MOL
REMARK 927      BINDING AFFINITY PREDICTED BY RF-SCORE:    0.00 PKD
ROOT
HETATM    1  C   UNL     1      -8.422  12.816  67.093  1.00  0.00    -0.181 C  
HETATM    2  C   UNL     1      -9.051  11.945  68.176  1.00  0.00    -0.190 C  
HETATM    3  C   UNL     1     -10.612  11.800  68.320  1.00  0.00    -0.211 C  
HETATM    4  N   UNL     1     -11.304  11.263  67.100  1.00  0.00    -0.440 NA 
HETATM    5  C   UNL     1     -10.930  10.836  69.548  1.00  0.00    -0.317 A  
HETATM    6  C   UNL     1     -11.244  13.161  68.805  1.00  0.00    -0.281 C  
HETATM    7  C   UNL     1      -9.929  10.211  70.317  1.00  0.00    -0.081 A  
HETATM    8  C   UNL     1     -12.589   9.684  70.944  1.00  0.00    -0.299 A  
HETATM    9  C   UNL     1     -11.174  12.007  65.851  1.00  0.00    -0.337 C  
HETATM   10  C   UNL     1     -11.035   9.850  66.824  1.00  0.00     0.080 C  
HETATM   11  C   UNL     1     -10.248   9.329  71.355  1.00  0.00    -0.371 A  
HETATM   12  C   UNL     1     -11.575   9.060  71.663  1.00  0.00    -0.426 A  
HETATM   13  C   UNL     1     -12.273  10.558  69.899  1.00  0.00    -0.289 A  
ENDROOT
BRANCH   6  14
HETATM   14  O   UNL     1     -10.972  14.336  68.038  1.00  0.00    -0.241 OA 
BRANCH  14  15
HETATM   15  C   UNL     1     -10.934  15.483  68.763  1.00  0.00    -0.270 C  
HETATM   16  O   UNL     1     -11.602  15.745  69.749  1.00  0.00    -0.314 OA 
BRANCH  15  17
HETATM   17  C   UNL     1      -9.829  16.340  68.289  1.00  0.00    -0.227 A  
HETATM   18  C   UNL     1      -9.131  18.188  66.886  1.00  0.00    -0.274 A  
HETATM   19  C   UNL     1     -10.090  17.244  67.256  1.00  0.00    -0.300 A  
HETATM   20  C   UNL     1      -8.588  16.369  68.935  1.00  0.00    -0.250 A  
HETATM   21  C   UNL     1      -7.897  18.252  67.577  1.00  0.00    -0.227 A  
HETATM   22  C   UNL     1      -7.617  17.317  68.595  1.00  0.00    -0.260 A  
BRANCH  18  23
HETATM   23  O   UNL     1      -9.356  19.137  65.915  1.00  0.00    -0.433 OA 
HETATM   24  C   UNL     1     -10.614  19.805  65.959  1.00  0.00    -0.468 C  
ENDBRANCH  18  23
BRANCH  21  25
HETATM   25  O   UNL     1      -7.028  19.218  67.122  1.00  0.00    -0.199 OA 
HETATM   26  C   UNL     1      -6.944  20.429  67.864  1.00  0.00    -0.299 C  
ENDBRANCH  21  25
BRANCH  22  27
HETATM   27  O   UNL     1      -6.396  17.365  69.215  1.00  0.00    -0.221 OA 
HETATM   28  C   UNL     1      -5.958  16.214  69.929  1.00  0.00    -0.182 C  
ENDBRANCH  22  27
ENDBRANCH  15  17
ENDBRANCH  14  15
ENDBRANCH   6  14
TORSDOF 6
ENDMDL
MODEL       47
REMARK 921   NORMALIZED FREE ENERGY PREDICTED BY IDOCK:   -5.52 KCAL/MOL
REMARK 922        TOTAL FREE ENERGY PREDICTED BY IDOCK:   -8.39 KCAL/MOL
REMARK 923 INTER-LIGAND FREE ENERGY PREDICTED BY IDOCK:   -7.54 KCAL/MOL
REMARK 924 INTRA-LIGAND FREE ENERGY PREDICTED BY IDOCK:   -0.86 KCAL/MOL
REMARK 927      BINDING AFFINITY PREDICTED BY RF-SCORE:    0.00 PKD
ROOT
HETATM    1  C   UNL     1     -12.146  12.853  67.199  1.00  0.00    -0.283 C  
HETATM    2  C   UNL     1     -11.465  14.210  67.351  1.00  0.00    -0.369 C  
HETATM    3  C   UNL     1     -10.201  14.602  66.500  1.00  0.00    -0.278 C  
HETATM    4  N   UNL     1     -10.415  14.568  65.014  1.00  0.00    -0.418 NA 
HETATM    5  C   UNL     1      -9.737  16.070  66.910  1.00  0.00    -0.244 A  
HETATM    6  C   UNL     1      -8.957  13.736  66.935  1.00  0.00    -0.221 C  
HETATM    7  C   UNL     1     -10.417  16.855  67.862  1.00  0.00    -0.344 A  
HETATM    8  C   UNL     1      -8.191  17.952  66.601  1.00  0.00    -0.284 A  
HETATM    9  C   UNL     1     -10.820  13.305  64.405  1.00  0.00    -0.403 C  
HETATM   10  C   UNL     1     -11.290  15.627  64.503  1.00  0.00    -0.320 C  
HETATM   11  C   UNL     1     -10.010  18.161  68.158  1.00  0.00    -0.368 A  
HETATM   12  C   UNL     1      -8.903  18.711  67.524  1.00  0.00    -0.284 A  
HETATM   13  C   UNL     1      -8.601  16.650  66.296  1.00  0.00    -0.359 A  
ENDROOT
BRANCH   6  14
HETATM   14  O   UNL     1      -9.091  12.313  66.909  1.00  0.00    -0.197 OA 
BRANCH  14  15
HETATM   15  C   UNL     1      -8.488  11.674  67.944  1.00  0.00    -0.148 C  
HETATM   16  O   UNL     1      -7.431  11.977  68.473  1.00  0.00    -0.107 OA 
BRANCH  15  17
HETATM   17  C   UNL     1      -9.381  10.625  68.474  1.00  0.00    -0.170 A  
HETATM   18  C   UNL     1     -10.009   8.284  68.483  1.00  0.00    -0.190 A  
HETATM   19  C   UNL     1      -9.309   9.349  67.910  1.00  0.00    -0.142 A  
HETATM   20  C   UNL     1     -10.179  10.837  69.604  1.00  0.00    -0.099 A  
HETATM   21  C   UNL     1     -10.772   8.489  69.657  1.00  0.00    -0.197 A  
HETATM   22  C   UNL     1     -10.876   9.784  70.207  1.00  0.00    -0.301 A  
BRANCH  18  23
HETATM   23  O   UNL     1      -9.929   6.997  68.002  1.00  0.00    -0.145 OA 
HETATM   24  C   UNL     1     -10.898   6.623  67.027  1.00  0.00    -0.397 C  
ENDBRANCH  18  23
BRANCH  21  25
HETATM   25  O   UNL     1     -11.422   7.370  70.128  1.00  0.00    -0.232 OA 
HETATM   26  C   UNL     1     -10.841   6.690  71.234  1.00  0.00    -0.238 C  
ENDBRANCH  21  25
BRANCH  22  27
HETATM   27  O   UNL     1     -11.661   9.968  71.314  1.00  0.00    -0.361 OA 
HETATM   28  C   UNL     1     -12.681  10.960  71.258  1.00  0.00    -0.437 C  
ENDBRANCH  22  27
ENDBRANCH  15  17
ENDBRANCH  14  15
ENDBRANCH   6  14
TORSDOF 6
ENDMDL
MODEL       48
REMARK 921   NORMALIZED FREE ENERGY PREDICTED BY IDOCK:   -5.52 KCAL/MOL
REMARK 922        TOTAL FREE ENERGY PREDICTED BY IDOCK:   -8.39 KCAL/MOL
REMARK 923 INTER-LIGAND FREE ENERGY PREDICTED BY IDOCK:   -7.77 KCAL/MOL
REMARK 924 INTRA-LIGAND FREE ENERGY PREDICTED BY IDOCK:   -0.62 KCAL/MOL
REMARK 927      BINDING AFFINITY PREDICTED BY RF-SCORE:    0.00 PKD
ROOT
HETATM    1  C   UNL     1      -7.928  11.823  68.641  1.00  0.00    -0.116 C  
HETATM    2  C   UNL     1      -8.798  11.782  67.388  1.00  0.00    -0.164 C  
HETATM    3  C   UNL     1     -10.206  12.482  67.334  1.00  0.00    -0.213 C  
HETATM    4  N   UNL     1     -10.179  13.960  67.600  1.00  0.00    -0.239 NA 
HETATM    5  C   UNL     1     -10.849  12.239  65.897  1.00  0.00    -0.306 A  
HETATM    6  C   UNL     1     -11.226  11.733  68.276  1.00  0.00    -0.255 C  
HETATM    7  C   UNL     1     -10.193  11.535  64.868  1.00  0.00    -0.324 A  
HETATM    8  C   UNL     1     -12.710  12.598  64.336  1.00  0.00    -0.417 A  
HETATM    9  C   UNL     1      -9.651  14.419  68.881  1.00  0.00    -0.123 C  
HETATM   10  C   UNL     1      -9.561  14.755  66.536  1.00  0.00    -0.284 C  
HETATM   11  C   UNL     1     -10.768  11.387  63.601  1.00  0.00    -0.470 A  
HETATM   12  C   UNL     1     -12.021  11.923  63.333  1.00  0.00    -0.528 A  
HETATM   13  C   UNL     1     -12.133  12.755  65.600  1.00  0.00    -0.514 A  
ENDROOT
BRANCH   6  14
HETATM   14  O   UNL     1     -10.864  11.558  69.648  1.00  0.00    -0.139 OA 
BRANCH  14  15
HETATM   15  C   UNL     1     -11.720  10.779  70.358  1.00  0.00    -0.351 C  
HETATM   16  O   UNL     1     -12.796  11.113  70.823  1.00  0.00    -0.305 OA 
BRANCH  15  17
HETATM   17  C   UNL     1     -11.243   9.381  70.357  1.00  0.00    -0.309 A  
HETATM   18  C   UNL     1     -11.190   7.238  71.487  1.00  0.00    -0.245 A  
HETATM   19  C   UNL     1     -11.470   8.606  71.497  1.00  0.00    -0.363 A  
HETATM   20  C   UNL     1     -10.709   8.784  69.210  1.00  0.00    -0.166 A  
HETATM   21  C   UNL     1     -10.700   6.624  70.309  1.00  0.00    -0.246 A  
HETATM   22  C   UNL     1     -10.436   7.412  69.168  1.00  0.00    -0.213 A  
BRANCH  18  23
HETATM   23  O   UNL     1     -11.446   6.418  72.562  1.00  0.00    -0.270 OA 
HETATM   24  C   UNL     1     -10.577   6.551  73.683  1.00  0.00    -0.286 C  
ENDBRANCH  18  23
BRANCH  21  25
HETATM   25  O   UNL     1     -10.455   5.275  70.418  1.00  0.00    -0.271 OA 
HETATM   26  C   UNL     1      -9.118   4.870  70.685  1.00  0.00    -0.128 C  
ENDBRANCH  21  25
BRANCH  22  27
HETATM   27  O   UNL     1      -9.914   6.806  68.057  1.00  0.00    -0.137 OA 
HETATM   28  C   UNL     1     -10.818   6.316  67.071  1.00  0.00    -0.383 C  
ENDBRANCH  22  27
ENDBRANCH  15  17
ENDBRANCH  14  15
ENDBRANCH   6  14
TORSDOF 6
ENDMDL
MODEL       49
REMARK 921   NORMALIZED FREE ENERGY PREDICTED BY IDOCK:   -5.50 KCAL/MOL
REMARK 922        TOTAL FREE ENERGY PREDICTED BY IDOCK:   -8.37 KCAL/MOL
REMARK 923 INTER-LIGAND FREE ENERGY PREDICTED BY IDOCK:   -8.04 KCAL/MOL
REMARK 924 INTRA-LIGAND FREE ENERGY PREDICTED BY IDOCK:   -0.33 KCAL/MOL
REMARK 927      BINDING AFFINITY PREDICTED BY RF-SCORE:    0.00 PKD
ROOT
HETATM    1  C   UNL     1     -10.440  14.455  66.721  1.00  0.00    -0.273 C  
HETATM    2  C   UNL     1      -9.644  13.173  66.497  1.00  0.00    -0.268 C  
HETATM    3  C   UNL     1     -10.345  11.823  66.095  1.00  0.00    -0.230 C  
HETATM    4  N   UNL     1     -11.130  11.884  64.817  1.00  0.00    -0.310 NA 
HETATM    5  C   UNL     1      -9.236  10.687  65.953  1.00  0.00    -0.209 A  
HETATM    6  C   UNL     1     -11.212  11.278  67.294  1.00  0.00    -0.296 C  
HETATM    7  C   UNL     1      -7.859  10.928  66.132  1.00  0.00    -0.144 A  
HETATM    8  C   UNL     1      -8.665   8.355  65.440  1.00  0.00    -0.175 A  
HETATM    9  C   UNL     1     -12.227  12.843  64.728  1.00  0.00    -0.445 C  
HETATM   10  C   UNL     1     -10.312  12.008  63.608  1.00  0.00    -0.450 C  
HETATM   11  C   UNL     1      -6.910   9.917  65.947  1.00  0.00    -0.101 A  
HETATM   12  C   UNL     1      -7.311   8.634  65.595  1.00  0.00    -0.084 A  
HETATM   13  C   UNL     1      -9.615   9.367  65.615  1.00  0.00    -0.345 A  
ENDROOT
BRANCH   6  14
HETATM   14  O   UNL     1     -12.201  12.147  67.852  1.00  0.00    -0.438 OA 
BRANCH  14  15
HETATM   15  C   UNL     1     -12.042  12.400  69.177  1.00  0.00    -0.146 C  
HETATM   16  O   UNL     1     -12.161  13.478  69.734  1.00  0.00    -0.313 OA 
BRANCH  15  17
HETATM   17  C   UNL     1     -11.858  11.131  69.910  1.00  0.00    -0.439 A  
HETATM   18  C   UNL     1     -10.316   9.483  70.792  1.00  0.00    -0.306 A  
HETATM   19  C   UNL     1     -10.573  10.586  69.976  1.00  0.00    -0.223 A  
HETATM   20  C   UNL     1     -12.894  10.549  70.649  1.00  0.00    -0.407 A  
HETATM   21  C   UNL     1     -11.353   8.929  71.581  1.00  0.00    -0.337 A  
HETATM   22  C   UNL     1     -12.659   9.454  71.488  1.00  0.00    -0.362 A  
BRANCH  18  23
HETATM   23  O   UNL     1      -9.059   8.942  70.938  1.00  0.00    -0.188 OA 
HETATM   24  C   UNL     1      -8.462   8.399  69.764  1.00  0.00    -0.127 C  
ENDBRANCH  18  23
BRANCH  21  25
HETATM   25  O   UNL     1     -10.985   7.842  72.341  1.00  0.00    -0.271 OA 
HETATM   26  C   UNL     1     -11.065   6.558  71.733  1.00  0.00    -0.257 C  
ENDBRANCH  21  25
BRANCH  22  27
HETATM   27  O   UNL     1     -13.657   8.869  72.221  1.00  0.00    -0.411 OA 
HETATM   28  C   UNL     1     -14.368   7.780  71.642  1.00  0.00    -0.481 C  
ENDBRANCH  22  27
ENDBRANCH  15  17
ENDBRANCH  14  15
ENDBRANCH   6  14
TORSDOF 6
ENDMDL
MODEL       50
REMARK 921   NORMALIZED FREE ENERGY PREDICTED BY IDOCK:   -5.50 KCAL/MOL
REMARK 922        TOTAL FREE ENERGY PREDICTED BY IDOCK:   -8.37 KCAL/MOL
REMARK 923 INTER-LIGAND FREE ENERGY PREDICTED BY IDOCK:   -7.71 KCAL/MOL
REMARK 924 INTRA-LIGAND FREE ENERGY PREDICTED BY IDOCK:   -0.66 KCAL/MOL
REMARK 927      BINDING AFFINITY PREDICTED BY RF-SCORE:    0.00 PKD
ROOT
HETATM    1  C   UNL     1     -11.789  12.269  69.972  1.00  0.00    -0.372 C  
HETATM    2  C   UNL     1     -11.885  12.351  68.451  1.00  0.00    -0.361 C  
HETATM    3  C   UNL     1     -10.602  12.365  67.540  1.00  0.00    -0.219 C  
HETATM    4  N   UNL     1      -9.714  11.165  67.694  1.00  0.00    -0.168 NA 
HETATM    5  C   UNL     1     -11.053  12.468  66.015  1.00  0.00    -0.329 A  
HETATM    6  C   UNL     1      -9.809  13.714  67.734  1.00  0.00    -0.232 C  
HETATM    7  C   UNL     1     -12.402  12.497  65.610  1.00  0.00    -0.296 A  
HETATM    8  C   UNL     1     -10.437  12.565  63.640  1.00  0.00    -0.418 A  
HETATM    9  C   UNL     1      -9.155  10.887  69.014  1.00  0.00    -0.098 C  
HETATM   10  C   UNL     1     -10.277   9.922  67.161  1.00  0.00    -0.228 C  
HETATM   11  C   UNL     1     -12.760  12.535  64.258  1.00  0.00    -0.432 A  
HETATM   12  C   UNL     1     -11.779  12.561  63.274  1.00  0.00    -0.478 A  
HETATM   13  C   UNL     1     -10.077  12.518  64.991  1.00  0.00    -0.258 A  
ENDROOT
BRANCH   6  14
HETATM   14  O   UNL     1      -9.419  14.076  69.061  1.00  0.00    -0.052 OA 
BRANCH  14  15
HETATM   15  C   UNL     1      -9.959  15.239  69.506  1.00  0.00    -0.242 C  
HETATM   16  O   UNL     1     -10.777  15.369  70.401  1.00  0.00    -0.306 OA 
BRANCH  15  17
HETATM   17  C   UNL     1      -9.289  16.384  68.857  1.00  0.00    -0.249 A  
HETATM   18  C   UNL     1      -9.470  18.642  67.997  1.00  0.00    -0.315 A  
HETATM   19  C   UNL     1     -10.072  17.470  68.461  1.00  0.00    -0.363 A  
HETATM   20  C   UNL     1      -7.895  16.466  68.763  1.00  0.00    -0.220 A  
HETATM   21  C   UNL     1      -8.059  18.743  67.954  1.00  0.00    -0.261 A  
HETATM   22  C   UNL     1      -7.267  17.634  68.318  1.00  0.00    -0.227 A  
BRANCH  18  23
HETATM   23  O   UNL     1     -10.191  19.761  67.648  1.00  0.00    -0.385 OA 
HETATM   24  C   UNL     1     -10.903  19.698  66.416  1.00  0.00    -0.330 C  
ENDBRANCH  18  23
BRANCH  21  25
HETATM   25  O   UNL     1      -7.578  19.941  67.474  1.00  0.00    -0.264 OA 
HETATM   26  C   UNL     1      -7.333  20.037  66.076  1.00  0.00    -0.306 C  
ENDBRANCH  21  25
BRANCH  22  27
HETATM   27  O   UNL     1      -5.905  17.737  68.219  1.00  0.00    -0.158 OA 
HETATM   28  C   UNL     1      -5.227  16.867  67.318  1.00  0.00    -0.142 C  
ENDBRANCH  22  27
ENDBRANCH  15  17
ENDBRANCH  14  15
ENDBRANCH   6  14
TORSDOF 6
ENDMDL
MODEL       51
REMARK 921   NORMALIZED FREE ENERGY PREDICTED BY IDOCK:   -5.49 KCAL/MOL
REMARK 922        TOTAL FREE ENERGY PREDICTED BY IDOCK:   -8.35 KCAL/MOL
REMARK 923 INTER-LIGAND FREE ENERGY PREDICTED BY IDOCK:   -7.32 KCAL/MOL
REMARK 924 INTRA-LIGAND FREE ENERGY PREDICTED BY IDOCK:   -1.03 KCAL/MOL
REMARK 927      BINDING AFFINITY PREDICTED BY RF-SCORE:    0.00 PKD
ROOT
HETATM    1  C   UNL     1     -11.884  11.665  67.639  1.00  0.00    -0.216 C  
HETATM    2  C   UNL     1     -11.416  13.118  67.632  1.00  0.00    -0.366 C  
HETATM    3  C   UNL     1     -10.294  13.621  66.650  1.00  0.00    -0.275 C  
HETATM    4  N   UNL     1     -10.604  13.425  65.194  1.00  0.00    -0.326 NA 
HETATM    5  C   UNL     1     -10.039  15.172  66.909  1.00  0.00    -0.256 A  
HETATM    6  C   UNL     1      -8.901  12.994  67.045  1.00  0.00    -0.212 C  
HETATM    7  C   UNL     1     -10.765  15.925  67.853  1.00  0.00    -0.312 A  
HETATM    8  C   UNL     1      -8.834  17.232  66.332  1.00  0.00    -0.278 A  
HETATM    9  C   UNL     1     -10.847  12.067  64.718  1.00  0.00    -0.306 C  
HETATM   10  C   UNL     1     -11.668  14.291  64.680  1.00  0.00    -0.430 C  
HETATM   11  C   UNL     1     -10.549  17.298  68.015  1.00  0.00    -0.394 A  
HETATM   12  C   UNL     1      -9.591  17.952  67.251  1.00  0.00    -0.273 A  
HETATM   13  C   UNL     1      -9.055  15.862  66.161  1.00  0.00    -0.385 A  
ENDROOT
BRANCH   6  14
HETATM   14  O   UNL     1      -8.811  11.570  67.137  1.00  0.00    -0.158 OA 
BRANCH  14  15
HETATM   15  C   UNL     1      -8.167  11.120  68.244  1.00  0.00    -0.134 C  
HETATM   16  O   UNL     1      -7.178  11.609  68.764  1.00  0.00    -0.103 OA 
BRANCH  15  17
HETATM   17  C   UNL     1      -8.936  10.019  68.858  1.00  0.00    -0.152 A  
HETATM   18  C   UNL     1     -10.567   9.339  70.516  1.00  0.00    -0.252 A  
HETATM   19  C   UNL     1      -9.695  10.298  69.997  1.00  0.00    -0.030 A  
HETATM   20  C   UNL     1      -9.036   8.761  68.252  1.00  0.00    -0.141 A  
HETATM   21  C   UNL     1     -10.707   8.086  69.871  1.00  0.00    -0.242 A  
HETATM   22  C   UNL     1      -9.915   7.789  68.742  1.00  0.00    -0.176 A  
BRANCH  18  23
HETATM   23  O   UNL     1     -11.378   9.580  71.602  1.00  0.00    -0.383 OA 
HETATM   24  C   UNL     1     -12.490  10.442  71.384  1.00  0.00    -0.415 C  
ENDBRANCH  18  23
BRANCH  21  25
HETATM   25  O   UNL     1     -11.589   7.219  70.474  1.00  0.00    -0.292 OA 
HETATM   26  C   UNL     1     -11.057   6.281  71.402  1.00  0.00    -0.284 C  
ENDBRANCH  21  25
BRANCH  22  27
HETATM   27  O   UNL     1     -10.030   6.553  68.165  1.00  0.00    -0.131 OA 
HETATM   28  C   UNL     1     -10.903   6.410  67.048  1.00  0.00    -0.392 C  
ENDBRANCH  22  27
ENDBRANCH  15  17
ENDBRANCH  14  15
ENDBRANCH   6  14
TORSDOF 6
ENDMDL
MODEL       52
REMARK 921   NORMALIZED FREE ENERGY PREDICTED BY IDOCK:   -5.48 KCAL/MOL
REMARK 922        TOTAL FREE ENERGY PREDICTED BY IDOCK:   -8.34 KCAL/MOL
REMARK 923 INTER-LIGAND FREE ENERGY PREDICTED BY IDOCK:   -7.62 KCAL/MOL
REMARK 924 INTRA-LIGAND FREE ENERGY PREDICTED BY IDOCK:   -0.72 KCAL/MOL
REMARK 927      BINDING AFFINITY PREDICTED BY RF-SCORE:    0.00 PKD
ROOT
HETATM    1  C   UNL     1     -11.805  12.503  69.802  1.00  0.00    -0.380 C  
HETATM    2  C   UNL     1     -11.895  12.484  68.279  1.00  0.00    -0.361 C  
HETATM    3  C   UNL     1     -10.608  12.473  67.374  1.00  0.00    -0.223 C  
HETATM    4  N   UNL     1      -9.690  11.308  67.608  1.00  0.00    -0.170 NA 
HETATM    5  C   UNL     1     -11.052  12.466  65.844  1.00  0.00    -0.349 A  
HETATM    6  C   UNL     1      -9.850  13.851  67.483  1.00  0.00    -0.236 C  
HETATM    7  C   UNL     1     -12.399  12.434  65.432  1.00  0.00    -0.308 A  
HETATM    8  C   UNL     1     -10.425  12.426  63.470  1.00  0.00    -0.430 A  
HETATM    9  C   UNL     1      -9.132  11.129  68.945  1.00  0.00    -0.089 C  
HETATM   10  C   UNL     1     -10.219  10.019  67.154  1.00  0.00    -0.228 C  
HETATM   11  C   UNL     1     -12.750  12.375  64.079  1.00  0.00    -0.450 A  
HETATM   12  C   UNL     1     -11.765  12.364  63.100  1.00  0.00    -0.323 A  
HETATM   13  C   UNL     1     -10.072  12.474  64.822  1.00  0.00    -0.251 A  
ENDROOT
BRANCH   6  14
HETATM   14  O   UNL     1      -9.477  14.307  68.786  1.00  0.00    -0.197 OA 
BRANCH  14  15
HETATM   15  C   UNL     1     -10.008  15.508  69.132  1.00  0.00    -0.246 C  
HETATM   16  O   UNL     1     -10.923  15.704  69.914  1.00  0.00    -0.262 OA 
BRANCH  15  17
HETATM   17  C   UNL     1      -9.202  16.599  68.548  1.00  0.00    -0.234 A  
HETATM   18  C   UNL     1      -7.021  17.626  68.302  1.00  0.00    -0.220 A  
HETATM   19  C   UNL     1      -7.868  16.721  68.944  1.00  0.00    -0.244 A  
HETATM   20  C   UNL     1      -9.693  17.408  67.517  1.00  0.00    -0.266 A  
HETATM   21  C   UNL     1      -7.505  18.405  67.223  1.00  0.00    -0.217 A  
HETATM   22  C   UNL     1      -8.861  18.310  66.846  1.00  0.00    -0.275 A  
BRANCH  18  23
HETATM   23  O   UNL     1      -5.686  17.746  68.614  1.00  0.00    -0.166 OA 
HETATM   24  C   UNL     1      -5.381  18.249  69.911  1.00  0.00    -0.219 C  
ENDBRANCH  18  23
BRANCH  21  25
HETATM   25  O   UNL     1      -6.583  19.265  66.671  1.00  0.00    -0.188 OA 
HETATM   26  C   UNL     1      -6.023  18.908  65.413  1.00  0.00    -0.234 C  
ENDBRANCH  21  25
BRANCH  22  27
HETATM   27  O   UNL     1      -9.319  19.111  65.833  1.00  0.00    -0.433 OA 
HETATM   28  C   UNL     1     -10.697  19.470  65.831  1.00  0.00    -0.420 C  
ENDBRANCH  22  27
ENDBRANCH  15  17
ENDBRANCH  14  15
ENDBRANCH   6  14
TORSDOF 6
ENDMDL
MODEL       53
REMARK 921   NORMALIZED FREE ENERGY PREDICTED BY IDOCK:   -5.48 KCAL/MOL
REMARK 922        TOTAL FREE ENERGY PREDICTED BY IDOCK:   -8.34 KCAL/MOL
REMARK 923 INTER-LIGAND FREE ENERGY PREDICTED BY IDOCK:   -7.47 KCAL/MOL
REMARK 924 INTRA-LIGAND FREE ENERGY PREDICTED BY IDOCK:   -0.87 KCAL/MOL
REMARK 927      BINDING AFFINITY PREDICTED BY RF-SCORE:    0.00 PKD
ROOT
HETATM    1  C   UNL     1     -11.259  12.141  66.050  1.00  0.00    -0.382 C  
HETATM    2  C   UNL     1     -10.896  10.974  66.963  1.00  0.00    -0.334 C  
HETATM    3  C   UNL     1     -10.223  11.200  68.367  1.00  0.00    -0.188 C  
HETATM    4  N   UNL     1     -11.022  12.049  69.313  1.00  0.00    -0.179 NA 
HETATM    5  C   UNL     1      -9.967   9.784  69.051  1.00  0.00    -0.189 A  
HETATM    6  C   UNL     1      -8.753  11.742  68.188  1.00  0.00    -0.168 C  
HETATM    7  C   UNL     1     -10.344   8.563  68.459  1.00  0.00    -0.230 A  
HETATM    8  C   UNL     1      -9.148   8.492  70.972  1.00  0.00    -0.221 A  
HETATM    9  C   UNL     1     -11.354  13.410  68.904  1.00  0.00    -0.287 C  
HETATM   10  C   UNL     1     -12.240  11.410  69.818  1.00  0.00    -0.265 C  
HETATM   11  C   UNL     1     -10.151   7.342  69.114  1.00  0.00    -0.183 A  
HETATM   12  C   UNL     1      -9.561   7.306  70.371  1.00  0.00    -0.165 A  
HETATM   13  C   UNL     1      -9.350   9.714  70.323  1.00  0.00    -0.292 A  
ENDROOT
BRANCH   6  14
HETATM   14  O   UNL     1      -8.567  12.925  67.407  1.00  0.00    -0.175 OA 
BRANCH  14  15
HETATM   15  C   UNL     1      -7.882  13.912  68.039  1.00  0.00    -0.154 C  
HETATM   16  O   UNL     1      -6.944  13.775  68.806  1.00  0.00    -0.098 OA 
BRANCH  15  17
HETATM   17  C   UNL     1      -8.326  15.230  67.539  1.00  0.00    -0.191 A  
HETATM   18  C   UNL     1      -7.901  17.611  67.393  1.00  0.00    -0.205 A  
HETATM   19  C   UNL     1      -7.630  16.365  67.962  1.00  0.00    -0.158 A  
HETATM   20  C   UNL     1      -9.316  15.351  66.558  1.00  0.00    -0.311 A  
HETATM   21  C   UNL     1      -8.864  17.723  66.362  1.00  0.00    -0.231 A  
HETATM   22  C   UNL     1      -9.595  16.585  65.960  1.00  0.00    -0.290 A  
BRANCH  18  23
HETATM   23  O   UNL     1      -7.207  18.750  67.731  1.00  0.00    -0.228 OA 
HETATM   24  C   UNL     1      -7.522  19.334  68.992  1.00  0.00    -0.336 C  
ENDBRANCH  18  23
BRANCH  21  25
HETATM   25  O   UNL     1      -9.052  18.999  65.881  1.00  0.00    -0.446 OA 
HETATM   26  C   UNL     1     -10.241  19.679  66.267  1.00  0.00    -0.498 C  
ENDBRANCH  21  25
BRANCH  22  27
HETATM   27  O   UNL     1     -10.558  16.728  64.997  1.00  0.00    -0.695 OA 
HETATM   28  C   UNL     1     -11.275  15.568  64.585  1.00  0.00    -0.371 C  
ENDBRANCH  22  27
ENDBRANCH  15  17
ENDBRANCH  14  15
ENDBRANCH   6  14
TORSDOF 6
ENDMDL
MODEL       54
REMARK 921   NORMALIZED FREE ENERGY PREDICTED BY IDOCK:   -5.47 KCAL/MOL
REMARK 922        TOTAL FREE ENERGY PREDICTED BY IDOCK:   -8.33 KCAL/MOL
REMARK 923 INTER-LIGAND FREE ENERGY PREDICTED BY IDOCK:   -7.56 KCAL/MOL
REMARK 924 INTRA-LIGAND FREE ENERGY PREDICTED BY IDOCK:   -0.77 KCAL/MOL
REMARK 927      BINDING AFFINITY PREDICTED BY RF-SCORE:    0.00 PKD
ROOT
HETATM    1  C   UNL     1      -7.568   7.733  65.361  1.00  0.00    -0.089 C  
HETATM    2  C   UNL     1      -8.590   8.832  65.083  1.00  0.00    -0.209 C  
HETATM    3  C   UNL     1      -9.310   9.608  66.248  1.00  0.00    -0.185 C  
HETATM    4  N   UNL     1      -8.383  10.326  67.186  1.00  0.00    -0.121 NA 
HETATM    5  C   UNL     1     -10.315  10.671  65.618  1.00  0.00    -0.285 A  
HETATM    6  C   UNL     1     -10.296   8.647  67.017  1.00  0.00    -0.298 C  
HETATM    7  C   UNL     1     -10.460  10.865  64.230  1.00  0.00    -0.405 A  
HETATM    8  C   UNL     1     -11.964  12.460  65.945  1.00  0.00    -0.434 A  
HETATM    9  C   UNL     1      -7.385   9.540  67.905  1.00  0.00    -0.083 C  
HETATM   10  C   UNL     1      -7.716  11.493  66.602  1.00  0.00    -0.101 C  
HETATM   11  C   UNL     1     -11.314  11.845  63.714  1.00  0.00    -0.532 A  
HETATM   12  C   UNL     1     -12.060  12.647  64.569  1.00  0.00    -0.485 A  
HETATM   13  C   UNL     1     -11.103  11.488  66.463  1.00  0.00    -0.341 A  
ENDROOT
BRANCH   6  14
HETATM   14  O   UNL     1      -9.766   7.431  67.549  1.00  0.00    -0.138 OA 
BRANCH  14  15
HETATM   15  C   UNL     1     -10.670   6.423  67.654  1.00  0.00    -0.311 C  
HETATM   16  O   UNL     1     -11.127   5.755  66.742  1.00  0.00    -0.230 OA 
BRANCH  15  17
HETATM   17  C   UNL     1     -10.919   6.118  69.077  1.00  0.00    -0.436 A  
HETATM   18  C   UNL     1     -10.171   4.992  71.089  1.00  0.00    -0.211 A  
HETATM   19  C   UNL     1     -10.086   5.192  69.709  1.00  0.00    -0.336 A  
HETATM   20  C   UNL     1     -11.859   6.830  69.831  1.00  0.00    -0.208 A  
HETATM   21  C   UNL     1     -11.085   5.752  71.858  1.00  0.00    -0.248 A  
HETATM   22  C   UNL     1     -11.952   6.662  71.217  1.00  0.00    -0.355 A  
BRANCH  18  23
HETATM   23  O   UNL     1      -9.339   4.134  71.769  1.00  0.00    -0.122 OA 
HETATM   24  C   UNL     1      -9.406   2.759  71.402  1.00  0.00    -0.134 C  
ENDBRANCH  18  23
BRANCH  21  25
HETATM   25  O   UNL     1     -11.085   5.466  73.205  1.00  0.00    -0.277 OA 
HETATM   26  C   UNL     1     -10.345   6.330  74.060  1.00  0.00    -0.309 C  
ENDBRANCH  21  25
BRANCH  22  27
HETATM   27  O   UNL     1     -12.863   7.348  71.975  1.00  0.00    -0.273 OA 
HETATM   28  C   UNL     1     -12.714   8.759  72.092  1.00  0.00    -0.400 C  
ENDBRANCH  22  27
ENDBRANCH  15  17
ENDBRANCH  14  15
ENDBRANCH   6  14
TORSDOF 6
ENDMDL
MODEL       55
REMARK 921   NORMALIZED FREE ENERGY PREDICTED BY IDOCK:   -5.46 KCAL/MOL
REMARK 922        TOTAL FREE ENERGY PREDICTED BY IDOCK:   -8.31 KCAL/MOL
REMARK 923 INTER-LIGAND FREE ENERGY PREDICTED BY IDOCK:   -7.83 KCAL/MOL
REMARK 924 INTRA-LIGAND FREE ENERGY PREDICTED BY IDOCK:   -0.48 KCAL/MOL
REMARK 927      BINDING AFFINITY PREDICTED BY RF-SCORE:    0.00 PKD
ROOT
HETATM    1  C   UNL     1      -9.354  11.633  65.998  1.00  0.00    -0.241 C  
HETATM    2  C   UNL     1     -10.167  12.044  67.222  1.00  0.00    -0.221 C  
HETATM    3  C   UNL     1     -10.543  13.546  67.500  1.00  0.00    -0.244 C  
HETATM    4  N   UNL     1     -11.339  14.203  66.410  1.00  0.00    -0.328 NA 
HETATM    5  C   UNL     1     -11.378  13.627  68.855  1.00  0.00    -0.332 A  
HETATM    6  C   UNL     1      -9.251  14.374  67.867  1.00  0.00    -0.195 C  
HETATM    7  C   UNL     1     -11.727  12.493  69.614  1.00  0.00    -0.372 A  
HETATM    8  C   UNL     1     -12.593  14.986  70.500  1.00  0.00    -0.420 A  
HETATM    9  C   UNL     1     -10.752  14.271  65.075  1.00  0.00    -0.420 C  
HETATM   10  C   UNL     1     -12.714  13.713  66.284  1.00  0.00    -0.167 C  
HETATM   11  C   UNL     1     -12.507  12.599  70.771  1.00  0.00    -0.357 A  
HETATM   12  C   UNL     1     -12.945  13.842  71.209  1.00  0.00    -0.409 A  
HETATM   13  C   UNL     1     -11.822  14.881  69.338  1.00  0.00    -0.356 A  
ENDROOT
BRANCH   6  14
HETATM   14  O   UNL     1      -8.157  14.349  66.947  1.00  0.00    -0.131 OA 
BRANCH  14  15
HETATM   15  C   UNL     1      -6.984  14.799  67.460  1.00  0.00    -0.172 C  
HETATM   16  O   UNL     1      -6.015  14.125  67.768  1.00  0.00    -0.200 OA 
BRANCH  15  17
HETATM   17  C   UNL     1      -6.964  16.276  67.445  1.00  0.00    -0.206 A  
HETATM   18  C   UNL     1      -7.987  18.327  66.659  1.00  0.00    -0.251 A  
HETATM   19  C   UNL     1      -7.848  16.939  66.591  1.00  0.00    -0.298 A  
HETATM   20  C   UNL     1      -6.198  17.013  68.356  1.00  0.00    -0.145 A  
HETATM   21  C   UNL     1      -7.251  19.066  67.617  1.00  0.00    -0.222 A  
HETATM   22  C   UNL     1      -6.331  18.401  68.456  1.00  0.00    -0.216 A  
BRANCH  18  23
HETATM   23  O   UNL     1      -8.881  19.025  65.881  1.00  0.00    -0.450 OA 
HETATM   24  C   UNL     1     -10.263  18.816  66.159  1.00  0.00    -0.421 C  
ENDBRANCH  18  23
BRANCH  21  25
HETATM   25  O   UNL     1      -7.464  20.425  67.589  1.00  0.00    -0.298 OA 
HETATM   26  C   UNL     1      -6.482  21.230  66.946  1.00  0.00    -0.304 C  
ENDBRANCH  21  25
BRANCH  22  27
HETATM   27  O   UNL     1      -5.593  19.143  69.340  1.00  0.00    -0.200 OA 
HETATM   28  C   UNL     1      -5.289  18.571  70.608  1.00  0.00    -0.257 C  
ENDBRANCH  22  27
ENDBRANCH  15  17
ENDBRANCH  14  15
ENDBRANCH   6  14
TORSDOF 6
ENDMDL
MODEL       56
REMARK 921   NORMALIZED FREE ENERGY PREDICTED BY IDOCK:   -5.46 KCAL/MOL
REMARK 922        TOTAL FREE ENERGY PREDICTED BY IDOCK:   -8.30 KCAL/MOL
REMARK 923 INTER-LIGAND FREE ENERGY PREDICTED BY IDOCK:   -7.93 KCAL/MOL
REMARK 924 INTRA-LIGAND FREE ENERGY PREDICTED BY IDOCK:   -0.37 KCAL/MOL
REMARK 927      BINDING AFFINITY PREDICTED BY RF-SCORE:    0.00 PKD
ROOT
HETATM    1  C   UNL     1      -7.870   9.756  70.357  1.00  0.00    -0.144 C  
HETATM    2  C   UNL     1      -9.324   9.544  70.769  1.00  0.00    -0.218 C  
HETATM    3  C   UNL     1     -10.044   8.158  70.578  1.00  0.00    -0.192 C  
HETATM    4  N   UNL     1      -9.388   7.010  71.288  1.00  0.00    -0.160 NA 
HETATM    5  C   UNL     1     -11.546   8.281  71.096  1.00  0.00    -0.310 A  
HETATM    6  C   UNL     1     -10.256   7.859  69.044  1.00  0.00    -0.209 C  
HETATM    7  C   UNL     1     -12.072   9.459  71.663  1.00  0.00    -0.462 A  
HETATM    8  C   UNL     1     -13.727   7.227  71.498  1.00  0.00    -0.451 A  
HETATM    9  C   UNL     1      -8.004   6.691  70.948  1.00  0.00    -0.110 C  
HETATM   10  C   UNL     1      -9.505   7.053  72.747  1.00  0.00    -0.146 C  
HETATM   11  C   UNL     1     -13.380   9.513  72.156  1.00  0.00    -0.545 A  
HETATM   12  C   UNL     1     -14.204   8.396  72.080  1.00  0.00    -0.486 A  
HETATM   13  C   UNL     1     -12.416   7.168  71.014  1.00  0.00    -0.359 A  
ENDROOT
BRANCH   6  14
HETATM   14  O   UNL     1      -9.108   7.888  68.193  1.00  0.00    -0.134 OA 
BRANCH  14  15
HETATM   15  C   UNL     1      -9.391   7.824  66.867  1.00  0.00    -0.169 C  
HETATM   16  O   UNL     1      -9.423   6.821  66.174  1.00  0.00    -0.121 OA 
BRANCH  15  17
HETATM   17  C   UNL     1      -9.832   9.149  66.384  1.00  0.00    -0.350 A  
HETATM   18  C   UNL     1     -10.075  10.666  64.510  1.00  0.00    -0.353 A  
HETATM   19  C   UNL     1      -9.539   9.501  65.064  1.00  0.00    -0.218 A  
HETATM   20  C   UNL     1     -10.646   9.983  67.158  1.00  0.00    -0.296 A  
HETATM   21  C   UNL     1     -10.942  11.481  65.276  1.00  0.00    -0.228 A  
HETATM   22  C   UNL     1     -11.208  11.146  66.621  1.00  0.00    -0.114 A  
BRANCH  18  23
HETATM   23  O   UNL     1      -9.865  11.031  63.200  1.00  0.00    -0.315 OA 
HETATM   24  C   UNL     1      -8.559  10.801  62.678  1.00  0.00    -0.239 C  
ENDBRANCH  18  23
BRANCH  21  25
HETATM   25  O   UNL     1     -11.403  12.604  64.629  1.00  0.00    -0.298 OA 
HETATM   26  C   UNL     1     -10.656  13.805  64.783  1.00  0.00    -0.428 C  
ENDBRANCH  21  25
BRANCH  22  27
HETATM   27  O   UNL     1     -12.009  11.977  67.359  1.00  0.00    -0.583 OA 
HETATM   28  C   UNL     1     -11.391  12.835  68.312  1.00  0.00    -0.296 C  
ENDBRANCH  22  27
ENDBRANCH  15  17
ENDBRANCH  14  15
ENDBRANCH   6  14
TORSDOF 6
ENDMDL
MODEL       57
REMARK 921   NORMALIZED FREE ENERGY PREDICTED BY IDOCK:   -5.44 KCAL/MOL
REMARK 922        TOTAL FREE ENERGY PREDICTED BY IDOCK:   -8.28 KCAL/MOL
REMARK 923 INTER-LIGAND FREE ENERGY PREDICTED BY IDOCK:   -8.15 KCAL/MOL
REMARK 924 INTRA-LIGAND FREE ENERGY PREDICTED BY IDOCK:   -0.13 KCAL/MOL
REMARK 927      BINDING AFFINITY PREDICTED BY RF-SCORE:    0.00 PKD
ROOT
HETATM    1  C   UNL     1      -7.918   9.259  70.718  1.00  0.00    -0.187 C  
HETATM    2  C   UNL     1      -9.395   9.145  71.085  1.00  0.00    -0.313 C  
HETATM    3  C   UNL     1     -10.264   7.909  70.646  1.00  0.00    -0.196 C  
HETATM    4  N   UNL     1      -9.757   6.584  71.136  1.00  0.00    -0.174 NA 
HETATM    5  C   UNL     1     -11.752   8.109  71.178  1.00  0.00    -0.309 A  
HETATM    6  C   UNL     1     -10.476   7.917  69.083  1.00  0.00    -0.209 C  
HETATM    7  C   UNL     1     -12.153   9.218  71.949  1.00  0.00    -0.440 A  
HETATM    8  C   UNL     1     -14.046   7.258  71.383  1.00  0.00    -0.456 A  
HETATM    9  C   UNL     1      -8.412   6.174  70.744  1.00  0.00    -0.131 C  
HETATM   10  C   UNL     1      -9.899   6.377  72.579  1.00  0.00    -0.166 C  
HETATM   11  C   UNL     1     -13.456   9.333  72.444  1.00  0.00    -0.526 A  
HETATM   12  C   UNL     1     -14.400   8.352  72.167  1.00  0.00    -0.520 A  
HETATM   13  C   UNL     1     -12.741   7.136  70.896  1.00  0.00    -0.225 A  
ENDROOT
BRANCH   6  14
HETATM   14  O   UNL     1      -9.315   7.966  68.251  1.00  0.00    -0.143 OA 
BRANCH  14  15
HETATM   15  C   UNL     1      -9.578   7.946  66.920  1.00  0.00    -0.203 C  
HETATM   16  O   UNL     1      -9.559   6.973  66.186  1.00  0.00    -0.083 OA 
BRANCH  15  17
HETATM   17  C   UNL     1     -10.066   9.271  66.485  1.00  0.00    -0.343 A  
HETATM   18  C   UNL     1     -11.030  11.403  67.115  1.00  0.00    -0.285 A  
HETATM   19  C   UNL     1     -10.701  10.083  67.428  1.00  0.00    -0.336 A  
HETATM   20  C   UNL     1      -9.783   9.781  65.213  1.00  0.00    -0.371 A  
HETATM   21  C   UNL     1     -10.695  11.934  65.846  1.00  0.00    -0.284 A  
HETATM   22  C   UNL     1     -10.087  11.105  64.880  1.00  0.00    -0.289 A  
BRANCH  18  23
HETATM   23  O   UNL     1     -11.605  12.262  68.023  1.00  0.00    -0.306 OA 
HETATM   24  C   UNL     1     -11.545  11.873  69.392  1.00  0.00    -0.325 C  
ENDBRANCH  18  23
BRANCH  21  25
HETATM   25  O   UNL     1     -11.073  13.243  65.648  1.00  0.00    -0.282 OA 
HETATM   26  C   UNL     1     -12.195  13.481  64.806  1.00  0.00    -0.409 C  
ENDBRANCH  21  25
BRANCH  22  27
HETATM   27  O   UNL     1      -9.818  11.626  63.642  1.00  0.00    -0.310 OA 
HETATM   28  C   UNL     1      -9.182  10.788  62.683  1.00  0.00    -0.324 C  
ENDBRANCH  22  27
ENDBRANCH  15  17
ENDBRANCH  14  15
ENDBRANCH   6  14
TORSDOF 6
ENDMDL
MODEL       58
REMARK 921   NORMALIZED FREE ENERGY PREDICTED BY IDOCK:   -5.43 KCAL/MOL
REMARK 922        TOTAL FREE ENERGY PREDICTED BY IDOCK:   -8.27 KCAL/MOL
REMARK 923 INTER-LIGAND FREE ENERGY PREDICTED BY IDOCK:   -7.53 KCAL/MOL
REMARK 924 INTRA-LIGAND FREE ENERGY PREDICTED BY IDOCK:   -0.74 KCAL/MOL
REMARK 927      BINDING AFFINITY PREDICTED BY RF-SCORE:    0.00 PKD
ROOT
HETATM    1  C   UNL     1     -11.103   6.396  68.927  1.00  0.00    -0.420 C  
HETATM    2  C   UNL     1     -10.078   6.564  70.045  1.00  0.00    -0.203 C  
HETATM    3  C   UNL     1     -10.393   7.403  71.338  1.00  0.00    -0.194 C  
HETATM    4  N   UNL     1     -11.577   6.918  72.124  1.00  0.00    -0.276 NA 
HETATM    5  C   UNL     1      -9.115   7.386  72.289  1.00  0.00    -0.160 A  
HETATM    6  C   UNL     1     -10.510   8.935  70.982  1.00  0.00    -0.248 C  
HETATM    7  C   UNL     1      -7.935   6.680  71.981  1.00  0.00    -0.102 A  
HETATM    8  C   UNL     1      -8.049   8.062  74.395  1.00  0.00    -0.300 A  
HETATM    9  C   UNL     1     -12.875   6.875  71.457  1.00  0.00    -0.333 C  
HETATM   10  C   UNL     1     -11.368   5.639  72.807  1.00  0.00    -0.299 C  
HETATM   11  C   UNL     1      -6.851   6.646  72.866  1.00  0.00    -0.072 A  
HETATM   12  C   UNL     1      -6.911   7.329  74.074  1.00  0.00    -0.085 A  
HETATM   13  C   UNL     1      -9.137   8.090  73.517  1.00  0.00    -0.327 A  
ENDROOT
BRANCH   6  14
HETATM   14  O   UNL     1     -11.440   9.315  69.964  1.00  0.00    -0.181 OA 
BRANCH  14  15
HETATM   15  C   UNL     1     -11.614  10.655  69.836  1.00  0.00    -0.316 C  
HETATM   16  O   UNL     1     -11.923  11.439  70.718  1.00  0.00    -0.345 OA 
BRANCH  15  17
HETATM   17  C   UNL     1     -11.210  11.086  68.482  1.00  0.00    -0.329 A  
HETATM   18  C   UNL     1     -10.402  10.449  66.289  1.00  0.00    -0.203 A  
HETATM   19  C   UNL     1     -10.646  10.136  67.628  1.00  0.00    -0.316 A  
HETATM   20  C   UNL     1     -11.507  12.365  67.996  1.00  0.00    -0.377 A  
HETATM   21  C   UNL     1     -10.753  11.724  65.784  1.00  0.00    -0.280 A  
HETATM   22  C   UNL     1     -11.288  12.697  66.655  1.00  0.00    -0.326 A  
BRANCH  18  23
HETATM   23  O   UNL     1      -9.901   9.535  65.391  1.00  0.00    -0.302 OA 
HETATM   24  C   UNL     1      -8.617   8.992  65.686  1.00  0.00    -0.166 C  
ENDBRANCH  18  23
BRANCH  21  25
HETATM   25  O   UNL     1     -10.461  11.921  64.454  1.00  0.00    -0.273 OA 
HETATM   26  C   UNL     1     -11.512  11.726  63.515  1.00  0.00    -0.394 C  
ENDBRANCH  21  25
BRANCH  22  27
HETATM   27  O   UNL     1     -11.573  13.941  66.156  1.00  0.00    -0.335 OA 
HETATM   28  C   UNL     1     -12.884  14.181  65.656  1.00  0.00    -0.371 C  
ENDBRANCH  22  27
ENDBRANCH  15  17
ENDBRANCH  14  15
ENDBRANCH   6  14
TORSDOF 6
ENDMDL
MODEL       59
REMARK 921   NORMALIZED FREE ENERGY PREDICTED BY IDOCK:   -5.43 KCAL/MOL
REMARK 922        TOTAL FREE ENERGY PREDICTED BY IDOCK:   -8.26 KCAL/MOL
REMARK 923 INTER-LIGAND FREE ENERGY PREDICTED BY IDOCK:   -7.45 KCAL/MOL
REMARK 924 INTRA-LIGAND FREE ENERGY PREDICTED BY IDOCK:   -0.81 KCAL/MOL
REMARK 927      BINDING AFFINITY PREDICTED BY RF-SCORE:    0.00 PKD
ROOT
HETATM    1  C   UNL     1     -12.020  14.028  68.036  1.00  0.00    -0.386 C  
HETATM    2  C   UNL     1     -11.436  15.426  67.857  1.00  0.00    -0.306 C  
HETATM    3  C   UNL     1     -10.136  15.678  67.006  1.00  0.00    -0.253 C  
HETATM    4  N   UNL     1     -10.232  15.236  65.574  1.00  0.00    -0.364 NA 
HETATM    5  C   UNL     1      -9.794  17.233  67.032  1.00  0.00    -0.281 A  
HETATM    6  C   UNL     1      -8.879  15.058  67.730  1.00  0.00    -0.171 C  
HETATM    7  C   UNL     1     -10.591  18.186  67.697  1.00  0.00    -0.424 A  
HETATM    8  C   UNL     1      -8.345  19.083  66.319  1.00  0.00    -0.293 A  
HETATM    9  C   UNL     1     -10.513  13.829  65.305  1.00  0.00    -0.363 C  
HETATM   10  C   UNL     1     -11.127  16.050  64.748  1.00  0.00    -0.365 C  
HETATM   11  C   UNL     1     -10.288  19.552  67.654  1.00  0.00    -0.574 A  
HETATM   12  C   UNL     1      -9.171  20.000  66.961  1.00  0.00    -0.491 A  
HETATM   13  C   UNL     1      -8.652  17.719  66.352  1.00  0.00    -0.260 A  
ENDROOT
BRANCH   6  14
HETATM   14  O   UNL     1      -8.925  13.673  68.079  1.00  0.00    -0.173 OA 
BRANCH  14  15
HETATM   15  C   UNL     1      -7.952  12.919  67.507  1.00  0.00    -0.178 C  
HETATM   16  O   UNL     1      -6.789  13.239  67.330  1.00  0.00    -0.164 OA 
BRANCH  15  17
HETATM   17  C   UNL     1      -8.456  11.552  67.262  1.00  0.00    -0.152 A  
HETATM   18  C   UNL     1      -9.857   9.723  68.015  1.00  0.00    -0.148 A  
HETATM   19  C   UNL     1      -9.220  10.942  68.260  1.00  0.00    -0.161 A  
HETATM   20  C   UNL     1      -8.312  10.923  66.020  1.00  0.00    -0.165 A  
HETATM   21  C   UNL     1      -9.755   9.115  66.740  1.00  0.00    -0.210 A  
HETATM   22  C   UNL     1      -8.953   9.712  65.743  1.00  0.00    -0.169 A  
BRANCH  18  23
HETATM   23  O   UNL     1     -10.666   9.106  68.941  1.00  0.00    -0.212 OA 
HETATM   24  C   UNL     1     -10.777   9.742  70.211  1.00  0.00    -0.302 C  
ENDBRANCH  18  23
BRANCH  21  25
HETATM   25  O   UNL     1     -10.418   7.916  66.616  1.00  0.00    -0.296 OA 
HETATM   26  C   UNL     1      -9.639   6.726  66.663  1.00  0.00    -0.163 C  
ENDBRANCH  21  25
BRANCH  22  27
HETATM   27  O   UNL     1      -8.828   9.079  64.535  1.00  0.00    -0.172 OA 
HETATM   28  C   UNL     1      -8.922   9.865  63.351  1.00  0.00    -0.256 C  
ENDBRANCH  22  27
ENDBRANCH  15  17
ENDBRANCH  14  15
ENDBRANCH   6  14
TORSDOF 6
ENDMDL
MODEL       60
REMARK 921   NORMALIZED FREE ENERGY PREDICTED BY IDOCK:   -5.42 KCAL/MOL
REMARK 922        TOTAL FREE ENERGY PREDICTED BY IDOCK:   -8.25 KCAL/MOL
REMARK 923 INTER-LIGAND FREE ENERGY PREDICTED BY IDOCK:   -8.00 KCAL/MOL
REMARK 924 INTRA-LIGAND FREE ENERGY PREDICTED BY IDOCK:   -0.25 KCAL/MOL
REMARK 927      BINDING AFFINITY PREDICTED BY RF-SCORE:    0.00 PKD
ROOT
HETATM    1  C   UNL     1      -7.443  10.837  69.143  1.00  0.00    -0.123 C  
HETATM    2  C   UNL     1      -8.345   9.978  70.025  1.00  0.00    -0.137 C  
HETATM    3  C   UNL     1      -9.419   9.005  69.411  1.00  0.00    -0.159 C  
HETATM    4  N   UNL     1      -8.859   7.959  68.491  1.00  0.00    -0.134 NA 
HETATM    5  C   UNL     1     -10.191   8.274  70.597  1.00  0.00    -0.214 A  
HETATM    6  C   UNL     1     -10.578   9.829  68.730  1.00  0.00    -0.219 C  
HETATM    7  C   UNL     1      -9.886   8.480  71.957  1.00  0.00    -0.383 A  
HETATM    8  C   UNL     1     -11.898   6.664  71.321  1.00  0.00    -0.403 A  
HETATM    9  C   UNL     1      -8.129   8.402  67.308  1.00  0.00    -0.105 C  
HETATM   10  C   UNL     1      -8.067   6.925  69.161  1.00  0.00    -0.121 C  
HETATM   11  C   UNL     1     -10.551   7.779  72.970  1.00  0.00    -0.441 A  
HETATM   12  C   UNL     1     -11.551   6.868  72.652  1.00  0.00    -0.181 A  
HETATM   13  C   UNL     1     -11.228   7.355  70.306  1.00  0.00    -0.268 A  
ENDROOT
BRANCH   6  14
HETATM   14  O   UNL     1     -10.220  10.788  67.732  1.00  0.00    -0.172 OA 
BRANCH  14  15
HETATM   15  C   UNL     1     -11.251  11.555  67.295  1.00  0.00    -0.301 C  
HETATM   16  O   UNL     1     -11.807  11.483  66.212  1.00  0.00    -0.354 OA 
BRANCH  15  17
HETATM   17  C   UNL     1     -11.741  12.409  68.396  1.00  0.00    -0.386 A  
HETATM   18  C   UNL     1     -12.586  12.540  70.663  1.00  0.00    -0.155 A  
HETATM   19  C   UNL     1     -12.265  11.787  69.532  1.00  0.00    -0.232 A  
HETATM   20  C   UNL     1     -11.563  13.797  68.388  1.00  0.00    -0.369 A  
HETATM   21  C   UNL     1     -12.354  13.936  70.674  1.00  0.00    -0.381 A  
HETATM   22  C   UNL     1     -11.860  14.572  69.514  1.00  0.00    -0.329 A  
BRANCH  18  23
HETATM   23  O   UNL     1     -13.052  11.973  71.827  1.00  0.00    -0.445 OA 
HETATM   24  C   UNL     1     -13.056  10.549  71.882  1.00  0.00    -0.462 C  
ENDBRANCH  18  23
BRANCH  21  25
HETATM   25  O   UNL     1     -12.714  14.575  71.839  1.00  0.00    -0.316 OA 
HETATM   26  C   UNL     1     -13.915  15.337  71.826  1.00  0.00    -0.539 C  
ENDBRANCH  21  25
BRANCH  22  27
HETATM   27  O   UNL     1     -11.692  15.931  69.530  1.00  0.00    -0.342 OA 
HETATM   28  C   UNL     1     -10.720  16.499  68.658  1.00  0.00    -0.334 C  
ENDBRANCH  22  27
ENDBRANCH  15  17
ENDBRANCH  14  15
ENDBRANCH   6  14
TORSDOF 6
ENDMDL
MODEL       61
REMARK 921   NORMALIZED FREE ENERGY PREDICTED BY IDOCK:   -5.37 KCAL/MOL
REMARK 922        TOTAL FREE ENERGY PREDICTED BY IDOCK:   -8.19 KCAL/MOL
REMARK 923 INTER-LIGAND FREE ENERGY PREDICTED BY IDOCK:   -7.42 KCAL/MOL
REMARK 924 INTRA-LIGAND FREE ENERGY PREDICTED BY IDOCK:   -0.77 KCAL/MOL
REMARK 927      BINDING AFFINITY PREDICTED BY RF-SCORE:    0.00 PKD
ROOT
HETATM    1  C   UNL     1      -7.564  10.971  69.063  1.00  0.00    -0.134 C  
HETATM    2  C   UNL     1      -7.901   9.522  69.402  1.00  0.00    -0.097 C  
HETATM    3  C   UNL     1      -9.290   8.885  69.025  1.00  0.00    -0.144 C  
HETATM    4  N   UNL     1      -9.607   8.903  67.557  1.00  0.00    -0.140 NA 
HETATM    5  C   UNL     1      -9.319   7.374  69.530  1.00  0.00    -0.156 A  
HETATM    6  C   UNL     1     -10.441   9.535  69.885  1.00  0.00    -0.240 C  
HETATM    7  C   UNL     1      -8.227   6.754  70.169  1.00  0.00    -0.133 A  
HETATM    8  C   UNL     1     -10.519   5.241  69.719  1.00  0.00    -0.340 A  
HETATM    9  C   UNL     1      -9.664  10.196  66.882  1.00  0.00    -0.187 C  
HETATM   10  C   UNL     1      -8.788   7.997  66.749  1.00  0.00    -0.140 C  
HETATM   11  C   UNL     1      -8.270   5.409  70.551  1.00  0.00    -0.110 A  
HETATM   12  C   UNL     1      -9.412   4.651  70.320  1.00  0.00    -0.240 A  
HETATM   13  C   UNL     1     -10.474   6.582  69.327  1.00  0.00    -0.259 A  
ENDROOT
BRANCH   6  14
HETATM   14  O   UNL     1     -10.578  10.957  69.853  1.00  0.00    -0.158 OA 
BRANCH  14  15
HETATM   15  C   UNL     1     -11.858  11.395  69.741  1.00  0.00    -0.364 C  
HETATM   16  O   UNL     1     -12.866  10.799  70.082  1.00  0.00    -0.265 OA 
BRANCH  15  17
HETATM   17  C   UNL     1     -11.870  12.801  69.288  1.00  0.00    -0.358 A  
HETATM   18  C   UNL     1     -11.728  15.144  69.887  1.00  0.00    -0.315 A  
HETATM   19  C   UNL     1     -11.884  13.806  70.257  1.00  0.00    -0.342 A  
HETATM   20  C   UNL     1     -11.723  13.142  67.939  1.00  0.00    -0.398 A  
HETATM   21  C   UNL     1     -11.526  15.484  68.528  1.00  0.00    -0.361 A  
HETATM   22  C   UNL     1     -11.548  14.473  67.544  1.00  0.00    -0.381 A  
BRANCH  18  23
HETATM   23  O   UNL     1     -11.679  16.169  70.804  1.00  0.00    -0.382 OA 
HETATM   24  C   UNL     1     -12.072  15.849  72.136  1.00  0.00    -0.506 C  
ENDBRANCH  18  23
BRANCH  21  25
HETATM   25  O   UNL     1     -11.390  16.831  68.282  1.00  0.00    -0.274 OA 
HETATM   26  C   UNL     1     -10.070  17.348  68.168  1.00  0.00    -0.328 C  
ENDBRANCH  21  25
BRANCH  22  27
HETATM   27  O   UNL     1     -11.401  14.830  66.230  1.00  0.00    -0.343 OA 
HETATM   28  C   UNL     1     -10.970  13.836  65.306  1.00  0.00    -0.322 C  
ENDBRANCH  22  27
ENDBRANCH  15  17
ENDBRANCH  14  15
ENDBRANCH   6  14
TORSDOF 6
ENDMDL
MODEL       62
REMARK 921   NORMALIZED FREE ENERGY PREDICTED BY IDOCK:   -5.37 KCAL/MOL
REMARK 922        TOTAL FREE ENERGY PREDICTED BY IDOCK:   -8.19 KCAL/MOL
REMARK 923 INTER-LIGAND FREE ENERGY PREDICTED BY IDOCK:   -7.52 KCAL/MOL
REMARK 924 INTRA-LIGAND FREE ENERGY PREDICTED BY IDOCK:   -0.67 KCAL/MOL
REMARK 927      BINDING AFFINITY PREDICTED BY RF-SCORE:    0.00 PKD
ROOT
HETATM    1  C   UNL     1      -7.247   9.208  66.311  1.00  0.00    -0.091 C  
HETATM    2  C   UNL     1      -8.335  10.089  65.703  1.00  0.00    -0.148 C  
HETATM    3  C   UNL     1      -9.481  10.715  66.581  1.00  0.00    -0.167 C  
HETATM    4  N   UNL     1      -9.001  11.601  67.694  1.00  0.00    -0.162 NA 
HETATM    5  C   UNL     1     -10.448  11.562  65.640  1.00  0.00    -0.317 A  
HETATM    6  C   UNL     1     -10.448   9.584  67.104  1.00  0.00    -0.253 C  
HETATM    7  C   UNL     1     -10.233  11.721  64.256  1.00  0.00    -0.344 A  
HETATM    8  C   UNL     1     -12.423  13.001  65.402  1.00  0.00    -0.531 A  
HETATM    9  C   UNL     1      -8.117  11.024  68.701  1.00  0.00    -0.149 C  
HETATM   10  C   UNL     1      -8.425  12.873  67.249  1.00  0.00    -0.197 C  
HETATM   11  C   UNL     1     -11.075  12.516  63.472  1.00  0.00    -0.497 A  
HETATM   12  C   UNL     1     -12.164  13.162  64.045  1.00  0.00    -0.482 A  
HETATM   13  C   UNL     1     -11.577  12.215  66.190  1.00  0.00    -0.418 A  
ENDROOT
BRANCH   6  14
HETATM   14  O   UNL     1      -9.873   8.494  67.829  1.00  0.00    -0.159 OA 
BRANCH  14  15
HETATM   15  C   UNL     1     -10.683   7.411  67.948  1.00  0.00    -0.149 C  
HETATM   16  O   UNL     1     -11.233   6.808  67.043  1.00  0.00    -0.393 OA 
BRANCH  15  17
HETATM   17  C   UNL     1     -10.685   6.939  69.348  1.00  0.00    -0.275 A  
HETATM   18  C   UNL     1     -11.459   7.275  71.619  1.00  0.00    -0.265 A  
HETATM   19  C   UNL     1     -11.283   7.748  70.317  1.00  0.00    -0.215 A  
HETATM   20  C   UNL     1     -10.238   5.659  69.695  1.00  0.00    -0.321 A  
HETATM   21  C   UNL     1     -11.057   5.960  71.955  1.00  0.00    -0.274 A  
HETATM   22  C   UNL     1     -10.418   5.156  70.988  1.00  0.00    -0.171 A  
BRANCH  18  23
HETATM   23  O   UNL     1     -12.092   8.007  72.597  1.00  0.00    -0.328 OA 
HETATM   24  C   UNL     1     -13.201   8.799  72.181  1.00  0.00    -0.414 C  
ENDBRANCH  18  23
BRANCH  21  25
HETATM   25  O   UNL     1     -11.274   5.606  73.267  1.00  0.00    -0.268 OA 
HETATM   26  C   UNL     1     -10.189   5.756  74.176  1.00  0.00    -0.276 C  
ENDBRANCH  21  25
BRANCH  22  27
HETATM   27  O   UNL     1      -9.991   3.906  71.350  1.00  0.00    -0.183 OA 
HETATM   28  C   UNL     1      -8.652   3.535  71.036  1.00  0.00    -0.072 C  
ENDBRANCH  22  27
ENDBRANCH  15  17
ENDBRANCH  14  15
ENDBRANCH   6  14
TORSDOF 6
ENDMDL
MODEL       63
REMARK 921   NORMALIZED FREE ENERGY PREDICTED BY IDOCK:   -5.37 KCAL/MOL
REMARK 922        TOTAL FREE ENERGY PREDICTED BY IDOCK:   -8.19 KCAL/MOL
REMARK 923 INTER-LIGAND FREE ENERGY PREDICTED BY IDOCK:   -7.37 KCAL/MOL
REMARK 924 INTRA-LIGAND FREE ENERGY PREDICTED BY IDOCK:   -0.81 KCAL/MOL
REMARK 927      BINDING AFFINITY PREDICTED BY RF-SCORE:    0.00 PKD
ROOT
HETATM    1  C   UNL     1      -9.515   8.245  67.101  1.00  0.00    -0.206 C  
HETATM    2  C   UNL     1     -10.241   9.503  66.633  1.00  0.00    -0.310 C  
HETATM    3  C   UNL     1     -10.383  10.769  67.557  1.00  0.00    -0.206 C  
HETATM    4  N   UNL     1      -9.080  11.359  68.012  1.00  0.00    -0.164 NA 
HETATM    5  C   UNL     1     -11.199  11.891  66.773  1.00  0.00    -0.384 A  
HETATM    6  C   UNL     1     -11.344  10.458  68.768  1.00  0.00    -0.214 C  
HETATM    7  C   UNL     1     -11.658  11.729  65.451  1.00  0.00    -0.190 A  
HETATM    8  C   UNL     1     -12.157  14.152  66.727  1.00  0.00    -0.474 A  
HETATM    9  C   UNL     1      -8.173  10.513  68.781  1.00  0.00    -0.134 C  
HETATM   10  C   UNL     1      -8.310  12.017  66.953  1.00  0.00    -0.159 C  
HETATM   11  C   UNL     1     -12.326  12.757  64.777  1.00  0.00    -0.540 A  
HETATM   12  C   UNL     1     -12.568  13.969  65.411  1.00  0.00    -0.529 A  
HETATM   13  C   UNL     1     -11.480  13.129  67.399  1.00  0.00    -0.375 A  
ENDROOT
BRANCH   6  14
HETATM   14  O   UNL     1     -11.034   9.333  69.595  1.00  0.00    -0.234 OA 
BRANCH  14  15
HETATM   15  C   UNL     1     -11.662   9.333  70.798  1.00  0.00    -0.269 C  
HETATM   16  O   UNL     1     -12.813   9.666  71.022  1.00  0.00    -0.317 OA 
BRANCH  15  17
HETATM   17  C   UNL     1     -10.795   8.703  71.815  1.00  0.00    -0.395 A  
HETATM   18  C   UNL     1     -10.492   6.912  73.419  1.00  0.00    -0.331 A  
HETATM   19  C   UNL     1     -11.318   7.648  72.566  1.00  0.00    -0.409 A  
HETATM   20  C   UNL     1      -9.442   9.037  71.940  1.00  0.00    -0.179 A  
HETATM   21  C   UNL     1      -9.112   7.216  73.504  1.00  0.00    -0.168 A  
HETATM   22  C   UNL     1      -8.590   8.305  72.774  1.00  0.00    -0.203 A  
BRANCH  18  23
HETATM   23  O   UNL     1     -10.942   5.829  74.138  1.00  0.00    -0.052 OA 
HETATM   24  C   UNL     1     -11.252   4.655  73.393  1.00  0.00    -0.338 C  
ENDBRANCH  18  23
BRANCH  21  25
HETATM   25  O   UNL     1      -8.399   6.430  74.380  1.00  0.00    -0.122 OA 
HETATM   26  C   UNL     1      -7.580   5.406  73.826  1.00  0.00    -0.094 C  
ENDBRANCH  21  25
BRANCH  22  27
HETATM   27  O   UNL     1      -7.262   8.612  72.912  1.00  0.00    -0.305 OA 
HETATM   28  C   UNL     1      -6.481   8.763  71.731  1.00  0.00    -0.073 C  
ENDBRANCH  22  27
ENDBRANCH  15  17
ENDBRANCH  14  15
ENDBRANCH   6  14
TORSDOF 6
ENDMDL
MODEL       64
REMARK 921   NORMALIZED FREE ENERGY PREDICTED BY IDOCK:   -5.34 KCAL/MOL
REMARK 922        TOTAL FREE ENERGY PREDICTED BY IDOCK:   -8.15 KCAL/MOL
REMARK 923 INTER-LIGAND FREE ENERGY PREDICTED BY IDOCK:   -7.32 KCAL/MOL
REMARK 924 INTRA-LIGAND FREE ENERGY PREDICTED BY IDOCK:   -0.83 KCAL/MOL
REMARK 927      BINDING AFFINITY PREDICTED BY RF-SCORE:    0.00 PKD
ROOT
HETATM    1  C   UNL     1     -10.835   8.954  72.063  1.00  0.00    -0.404 C  
HETATM    2  C   UNL     1     -10.456   7.586  71.503  1.00  0.00    -0.226 C  
HETATM    3  C   UNL     1      -9.633   7.437  70.170  1.00  0.00    -0.165 C  
HETATM    4  N   UNL     1      -8.290   8.107  70.187  1.00  0.00    -0.123 NA 
HETATM    5  C   UNL     1      -9.421   5.887  69.865  1.00  0.00    -0.180 A  
HETATM    6  C   UNL     1     -10.503   7.892  68.936  1.00  0.00    -0.190 C  
HETATM    7  C   UNL     1      -9.886   4.864  70.715  1.00  0.00    -0.285 A  
HETATM    8  C   UNL     1      -8.480   4.135  68.426  1.00  0.00    -0.104 A  
HETATM    9  C   UNL     1      -8.242   9.547  70.423  1.00  0.00    -0.190 C  
HETATM   10  C   UNL     1      -7.303   7.465  71.060  1.00  0.00    -0.073 C  
HETATM   11  C   UNL     1      -9.634   3.515  70.441  1.00  0.00    -0.241 A  
HETATM   12  C   UNL     1      -8.926   3.151  69.302  1.00  0.00    -0.178 A  
HETATM   13  C   UNL     1      -8.721   5.484  68.703  1.00  0.00    -0.108 A  
ENDROOT
BRANCH   6  14
HETATM   14  O   UNL     1     -11.071   9.204  68.967  1.00  0.00    -0.074 OA 
BRANCH  14  15
HETATM   15  C   UNL     1     -10.860   9.932  67.841  1.00  0.00    -0.258 C  
HETATM   16  O   UNL     1     -10.477   9.514  66.761  1.00  0.00    -0.239 OA 
BRANCH  15  17
HETATM   17  C   UNL     1     -11.323  11.320  68.048  1.00  0.00    -0.372 A  
HETATM   18  C   UNL     1     -11.819  13.099  69.617  1.00  0.00    -0.324 A  
HETATM   19  C   UNL     1     -11.543  11.754  69.357  1.00  0.00    -0.386 A  
HETATM   20  C   UNL     1     -11.406  12.235  66.992  1.00  0.00    -0.395 A  
HETATM   21  C   UNL     1     -11.848  14.033  68.554  1.00  0.00    -0.364 A  
HETATM   22  C   UNL     1     -11.663  13.590  67.227  1.00  0.00    -0.383 A  
BRANCH  18  23
HETATM   23  O   UNL     1     -11.987  13.591  70.890  1.00  0.00    -0.280 OA 
HETATM   24  C   UNL     1     -13.138  13.139  71.598  1.00  0.00    -0.353 C  
ENDBRANCH  18  23
BRANCH  21  25
HETATM   25  O   UNL     1     -12.135  15.326  68.928  1.00  0.00    -0.286 OA 
HETATM   26  C   UNL     1     -11.048  16.238  69.027  1.00  0.00    -0.331 C  
ENDBRANCH  21  25
BRANCH  22  27
HETATM   27  O   UNL     1     -11.747  14.504  66.211  1.00  0.00    -0.371 OA 
HETATM   28  C   UNL     1     -12.389  14.109  65.002  1.00  0.00    -0.440 C  
ENDBRANCH  22  27
ENDBRANCH  15  17
ENDBRANCH  14  15
ENDBRANCH   6  14
TORSDOF 6
ENDMDL
MODEL       65
REMARK 921   NORMALIZED FREE ENERGY PREDICTED BY IDOCK:   -5.34 KCAL/MOL
REMARK 922        TOTAL FREE ENERGY PREDICTED BY IDOCK:   -8.15 KCAL/MOL
REMARK 923 INTER-LIGAND FREE ENERGY PREDICTED BY IDOCK:   -7.51 KCAL/MOL
REMARK 924 INTRA-LIGAND FREE ENERGY PREDICTED BY IDOCK:   -0.64 KCAL/MOL
REMARK 927      BINDING AFFINITY PREDICTED BY RF-SCORE:    0.00 PKD
ROOT
HETATM    1  C   UNL     1     -12.620  14.213  66.021  1.00  0.00    -0.407 C  
HETATM    2  C   UNL     1     -11.573  13.183  65.608  1.00  0.00    -0.371 C  
HETATM    3  C   UNL     1     -10.398  12.766  66.567  1.00  0.00    -0.251 C  
HETATM    4  N   UNL     1     -10.839  12.194  67.883  1.00  0.00    -0.209 NA 
HETATM    5  C   UNL     1      -9.485  11.689  65.829  1.00  0.00    -0.244 A  
HETATM    6  C   UNL     1      -9.392  13.967  66.754  1.00  0.00    -0.277 C  
HETATM    7  C   UNL     1      -9.764  11.199  64.537  1.00  0.00    -0.310 A  
HETATM    8  C   UNL     1      -7.543  10.188  65.877  1.00  0.00    -0.128 A  
HETATM    9  C   UNL     1     -11.670  13.024  68.751  1.00  0.00    -0.324 C  
HETATM   10  C   UNL     1     -11.452  10.867  67.792  1.00  0.00    -0.243 C  
HETATM   11  C   UNL     1      -8.969  10.214  63.942  1.00  0.00    -0.270 A  
HETATM   12  C   UNL     1      -7.864   9.704  64.613  1.00  0.00    -0.133 A  
HETATM   13  C   UNL     1      -8.342  11.166  66.478  1.00  0.00    -0.166 A  
ENDROOT
BRANCH   6  14
HETATM   14  O   UNL     1      -9.920  15.216  67.208  1.00  0.00    -0.228 OA 
BRANCH  14  15
HETATM   15  C   UNL     1      -9.318  15.707  68.322  1.00  0.00    -0.192 C  
HETATM   16  O   UNL     1      -9.193  15.140  69.394  1.00  0.00    -0.220 OA 
BRANCH  15  17
HETATM   17  C   UNL     1      -8.668  16.996  68.013  1.00  0.00    -0.218 A  
HETATM   18  C   UNL     1      -8.791  19.126  66.864  1.00  0.00    -0.305 A  
HETATM   19  C   UNL     1      -9.271  17.831  67.070  1.00  0.00    -0.257 A  
HETATM   20  C   UNL     1      -7.562  17.457  68.737  1.00  0.00    -0.252 A  
HETATM   21  C   UNL     1      -7.707  19.609  67.635  1.00  0.00    -0.275 A  
HETATM   22  C   UNL     1      -7.073  18.755  68.562  1.00  0.00    -0.274 A  
BRANCH  18  23
HETATM   23  O   UNL     1      -9.381  20.008  65.989  1.00  0.00    -0.383 OA 
HETATM   24  C   UNL     1     -10.767  19.811  65.725  1.00  0.00    -0.370 C  
ENDBRANCH  18  23
BRANCH  21  25
HETATM   25  O   UNL     1      -7.316  20.896  67.342  1.00  0.00    -0.351 OA 
HETATM   26  C   UNL     1      -6.170  21.063  66.515  1.00  0.00    -0.281 C  
ENDBRANCH  21  25
BRANCH  22  27
HETATM   27  O   UNL     1      -5.993  19.228  69.260  1.00  0.00    -0.233 OA 
HETATM   28  C   UNL     1      -6.235  20.008  70.427  1.00  0.00    -0.333 C  
ENDBRANCH  22  27
ENDBRANCH  15  17
ENDBRANCH  14  15
ENDBRANCH   6  14
TORSDOF 6
ENDMDL
MODEL       66
REMARK 921   NORMALIZED FREE ENERGY PREDICTED BY IDOCK:   -5.30 KCAL/MOL
REMARK 922        TOTAL FREE ENERGY PREDICTED BY IDOCK:   -8.10 KCAL/MOL
REMARK 923 INTER-LIGAND FREE ENERGY PREDICTED BY IDOCK:   -7.44 KCAL/MOL
REMARK 924 INTRA-LIGAND FREE ENERGY PREDICTED BY IDOCK:   -0.66 KCAL/MOL
REMARK 927      BINDING AFFINITY PREDICTED BY RF-SCORE:    0.00 PKD
ROOT
HETATM    1  C   UNL     1     -10.184  10.263  66.077  1.00  0.00    -0.298 C  
HETATM    2  C   UNL     1     -10.305  11.779  65.948  1.00  0.00    -0.280 C  
HETATM    3  C   UNL     1     -10.250  12.724  67.205  1.00  0.00    -0.233 C  
HETATM    4  N   UNL     1      -8.987  12.618  68.011  1.00  0.00    -0.193 NA 
HETATM    5  C   UNL     1     -10.417  14.234  66.724  1.00  0.00    -0.273 A  
HETATM    6  C   UNL     1     -11.536  12.525  68.096  1.00  0.00    -0.319 C  
HETATM    7  C   UNL     1     -10.549  14.601  65.370  1.00  0.00    -0.390 A  
HETATM    8  C   UNL     1     -10.522  16.622  67.284  1.00  0.00    -0.313 A  
HETATM    9  C   UNL     1      -8.642  11.319  68.582  1.00  0.00    -0.139 C  
HETATM   10  C   UNL     1      -7.798  13.160  67.348  1.00  0.00    -0.165 C  
HETATM   11  C   UNL     1     -10.641  15.942  64.982  1.00  0.00    -0.372 A  
HETATM   12  C   UNL     1     -10.620  16.951  65.936  1.00  0.00    -0.239 A  
HETATM   13  C   UNL     1     -10.420  15.283  67.674  1.00  0.00    -0.263 A  
ENDROOT
BRANCH   6  14
HETATM   14  O   UNL     1     -11.840  11.202  68.544  1.00  0.00    -0.452 OA 
BRANCH  14  15
HETATM   15  C   UNL     1     -11.844  11.053  69.893  1.00  0.00    -0.353 C  
HETATM   16  O   UNL     1     -12.236  11.864  70.716  1.00  0.00    -0.376 OA 
BRANCH  15  17
HETATM   17  C   UNL     1     -11.450   9.675  70.247  1.00  0.00    -0.288 A  
HETATM   18  C   UNL     1     -10.620   7.526  69.492  1.00  0.00    -0.236 A  
HETATM   19  C   UNL     1     -11.156   8.785  69.211  1.00  0.00     0.096 A  
HETATM   20  C   UNL     1     -11.227   9.288  71.574  1.00  0.00    -0.457 A  
HETATM   21  C   UNL     1     -10.345   7.158  70.831  1.00  0.00    -0.201 A  
HETATM   22  C   UNL     1     -10.675   8.040  71.881  1.00  0.00    -0.251 A  
BRANCH  18  23
HETATM   23  O   UNL     1     -10.261   6.634  68.508  1.00  0.00    -0.153 OA 
HETATM   24  C   UNL     1     -11.012   6.686  67.298  1.00  0.00    -0.385 C  
ENDBRANCH  18  23
BRANCH  21  25
HETATM   25  O   UNL     1      -9.825   5.893  70.987  1.00  0.00    -0.175 OA 
HETATM   26  C   UNL     1      -8.417   5.779  71.157  1.00  0.00    -0.128 C  
ENDBRANCH  21  25
BRANCH  22  27
HETATM   27  O   UNL     1     -10.447   7.641  73.171  1.00  0.00    -0.327 OA 
HETATM   28  C   UNL     1      -9.141   7.818  73.709  1.00  0.00    -0.273 C  
ENDBRANCH  22  27
ENDBRANCH  15  17
ENDBRANCH  14  15
ENDBRANCH   6  14
TORSDOF 6
ENDMDL
MODEL       67
REMARK 921   NORMALIZED FREE ENERGY PREDICTED BY IDOCK:   -5.28 KCAL/MOL
REMARK 922        TOTAL FREE ENERGY PREDICTED BY IDOCK:   -8.07 KCAL/MOL
REMARK 923 INTER-LIGAND FREE ENERGY PREDICTED BY IDOCK:   -7.35 KCAL/MOL
REMARK 924 INTRA-LIGAND FREE ENERGY PREDICTED BY IDOCK:   -0.73 KCAL/MOL
REMARK 927      BINDING AFFINITY PREDICTED BY RF-SCORE:    0.00 PKD
ROOT
HETATM    1  C   UNL     1      -7.394  10.132  69.143  1.00  0.00    -0.089 C  
HETATM    2  C   UNL     1      -8.060   9.359  70.278  1.00  0.00    -0.180 C  
HETATM    3  C   UNL     1      -9.220   8.331  70.011  1.00  0.00    -0.151 C  
HETATM    4  N   UNL     1      -8.855   7.203  69.090  1.00  0.00    -0.136 NA 
HETATM    5  C   UNL     1      -9.695   7.714  71.402  1.00  0.00    -0.183 A  
HETATM    6  C   UNL     1     -10.520   9.085  69.532  1.00  0.00    -0.219 C  
HETATM    7  C   UNL     1      -9.101   8.049  72.635  1.00  0.00    -0.290 A  
HETATM    8  C   UNL     1     -11.162   6.178  72.632  1.00  0.00    -0.312 A  
HETATM    9  C   UNL     1      -8.414   7.533  67.738  1.00  0.00    -0.118 C  
HETATM   10  C   UNL     1      -7.911   6.238  69.659  1.00  0.00    -0.107 C  
HETATM   11  C   UNL     1      -9.510   7.447  73.830  1.00  0.00    -0.312 A  
HETATM   12  C   UNL     1     -10.533   6.508  73.828  1.00  0.00    -0.335 A  
HETATM   13  C   UNL     1     -10.748   6.771  71.435  1.00  0.00    -0.253 A  
ENDROOT
BRANCH   6  14
HETATM   14  O   UNL     1     -10.413   9.945  68.395  1.00  0.00    -0.189 OA 
BRANCH  14  15
HETATM   15  C   UNL     1     -11.405  10.865  68.293  1.00  0.00    -0.308 C  
HETATM   16  O   UNL     1     -12.407  10.938  68.984  1.00  0.00    -0.464 OA 
BRANCH  15  17
HETATM   17  C   UNL     1     -11.028  11.903  67.311  1.00  0.00    -0.319 A  
HETATM   18  C   UNL     1     -11.560  13.054  65.246  1.00  0.00    -0.328 A  
HETATM   19  C   UNL     1     -11.766  11.991  66.129  1.00  0.00    -0.313 A  
HETATM   20  C   UNL     1     -10.061  12.873  67.598  1.00  0.00    -0.221 A  
HETATM   21  C   UNL     1     -10.620  14.064  65.563  1.00  0.00    -0.318 A  
HETATM   22  C   UNL     1      -9.848  13.957  66.739  1.00  0.00    -0.274 A  
BRANCH  18  23
HETATM   23  O   UNL     1     -12.296  13.220  64.096  1.00  0.00    -0.541 OA 
HETATM   24  C   UNL     1     -12.628  12.036  63.378  1.00  0.00    -0.469 C  
ENDBRANCH  18  23
BRANCH  21  25
HETATM   25  O   UNL     1     -10.497  15.058  64.619  1.00  0.00    -0.318 OA 
HETATM   26  C   UNL     1     -11.178  16.283  64.862  1.00  0.00    -0.236 C  
ENDBRANCH  21  25
BRANCH  22  27
HETATM   27  O   UNL     1      -8.909  14.919  67.000  1.00  0.00    -0.205 OA 
HETATM   28  C   UNL     1      -7.743  14.543  67.725  1.00  0.00    -0.156 C  
ENDBRANCH  22  27
ENDBRANCH  15  17
ENDBRANCH  14  15
ENDBRANCH   6  14
TORSDOF 6
ENDMDL
MODEL       68
REMARK 921   NORMALIZED FREE ENERGY PREDICTED BY IDOCK:   -5.27 KCAL/MOL
REMARK 922        TOTAL FREE ENERGY PREDICTED BY IDOCK:   -8.05 KCAL/MOL
REMARK 923 INTER-LIGAND FREE ENERGY PREDICTED BY IDOCK:   -7.18 KCAL/MOL
REMARK 924 INTRA-LIGAND FREE ENERGY PREDICTED BY IDOCK:   -0.87 KCAL/MOL
REMARK 927      BINDING AFFINITY PREDICTED BY RF-SCORE:    0.00 PKD
ROOT
HETATM    1  C   UNL     1      -7.242   7.256  67.706  1.00  0.00    -0.091 C  
HETATM    2  C   UNL     1      -8.024   7.192  69.015  1.00  0.00    -0.120 C  
HETATM    3  C   UNL     1      -9.351   8.010  69.227  1.00  0.00    -0.151 C  
HETATM    4  N   UNL     1     -10.441   7.698  68.241  1.00  0.00    -0.195 NA 
HETATM    5  C   UNL     1      -9.903   7.729  70.695  1.00  0.00    -0.182 A  
HETATM    6  C   UNL     1      -9.039   9.554  69.289  1.00  0.00    -0.161 C  
HETATM    7  C   UNL     1      -9.276   6.847  71.597  1.00  0.00    -0.146 A  
HETATM    8  C   UNL     1     -11.620   8.111  72.407  1.00  0.00    -0.463 A  
HETATM    9  C   UNL     1     -10.167   7.909  66.823  1.00  0.00    -0.287 C  
HETATM   10  C   UNL     1     -11.040   6.370  68.402  1.00  0.00    -0.285 C  
HETATM   11  C   UNL     1      -9.819   6.585  72.860  1.00  0.00    -0.174 A  
HETATM   12  C   UNL     1     -10.993   7.210  73.262  1.00  0.00    -0.325 A  
HETATM   13  C   UNL     1     -11.085   8.366  71.141  1.00  0.00    -0.301 A  
ENDROOT
BRANCH   6  14
HETATM   14  O   UNL     1      -8.324  10.136  68.196  1.00  0.00    -0.115 OA 
BRANCH  14  15
HETATM   15  C   UNL     1      -8.222  11.489  68.250  1.00  0.00    -0.152 C  
HETATM   16  O   UNL     1      -7.325  12.134  68.767  1.00  0.00    -0.109 OA 
BRANCH  15  17
HETATM   17  C   UNL     1      -9.288  12.105  67.433  1.00  0.00    -0.181 A  
HETATM   18  C   UNL     1     -10.609  12.033  65.403  1.00  0.00    -0.278 A  
HETATM   19  C   UNL     1      -9.510  11.601  66.150  1.00  0.00    -0.240 A  
HETATM   20  C   UNL     1     -10.159  13.065  67.960  1.00  0.00    -0.235 A  
HETATM   21  C   UNL     1     -11.520  12.964  65.958  1.00  0.00    -0.340 A  
HETATM   22  C   UNL     1     -11.276  13.501  67.240  1.00  0.00    -0.298 A  
BRANCH  18  23
HETATM   23  O   UNL     1     -10.907  11.529  64.158  1.00  0.00    -0.331 OA 
HETATM   24  C   UNL     1      -9.862  11.569  63.190  1.00  0.00    -0.390 C  
ENDBRANCH  18  23
BRANCH  21  25
HETATM   25  O   UNL     1     -12.559  13.321  65.130  1.00  0.00    -0.504 OA 
HETATM   26  C   UNL     1     -12.397  14.492  64.340  1.00  0.00    -0.413 C  
ENDBRANCH  21  25
BRANCH  22  27
HETATM   27  O   UNL     1     -12.143  14.439  67.735  1.00  0.00    -0.356 OA 
HETATM   28  C   UNL     1     -11.617  15.466  68.570  1.00  0.00    -0.359 C  
ENDBRANCH  22  27
ENDBRANCH  15  17
ENDBRANCH  14  15
ENDBRANCH   6  14
TORSDOF 6
ENDMDL
MODEL       69
REMARK 921   NORMALIZED FREE ENERGY PREDICTED BY IDOCK:   -5.25 KCAL/MOL
REMARK 922        TOTAL FREE ENERGY PREDICTED BY IDOCK:   -8.03 KCAL/MOL
REMARK 923 INTER-LIGAND FREE ENERGY PREDICTED BY IDOCK:   -7.50 KCAL/MOL
REMARK 924 INTRA-LIGAND FREE ENERGY PREDICTED BY IDOCK:   -0.53 KCAL/MOL
REMARK 927      BINDING AFFINITY PREDICTED BY RF-SCORE:    0.00 PKD
ROOT
HETATM    1  C   UNL     1     -11.219   6.341  69.117  1.00  0.00    -0.439 C  
HETATM    2  C   UNL     1     -10.152   6.539  70.190  1.00  0.00    -0.204 C  
HETATM    3  C   UNL     1     -10.415   7.422  71.466  1.00  0.00    -0.201 C  
HETATM    4  N   UNL     1     -11.572   6.971  72.310  1.00  0.00    -0.274 NA 
HETATM    5  C   UNL     1      -9.102   7.428  72.369  1.00  0.00    -0.164 A  
HETATM    6  C   UNL     1     -10.537   8.942  71.063  1.00  0.00    -0.247 C  
HETATM    7  C   UNL     1      -7.938   6.704  72.042  1.00  0.00    -0.102 A  
HETATM    8  C   UNL     1      -7.956   8.166  74.411  1.00  0.00    -0.308 A  
HETATM    9  C   UNL     1     -12.893   6.915  71.693  1.00  0.00    -0.335 C  
HETATM   10  C   UNL     1     -11.344   5.714  73.027  1.00  0.00    -0.236 C  
HETATM   11  C   UNL     1      -6.823   6.692  72.887  1.00  0.00    -0.072 A  
HETATM   12  C   UNL     1      -6.834   7.416  74.073  1.00  0.00    -0.092 A  
HETATM   13  C   UNL     1      -9.075   8.172  73.573  1.00  0.00    -0.277 A  
ENDROOT
BRANCH   6  14
HETATM   14  O   UNL     1     -11.501   9.294  70.068  1.00  0.00    -0.181 OA 
BRANCH  14  15
HETATM   15  C   UNL     1     -10.977   9.893  68.968  1.00  0.00    -0.190 C  
HETATM   16  O   UNL     1     -10.543   9.339  67.972  1.00  0.00    -0.228 OA 
BRANCH  15  17
HETATM   17  C   UNL     1     -11.153  11.357  69.062  1.00  0.00    -0.300 A  
HETATM   18  C   UNL     1     -11.041  13.506  67.948  1.00  0.00    -0.265 A  
HETATM   19  C   UNL     1     -10.746  12.141  67.980  1.00  0.00    -0.242 A  
HETATM   20  C   UNL     1     -11.837  11.951  70.128  1.00  0.00    -0.390 A  
HETATM   21  C   UNL     1     -11.780  14.095  69.002  1.00  0.00    -0.324 A  
HETATM   22  C   UNL     1     -12.160  13.312  70.113  1.00  0.00    -0.333 A  
BRANCH  18  23
HETATM   23  O   UNL     1     -10.713  14.314  66.884  1.00  0.00    -0.285 OA 
HETATM   24  C   UNL     1      -9.354  14.284  66.459  1.00  0.00    -0.271 C  
ENDBRANCH  18  23
BRANCH  21  25
HETATM   25  O   UNL     1     -12.006  15.446  68.867  1.00  0.00    -0.336 OA 
HETATM   26  C   UNL     1     -11.076  16.332  69.479  1.00  0.00    -0.330 C  
ENDBRANCH  21  25
BRANCH  22  27
HETATM   27  O   UNL     1     -12.830  13.914  71.144  1.00  0.00    -0.334 OA 
HETATM   28  C   UNL     1     -13.433  13.084  72.131  1.00  0.00    -0.542 C  
ENDBRANCH  22  27
ENDBRANCH  15  17
ENDBRANCH  14  15
ENDBRANCH   6  14
TORSDOF 6
ENDMDL
MODEL       70
REMARK 921   NORMALIZED FREE ENERGY PREDICTED BY IDOCK:   -5.24 KCAL/MOL
REMARK 922        TOTAL FREE ENERGY PREDICTED BY IDOCK:   -8.01 KCAL/MOL
REMARK 923 INTER-LIGAND FREE ENERGY PREDICTED BY IDOCK:   -7.34 KCAL/MOL
REMARK 924 INTRA-LIGAND FREE ENERGY PREDICTED BY IDOCK:   -0.67 KCAL/MOL
REMARK 927      BINDING AFFINITY PREDICTED BY RF-SCORE:    0.00 PKD
ROOT
HETATM    1  C   UNL     1     -11.902  13.778  66.133  1.00  0.00    -0.424 C  
HETATM    2  C   UNL     1     -12.269  14.185  67.557  1.00  0.00    -0.258 C  
HETATM    3  C   UNL     1     -11.169  14.492  68.640  1.00  0.00    -0.261 C  
HETATM    4  N   UNL     1     -10.223  15.599  68.273  1.00  0.00    -0.221 NA 
HETATM    5  C   UNL     1     -11.885  14.873  70.011  1.00  0.00    -0.353 A  
HETATM    6  C   UNL     1     -10.404  13.170  69.032  1.00  0.00     0.050 C  
HETATM    7  C   UNL     1     -13.285  14.945  70.155  1.00  0.00     0.133 A  
HETATM    8  C   UNL     1     -11.703  15.555  72.363  1.00  0.00    -0.570 A  
HETATM    9  C   UNL     1      -9.430  15.452  67.056  1.00  0.00    -0.220 C  
HETATM   10  C   UNL     1     -10.826  16.934  68.272  1.00  0.00    -0.357 C  
HETATM   11  C   UNL     1     -13.877  15.335  71.361  1.00  0.00    -0.603 A  
HETATM   12  C   UNL     1     -13.088  15.646  72.461  1.00  0.00    -0.559 A  
HETATM   13  C   UNL     1     -11.109  15.175  71.155  1.00  0.00    -0.274 A  
ENDROOT
BRANCH   6  14
HETATM   14  O   UNL     1      -9.800  12.411  67.982  1.00  0.00    -0.194 OA 
BRANCH  14  15
HETATM   15  C   UNL     1      -8.950  11.442  68.408  1.00  0.00    -0.172 C  
HETATM   16  O   UNL     1      -7.760  11.566  68.644  1.00  0.00    -0.129 OA 
BRANCH  15  17
HETATM   17  C   UNL     1      -9.707  10.211  68.717  1.00  0.00    -0.174 A  
HETATM   18  C   UNL     1     -10.434   8.019  67.985  1.00  0.00    -0.184 A  
HETATM   19  C   UNL     1      -9.874   9.267  67.702  1.00  0.00    -0.221 A  
HETATM   20  C   UNL     1     -10.128   9.911  70.018  1.00  0.00    -0.308 A  
HETATM   21  C   UNL     1     -10.809   7.696  69.311  1.00  0.00    -0.099 A  
HETATM   22  C   UNL     1     -10.676   8.662  70.331  1.00  0.00    -0.224 A  
BRANCH  18  23
HETATM   23  O   UNL     1     -10.570   7.032  67.036  1.00  0.00    -0.289 OA 
HETATM   24  C   UNL     1      -9.385   6.645  66.348  1.00  0.00    -0.139 C  
ENDBRANCH  18  23
BRANCH  21  25
HETATM   25  O   UNL     1     -11.355   6.442  69.470  1.00  0.00    -0.390 OA 
HETATM   26  C   UNL     1     -10.509   5.417  69.978  1.00  0.00    -0.303 C  
ENDBRANCH  21  25
BRANCH  22  27
HETATM   27  O   UNL     1     -11.092   8.345  71.596  1.00  0.00    -0.248 OA 
HETATM   28  C   UNL     1     -12.472   8.506  71.910  1.00  0.00    -0.352 C  
ENDBRANCH  22  27
ENDBRANCH  15  17
ENDBRANCH  14  15
ENDBRANCH   6  14
TORSDOF 6
ENDMDL
MODEL       71
REMARK 921   NORMALIZED FREE ENERGY PREDICTED BY IDOCK:   -5.22 KCAL/MOL
REMARK 922        TOTAL FREE ENERGY PREDICTED BY IDOCK:   -7.98 KCAL/MOL
REMARK 923 INTER-LIGAND FREE ENERGY PREDICTED BY IDOCK:   -7.22 KCAL/MOL
REMARK 924 INTRA-LIGAND FREE ENERGY PREDICTED BY IDOCK:   -0.77 KCAL/MOL
REMARK 927      BINDING AFFINITY PREDICTED BY RF-SCORE:    0.00 PKD
ROOT
HETATM    1  C   UNL     1     -12.026  13.959  66.341  1.00  0.00    -0.467 C  
HETATM    2  C   UNL     1     -12.407  14.333  67.771  1.00  0.00    -0.041 C  
HETATM    3  C   UNL     1     -11.334  14.410  68.920  1.00  0.00    -0.274 C  
HETATM    4  N   UNL     1     -10.219  15.384  68.668  1.00  0.00    -0.212 NA 
HETATM    5  C   UNL     1     -12.061  14.813  70.279  1.00  0.00    -0.380 A  
HETATM    6  C   UNL     1     -10.791  12.968  69.258  1.00  0.00     0.003 C  
HETATM    7  C   UNL     1     -13.441  15.083  70.364  1.00  0.00     0.055 A  
HETATM    8  C   UNL     1     -11.909  15.323  72.676  1.00  0.00    -0.533 A  
HETATM    9  C   UNL     1      -9.391  15.192  67.482  1.00  0.00    -0.198 C  
HETATM   10  C   UNL     1     -10.620  16.792  68.727  1.00  0.00    -0.348 C  
HETATM   11  C   UNL     1     -14.034  15.486  71.565  1.00  0.00    -0.526 A  
HETATM   12  C   UNL     1     -13.269  15.612  72.718  1.00  0.00    -0.610 A  
HETATM   13  C   UNL     1     -11.312  14.930  71.474  1.00  0.00    -0.232 A  
ENDROOT
BRANCH   6  14
HETATM   14  O   UNL     1     -10.247  12.190  68.189  1.00  0.00    -0.192 OA 
BRANCH  14  15
HETATM   15  C   UNL     1      -9.168  11.443  68.533  1.00  0.00    -0.174 C  
HETATM   16  O   UNL     1      -8.040  11.848  68.755  1.00  0.00    -0.117 OA 
BRANCH  15  17
HETATM   17  C   UNL     1      -9.582  10.045  68.771  1.00  0.00    -0.168 A  
HETATM   18  C   UNL     1     -10.378   8.388  70.350  1.00  0.00    -0.205 A  
HETATM   19  C   UNL     1      -9.826   9.644  70.086  1.00  0.00    -0.310 A  
HETATM   20  C   UNL     1      -9.870   9.171  67.716  1.00  0.00    -0.214 A  
HETATM   21  C   UNL     1     -10.719   7.526  69.280  1.00  0.00    -0.176 A  
HETATM   22  C   UNL     1     -10.438   7.915  67.952  1.00  0.00    -0.198 A  
BRANCH  18  23
HETATM   23  O   UNL     1     -10.690   7.964  71.621  1.00  0.00    -0.216 OA 
HETATM   24  C   UNL     1     -11.778   8.625  72.261  1.00  0.00    -0.358 C  
ENDBRANCH  18  23
BRANCH  21  25
HETATM   25  O   UNL     1     -11.249   6.314  69.659  1.00  0.00    -0.378 OA 
HETATM   26  C   UNL     1     -10.346   5.229  69.838  1.00  0.00    -0.304 C  
ENDBRANCH  21  25
BRANCH  22  27
HETATM   27  O   UNL     1     -10.730   7.043  66.937  1.00  0.00    -0.324 OA 
HETATM   28  C   UNL     1      -9.659   6.308  66.353  1.00  0.00    -0.119 C  
ENDBRANCH  22  27
ENDBRANCH  15  17
ENDBRANCH  14  15
ENDBRANCH   6  14
TORSDOF 6
ENDMDL
MODEL       72
REMARK 921   NORMALIZED FREE ENERGY PREDICTED BY IDOCK:   -5.22 KCAL/MOL
REMARK 922        TOTAL FREE ENERGY PREDICTED BY IDOCK:   -7.98 KCAL/MOL
REMARK 923 INTER-LIGAND FREE ENERGY PREDICTED BY IDOCK:   -7.24 KCAL/MOL
REMARK 924 INTRA-LIGAND FREE ENERGY PREDICTED BY IDOCK:   -0.74 KCAL/MOL
REMARK 927      BINDING AFFINITY PREDICTED BY RF-SCORE:    0.00 PKD
ROOT
HETATM    1  C   UNL     1     -12.471  13.245  67.144  1.00  0.00     0.051 C  
HETATM    2  C   UNL     1     -11.739  14.577  67.274  1.00  0.00    -0.429 C  
HETATM    3  C   UNL     1     -10.430  14.886  66.456  1.00  0.00    -0.297 C  
HETATM    4  N   UNL     1     -10.593  14.807  64.965  1.00  0.00    -0.414 NA 
HETATM    5  C   UNL     1      -9.919  16.348  66.831  1.00  0.00    -0.273 A  
HETATM    6  C   UNL     1      -9.240  13.987  66.967  1.00  0.00    -0.254 C  
HETATM    7  C   UNL     1     -10.599  17.195  67.730  1.00  0.00    -0.360 A  
HETATM    8  C   UNL     1      -8.285  18.153  66.514  1.00  0.00    -0.292 A  
HETATM    9  C   UNL     1     -11.030  13.540  64.387  1.00  0.00    -0.384 C  
HETATM   10  C   UNL     1     -11.404  15.881  64.386  1.00  0.00    -0.267 C  
HETATM   11  C   UNL     1     -10.148  18.492  67.994  1.00  0.00    -0.403 A  
HETATM   12  C   UNL     1      -8.997  18.974  67.382  1.00  0.00    -0.318 A  
HETATM   13  C   UNL     1      -8.740  16.859  66.240  1.00  0.00    -0.321 A  
ENDROOT
BRANCH   6  14
HETATM   14  O   UNL     1      -9.433  12.570  66.986  1.00  0.00    -0.204 OA 
BRANCH  14  15
HETATM   15  C   UNL     1      -8.510  11.889  67.711  1.00  0.00    -0.154 C  
HETATM   16  O   UNL     1      -7.304  12.068  67.712  1.00  0.00    -0.096 OA 
BRANCH  15  17
HETATM   17  C   UNL     1      -9.188  10.978  68.656  1.00  0.00    -0.186 A  
HETATM   18  C   UNL     1     -11.238  10.371  69.797  1.00  0.00    -0.293 A  
HETATM   19  C   UNL     1     -10.496  11.281  69.041  1.00  0.00    -0.221 A  
HETATM   20  C   UNL     1      -8.614   9.765  69.053  1.00  0.00    -0.146 A  
HETATM   21  C   UNL     1     -10.675   9.121  70.152  1.00  0.00    -0.233 A  
HETATM   22  C   UNL     1      -9.341   8.829  69.795  1.00  0.00    -0.163 A  
BRANCH  18  23
HETATM   23  O   UNL     1     -12.547  10.594  70.156  1.00  0.00    -0.318 OA 
HETATM   24  C   UNL     1     -12.769  11.554  71.185  1.00  0.00    -0.356 C  
ENDBRANCH  18  23
BRANCH  21  25
HETATM   25  O   UNL     1     -11.495   8.308  70.901  1.00  0.00    -0.274 OA 
HETATM   26  C   UNL     1     -11.271   8.264  72.305  1.00  0.00    -0.374 C  
ENDBRANCH  21  25
BRANCH  22  27
HETATM   27  O   UNL     1      -8.801   7.635  70.193  1.00  0.00    -0.144 OA 
HETATM   28  C   UNL     1      -7.902   6.975  69.308  1.00  0.00    -0.114 C  
ENDBRANCH  22  27
ENDBRANCH  15  17
ENDBRANCH  14  15
ENDBRANCH   6  14
TORSDOF 6
ENDMDL
MODEL       73
REMARK 921   NORMALIZED FREE ENERGY PREDICTED BY IDOCK:   -5.20 KCAL/MOL
REMARK 922        TOTAL FREE ENERGY PREDICTED BY IDOCK:   -7.96 KCAL/MOL
REMARK 923 INTER-LIGAND FREE ENERGY PREDICTED BY IDOCK:   -6.83 KCAL/MOL
REMARK 924 INTRA-LIGAND FREE ENERGY PREDICTED BY IDOCK:   -1.13 KCAL/MOL
REMARK 927      BINDING AFFINITY PREDICTED BY RF-SCORE:    0.00 PKD
ROOT
HETATM    1  C   UNL     1     -11.279  10.350  67.247  1.00  0.00    -0.153 C  
HETATM    2  C   UNL     1     -11.537  11.543  68.162  1.00  0.00    -0.378 C  
HETATM    3  C   UNL     1     -10.702  12.872  68.045  1.00  0.00    -0.228 C  
HETATM    4  N   UNL     1     -10.772  13.537  66.700  1.00  0.00    -0.281 NA 
HETATM    5  C   UNL     1     -11.214  13.903  69.146  1.00  0.00    -0.311 A  
HETATM    6  C   UNL     1      -9.213  12.624  68.502  1.00  0.00    -0.067 C  
HETATM    7  C   UNL     1     -12.277  13.624  70.027  1.00  0.00    -0.395 A  
HETATM    8  C   UNL     1     -11.058  16.121  70.187  1.00  0.00    -0.373 A  
HETATM    9  C   UNL     1     -10.321  12.782  65.535  1.00  0.00    -0.284 C  
HETATM   10  C   UNL     1     -12.072  14.135  66.388  1.00  0.00    -0.451 C  
HETATM   11  C   UNL     1     -12.734  14.575  70.946  1.00  0.00    -0.411 A  
HETATM   12  C   UNL     1     -12.130  15.824  71.022  1.00  0.00    -0.464 A  
HETATM   13  C   UNL     1     -10.606  15.176  69.261  1.00  0.00    -0.253 A  
ENDROOT
BRANCH   6  14
HETATM   14  O   UNL     1      -8.482  11.577  67.860  1.00  0.00    -0.131 OA 
BRANCH  14  15
HETATM   15  C   UNL     1      -7.652  10.886  68.683  1.00  0.00    -0.114 C  
HETATM   16  O   UNL     1      -6.588  11.271  69.137  1.00  0.00    -0.070 OA 
BRANCH  15  17
HETATM   17  C   UNL     1      -8.299   9.627  69.105  1.00  0.00    -0.130 A  
HETATM   18  C   UNL     1      -9.624   8.467  70.769  1.00  0.00    -0.173 A  
HETATM   19  C   UNL     1      -8.859   9.570  70.383  1.00  0.00    -0.279 A  
HETATM   20  C   UNL     1      -8.488   8.561  68.218  1.00  0.00    -0.135 A  
HETATM   21  C   UNL     1      -9.860   7.414  69.852  1.00  0.00    -0.178 A  
HETATM   22  C   UNL     1      -9.264   7.453  68.574  1.00  0.00    -0.142 A  
BRANCH  18  23
HETATM   23  O   UNL     1     -10.245   8.383  71.994  1.00  0.00    -0.239 OA 
HETATM   24  C   UNL     1      -9.424   8.012  73.098  1.00  0.00    -0.280 C  
ENDBRANCH  18  23
BRANCH  21  25
HETATM   25  O   UNL     1     -10.622   6.378  70.344  1.00  0.00    -0.216 OA 
HETATM   26  C   UNL     1      -9.940   5.200  70.757  1.00  0.00    -0.215 C  
ENDBRANCH  21  25
BRANCH  22  27
HETATM   27  O   UNL     1      -9.464   6.399  67.722  1.00  0.00    -0.118 OA 
HETATM   28  C   UNL     1     -10.667   6.368  66.961  1.00  0.00    -0.363 C  
ENDBRANCH  22  27
ENDBRANCH  15  17
ENDBRANCH  14  15
ENDBRANCH   6  14
TORSDOF 6
ENDMDL
MODEL       74
REMARK 921   NORMALIZED FREE ENERGY PREDICTED BY IDOCK:   -5.20 KCAL/MOL
REMARK 922        TOTAL FREE ENERGY PREDICTED BY IDOCK:   -7.96 KCAL/MOL
REMARK 923 INTER-LIGAND FREE ENERGY PREDICTED BY IDOCK:   -7.09 KCAL/MOL
REMARK 924 INTRA-LIGAND FREE ENERGY PREDICTED BY IDOCK:   -0.87 KCAL/MOL
REMARK 927      BINDING AFFINITY PREDICTED BY RF-SCORE:    0.00 PKD
ROOT
HETATM    1  C   UNL     1      -7.137   7.062  67.855  1.00  0.00    -0.086 C  
HETATM    2  C   UNL     1      -7.987   7.111  69.121  1.00  0.00    -0.119 C  
HETATM    3  C   UNL     1      -9.278   8.004  69.219  1.00  0.00    -0.152 C  
HETATM    4  N   UNL     1     -10.331   7.693  68.195  1.00  0.00    -0.203 NA 
HETATM    5  C   UNL     1      -9.916   7.833  70.669  1.00  0.00    -0.186 A  
HETATM    6  C   UNL     1      -8.887   9.532  69.216  1.00  0.00    -0.153 C  
HETATM    7  C   UNL     1      -9.384   6.972  71.649  1.00  0.00    -0.158 A  
HETATM    8  C   UNL     1     -11.695   8.395  72.265  1.00  0.00    -0.453 A  
HETATM    9  C   UNL     1      -9.976   7.812  66.784  1.00  0.00    -0.261 C  
HETATM   10  C   UNL     1     -11.008   6.408  68.394  1.00  0.00    -0.309 C  
HETATM   11  C   UNL     1     -10.002   6.809  72.893  1.00  0.00    -0.193 A  
HETATM   12  C   UNL     1     -11.160   7.513  73.198  1.00  0.00    -0.378 A  
HETATM   13  C   UNL     1     -11.084   8.553  71.017  1.00  0.00    -0.306 A  
ENDROOT
BRANCH   6  14
HETATM   14  O   UNL     1      -8.089  10.016  68.134  1.00  0.00    -0.106 OA 
BRANCH  14  15
HETATM   15  C   UNL     1      -8.091  11.366  67.996  1.00  0.00    -0.134 C  
HETATM   16  O   UNL     1      -7.178  12.130  68.263  1.00  0.00    -0.081 OA 
BRANCH  15  17
HETATM   17  C   UNL     1      -9.323  11.798  67.303  1.00  0.00    -0.171 A  
HETATM   18  C   UNL     1     -11.177  13.355  67.207  1.00  0.00    -0.295 A  
HETATM   19  C   UNL     1     -10.098  12.796  67.897  1.00  0.00    -0.231 A  
HETATM   20  C   UNL     1      -9.647  11.340  66.021  1.00  0.00    -0.245 A  
HETATM   21  C   UNL     1     -11.471  12.930  65.889  1.00  0.00    -0.346 A  
HETATM   22  C   UNL     1     -10.711  11.895  65.303  1.00  0.00    -0.283 A  
BRANCH  18  23
HETATM   23  O   UNL     1     -11.938  14.379  67.721  1.00  0.00    -0.370 OA 
HETATM   24  C   UNL     1     -12.137  14.377  69.132  1.00  0.00    -0.281 C  
ENDBRANCH  18  23
BRANCH  21  25
HETATM   25  O   UNL     1     -12.558  13.545  65.311  1.00  0.00    -0.477 OA 
HETATM   26  C   UNL     1     -12.305  14.498  64.286  1.00  0.00    -0.369 C  
ENDBRANCH  21  25
BRANCH  22  27
HETATM   27  O   UNL     1     -11.046  11.465  64.046  1.00  0.00    -0.374 OA 
HETATM   28  C   UNL     1      -9.997  11.229  63.114  1.00  0.00    -0.365 C  
ENDBRANCH  22  27
ENDBRANCH  15  17
ENDBRANCH  14  15
ENDBRANCH   6  14
TORSDOF 6
ENDMDL
MODEL       75
REMARK 921   NORMALIZED FREE ENERGY PREDICTED BY IDOCK:   -5.18 KCAL/MOL
REMARK 922        TOTAL FREE ENERGY PREDICTED BY IDOCK:   -7.93 KCAL/MOL
REMARK 923 INTER-LIGAND FREE ENERGY PREDICTED BY IDOCK:   -7.18 KCAL/MOL
REMARK 924 INTRA-LIGAND FREE ENERGY PREDICTED BY IDOCK:   -0.74 KCAL/MOL
REMARK 927      BINDING AFFINITY PREDICTED BY RF-SCORE:    0.00 PKD
ROOT
HETATM    1  C   UNL     1     -11.698   6.545  69.895  1.00  0.00    -0.349 C  
HETATM    2  C   UNL     1     -10.242   6.658  70.336  1.00  0.00    -0.215 C  
HETATM    3  C   UNL     1      -9.660   7.991  70.937  1.00  0.00    -0.161 C  
HETATM    4  N   UNL     1     -10.360   8.476  72.174  1.00  0.00    -0.322 NA 
HETATM    5  C   UNL     1      -8.120   7.775  71.280  1.00  0.00    -0.096 A  
HETATM    6  C   UNL     1      -9.590   9.107  69.825  1.00  0.00    -0.181 C  
HETATM    7  C   UNL     1      -7.453   6.548  71.090  1.00  0.00    -0.085 A  
HETATM    8  C   UNL     1      -6.015   8.672  72.171  1.00  0.00    -0.070 A  
HETATM    9  C   UNL     1     -11.787   8.770  72.088  1.00  0.00    -0.366 C  
HETATM   10  C   UNL     1     -10.132   7.649  73.362  1.00  0.00    -0.319 C  
HETATM   11  C   UNL     1      -6.112   6.381  71.452  1.00  0.00    -0.040 A  
HETATM   12  C   UNL     1      -5.396   7.438  71.999  1.00  0.00    -0.036 A  
HETATM   13  C   UNL     1      -7.358   8.839  71.819  1.00  0.00    -0.074 A  
ENDROOT
BRANCH   6  14
HETATM   14  O   UNL     1     -10.791   9.422  69.117  1.00  0.00    -0.220 OA 
BRANCH  14  15
HETATM   15  C   UNL     1     -10.667   9.397  67.765  1.00  0.00    -0.229 C  
HETATM   16  O   UNL     1     -10.556   8.409  67.060  1.00  0.00    -0.314 OA 
BRANCH  15  17
HETATM   17  C   UNL     1     -10.854  10.757  67.220  1.00  0.00    -0.344 A  
HETATM   18  C   UNL     1     -10.965  12.177  65.259  1.00  0.00    -0.304 A  
HETATM   19  C   UNL     1     -10.643  10.955  65.853  1.00  0.00    -0.244 A  
HETATM   20  C   UNL     1     -11.369  11.800  67.998  1.00  0.00    -0.355 A  
HETATM   21  C   UNL     1     -11.536  13.213  66.037  1.00  0.00    -0.353 A  
HETATM   22  C   UNL     1     -11.716  13.028  67.424  1.00  0.00    -0.374 A  
BRANCH  18  23
HETATM   23  O   UNL     1     -10.830  12.407  63.910  1.00  0.00    -0.350 OA 
HETATM   24  C   UNL     1      -9.867  11.613  63.223  1.00  0.00    -0.405 C  
ENDBRANCH  18  23
BRANCH  21  25
HETATM   25  O   UNL     1     -11.807  14.373  65.347  1.00  0.00    -0.353 OA 
HETATM   26  C   UNL     1     -10.752  15.318  65.212  1.00  0.00    -0.415 C  
ENDBRANCH  21  25
BRANCH  22  27
HETATM   27  O   UNL     1     -12.223  14.062  68.165  1.00  0.00    -0.325 OA 
HETATM   28  C   UNL     1     -11.319  14.835  68.948  1.00  0.00    -0.282 C  
ENDBRANCH  22  27
ENDBRANCH  15  17
ENDBRANCH  14  15
ENDBRANCH   6  14
TORSDOF 6
ENDMDL
MODEL       76
REMARK 921   NORMALIZED FREE ENERGY PREDICTED BY IDOCK:   -5.17 KCAL/MOL
REMARK 922        TOTAL FREE ENERGY PREDICTED BY IDOCK:   -7.92 KCAL/MOL
REMARK 923 INTER-LIGAND FREE ENERGY PREDICTED BY IDOCK:   -7.05 KCAL/MOL
REMARK 924 INTRA-LIGAND FREE ENERGY PREDICTED BY IDOCK:   -0.86 KCAL/MOL
REMARK 927      BINDING AFFINITY PREDICTED BY RF-SCORE:    0.00 PKD
ROOT
HETATM    1  C   UNL     1     -10.957  11.311  69.760  1.00  0.00    -0.170 C  
HETATM    2  C   UNL     1     -11.249  11.620  68.294  1.00  0.00    -0.320 C  
HETATM    3  C   UNL     1     -10.150  11.461  67.179  1.00  0.00    -0.198 C  
HETATM    4  N   UNL     1      -9.578  10.078  67.059  1.00  0.00    -0.166 NA 
HETATM    5  C   UNL     1     -10.776  11.873  65.774  1.00  0.00    -0.327 A  
HETATM    6  C   UNL     1      -9.023  12.550  67.363  1.00  0.00    -0.188 C  
HETATM    7  C   UNL     1     -12.119  12.269  65.615  1.00  0.00    -0.306 A  
HETATM    8  C   UNL     1     -10.506  12.149  63.349  1.00  0.00    -0.450 A  
HETATM    9  C   UNL     1      -8.922   9.500  68.228  1.00  0.00    -0.124 C  
HETATM   10  C   UNL     1     -10.507   9.084  66.514  1.00  0.00    -0.122 C  
HETATM   11  C   UNL     1     -12.648  12.574  64.355  1.00  0.00    -0.497 A  
HETATM   12  C   UNL     1     -11.845  12.507  63.223  1.00  0.00    -0.498 A  
HETATM   13  C   UNL     1      -9.979  11.835  64.605  1.00  0.00    -0.275 A  
ENDROOT
BRANCH   6  14
HETATM   14  O   UNL     1      -8.368  12.626  68.631  1.00  0.00    -0.093 OA 
BRANCH  14  15
HETATM   15  C   UNL     1      -7.380  13.555  68.696  1.00  0.00    -0.112 C  
HETATM   16  O   UNL     1      -6.183  13.358  68.577  1.00  0.00    -0.074 OA 
BRANCH  15  17
HETATM   17  C   UNL     1      -7.969  14.908  68.770  1.00  0.00    -0.156 A  
HETATM   18  C   UNL     1      -7.930  17.201  67.988  1.00  0.00    -0.212 A  
HETATM   19  C   UNL     1      -7.328  15.945  68.087  1.00  0.00    -0.133 A  
HETATM   20  C   UNL     1      -9.208  15.141  69.377  1.00  0.00    -0.175 A  
HETATM   21  C   UNL     1      -9.209  17.420  68.555  1.00  0.00    -0.277 A  
HETATM   22  C   UNL     1      -9.840  16.385  69.277  1.00  0.00    -0.240 A  
BRANCH  18  23
HETATM   23  O   UNL     1      -7.371  18.240  67.281  1.00  0.00    -0.204 OA 
HETATM   24  C   UNL     1      -7.060  17.984  65.914  1.00  0.00    -0.267 C  
ENDBRANCH  18  23
BRANCH  21  25
HETATM   25  O   UNL     1      -9.700  18.697  68.400  1.00  0.00    -0.328 OA 
HETATM   26  C   UNL     1     -10.537  18.946  67.278  1.00  0.00    -0.456 C  
ENDBRANCH  21  25
BRANCH  22  27
HETATM   27  O   UNL     1     -11.053  16.636  69.861  1.00  0.00    -0.305 OA 
HETATM   28  C   UNL     1     -11.599  15.648  70.730  1.00  0.00    -0.382 C  
ENDBRANCH  22  27
ENDBRANCH  15  17
ENDBRANCH  14  15
ENDBRANCH   6  14
TORSDOF 6
ENDMDL
MODEL       77
REMARK 921   NORMALIZED FREE ENERGY PREDICTED BY IDOCK:   -5.17 KCAL/MOL
REMARK 922        TOTAL FREE ENERGY PREDICTED BY IDOCK:   -7.91 KCAL/MOL
REMARK 923 INTER-LIGAND FREE ENERGY PREDICTED BY IDOCK:   -7.21 KCAL/MOL
REMARK 924 INTRA-LIGAND FREE ENERGY PREDICTED BY IDOCK:   -0.70 KCAL/MOL
REMARK 927      BINDING AFFINITY PREDICTED BY RF-SCORE:    0.00 PKD
ROOT
HETATM    1  C   UNL     1      -7.071   9.960  70.323  1.00  0.00    -0.155 C  
HETATM    2  C   UNL     1      -7.876   9.003  71.198  1.00  0.00    -0.154 C  
HETATM    3  C   UNL     1      -8.857   7.941  70.578  1.00  0.00    -0.141 C  
HETATM    4  N   UNL     1      -8.209   6.969  69.634  1.00  0.00    -0.130 NA 
HETATM    5  C   UNL     1      -9.542   7.118  71.758  1.00  0.00    -0.161 A  
HETATM    6  C   UNL     1     -10.099   8.659  69.923  1.00  0.00    -0.194 C  
HETATM    7  C   UNL     1      -9.243   7.329  73.119  1.00  0.00    -0.201 A  
HETATM    8  C   UNL     1     -11.075   5.338  72.470  1.00  0.00    -0.289 A  
HETATM    9  C   UNL     1      -7.539   7.501  68.451  1.00  0.00    -0.114 C  
HETATM   10  C   UNL     1      -7.313   6.006  70.277  1.00  0.00    -0.088 C  
HETATM   11  C   UNL     1      -9.825   6.551  74.125  1.00  0.00    -0.318 A  
HETATM   12  C   UNL     1     -10.734   5.552  73.801  1.00  0.00    -0.300 A  
HETATM   13  C   UNL     1     -10.487   6.108  71.461  1.00  0.00    -0.268 A  
ENDROOT
BRANCH   6  14
HETATM   14  O   UNL     1      -9.847   9.665  68.938  1.00  0.00    -0.165 OA 
BRANCH  14  15
HETATM   15  C   UNL     1     -10.503   9.477  67.765  1.00  0.00    -0.254 C  
HETATM   16  O   UNL     1     -10.822   8.409  67.270  1.00  0.00    -0.225 OA 
BRANCH  15  17
HETATM   17  C   UNL     1     -10.941  10.778  67.221  1.00  0.00    -0.359 A  
HETATM   18  C   UNL     1     -11.769  13.010  67.675  1.00  0.00    -0.366 A  
HETATM   19  C   UNL     1     -11.494  11.710  68.103  1.00  0.00    -0.382 A  
HETATM   20  C   UNL     1     -10.686  11.148  65.895  1.00  0.00    -0.261 A  
HETATM   21  C   UNL     1     -11.460  13.398  66.349  1.00  0.00    -0.329 A  
HETATM   22  C   UNL     1     -10.936  12.449  65.446  1.00  0.00    -0.299 A  
BRANCH  18  23
HETATM   23  O   UNL     1     -12.261  13.982  68.515  1.00  0.00    -0.333 OA 
HETATM   24  C   UNL     1     -11.398  14.410  69.565  1.00  0.00    -0.276 C  
ENDBRANCH  18  23
BRANCH  21  25
HETATM   25  O   UNL     1     -11.780  14.700  66.037  1.00  0.00    -0.359 OA 
HETATM   26  C   UNL     1     -10.707  15.621  65.883  1.00  0.00    -0.329 C  
ENDBRANCH  21  25
BRANCH  22  27
HETATM   27  O   UNL     1     -10.694  12.833  64.154  1.00  0.00    -0.362 OA 
HETATM   28  C   UNL     1     -11.798  12.919  63.259  1.00  0.00    -0.398 C  
ENDBRANCH  22  27
ENDBRANCH  15  17
ENDBRANCH  14  15
ENDBRANCH   6  14
TORSDOF 6
ENDMDL
MODEL       78
REMARK 921   NORMALIZED FREE ENERGY PREDICTED BY IDOCK:   -5.16 KCAL/MOL
REMARK 922        TOTAL FREE ENERGY PREDICTED BY IDOCK:   -7.91 KCAL/MOL
REMARK 923 INTER-LIGAND FREE ENERGY PREDICTED BY IDOCK:   -6.96 KCAL/MOL
REMARK 924 INTRA-LIGAND FREE ENERGY PREDICTED BY IDOCK:   -0.95 KCAL/MOL
REMARK 927      BINDING AFFINITY PREDICTED BY RF-SCORE:    0.00 PKD
ROOT
HETATM    1  C   UNL     1     -11.443  12.378  68.847  1.00  0.00    -0.355 C  
HETATM    2  C   UNL     1     -11.083  12.028  67.406  1.00  0.00    -0.337 C  
HETATM    3  C   UNL     1      -9.743  11.286  67.044  1.00  0.00    -0.186 C  
HETATM    4  N   UNL     1      -9.575   9.946  67.701  1.00  0.00    -0.147 NA 
HETATM    5  C   UNL     1      -9.674  11.086  65.465  1.00  0.00    -0.274 A  
HETATM    6  C   UNL     1      -8.507  12.230  67.305  1.00  0.00    -0.181 C  
HETATM    7  C   UNL     1     -10.700  11.496  64.590  1.00  0.00    -0.379 A  
HETATM    8  C   UNL     1      -8.474  10.226  63.502  1.00  0.00    -0.182 A  
HETATM    9  C   UNL     1      -9.578   9.890  69.160  1.00  0.00    -0.199 C  
HETATM   10  C   UNL     1     -10.477   8.907  67.198  1.00  0.00    -0.274 C  
HETATM   11  C   UNL     1     -10.627  11.256  63.214  1.00  0.00    -0.326 A  
HETATM   12  C   UNL     1      -9.520  10.616  62.671  1.00  0.00    -0.332 A  
HETATM   13  C   UNL     1      -8.550  10.456  64.880  1.00  0.00    -0.190 A  
ENDROOT
BRANCH   6  14
HETATM   14  O   UNL     1      -8.365  12.800  68.608  1.00  0.00    -0.091 OA 
BRANCH  14  15
HETATM   15  C   UNL     1      -7.447  13.797  68.686  1.00  0.00    -0.116 C  
HETATM   16  O   UNL     1      -6.235  13.672  68.733  1.00  0.00    -0.080 OA 
BRANCH  15  17
HETATM   17  C   UNL     1      -8.115  15.106  68.539  1.00  0.00    -0.145 A  
HETATM   18  C   UNL     1      -9.947  16.552  69.192  1.00  0.00    -0.275 A  
HETATM   19  C   UNL     1      -9.353  15.288  69.160  1.00  0.00    -0.236 A  
HETATM   20  C   UNL     1      -7.482  16.194  67.927  1.00  0.00    -0.140 A  
HETATM   21  C   UNL     1      -9.279  17.662  68.620  1.00  0.00    -0.266 A  
HETATM   22  C   UNL     1      -8.046  17.473  67.961  1.00  0.00    -0.237 A  
BRANCH  18  23
HETATM   23  O   UNL     1     -11.137  16.799  69.837  1.00  0.00    -0.242 OA 
HETATM   24  C   UNL     1     -11.467  15.930  70.916  1.00  0.00    -0.409 C  
ENDBRANCH  18  23
BRANCH  21  25
HETATM   25  O   UNL     1      -9.961  18.855  68.706  1.00  0.00    -0.391 OA 
HETATM   26  C   UNL     1     -10.611  19.326  67.531  1.00  0.00    -0.474 C  
ENDBRANCH  21  25
BRANCH  22  27
HETATM   27  O   UNL     1      -7.444  18.552  67.370  1.00  0.00    -0.216 OA 
HETATM   28  C   UNL     1      -6.969  18.410  66.035  1.00  0.00    -0.275 C  
ENDBRANCH  22  27
ENDBRANCH  15  17
ENDBRANCH  14  15
ENDBRANCH   6  14
TORSDOF 6
ENDMDL
MODEL       79
REMARK 921   NORMALIZED FREE ENERGY PREDICTED BY IDOCK:   -5.15 KCAL/MOL
REMARK 922        TOTAL FREE ENERGY PREDICTED BY IDOCK:   -7.89 KCAL/MOL
REMARK 923 INTER-LIGAND FREE ENERGY PREDICTED BY IDOCK:   -7.06 KCAL/MOL
REMARK 924 INTRA-LIGAND FREE ENERGY PREDICTED BY IDOCK:   -0.83 KCAL/MOL
REMARK 927      BINDING AFFINITY PREDICTED BY RF-SCORE:    0.00 PKD
ROOT
HETATM    1  C   UNL     1     -12.017   9.105  72.276  1.00  0.00    -0.277 C  
HETATM    2  C   UNL     1     -11.708   7.619  72.443  1.00  0.00    -0.366 C  
HETATM    3  C   UNL     1     -10.524   6.929  71.671  1.00  0.00    -0.204 C  
HETATM    4  N   UNL     1      -9.171   7.521  71.944  1.00  0.00    -0.132 NA 
HETATM    5  C   UNL     1     -10.486   5.384  72.059  1.00  0.00    -0.278 A  
HETATM    6  C   UNL     1     -10.839   6.866  70.127  1.00  0.00    -0.263 C  
HETATM    7  C   UNL     1     -11.375   4.799  72.983  1.00  0.00    -0.325 A  
HETATM    8  C   UNL     1      -9.426   3.181  71.828  1.00  0.00    -0.216 A  
HETATM    9  C   UNL     1      -8.963   8.933  71.635  1.00  0.00    -0.173 C  
HETATM   10  C   UNL     1      -8.659   7.265  73.292  1.00  0.00    -0.136 C  
HETATM   11  C   UNL     1     -11.277   3.449  73.338  1.00  0.00    -0.255 A  
HETATM   12  C   UNL     1     -10.300   2.643  72.767  1.00  0.00    -0.236 A  
HETATM   13  C   UNL     1      -9.515   4.532  71.479  1.00  0.00    -0.214 A  
ENDROOT
BRANCH   6  14
HETATM   14  O   UNL     1     -11.154   8.091  69.459  1.00  0.00    -0.123 OA 
BRANCH  14  15
HETATM   15  C   UNL     1     -10.271   8.444  68.491  1.00  0.00    -0.201 C  
HETATM   16  O   UNL     1      -9.383   7.752  68.024  1.00  0.00    -0.141 OA 
BRANCH  15  17
HETATM   17  C   UNL     1     -10.636   9.765  67.938  1.00  0.00    -0.310 A  
HETATM   18  C   UNL     1     -11.501  11.990  68.357  1.00  0.00    -0.301 A  
HETATM   19  C   UNL     1     -11.284  10.675  68.776  1.00  0.00    -0.337 A  
HETATM   20  C   UNL     1     -10.226  10.170  66.663  1.00  0.00    -0.287 A  
HETATM   21  C   UNL     1     -11.037  12.413  67.088  1.00  0.00    -0.280 A  
HETATM   22  C   UNL     1     -10.415  11.485  66.226  1.00  0.00    -0.251 A  
BRANCH  18  23
HETATM   23  O   UNL     1     -12.084  12.941  69.161  1.00  0.00    -0.266 OA 
HETATM   24  C   UNL     1     -12.318  12.570  70.516  1.00  0.00    -0.262 C  
ENDBRANCH  18  23
BRANCH  21  25
HETATM   25  O   UNL     1     -11.311  13.726  66.779  1.00  0.00    -0.311 OA 
HETATM   26  C   UNL     1     -10.264  14.673  66.949  1.00  0.00    -0.262 C  
ENDBRANCH  21  25
BRANCH  22  27
HETATM   27  O   UNL     1     -10.020  11.905  64.983  1.00  0.00    -0.253 OA 
HETATM   28  C   UNL     1     -10.757  11.449  63.853  1.00  0.00    -0.397 C  
ENDBRANCH  22  27
ENDBRANCH  15  17
ENDBRANCH  14  15
ENDBRANCH   6  14
TORSDOF 6
ENDMDL
MODEL       80
REMARK 921   NORMALIZED FREE ENERGY PREDICTED BY IDOCK:   -5.15 KCAL/MOL
REMARK 922        TOTAL FREE ENERGY PREDICTED BY IDOCK:   -7.89 KCAL/MOL
REMARK 923 INTER-LIGAND FREE ENERGY PREDICTED BY IDOCK:   -7.02 KCAL/MOL
REMARK 924 INTRA-LIGAND FREE ENERGY PREDICTED BY IDOCK:   -0.87 KCAL/MOL
REMARK 927      BINDING AFFINITY PREDICTED BY RF-SCORE:    0.00 PKD
ROOT
HETATM    1  C   UNL     1     -11.325   9.701  71.559  1.00  0.00    -0.420 C  
HETATM    2  C   UNL     1     -10.933   8.226  71.580  1.00  0.00    -0.312 C  
HETATM    3  C   UNL     1      -9.916   7.626  70.540  1.00  0.00    -0.184 C  
HETATM    4  N   UNL     1      -8.559   8.270  70.549  1.00  0.00    -0.127 NA 
HETATM    5  C   UNL     1      -9.738   6.069  70.830  1.00  0.00    -0.207 A  
HETATM    6  C   UNL     1     -10.552   7.614  69.096  1.00  0.00    -0.186 C  
HETATM    7  C   UNL     1     -10.385   5.405  71.891  1.00  0.00    -0.270 A  
HETATM    8  C   UNL     1      -8.671   3.931  70.267  1.00  0.00    -0.123 A  
HETATM    9  C   UNL     1      -8.475   9.702  70.276  1.00  0.00    -0.188 C  
HETATM   10  C   UNL     1      -7.760   7.981  71.743  1.00  0.00    -0.094 C  
HETATM   11  C   UNL     1     -10.164   4.047  72.147  1.00  0.00    -0.210 A  
HETATM   12  C   UNL     1      -9.302   3.313  71.341  1.00  0.00    -0.206 A  
HETATM   13  C   UNL     1      -8.883   5.290  70.015  1.00  0.00    -0.140 A  
ENDROOT
BRANCH   6  14
HETATM   14  O   UNL     1     -11.049   8.849  68.575  1.00  0.00     0.045 OA 
BRANCH  14  15
HETATM   15  C   UNL     1     -10.530   9.198  67.370  1.00  0.00    -0.271 C  
HETATM   16  O   UNL     1     -10.075   8.445  66.525  1.00  0.00    -0.276 OA 
BRANCH  15  17
HETATM   17  C   UNL     1     -10.740  10.641  67.133  1.00  0.00    -0.327 A  
HETATM   18  C   UNL     1     -11.138  12.413  65.529  1.00  0.00    -0.300 A  
HETATM   19  C   UNL     1     -10.779  11.093  65.812  1.00  0.00    -0.252 A  
HETATM   20  C   UNL     1     -11.040  11.524  68.176  1.00  0.00    -0.303 A  
HETATM   21  C   UNL     1     -11.494  13.291  66.581  1.00  0.00    -0.347 A  
HETATM   22  C   UNL     1     -11.420  12.846  67.918  1.00  0.00    -0.318 A  
BRANCH  18  23
HETATM   23  O   UNL     1     -11.247  12.896  64.245  1.00  0.00    -0.329 OA 
HETATM   24  C   UNL     1     -12.174  12.230  63.392  1.00  0.00    -0.527 C  
ENDBRANCH  18  23
BRANCH  21  25
HETATM   25  O   UNL     1     -11.825  14.566  66.184  1.00  0.00    -0.374 OA 
HETATM   26  C   UNL     1     -10.798  15.550  66.214  1.00  0.00    -0.283 C  
ENDBRANCH  21  25
BRANCH  22  27
HETATM   27  O   UNL     1     -11.720  13.728  68.922  1.00  0.00    -0.290 OA 
HETATM   28  C   UNL     1     -12.411  13.236  70.066  1.00  0.00    -0.200 C  
ENDBRANCH  22  27
ENDBRANCH  15  17
ENDBRANCH  14  15
ENDBRANCH   6  14
TORSDOF 6
ENDMDL
MODEL       81
REMARK 921   NORMALIZED FREE ENERGY PREDICTED BY IDOCK:   -5.12 KCAL/MOL
REMARK 922        TOTAL FREE ENERGY PREDICTED BY IDOCK:   -7.85 KCAL/MOL
REMARK 923 INTER-LIGAND FREE ENERGY PREDICTED BY IDOCK:   -7.44 KCAL/MOL
REMARK 924 INTRA-LIGAND FREE ENERGY PREDICTED BY IDOCK:   -0.41 KCAL/MOL
REMARK 927      BINDING AFFINITY PREDICTED BY RF-SCORE:    0.00 PKD
ROOT
HETATM    1  C   UNL     1     -10.749   8.179  72.037  1.00  0.00    -0.343 C  
HETATM    2  C   UNL     1     -10.543   7.541  70.667  1.00  0.00    -0.231 C  
HETATM    3  C   UNL     1      -9.562   8.162  69.604  1.00  0.00    -0.168 C  
HETATM    4  N   UNL     1      -8.139   8.286  70.065  1.00  0.00    -0.113 NA 
HETATM    5  C   UNL     1      -9.591   7.263  68.288  1.00  0.00    -0.150 A  
HETATM    6  C   UNL     1     -10.130   9.533  69.071  1.00  0.00    -0.193 C  
HETATM    7  C   UNL     1     -10.362   6.090  68.173  1.00  0.00    -0.251 A  
HETATM    8  C   UNL     1      -8.772   6.835  66.014  1.00  0.00    -0.155 A  
HETATM    9  C   UNL     1      -7.867   9.095  71.249  1.00  0.00    -0.019 C  
HETATM   10  C   UNL     1      -7.435   7.008  70.208  1.00  0.00    -0.086 C  
HETATM   11  C   UNL     1     -10.321   5.298  67.020  1.00  0.00    -0.286 A  
HETATM   12  C   UNL     1      -9.522   5.665  65.945  1.00  0.00    -0.087 A  
HETATM   13  C   UNL     1      -8.803   7.623  67.169  1.00  0.00    -0.129 A  
ENDROOT
BRANCH   6  14
HETATM   14  O   UNL     1     -10.448  10.544  70.031  1.00  0.00    -0.233 OA 
BRANCH  14  15
HETATM   15  C   UNL     1     -11.715  11.022  69.943  1.00  0.00    -0.346 C  
HETATM   16  O   UNL     1     -12.644  10.771  70.692  1.00  0.00    -0.329 OA 
BRANCH  15  17
HETATM   17  C   UNL     1     -11.791  12.048  68.883  1.00  0.00    -0.356 A  
HETATM   18  C   UNL     1     -11.784  14.403  68.312  1.00  0.00    -0.341 A  
HETATM   19  C   UNL     1     -11.877  13.388  69.267  1.00  0.00    -0.385 A  
HETATM   20  C   UNL     1     -11.634  11.725  67.530  1.00  0.00    -0.361 A  
HETATM   21  C   UNL     1     -11.571  14.076  66.951  1.00  0.00    -0.386 A  
HETATM   22  C   UNL     1     -11.521  12.723  66.556  1.00  0.00    -0.355 A  
BRANCH  18  23
HETATM   23  O   UNL     1     -11.807  15.739  68.640  1.00  0.00    -0.385 OA 
HETATM   24  C   UNL     1     -11.023  16.130  69.764  1.00  0.00    -0.349 C  
ENDBRANCH  18  23
BRANCH  21  25
HETATM   25  O   UNL     1     -11.501  15.156  66.100  1.00  0.00    -0.285 OA 
HETATM   26  C   UNL     1     -10.213  15.546  65.638  1.00  0.00    -0.376 C  
ENDBRANCH  21  25
BRANCH  22  27
HETATM   27  O   UNL     1     -11.365  12.430  65.227  1.00  0.00    -0.310 OA 
HETATM   28  C   UNL     1     -12.532  12.354  64.415  1.00  0.00    -0.433 C  
ENDBRANCH  22  27
ENDBRANCH  15  17
ENDBRANCH  14  15
ENDBRANCH   6  14
TORSDOF 6
ENDMDL
MODEL       82
REMARK 921   NORMALIZED FREE ENERGY PREDICTED BY IDOCK:   -5.11 KCAL/MOL
REMARK 922        TOTAL FREE ENERGY PREDICTED BY IDOCK:   -7.84 KCAL/MOL
REMARK 923 INTER-LIGAND FREE ENERGY PREDICTED BY IDOCK:   -7.12 KCAL/MOL
REMARK 924 INTRA-LIGAND FREE ENERGY PREDICTED BY IDOCK:   -0.72 KCAL/MOL
REMARK 927      BINDING AFFINITY PREDICTED BY RF-SCORE:    0.00 PKD
ROOT
HETATM    1  C   UNL     1     -12.009  13.989  68.236  1.00  0.00    -0.384 C  
HETATM    2  C   UNL     1     -11.449  15.386  67.987  1.00  0.00    -0.333 C  
HETATM    3  C   UNL     1     -10.129  15.613  67.160  1.00  0.00    -0.256 C  
HETATM    4  N   UNL     1     -10.172  15.081  65.757  1.00  0.00    -0.314 NA 
HETATM    5  C   UNL     1      -9.820  17.175  67.099  1.00  0.00    -0.271 A  
HETATM    6  C   UNL     1      -8.883  15.068  67.958  1.00  0.00    -0.165 C  
HETATM    7  C   UNL     1     -10.657  18.149  67.679  1.00  0.00    -0.424 A  
HETATM    8  C   UNL     1      -8.388  19.008  66.315  1.00  0.00    -0.293 A  
HETATM    9  C   UNL     1     -10.416  13.654  65.568  1.00  0.00    -0.306 C  
HETATM   10  C   UNL     1     -11.058  15.822  64.855  1.00  0.00    -0.399 C  
HETATM   11  C   UNL     1     -10.380  19.515  67.560  1.00  0.00    -0.567 A  
HETATM   12  C   UNL     1      -9.252  19.945  66.873  1.00  0.00    -0.475 A  
HETATM   13  C   UNL     1      -8.668  17.642  66.424  1.00  0.00    -0.263 A  
ENDROOT
BRANCH   6  14
HETATM   14  O   UNL     1      -8.911  13.706  68.393  1.00  0.00    -0.179 OA 
BRANCH  14  15
HETATM   15  C   UNL     1      -8.065  12.886  67.718  1.00  0.00    -0.166 C  
HETATM   16  O   UNL     1      -6.950  13.163  67.309  1.00  0.00    -0.138 OA 
BRANCH  15  17
HETATM   17  C   UNL     1      -8.617  11.516  67.682  1.00  0.00    -0.135 A  
HETATM   18  C   UNL     1      -8.430   9.257  66.825  1.00  0.00    -0.127 A  
HETATM   19  C   UNL     1      -8.059  10.603  66.784  1.00  0.00    -0.131 A  
HETATM   20  C   UNL     1      -9.570  11.080  68.609  1.00  0.00    -0.198 A  
HETATM   21  C   UNL     1      -9.353   8.807  67.799  1.00  0.00    -0.141 A  
HETATM   22  C   UNL     1      -9.945   9.734  68.682  1.00  0.00    -0.167 A  
BRANCH  18  23
HETATM   23  O   UNL     1      -7.872   8.306  66.002  1.00  0.00    -0.090 OA 
HETATM   24  C   UNL     1      -8.154   8.426  64.611  1.00  0.00    -0.156 C  
ENDBRANCH  18  23
BRANCH  21  25
HETATM   25  O   UNL     1      -9.647   7.464  67.741  1.00  0.00    -0.138 OA 
HETATM   26  C   UNL     1     -10.777   7.072  66.969  1.00  0.00    -0.353 C  
ENDBRANCH  21  25
BRANCH  22  27
HETATM   27  O   UNL     1     -10.874   9.284  69.582  1.00  0.00    -0.232 OA 
HETATM   28  C   UNL     1     -11.634  10.248  70.304  1.00  0.00    -0.316 C  
ENDBRANCH  22  27
ENDBRANCH  15  17
ENDBRANCH  14  15
ENDBRANCH   6  14
TORSDOF 6
ENDMDL
MODEL       83
REMARK 921   NORMALIZED FREE ENERGY PREDICTED BY IDOCK:   -5.08 KCAL/MOL
REMARK 922        TOTAL FREE ENERGY PREDICTED BY IDOCK:   -7.79 KCAL/MOL
REMARK 923 INTER-LIGAND FREE ENERGY PREDICTED BY IDOCK:   -7.14 KCAL/MOL
REMARK 924 INTRA-LIGAND FREE ENERGY PREDICTED BY IDOCK:   -0.66 KCAL/MOL
REMARK 927      BINDING AFFINITY PREDICTED BY RF-SCORE:    0.00 PKD
ROOT
HETATM    1  C   UNL     1      -9.596   7.329  73.879  1.00  0.00    -0.322 C  
HETATM    2  C   UNL     1      -9.603   6.319  72.735  1.00  0.00    -0.155 C  
HETATM    3  C   UNL     1      -9.814   6.763  71.240  1.00  0.00    -0.176 C  
HETATM    4  N   UNL     1      -8.800   7.746  70.731  1.00  0.00    -0.138 NA 
HETATM    5  C   UNL     1      -9.778   5.471  70.308  1.00  0.00    -0.242 A  
HETATM    6  C   UNL     1     -11.291   7.274  71.025  1.00  0.00    -0.274 C  
HETATM    7  C   UNL     1      -9.548   4.171  70.800  1.00  0.00    -0.260 A  
HETATM    8  C   UNL     1      -9.897   4.495  68.058  1.00  0.00    -0.154 A  
HETATM    9  C   UNL     1      -8.677   9.027  71.421  1.00  0.00    -0.128 C  
HETATM   10  C   UNL     1      -7.457   7.191  70.547  1.00  0.00    -0.087 C  
HETATM   11  C   UNL     1      -9.470   3.068  69.944  1.00  0.00    -0.189 A  
HETATM   12  C   UNL     1      -9.637   3.230  68.574  1.00  0.00    -0.125 A  
HETATM   13  C   UNL     1      -9.965   5.601  68.911  1.00  0.00    -0.222 A  
ENDROOT
BRANCH   6  14
HETATM   14  O   UNL     1     -11.765   8.322  71.875  1.00  0.00    -0.283 OA 
BRANCH  14  15
HETATM   15  C   UNL     1     -12.871   8.959  71.413  1.00  0.00    -0.289 C  
HETATM   16  O   UNL     1     -14.033   8.648  71.618  1.00  0.00    -0.393 OA 
BRANCH  15  17
HETATM   17  C   UNL     1     -12.482  10.216  70.743  1.00  0.00    -0.417 A  
HETATM   18  C   UNL     1     -12.351  12.634  70.845  1.00  0.00    -0.260 A  
HETATM   19  C   UNL     1     -12.836  11.425  71.347  1.00  0.00    -0.502 A  
HETATM   20  C   UNL     1     -11.655  10.225  69.613  1.00  0.00    -0.267 A  
HETATM   21  C   UNL     1     -11.471  12.637  69.735  1.00  0.00    -0.130 A  
HETATM   22  C   UNL     1     -11.142  11.421  69.101  1.00  0.00    -0.258 A  
BRANCH  18  23
HETATM   23  O   UNL     1     -12.622  13.847  71.434  1.00  0.00    -0.344 OA 
HETATM   24  C   UNL     1     -13.778  13.905  72.265  1.00  0.00    -0.562 C  
ENDBRANCH  18  23
BRANCH  21  25
HETATM   25  O   UNL     1     -11.063  13.886  69.324  1.00  0.00    -0.249 OA 
HETATM   26  C   UNL     1     -11.722  14.456  68.200  1.00  0.00    -0.342 C  
ENDBRANCH  21  25
BRANCH  22  27
HETATM   27  O   UNL     1     -10.331  11.453  67.998  1.00  0.00    -0.176 OA 
HETATM   28  C   UNL     1      -9.972  10.217  67.390  1.00  0.00    -0.195 C  
ENDBRANCH  22  27
ENDBRANCH  15  17
ENDBRANCH  14  15
ENDBRANCH   6  14
TORSDOF 6
ENDMDL
MODEL       84
REMARK 921   NORMALIZED FREE ENERGY PREDICTED BY IDOCK:   -5.06 KCAL/MOL
REMARK 922        TOTAL FREE ENERGY PREDICTED BY IDOCK:   -7.77 KCAL/MOL
REMARK 923 INTER-LIGAND FREE ENERGY PREDICTED BY IDOCK:   -7.59 KCAL/MOL
REMARK 924 INTRA-LIGAND FREE ENERGY PREDICTED BY IDOCK:   -0.18 KCAL/MOL
REMARK 927      BINDING AFFINITY PREDICTED BY RF-SCORE:    0.00 PKD
ROOT
HETATM    1  C   UNL     1     -10.501  14.363  66.766  1.00  0.00    -0.273 C  
HETATM    2  C   UNL     1      -9.693  13.101  66.477  1.00  0.00    -0.268 C  
HETATM    3  C   UNL     1     -10.389  11.744  66.088  1.00  0.00    -0.230 C  
HETATM    4  N   UNL     1     -11.242  11.812  64.854  1.00  0.00    -0.294 NA 
HETATM    5  C   UNL     1      -9.267  10.634  65.867  1.00  0.00    -0.209 A  
HETATM    6  C   UNL     1     -11.181  11.162  67.321  1.00  0.00    -0.277 C  
HETATM    7  C   UNL     1      -7.888  10.899  65.978  1.00  0.00    -0.121 A  
HETATM    8  C   UNL     1      -8.680   8.323  65.283  1.00  0.00    -0.121 A  
HETATM    9  C   UNL     1     -12.360  12.750  64.841  1.00  0.00    -0.490 C  
HETATM   10  C   UNL     1     -10.490  11.973  63.607  1.00  0.00    -0.454 C  
HETATM   11  C   UNL     1      -6.930   9.911  65.726  1.00  0.00    -0.109 A  
HETATM   12  C   UNL     1      -7.325   8.627  65.371  1.00  0.00    -0.084 A  
HETATM   13  C   UNL     1      -9.638   9.312  65.525  1.00  0.00    -0.291 A  
ENDROOT
BRANCH   6  14
HETATM   14  O   UNL     1     -12.156  12.001  67.946  1.00  0.00    -0.531 OA 
BRANCH  14  15
HETATM   15  C   UNL     1     -11.895  12.289  69.247  1.00  0.00    -0.306 C  
HETATM   16  O   UNL     1     -12.155  13.327  69.831  1.00  0.00    -0.323 OA 
BRANCH  15  17
HETATM   17  C   UNL     1     -11.386  11.085  69.934  1.00  0.00    -0.364 A  
HETATM   18  C   UNL     1     -11.882   9.148  71.303  1.00  0.00    -0.327 A  
HETATM   19  C   UNL     1     -12.261  10.379  70.764  1.00  0.00    -0.457 A  
HETATM   20  C   UNL     1     -10.116  10.563  69.665  1.00  0.00    -0.177 A  
HETATM   21  C   UNL     1     -10.618   8.595  70.986  1.00  0.00    -0.221 A  
HETATM   22  C   UNL     1      -9.719   9.323  70.178  1.00  0.00    -0.218 A  
BRANCH  18  23
HETATM   23  O   UNL     1     -12.724   8.385  72.080  1.00  0.00    -0.337 OA 
HETATM   24  C   UNL     1     -14.009   8.936  72.354  1.00  0.00    -0.448 C  
ENDBRANCH  18  23
BRANCH  21  25
HETATM   25  O   UNL     1     -10.351   7.382  71.578  1.00  0.00    -0.201 OA 
HETATM   26  C   UNL     1     -10.588   6.209  70.809  1.00  0.00    -0.242 C  
ENDBRANCH  21  25
BRANCH  22  27
HETATM   27  O   UNL     1      -8.482   8.792  69.927  1.00  0.00    -0.121 OA 
HETATM   28  C   UNL     1      -7.431   9.679  69.558  1.00  0.00    -0.096 C  
ENDBRANCH  22  27
ENDBRANCH  15  17
ENDBRANCH  14  15
ENDBRANCH   6  14
TORSDOF 6
ENDMDL
MODEL       85
REMARK 921   NORMALIZED FREE ENERGY PREDICTED BY IDOCK:   -5.06 KCAL/MOL
REMARK 922        TOTAL FREE ENERGY PREDICTED BY IDOCK:   -7.77 KCAL/MOL
REMARK 923 INTER-LIGAND FREE ENERGY PREDICTED BY IDOCK:   -7.19 KCAL/MOL
REMARK 924 INTRA-LIGAND FREE ENERGY PREDICTED BY IDOCK:   -0.58 KCAL/MOL
REMARK 927      BINDING AFFINITY PREDICTED BY RF-SCORE:    0.00 PKD
ROOT
HETATM    1  C   UNL     1     -12.162   7.287  71.336  1.00  0.00    -0.384 C  
HETATM    2  C   UNL     1     -11.308   7.082  70.088  1.00  0.00    -0.321 C  
HETATM    3  C   UNL     1      -9.945   7.841  69.884  1.00  0.00    -0.191 C  
HETATM    4  N   UNL     1      -8.925   7.592  70.957  1.00  0.00    -0.147 NA 
HETATM    5  C   UNL     1      -9.320   7.412  68.483  1.00  0.00    -0.141 A  
HETATM    6  C   UNL     1     -10.204   9.381  69.664  1.00  0.00    -0.212 C  
HETATM    7  C   UNL     1      -9.921   6.468  67.627  1.00  0.00    -0.157 A  
HETATM    8  C   UNL     1      -7.495   7.588  66.849  1.00  0.00    -0.098 A  
HETATM    9  C   UNL     1      -9.272   7.940  72.331  1.00  0.00    -0.181 C  
HETATM   10  C   UNL     1      -8.360   6.240  70.953  1.00  0.00    -0.127 C  
HETATM   11  C   UNL     1      -9.316   6.076  66.428  1.00  0.00    -0.171 A  
HETATM   12  C   UNL     1      -8.101   6.630  66.043  1.00  0.00    -0.122 A  
HETATM   13  C   UNL     1      -8.094   7.973  68.053  1.00  0.00    -0.129 A  
ENDROOT
BRANCH   6  14
HETATM   14  O   UNL     1     -10.961  10.080  70.655  1.00  0.00    -0.300 OA 
BRANCH  14  15
HETATM   15  C   UNL     1     -12.117  10.624  70.196  1.00  0.00    -0.333 C  
HETATM   16  O   UNL     1     -13.246  10.372  70.581  1.00  0.00    -0.350 OA 
BRANCH  15  17
HETATM   17  C   UNL     1     -11.816  11.717  69.249  1.00  0.00    -0.389 A  
HETATM   18  C   UNL     1     -11.894  12.526  66.966  1.00  0.00    -0.323 A  
HETATM   19  C   UNL     1     -12.003  11.480  67.886  1.00  0.00    -0.145 A  
HETATM   20  C   UNL     1     -11.492  13.006  69.689  1.00  0.00    -0.253 A  
HETATM   21  C   UNL     1     -11.620  13.839  67.418  1.00  0.00    -0.362 A  
HETATM   22  C   UNL     1     -11.394  14.074  68.791  1.00  0.00    -0.278 A  
BRANCH  18  23
HETATM   23  O   UNL     1     -12.123  12.360  65.620  1.00  0.00    -0.529 OA 
HETATM   24  C   UNL     1     -11.115  11.673  64.884  1.00  0.00    -0.253 C  
ENDBRANCH  18  23
BRANCH  21  25
HETATM   25  O   UNL     1     -11.529  14.786  66.423  1.00  0.00    -0.350 OA 
HETATM   26  C   UNL     1     -10.229  15.122  65.953  1.00  0.00    -0.324 C  
ENDBRANCH  21  25
BRANCH  22  27
HETATM   27  O   UNL     1     -11.081  15.343  69.198  1.00  0.00    -0.236 OA 
HETATM   28  C   UNL     1     -11.418  15.726  70.528  1.00  0.00    -0.381 C  
ENDBRANCH  22  27
ENDBRANCH  15  17
ENDBRANCH  14  15
ENDBRANCH   6  14
TORSDOF 6
ENDMDL
MODEL       86
REMARK 921   NORMALIZED FREE ENERGY PREDICTED BY IDOCK:   -5.05 KCAL/MOL
REMARK 922        TOTAL FREE ENERGY PREDICTED BY IDOCK:   -7.76 KCAL/MOL
REMARK 923 INTER-LIGAND FREE ENERGY PREDICTED BY IDOCK:   -6.90 KCAL/MOL
REMARK 924 INTRA-LIGAND FREE ENERGY PREDICTED BY IDOCK:   -0.86 KCAL/MOL
REMARK 927      BINDING AFFINITY PREDICTED BY RF-SCORE:    0.00 PKD
ROOT
HETATM    1  C   UNL     1      -8.998   9.676  70.100  1.00  0.00    -0.273 C  
HETATM    2  C   UNL     1      -8.844   8.810  68.854  1.00  0.00    -0.137 C  
HETATM    3  C   UNL     1      -8.190   9.366  67.535  1.00  0.00    -0.117 C  
HETATM    4  N   UNL     1      -6.783   9.865  67.698  1.00  0.00    -0.072 NA 
HETATM    5  C   UNL     1      -8.195   8.217  66.431  1.00  0.00    -0.108 A  
HETATM    6  C   UNL     1      -9.127  10.450  66.875  1.00  0.00    -0.143 C  
HETATM    7  C   UNL     1      -8.684   6.917  66.674  1.00  0.00    -0.129 A  
HETATM    8  C   UNL     1      -7.624   7.476  64.161  1.00  0.00    -0.109 A  
HETATM    9  C   UNL     1      -6.543  10.948  68.646  1.00  0.00    -0.057 C  
HETATM   10  C   UNL     1      -5.792   8.813  67.939  1.00  0.00    -0.042 C  
HETATM   11  C   UNL     1      -8.623   5.919  65.696  1.00  0.00    -0.155 A  
HETATM   12  C   UNL     1      -8.087   6.195  64.444  1.00  0.00    -0.102 A  
HETATM   13  C   UNL     1      -7.675   8.473  65.140  1.00  0.00    -0.102 A  
ENDROOT
BRANCH   6  14
HETATM   14  O   UNL     1      -9.531  11.562  67.678  1.00  0.00    -0.163 OA 
BRANCH  14  15
HETATM   15  C   UNL     1     -10.847  11.879  67.575  1.00  0.00    -0.238 C  
HETATM   16  O   UNL     1     -11.600  11.582  66.662  1.00  0.00    -0.469 OA 
BRANCH  15  17
HETATM   17  C   UNL     1     -11.310  12.512  68.826  1.00  0.00    -0.337 A  
HETATM   18  C   UNL     1     -11.823  14.561  70.014  1.00  0.00    -0.313 A  
HETATM   19  C   UNL     1     -11.246  13.904  68.925  1.00  0.00    -0.304 A  
HETATM   20  C   UNL     1     -11.934  11.775  69.839  1.00  0.00    -0.405 A  
HETATM   21  C   UNL     1     -12.501  13.819  71.010  1.00  0.00    -0.380 A  
HETATM   22  C   UNL     1     -12.535  12.410  70.931  1.00  0.00    -0.274 A  
BRANCH  18  23
HETATM   23  O   UNL     1     -11.838  15.932  70.133  1.00  0.00    -0.340 OA 
HETATM   24  C   UNL     1     -10.889  16.648  69.348  1.00  0.00    -0.295 C  
ENDBRANCH  18  23
BRANCH  21  25
HETATM   25  O   UNL     1     -13.024  14.570  72.038  1.00  0.00    -0.312 OA 
HETATM   26  C   UNL     1     -14.397  14.931  71.955  1.00  0.00    -0.576 C  
ENDBRANCH  21  25
BRANCH  22  27
HETATM   27  O   UNL     1     -13.152  11.710  71.933  1.00  0.00    -0.478 OA 
HETATM   28  C   UNL     1     -13.055  10.289  71.920  1.00  0.00    -0.463 C  
ENDBRANCH  22  27
ENDBRANCH  15  17
ENDBRANCH  14  15
ENDBRANCH   6  14
TORSDOF 6
ENDMDL
MODEL       87
REMARK 921   NORMALIZED FREE ENERGY PREDICTED BY IDOCK:   -5.04 KCAL/MOL
REMARK 922        TOTAL FREE ENERGY PREDICTED BY IDOCK:   -7.74 KCAL/MOL
REMARK 923 INTER-LIGAND FREE ENERGY PREDICTED BY IDOCK:   -6.81 KCAL/MOL
REMARK 924 INTRA-LIGAND FREE ENERGY PREDICTED BY IDOCK:   -0.93 KCAL/MOL
REMARK 927      BINDING AFFINITY PREDICTED BY RF-SCORE:    0.00 PKD
ROOT
HETATM    1  C   UNL     1      -9.928  10.482  65.905  1.00  0.00    -0.313 C  
HETATM    2  C   UNL     1      -8.847  10.278  66.962  1.00  0.00    -0.143 C  
HETATM    3  C   UNL     1      -9.093   9.390  68.237  1.00  0.00    -0.128 C  
HETATM    4  N   UNL     1      -9.460   7.964  67.943  1.00  0.00    -0.143 NA 
HETATM    5  C   UNL     1      -7.776   9.398  69.134  1.00  0.00    -0.079 A  
HETATM    6  C   UNL     1     -10.139  10.082  69.193  1.00  0.00    -0.208 C  
HETATM    7  C   UNL     1      -6.598  10.079  68.768  1.00  0.00    -0.049 A  
HETATM    8  C   UNL     1      -6.596   8.633  71.147  1.00  0.00    -0.061 A  
HETATM    9  C   UNL     1     -10.660   7.711  67.151  1.00  0.00    -0.340 C  
HETATM   10  C   UNL     1      -8.367   7.158  67.392  1.00  0.00    -0.119 C  
HETATM   11  C   UNL     1      -5.444  10.020  69.556  1.00  0.00    -0.038 A  
HETATM   12  C   UNL     1      -5.440   9.292  70.740  1.00  0.00    -0.032 A  
HETATM   13  C   UNL     1      -7.747   8.683  70.355  1.00  0.00    -0.081 A  
ENDROOT
BRANCH   6  14
HETATM   14  O   UNL     1     -11.410  10.440  68.645  1.00  0.00    -0.256 OA 
BRANCH  14  15
HETATM   15  C   UNL     1     -12.154  11.251  69.440  1.00  0.00    -0.315 C  
HETATM   16  O   UNL     1     -12.732  10.938  70.467  1.00  0.00    -0.323 OA 
BRANCH  15  17
HETATM   17  C   UNL     1     -12.040  12.649  68.977  1.00  0.00    -0.183 A  
HETATM   18  C   UNL     1     -11.811  14.988  69.569  1.00  0.00    -0.330 A  
HETATM   19  C   UNL     1     -12.080  13.667  69.933  1.00  0.00    -0.406 A  
HETATM   20  C   UNL     1     -11.751  12.964  67.644  1.00  0.00    -0.422 A  
HETATM   21  C   UNL     1     -11.466  15.297  68.231  1.00  0.00    -0.347 A  
HETATM   22  C   UNL     1     -11.461  14.276  67.256  1.00  0.00    -0.352 A  
BRANCH  18  23
HETATM   23  O   UNL     1     -11.782  16.020  70.478  1.00  0.00    -0.357 OA 
HETATM   24  C   UNL     1     -11.705  15.653  71.853  1.00  0.00    -0.459 C  
ENDBRANCH  18  23
BRANCH  21  25
HETATM   25  O   UNL     1     -11.227  16.630  67.987  1.00  0.00    -0.306 OA 
HETATM   26  C   UNL     1      -9.874  17.068  67.997  1.00  0.00    -0.275 C  
ENDBRANCH  21  25
BRANCH  22  27
HETATM   27  O   UNL     1     -11.174  14.607  65.959  1.00  0.00    -0.334 OA 
HETATM   28  C   UNL     1     -12.159  14.346  64.964  1.00  0.00    -0.415 C  
ENDBRANCH  22  27
ENDBRANCH  15  17
ENDBRANCH  14  15
ENDBRANCH   6  14
TORSDOF 6
ENDMDL
MODEL       88
REMARK 921   NORMALIZED FREE ENERGY PREDICTED BY IDOCK:   -5.02 KCAL/MOL
REMARK 922        TOTAL FREE ENERGY PREDICTED BY IDOCK:   -7.71 KCAL/MOL
REMARK 923 INTER-LIGAND FREE ENERGY PREDICTED BY IDOCK:   -7.05 KCAL/MOL
REMARK 924 INTRA-LIGAND FREE ENERGY PREDICTED BY IDOCK:   -0.66 KCAL/MOL
REMARK 927      BINDING AFFINITY PREDICTED BY RF-SCORE:    0.00 PKD
ROOT
HETATM    1  C   UNL     1      -9.422   7.306  73.942  1.00  0.00    -0.316 C  
HETATM    2  C   UNL     1      -9.460   6.266  72.826  1.00  0.00    -0.147 C  
HETATM    3  C   UNL     1      -9.774   6.661  71.336  1.00  0.00    -0.172 C  
HETATM    4  N   UNL     1      -8.826   7.663  70.743  1.00  0.00    -0.143 NA 
HETATM    5  C   UNL     1      -9.748   5.347  70.436  1.00  0.00    -0.254 A  
HETATM    6  C   UNL     1     -11.277   7.119  71.196  1.00  0.00    -0.262 C  
HETATM    7  C   UNL     1      -9.445   4.069  70.947  1.00  0.00    -0.237 A  
HETATM    8  C   UNL     1      -9.964   4.306  68.222  1.00  0.00    -0.034 A  
HETATM    9  C   UNL     1      -8.706   8.965  71.392  1.00  0.00    -0.192 C  
HETATM   10  C   UNL     1      -7.477   7.147  70.493  1.00  0.00    -0.087 C  
HETATM   11  C   UNL     1      -9.380   2.945  70.116  1.00  0.00    -0.212 A  
HETATM   12  C   UNL     1      -9.632   3.065  68.755  1.00  0.00    -0.081 A  
HETATM   13  C   UNL     1     -10.020   5.432  69.050  1.00  0.00    -0.260 A  
ENDROOT
BRANCH   6  14
HETATM   14  O   UNL     1     -11.737   8.173  72.045  1.00  0.00    -0.291 OA 
BRANCH  14  15
HETATM   15  C   UNL     1     -12.832   8.828  71.582  1.00  0.00    -0.348 C  
HETATM   16  O   UNL     1     -13.998   8.529  71.775  1.00  0.00    -0.393 OA 
BRANCH  15  17
HETATM   17  C   UNL     1     -12.422  10.087  70.926  1.00  0.00    -0.431 A  
HETATM   18  C   UNL     1     -11.541  11.168  68.945  1.00  0.00    -0.317 A  
HETATM   19  C   UNL     1     -11.796  10.008  69.680  1.00  0.00    -0.037 A  
HETATM   20  C   UNL     1     -12.772  11.338  71.447  1.00  0.00    -0.501 A  
HETATM   21  C   UNL     1     -11.943  12.428  69.448  1.00  0.00    -0.260 A  
HETATM   22  C   UNL     1     -12.543  12.513  70.723  1.00  0.00    -0.212 A  
BRANCH  18  23
HETATM   23  O   UNL     1     -10.978  11.144  67.689  1.00  0.00    -0.230 OA 
HETATM   24  C   UNL     1     -10.090  10.065  67.411  1.00  0.00    -0.208 C  
ENDBRANCH  18  23
BRANCH  21  25
HETATM   25  O   UNL     1     -11.635  13.500  68.641  1.00  0.00    -0.283 OA 
HETATM   26  C   UNL     1     -10.541  14.322  69.032  1.00  0.00    -0.232 C  
ENDBRANCH  21  25
BRANCH  22  27
HETATM   27  O   UNL     1     -12.877  13.747  71.212  1.00  0.00    -0.337 OA 
HETATM   28  C   UNL     1     -13.522  13.817  72.480  1.00  0.00    -0.578 C  
ENDBRANCH  22  27
ENDBRANCH  15  17
ENDBRANCH  14  15
ENDBRANCH   6  14
TORSDOF 6
ENDMDL
MODEL       89
REMARK 921   NORMALIZED FREE ENERGY PREDICTED BY IDOCK:   -5.00 KCAL/MOL
REMARK 922        TOTAL FREE ENERGY PREDICTED BY IDOCK:   -7.68 KCAL/MOL
REMARK 923 INTER-LIGAND FREE ENERGY PREDICTED BY IDOCK:   -7.39 KCAL/MOL
REMARK 924 INTRA-LIGAND FREE ENERGY PREDICTED BY IDOCK:   -0.29 KCAL/MOL
REMARK 927      BINDING AFFINITY PREDICTED BY RF-SCORE:    0.00 PKD
ROOT
HETATM    1  C   UNL     1      -8.327   8.288  72.411  1.00  0.00    -0.231 C  
HETATM    2  C   UNL     1      -8.708   7.334  71.284  1.00  0.00    -0.127 C  
HETATM    3  C   UNL     1      -9.342   7.851  69.939  1.00  0.00    -0.156 C  
HETATM    4  N   UNL     1      -8.495   8.837  69.189  1.00  0.00    -0.121 NA 
HETATM    5  C   UNL     1      -9.628   6.604  68.990  1.00  0.00    -0.133 A  
HETATM    6  C   UNL     1     -10.798   8.401  70.197  1.00  0.00    -0.236 C  
HETATM    7  C   UNL     1      -9.304   5.278  69.340  1.00  0.00    -0.172 A  
HETATM    8  C   UNL     1     -10.445   5.737  66.843  1.00  0.00    -0.348 A  
HETATM    9  C   UNL     1      -8.129  10.081  69.859  1.00  0.00    -0.166 C  
HETATM   10  C   UNL     1      -7.287   8.265  68.588  1.00  0.00    -0.089 C  
HETATM   11  C   UNL     1      -9.522   4.214  68.458  1.00  0.00    -0.216 A  
HETATM   12  C   UNL     1     -10.085   4.444  67.208  1.00  0.00    -0.101 A  
HETATM   13  C   UNL     1     -10.219   6.803  67.719  1.00  0.00    -0.212 A  
ENDROOT
BRANCH   6  14
HETATM   14  O   UNL     1     -10.962   9.416  71.190  1.00  0.00    -0.302 OA 
BRANCH  14  15
HETATM   15  C   UNL     1     -12.063  10.192  71.020  1.00  0.00    -0.377 C  
HETATM   16  O   UNL     1     -13.093  10.153  71.672  1.00  0.00    -0.387 OA 
BRANCH  15  17
HETATM   17  C   UNL     1     -11.787  11.239  70.015  1.00  0.00    -0.448 A  
HETATM   18  C   UNL     1     -11.257  11.774  67.712  1.00  0.00    -0.266 A  
HETATM   19  C   UNL     1     -11.370  10.840  68.743  1.00  0.00    -0.352 A  
HETATM   20  C   UNL     1     -12.069  12.588  70.258  1.00  0.00    -0.373 A  
HETATM   21  C   UNL     1     -11.595  13.129  67.944  1.00  0.00    -0.336 A  
HETATM   22  C   UNL     1     -11.981  13.541  69.238  1.00  0.00    -0.330 A  
BRANCH  18  23
HETATM   23  O   UNL     1     -10.904  11.427  66.428  1.00  0.00    -0.269 OA 
HETATM   24  C   UNL     1     -10.116  10.249  66.282  1.00  0.00    -0.236 C  
ENDBRANCH  18  23
BRANCH  21  25
HETATM   25  O   UNL     1     -11.440  13.960  66.858  1.00  0.00    -0.321 OA 
HETATM   26  C   UNL     1     -12.531  14.067  65.952  1.00  0.00    -0.481 C  
ENDBRANCH  21  25
BRANCH  22  27
HETATM   27  O   UNL     1     -12.254  14.866  69.451  1.00  0.00    -0.274 OA 
HETATM   28  C   UNL     1     -11.197  15.706  69.904  1.00  0.00    -0.331 C  
ENDBRANCH  22  27
ENDBRANCH  15  17
ENDBRANCH  14  15
ENDBRANCH   6  14
TORSDOF 6
ENDMDL
MODEL       90
REMARK 921   NORMALIZED FREE ENERGY PREDICTED BY IDOCK:   -4.99 KCAL/MOL
REMARK 922        TOTAL FREE ENERGY PREDICTED BY IDOCK:   -7.68 KCAL/MOL
REMARK 923 INTER-LIGAND FREE ENERGY PREDICTED BY IDOCK:   -6.53 KCAL/MOL
REMARK 924 INTRA-LIGAND FREE ENERGY PREDICTED BY IDOCK:   -1.15 KCAL/MOL
REMARK 927      BINDING AFFINITY PREDICTED BY RF-SCORE:    0.00 PKD
ROOT
HETATM    1  C   UNL     1     -11.056   9.774  67.687  1.00  0.00    -0.118 C  
HETATM    2  C   UNL     1     -11.079  11.265  68.011  1.00  0.00    -0.325 C  
HETATM    3  C   UNL     1      -9.861  12.204  67.677  1.00  0.00    -0.194 C  
HETATM    4  N   UNL     1      -9.485  12.245  66.224  1.00  0.00    -0.237 NA 
HETATM    5  C   UNL     1     -10.205  13.685  68.153  1.00  0.00    -0.247 A  
HETATM    6  C   UNL     1      -8.629  11.848  68.595  1.00  0.00    -0.037 C  
HETATM    7  C   UNL     1     -11.437  14.041  68.736  1.00  0.00    -0.327 A  
HETATM    8  C   UNL     1      -9.541  16.041  68.348  1.00  0.00    -0.206 A  
HETATM    9  C   UNL     1      -9.101  10.995  65.577  1.00  0.00    -0.207 C  
HETATM   10  C   UNL     1     -10.456  12.929  65.367  1.00  0.00    -0.292 C  
HETATM   11  C   UNL     1     -11.723  15.363  69.093  1.00  0.00    -0.364 A  
HETATM   12  C   UNL     1     -10.780  16.363  68.892  1.00  0.00    -0.319 A  
HETATM   13  C   UNL     1      -9.257  14.721  67.981  1.00  0.00    -0.194 A  
ENDROOT
BRANCH   6  14
HETATM   14  O   UNL     1      -8.165  10.496  68.596  1.00  0.00    -0.115 OA 
BRANCH  14  15
HETATM   15  C   UNL     1      -7.776  10.038  69.814  1.00  0.00    -0.168 C  
HETATM   16  O   UNL     1      -6.884  10.489  70.512  1.00  0.00    -0.312 OA 
BRANCH  15  17
HETATM   17  C   UNL     1      -8.707   8.989  70.276  1.00  0.00    -0.202 A  
HETATM   18  C   UNL     1     -10.694   8.434  71.547  1.00  0.00    -0.247 A  
HETATM   19  C   UNL     1      -9.689   9.341  71.205  1.00  0.00    -0.327 A  
HETATM   20  C   UNL     1      -8.720   7.711  69.707  1.00  0.00    -0.140 A  
HETATM   21  C   UNL     1     -10.738   7.160  70.930  1.00  0.00    -0.231 A  
HETATM   22  C   UNL     1      -9.725   6.789  70.020  1.00  0.00    -0.163 A  
BRANCH  18  23
HETATM   23  O   UNL     1     -11.717   8.747  72.413  1.00  0.00    -0.353 OA 
HETATM   24  C   UNL     1     -12.809   9.481  71.866  1.00  0.00    -0.420 C  
ENDBRANCH  18  23
BRANCH  21  25
HETATM   25  O   UNL     1     -11.767   6.349  71.349  1.00  0.00    -0.311 OA 
HETATM   26  C   UNL     1     -11.536   5.530  72.489  1.00  0.00    -0.244 C  
ENDBRANCH  21  25
BRANCH  22  27
HETATM   27  O   UNL     1      -9.759   5.534  69.474  1.00  0.00    -0.141 OA 
HETATM   28  C   UNL     1      -8.813   4.574  69.935  1.00  0.00    -0.086 C  
ENDBRANCH  22  27
ENDBRANCH  15  17
ENDBRANCH  14  15
ENDBRANCH   6  14
TORSDOF 6
ENDMDL
MODEL       91
REMARK 921   NORMALIZED FREE ENERGY PREDICTED BY IDOCK:   -4.99 KCAL/MOL
REMARK 922        TOTAL FREE ENERGY PREDICTED BY IDOCK:   -7.67 KCAL/MOL
REMARK 923 INTER-LIGAND FREE ENERGY PREDICTED BY IDOCK:   -6.63 KCAL/MOL
REMARK 924 INTRA-LIGAND FREE ENERGY PREDICTED BY IDOCK:   -1.04 KCAL/MOL
REMARK 927      BINDING AFFINITY PREDICTED BY RF-SCORE:    0.00 PKD
ROOT
HETATM    1  C   UNL     1      -8.132   6.608  70.804  1.00  0.00    -0.119 C  
HETATM    2  C   UNL     1      -9.452   7.293  71.147  1.00  0.00    -0.156 C  
HETATM    3  C   UNL     1     -10.830   6.543  71.025  1.00  0.00    -0.253 C  
HETATM    4  N   UNL     1     -10.941   5.301  71.861  1.00  0.00    -0.154 NA 
HETATM    5  C   UNL     1     -12.000   7.540  71.445  1.00  0.00    -0.336 A  
HETATM    6  C   UNL     1     -11.170   6.266  69.510  1.00  0.00    -0.430 C  
HETATM    7  C   UNL     1     -11.768   8.859  71.885  1.00  0.00    -0.439 A  
HETATM    8  C   UNL     1     -14.395   7.943  71.803  1.00  0.00    -0.589 A  
HETATM    9  C   UNL     1      -9.980   4.226  71.628  1.00  0.00    -0.180 C  
HETATM   10  C   UNL     1     -11.017   5.546  73.303  1.00  0.00    -0.292 C  
HETATM   11  C   UNL     1     -12.817   9.688  72.295  1.00  0.00    -0.407 A  
HETATM   12  C   UNL     1     -14.128   9.229  72.261  1.00  0.00    -0.374 A  
HETATM   13  C   UNL     1     -13.347   7.109  71.401  1.00  0.00    -0.380 A  
ENDROOT
BRANCH   6  14
HETATM   14  O   UNL     1     -10.204   5.560  68.727  1.00  0.00    -0.175 OA 
BRANCH  14  15
HETATM   15  C   UNL     1     -10.255   5.830  67.398  1.00  0.00    -0.200 C  
HETATM   16  O   UNL     1     -10.908   5.237  66.556  1.00  0.00    -0.280 OA 
BRANCH  15  17
HETATM   17  C   UNL     1      -9.520   7.079  67.112  1.00  0.00    -0.176 A  
HETATM   18  C   UNL     1      -7.420   8.122  66.497  1.00  0.00    -0.088 A  
HETATM   19  C   UNL     1      -8.136   7.004  66.931  1.00  0.00    -0.116 A  
HETATM   20  C   UNL     1     -10.183   8.290  66.880  1.00  0.00    -0.388 A  
HETATM   21  C   UNL     1      -8.100   9.330  66.210  1.00  0.00    -0.107 A  
HETATM   22  C   UNL     1      -9.491   9.418  66.427  1.00  0.00    -0.201 A  
BRANCH  18  23
HETATM   23  O   UNL     1      -6.067   8.089  66.249  1.00  0.00    -0.043 OA 
HETATM   24  C   UNL     1      -5.417   6.836  66.441  1.00  0.00    -0.018 C  
ENDBRANCH  18  23
BRANCH  21  25
HETATM   25  O   UNL     1      -7.292  10.364  65.795  1.00  0.00    -0.137 OA 
HETATM   26  C   UNL     1      -6.994  11.385  66.741  1.00  0.00    -0.128 C  
ENDBRANCH  21  25
BRANCH  22  27
HETATM   27  O   UNL     1     -10.119  10.613  66.192  1.00  0.00    -0.231 OA 
HETATM   28  C   UNL     1     -10.553  10.894  64.865  1.00  0.00    -0.234 C  
ENDBRANCH  22  27
ENDBRANCH  15  17
ENDBRANCH  14  15
ENDBRANCH   6  14
TORSDOF 6
ENDMDL
MODEL       92
REMARK 921   NORMALIZED FREE ENERGY PREDICTED BY IDOCK:   -4.98 KCAL/MOL
REMARK 922        TOTAL FREE ENERGY PREDICTED BY IDOCK:   -7.66 KCAL/MOL
REMARK 923 INTER-LIGAND FREE ENERGY PREDICTED BY IDOCK:   -6.86 KCAL/MOL
REMARK 924 INTRA-LIGAND FREE ENERGY PREDICTED BY IDOCK:   -0.81 KCAL/MOL
REMARK 927      BINDING AFFINITY PREDICTED BY RF-SCORE:    0.00 PKD
ROOT
HETATM    1  C   UNL     1     -11.400  12.317  67.109  1.00  0.00    -0.398 C  
HETATM    2  C   UNL     1     -10.673  11.581  65.987  1.00  0.00    -0.332 C  
HETATM    3  C   UNL     1      -9.312  10.830  66.236  1.00  0.00    -0.180 C  
HETATM    4  N   UNL     1      -9.376   9.750  67.276  1.00  0.00    -0.137 NA 
HETATM    5  C   UNL     1      -8.822  10.184  64.865  1.00  0.00    -0.214 A  
HETATM    6  C   UNL     1      -8.162  11.868  66.534  1.00  0.00    -0.026 C  
HETATM    7  C   UNL     1      -9.555  10.271  63.665  1.00  0.00    -0.334 A  
HETATM    8  C   UNL     1      -7.163   8.849  63.642  1.00  0.00    -0.093 A  
HETATM    9  C   UNL     1      -9.779  10.120  68.630  1.00  0.00    -0.163 C  
HETATM   10  C   UNL     1     -10.143   8.567  66.875  1.00  0.00    -0.294 C  
HETATM   11  C   UNL     1      -9.118   9.645  62.493  1.00  0.00    -0.283 A  
HETATM   12  C   UNL     1      -7.927   8.929  62.483  1.00  0.00    -0.143 A  
HETATM   13  C   UNL     1      -7.603   9.465  64.818  1.00  0.00    -0.111 A  
ENDROOT
BRANCH   6  14
HETATM   14  O   UNL     1      -8.361  12.799  67.600  1.00  0.00    -0.151 OA 
BRANCH  14  15
HETATM   15  C   UNL     1      -7.497  13.845  67.599  1.00  0.00    -0.176 C  
HETATM   16  O   UNL     1      -6.313  13.814  67.306  1.00  0.00    -0.295 OA 
BRANCH  15  17
HETATM   17  C   UNL     1      -8.230  15.102  67.851  1.00  0.00    -0.152 A  
HETATM   18  C   UNL     1      -9.026  17.216  66.974  1.00  0.00    -0.230 A  
HETATM   19  C   UNL     1      -8.216  16.084  66.858  1.00  0.00    -0.277 A  
HETATM   20  C   UNL     1      -9.043  15.269  68.978  1.00  0.00    -0.225 A  
HETATM   21  C   UNL     1      -9.888  17.358  68.087  1.00  0.00    -0.301 A  
HETATM   22  C   UNL     1      -9.877  16.385  69.109  1.00  0.00    -0.272 A  
BRANCH  18  23
HETATM   23  O   UNL     1      -9.094  18.186  66.000  1.00  0.00    -0.513 OA 
HETATM   24  C   UNL     1      -8.027  19.130  65.970  1.00  0.00    -0.217 C  
ENDBRANCH  18  23
BRANCH  21  25
HETATM   25  O   UNL     1     -10.634  18.515  68.099  1.00  0.00    -0.350 OA 
HETATM   26  C   UNL     1     -10.156  19.597  68.888  1.00  0.00    -0.401 C  
ENDBRANCH  21  25
BRANCH  22  27
HETATM   27  O   UNL     1     -10.681  16.569  70.202  1.00  0.00    -0.285 OA 
HETATM   28  C   UNL     1     -11.912  15.856  70.259  1.00  0.00    -0.305 C  
ENDBRANCH  22  27
ENDBRANCH  15  17
ENDBRANCH  14  15
ENDBRANCH   6  14
TORSDOF 6
ENDMDL
MODEL       93
REMARK 921   NORMALIZED FREE ENERGY PREDICTED BY IDOCK:   -4.97 KCAL/MOL
REMARK 922        TOTAL FREE ENERGY PREDICTED BY IDOCK:   -7.65 KCAL/MOL
REMARK 923 INTER-LIGAND FREE ENERGY PREDICTED BY IDOCK:   -6.90 KCAL/MOL
REMARK 924 INTRA-LIGAND FREE ENERGY PREDICTED BY IDOCK:   -0.76 KCAL/MOL
REMARK 927      BINDING AFFINITY PREDICTED BY RF-SCORE:    0.00 PKD
ROOT
HETATM    1  C   UNL     1     -11.078   6.453  68.873  1.00  0.00    -0.420 C  
HETATM    2  C   UNL     1     -10.009   6.586  69.954  1.00  0.00    -0.191 C  
HETATM    3  C   UNL     1     -10.216   7.504  71.215  1.00  0.00    -0.188 C  
HETATM    4  N   UNL     1     -11.412   7.153  72.053  1.00  0.00    -0.266 NA 
HETATM    5  C   UNL     1      -8.916   7.425  72.132  1.00  0.00    -0.154 A  
HETATM    6  C   UNL     1     -10.220   9.023  70.791  1.00  0.00    -0.244 C  
HETATM    7  C   UNL     1      -7.806   6.611  71.826  1.00  0.00    -0.102 A  
HETATM    8  C   UNL     1      -7.736   8.103  74.175  1.00  0.00    -0.270 A  
HETATM    9  C   UNL     1     -12.728   7.188  71.423  1.00  0.00    -0.391 C  
HETATM   10  C   UNL     1     -11.286   5.893  72.790  1.00  0.00    -0.263 C  
HETATM   11  C   UNL     1      -6.703   6.526  72.683  1.00  0.00    -0.064 A  
HETATM   12  C   UNL     1      -6.671   7.266  73.859  1.00  0.00    -0.077 A  
HETATM   13  C   UNL     1      -8.844   8.181  73.325  1.00  0.00    -0.324 A  
ENDROOT
BRANCH   6  14
HETATM   14  O   UNL     1     -11.145   9.433  69.781  1.00  0.00    -0.233 OA 
BRANCH  14  15
HETATM   15  C   UNL     1     -10.596  10.173  68.784  1.00  0.00    -0.213 C  
HETATM   16  O   UNL     1      -9.979   9.754  67.819  1.00  0.00    -0.155 OA 
BRANCH  15  17
HETATM   17  C   UNL     1     -10.991  11.588  68.934  1.00  0.00    -0.279 A  
HETATM   18  C   UNL     1     -12.385  13.214  70.069  1.00  0.00    -0.172 A  
HETATM   19  C   UNL     1     -12.076  11.887  69.762  1.00  0.00    -0.321 A  
HETATM   20  C   UNL     1     -10.229  12.629  68.391  1.00  0.00    -0.233 A  
HETATM   21  C   UNL     1     -11.580  14.263  69.563  1.00  0.00    -0.301 A  
HETATM   22  C   UNL     1     -10.507  13.965  68.696  1.00  0.00    -0.246 A  
BRANCH  18  23
HETATM   23  O   UNL     1     -13.406  13.562  70.923  1.00  0.00    -0.088 OA 
HETATM   24  C   UNL     1     -13.354  13.008  72.234  1.00  0.00    -0.506 C  
ENDBRANCH  18  23
BRANCH  21  25
HETATM   25  O   UNL     1     -11.983  15.528  69.925  1.00  0.00    -0.324 OA 
HETATM   26  C   UNL     1     -11.417  16.084  71.107  1.00  0.00    -0.419 C  
ENDBRANCH  21  25
BRANCH  22  27
HETATM   27  O   UNL     1      -9.774  15.000  68.178  1.00  0.00    -0.209 OA 
HETATM   28  C   UNL     1      -9.458  14.971  66.790  1.00  0.00    -0.246 C  
ENDBRANCH  22  27
ENDBRANCH  15  17
ENDBRANCH  14  15
ENDBRANCH   6  14
TORSDOF 6
ENDMDL
MODEL       94
REMARK 921   NORMALIZED FREE ENERGY PREDICTED BY IDOCK:   -4.96 KCAL/MOL
REMARK 922        TOTAL FREE ENERGY PREDICTED BY IDOCK:   -7.63 KCAL/MOL
REMARK 923 INTER-LIGAND FREE ENERGY PREDICTED BY IDOCK:   -6.93 KCAL/MOL
REMARK 924 INTRA-LIGAND FREE ENERGY PREDICTED BY IDOCK:   -0.70 KCAL/MOL
REMARK 927      BINDING AFFINITY PREDICTED BY RF-SCORE:    0.00 PKD
ROOT
HETATM    1  C   UNL     1     -11.929  14.915  69.416  1.00  0.00    -0.336 C  
HETATM    2  C   UNL     1     -10.674  15.702  69.049  1.00  0.00    -0.236 C  
HETATM    3  C   UNL     1      -9.786  15.314  67.809  1.00  0.00    -0.220 C  
HETATM    4  N   UNL     1     -10.511  15.326  66.494  1.00  0.00    -0.291 NA 
HETATM    5  C   UNL     1      -8.556  16.322  67.718  1.00  0.00    -0.175 A  
HETATM    6  C   UNL     1      -9.058  13.939  68.066  1.00  0.00    -0.192 C  
HETATM    7  C   UNL     1      -8.372  17.395  68.613  1.00  0.00    -0.264 A  
HETATM    8  C   UNL     1      -6.525  17.065  66.556  1.00  0.00    -0.239 A  
HETATM    9  C   UNL     1     -11.667  14.449  66.336  1.00  0.00    -0.386 C  
HETATM   10  C   UNL     1     -10.879  16.662  66.018  1.00  0.00    -0.041 C  
HETATM   11  C   UNL     1      -7.308  18.292  68.469  1.00  0.00    -0.297 A  
HETATM   12  C   UNL     1      -6.390  18.132  67.439  1.00  0.00    -0.184 A  
HETATM   13  C   UNL     1      -7.593  16.173  66.692  1.00  0.00    -0.238 A  
ENDROOT
BRANCH   6  14
HETATM   14  O   UNL     1      -9.864  12.809  68.411  1.00  0.00    -0.223 OA 
BRANCH  14  15
HETATM   15  C   UNL     1      -9.226  11.615  68.314  1.00  0.00    -0.187 C  
HETATM   16  O   UNL     1      -8.261  11.357  67.614  1.00  0.00    -0.121 OA 
BRANCH  15  17
HETATM   17  C   UNL     1      -9.764  10.676  69.319  1.00  0.00    -0.181 A  
HETATM   18  C   UNL     1      -9.304   8.978  70.986  1.00  0.00    -0.271 A  
HETATM   19  C   UNL     1      -8.883   9.771  69.915  1.00  0.00    -0.248 A  
HETATM   20  C   UNL     1     -11.081  10.767  69.784  1.00  0.00    -0.346 A  
HETATM   21  C   UNL     1     -10.620   9.111  71.490  1.00  0.00    -0.358 A  
HETATM   22  C   UNL     1     -11.522   9.998  70.865  1.00  0.00    -0.371 A  
BRANCH  18  23
HETATM   23  O   UNL     1      -8.463   8.112  71.646  1.00  0.00    -0.114 OA 
HETATM   24  C   UNL     1      -7.102   8.515  71.766  1.00  0.00    -0.094 C  
ENDBRANCH  18  23
BRANCH  21  25
HETATM   25  O   UNL     1     -10.924   8.276  72.541  1.00  0.00    -0.338 OA 
HETATM   26  C   UNL     1     -11.675   7.103  72.252  1.00  0.00    -0.258 C  
ENDBRANCH  21  25
BRANCH  22  27
HETATM   27  O   UNL     1     -12.805  10.071  71.338  1.00  0.00    -0.352 OA 
HETATM   28  C   UNL     1     -13.276  11.329  71.813  1.00  0.00    -0.375 C  
ENDBRANCH  22  27
ENDBRANCH  15  17
ENDBRANCH  14  15
ENDBRANCH   6  14
TORSDOF 6
ENDMDL
MODEL       95
REMARK 921   NORMALIZED FREE ENERGY PREDICTED BY IDOCK:   -4.93 KCAL/MOL
REMARK 922        TOTAL FREE ENERGY PREDICTED BY IDOCK:   -7.60 KCAL/MOL
REMARK 923 INTER-LIGAND FREE ENERGY PREDICTED BY IDOCK:   -6.82 KCAL/MOL
REMARK 924 INTRA-LIGAND FREE ENERGY PREDICTED BY IDOCK:   -0.77 KCAL/MOL
REMARK 927      BINDING AFFINITY PREDICTED BY RF-SCORE:    0.00 PKD
ROOT
HETATM    1  C   UNL     1      -8.649  10.941  69.190  1.00  0.00    -0.060 C  
HETATM    2  C   UNL     1      -9.196  11.913  68.148  1.00  0.00    -0.187 C  
HETATM    3  C   UNL     1     -10.710  11.903  67.721  1.00  0.00    -0.207 C  
HETATM    4  N   UNL     1     -11.677  12.136  68.846  1.00  0.00    -0.311 NA 
HETATM    5  C   UNL     1     -10.943  13.026  66.614  1.00  0.00    -0.301 A  
HETATM    6  C   UNL     1     -11.045  10.586  66.921  1.00  0.00    -0.050 C  
HETATM    7  C   UNL     1      -9.921  13.884  66.162  1.00  0.00    -0.322 A  
HETATM    8  C   UNL     1     -12.477  14.211  65.108  1.00  0.00    -0.453 A  
HETATM    9  C   UNL     1     -11.664  11.204  69.969  1.00  0.00    -0.356 C  
HETATM   10  C   UNL     1     -11.667  13.501  69.380  1.00  0.00    -0.325 C  
HETATM   11  C   UNL     1     -10.175  14.894  65.227  1.00  0.00    -0.404 A  
HETATM   12  C   UNL     1     -11.452  15.061  64.706  1.00  0.00    -0.403 A  
HETATM   13  C   UNL     1     -12.227  13.208  66.050  1.00  0.00    -0.478 A  
ENDROOT
BRANCH   6  14
HETATM   14  O   UNL     1     -10.747   9.333  67.540  1.00  0.00    -0.277 OA 
BRANCH  14  15
HETATM   15  C   UNL     1     -10.130   8.439  66.727  1.00  0.00    -0.303 C  
HETATM   16  O   UNL     1      -9.503   8.687  65.711  1.00  0.00    -0.206 OA 
BRANCH  15  17
HETATM   17  C   UNL     1     -10.176   7.093  67.335  1.00  0.00    -0.291 A  
HETATM   18  C   UNL     1      -9.724   4.724  67.097  1.00  0.00    -0.184 A  
HETATM   19  C   UNL     1      -9.857   5.995  66.533  1.00  0.00    -0.186 A  
HETATM   20  C   UNL     1     -10.386   6.910  68.706  1.00  0.00    -0.200 A  
HETATM   21  C   UNL     1      -9.883   4.549  68.492  1.00  0.00    -0.089 A  
HETATM   22  C   UNL     1     -10.242   5.651  69.299  1.00  0.00    -0.239 A  
BRANCH  18  23
HETATM   23  O   UNL     1      -9.357   3.619  66.363  1.00  0.00    -0.168 OA 
HETATM   24  C   UNL     1      -8.448   3.843  65.290  1.00  0.00    -0.112 C  
ENDBRANCH  18  23
BRANCH  21  25
HETATM   25  O   UNL     1      -9.735   3.254  68.934  1.00  0.00    -0.098 OA 
HETATM   26  C   UNL     1      -8.486   2.897  69.513  1.00  0.00    -0.062 C  
ENDBRANCH  21  25
BRANCH  22  27
HETATM   27  O   UNL     1     -10.441   5.447  70.638  1.00  0.00    -0.257 OA 
HETATM   28  C   UNL     1     -11.420   6.242  71.301  1.00  0.00    -0.291 C  
ENDBRANCH  22  27
ENDBRANCH  15  17
ENDBRANCH  14  15
ENDBRANCH   6  14
TORSDOF 6
ENDMDL
MODEL       96
REMARK 921   NORMALIZED FREE ENERGY PREDICTED BY IDOCK:   -4.93 KCAL/MOL
REMARK 922        TOTAL FREE ENERGY PREDICTED BY IDOCK:   -7.59 KCAL/MOL
REMARK 923 INTER-LIGAND FREE ENERGY PREDICTED BY IDOCK:   -6.71 KCAL/MOL
REMARK 924 INTRA-LIGAND FREE ENERGY PREDICTED BY IDOCK:   -0.88 KCAL/MOL
REMARK 927      BINDING AFFINITY PREDICTED BY RF-SCORE:    0.00 PKD
ROOT
HETATM    1  C   UNL     1     -10.655   8.394  67.200  1.00  0.00    -0.326 C  
HETATM    2  C   UNL     1     -10.929   9.867  66.915  1.00  0.00    -0.047 C  
HETATM    3  C   UNL     1      -9.776  10.864  66.525  1.00  0.00    -0.198 C  
HETATM    4  N   UNL     1      -9.013  10.483  65.288  1.00  0.00    -0.181 NA 
HETATM    5  C   UNL     1     -10.397  12.315  66.308  1.00  0.00    -0.257 A  
HETATM    6  C   UNL     1      -8.819  11.103  67.756  1.00  0.00    -0.135 C  
HETATM    7  C   UNL     1     -11.775  12.588  66.423  1.00  0.00    -0.458 A  
HETATM    8  C   UNL     1     -10.073  14.678  65.727  1.00  0.00    -0.364 A  
HETATM    9  C   UNL     1      -8.330   9.193  65.271  1.00  0.00    -0.146 C  
HETATM   10  C   UNL     1      -9.773  10.618  64.043  1.00  0.00    -0.315 C  
HETATM   11  C   UNL     1     -12.291  13.864  66.173  1.00  0.00    -0.504 A  
HETATM   12  C   UNL     1     -11.443  14.906  65.819  1.00  0.00    -0.281 A  
HETATM   13  C   UNL     1      -9.557  13.401  65.966  1.00  0.00    -0.174 A  
ENDROOT
BRANCH   6  14
HETATM   14  O   UNL     1      -8.231   9.958  68.377  1.00  0.00    -0.103 OA 
BRANCH  14  15
HETATM   15  C   UNL     1      -7.747  10.184  69.625  1.00  0.00    -0.163 C  
HETATM   16  O   UNL     1      -6.871  10.974  69.937  1.00  0.00    -0.147 OA 
BRANCH  15  17
HETATM   17  C   UNL     1      -8.555   9.447  70.618  1.00  0.00    -0.247 A  
HETATM   18  C   UNL     1     -10.756   8.750  71.353  1.00  0.00    -0.286 A  
HETATM   19  C   UNL     1      -9.946   9.554  70.548  1.00  0.00    -0.335 A  
HETATM   20  C   UNL     1      -7.975   8.545  71.518  1.00  0.00    -0.169 A  
HETATM   21  C   UNL     1     -10.170   7.800  72.223  1.00  0.00    -0.228 A  
HETATM   22  C   UNL     1      -8.764   7.716  72.322  1.00  0.00    -0.124 A  
BRANCH  18  23
HETATM   23  O   UNL     1     -12.130   8.774  71.285  1.00  0.00    -0.290 OA 
HETATM   24  C   UNL     1     -12.760  10.012  71.603  1.00  0.00    -0.435 C  
ENDBRANCH  18  23
BRANCH  21  25
HETATM   25  O   UNL     1     -11.065   7.069  72.970  1.00  0.00    -0.288 OA 
HETATM   26  C   UNL     1     -11.443   5.790  72.476  1.00  0.00    -0.296 C  
ENDBRANCH  21  25
BRANCH  22  27
HETATM   27  O   UNL     1      -8.219   6.826  73.208  1.00  0.00    -0.110 OA 
HETATM   28  C   UNL     1      -7.705   5.599  72.700  1.00  0.00    -0.102 C  
ENDBRANCH  22  27
ENDBRANCH  15  17
ENDBRANCH  14  15
ENDBRANCH   6  14
TORSDOF 6
ENDMDL
MODEL       97
REMARK 921   NORMALIZED FREE ENERGY PREDICTED BY IDOCK:   -4.91 KCAL/MOL
REMARK 922        TOTAL FREE ENERGY PREDICTED BY IDOCK:   -7.56 KCAL/MOL
REMARK 923 INTER-LIGAND FREE ENERGY PREDICTED BY IDOCK:   -6.75 KCAL/MOL
REMARK 924 INTRA-LIGAND FREE ENERGY PREDICTED BY IDOCK:   -0.81 KCAL/MOL
REMARK 927      BINDING AFFINITY PREDICTED BY RF-SCORE:    0.00 PKD
ROOT
HETATM    1  C   UNL     1      -7.863   7.059  71.024  1.00  0.00    -0.096 C  
HETATM    2  C   UNL     1      -9.271   7.536  71.366  1.00  0.00    -0.150 C  
HETATM    3  C   UNL     1     -10.550   6.804  70.816  1.00  0.00    -0.222 C  
HETATM    4  N   UNL     1     -10.652   5.355  71.197  1.00  0.00    -0.230 NA 
HETATM    5  C   UNL     1     -11.848   7.559  71.349  1.00  0.00    -0.321 A  
HETATM    6  C   UNL     1     -10.672   7.013  69.257  1.00  0.00    -0.225 C  
HETATM    7  C   UNL     1     -11.792   8.676  72.207  1.00  0.00    -0.436 A  
HETATM    8  C   UNL     1     -14.296   7.717  71.459  1.00  0.00    -0.589 A  
HETATM    9  C   UNL     1      -9.578   4.457  70.784  1.00  0.00    -0.188 C  
HETATM   10  C   UNL     1     -10.929   5.120  72.616  1.00  0.00    -0.243 C  
HETATM   11  C   UNL     1     -12.954   9.281  72.697  1.00  0.00    -0.282 A  
HETATM   12  C   UNL     1     -14.204   8.798  72.330  1.00  0.00    -0.498 A  
HETATM   13  C   UNL     1     -13.135   7.104  70.976  1.00  0.00    -0.193 A  
ENDROOT
BRANCH   6  14
HETATM   14  O   UNL     1      -9.558   6.640  68.443  1.00  0.00    -0.125 OA 
BRANCH  14  15
HETATM   15  C   UNL     1      -9.388   7.410  67.338  1.00  0.00    -0.132 C  
HETATM   16  O   UNL     1      -9.285   7.023  66.187  1.00  0.00    -0.152 OA 
BRANCH  15  17
HETATM   17  C   UNL     1      -9.511   8.837  67.699  1.00  0.00    -0.168 A  
HETATM   18  C   UNL     1      -8.398  10.874  68.396  1.00  0.00    -0.136 A  
HETATM   19  C   UNL     1      -8.382   9.492  68.198  1.00  0.00    -0.118 A  
HETATM   20  C   UNL     1     -10.669   9.572  67.420  1.00  0.00    -0.297 A  
HETATM   21  C   UNL     1      -9.552  11.623  68.062  1.00  0.00    -0.184 A  
HETATM   22  C   UNL     1     -10.705  10.960  67.593  1.00  0.00    -0.242 A  
BRANCH  18  23
HETATM   23  O   UNL     1      -7.298  11.576  68.831  1.00  0.00    -0.112 OA 
HETATM   24  C   UNL     1      -6.310  10.834  69.540  1.00  0.00    -0.079 C  
ENDBRANCH  18  23
BRANCH  21  25
HETATM   25  O   UNL     1      -9.455  12.975  68.305  1.00  0.00    -0.217 OA 
HETATM   26  C   UNL     1      -9.149  13.820  67.202  1.00  0.00    -0.239 C  
ENDBRANCH  21  25
BRANCH  22  27
HETATM   27  O   UNL     1     -11.827  11.699  67.326  1.00  0.00    -0.609 OA 
HETATM   28  C   UNL     1     -11.958  12.278  66.032  1.00  0.00    -0.269 C  
ENDBRANCH  22  27
ENDBRANCH  15  17
ENDBRANCH  14  15
ENDBRANCH   6  14
TORSDOF 6
ENDMDL
MODEL       98
REMARK 921   NORMALIZED FREE ENERGY PREDICTED BY IDOCK:   -4.90 KCAL/MOL
REMARK 922        TOTAL FREE ENERGY PREDICTED BY IDOCK:   -7.56 KCAL/MOL
REMARK 923 INTER-LIGAND FREE ENERGY PREDICTED BY IDOCK:   -6.91 KCAL/MOL
REMARK 924 INTRA-LIGAND FREE ENERGY PREDICTED BY IDOCK:   -0.65 KCAL/MOL
REMARK 927      BINDING AFFINITY PREDICTED BY RF-SCORE:    0.00 PKD
ROOT
HETATM    1  C   UNL     1      -7.762  11.561  68.429  1.00  0.00    -0.129 C  
HETATM    2  C   UNL     1      -8.281  10.134  68.574  1.00  0.00    -0.111 C  
HETATM    3  C   UNL     1      -9.220   9.480  67.494  1.00  0.00    -0.126 C  
HETATM    4  N   UNL     1      -8.634   9.419  66.113  1.00  0.00    -0.132 NA 
HETATM    5  C   UNL     1      -9.585   8.000  67.954  1.00  0.00    -0.178 A  
HETATM    6  C   UNL     1     -10.634  10.179  67.502  1.00  0.00    -0.273 C  
HETATM    7  C   UNL     1      -9.083   7.413  69.133  1.00  0.00    -0.134 A  
HETATM    8  C   UNL     1     -10.747   5.883  67.509  1.00  0.00    -0.359 A  
HETATM    9  C   UNL     1      -8.247  10.672  65.472  1.00  0.00    -0.141 C  
HETATM   10  C   UNL     1      -7.530   8.467  65.966  1.00  0.00    -0.084 C  
HETATM   11  C   UNL     1      -9.384   6.091  69.477  1.00  0.00    -0.151 A  
HETATM   12  C   UNL     1     -10.209   5.324  68.664  1.00  0.00    -0.223 A  
HETATM   13  C   UNL     1     -10.440   7.201  67.157  1.00  0.00    -0.389 A  
ENDROOT
BRANCH   6  14
HETATM   14  O   UNL     1     -10.679  11.598  67.335  1.00  0.00    -0.214 OA 
BRANCH  14  15
HETATM   15  C   UNL     1     -11.495  12.240  68.211  1.00  0.00    -0.315 C  
HETATM   16  O   UNL     1     -12.402  11.747  68.860  1.00  0.00    -0.293 OA 
BRANCH  15  17
HETATM   17  C   UNL     1     -11.026  13.627  68.408  1.00  0.00    -0.284 A  
HETATM   18  C   UNL     1     -10.046  15.614  67.428  1.00  0.00    -0.251 A  
HETATM   19  C   UNL     1     -10.360  14.255  67.354  1.00  0.00    -0.259 A  
HETATM   20  C   UNL     1     -11.356  14.361  69.553  1.00  0.00    -0.318 A  
HETATM   21  C   UNL     1     -10.428  16.368  68.563  1.00  0.00    -0.291 A  
HETATM   22  C   UNL     1     -11.068  15.727  69.645  1.00  0.00    -0.307 A  
BRANCH  18  23
HETATM   23  O   UNL     1      -9.441  16.295  66.396  1.00  0.00    -0.254 OA 
HETATM   24  C   UNL     1      -8.017  16.339  66.413  1.00  0.00    -0.264 C  
ENDBRANCH  18  23
BRANCH  21  25
HETATM   25  O   UNL     1     -10.060  17.694  68.529  1.00  0.00    -0.333 OA 
HETATM   26  C   UNL     1     -10.899  18.589  67.809  1.00  0.00    -0.247 C  
ENDBRANCH  21  25
BRANCH  22  27
HETATM   27  O   UNL     1     -11.382  16.466  70.755  1.00  0.00    -0.373 OA 
HETATM   28  C   UNL     1     -11.911  15.785  71.888  1.00  0.00    -0.480 C  
ENDBRANCH  22  27
ENDBRANCH  15  17
ENDBRANCH  14  15
ENDBRANCH   6  14
TORSDOF 6
ENDMDL
MODEL       99
REMARK 921   NORMALIZED FREE ENERGY PREDICTED BY IDOCK:   -4.90 KCAL/MOL
REMARK 922        TOTAL FREE ENERGY PREDICTED BY IDOCK:   -7.56 KCAL/MOL
REMARK 923 INTER-LIGAND FREE ENERGY PREDICTED BY IDOCK:   -6.74 KCAL/MOL
REMARK 924 INTRA-LIGAND FREE ENERGY PREDICTED BY IDOCK:   -0.81 KCAL/MOL
REMARK 927      BINDING AFFINITY PREDICTED BY RF-SCORE:    0.00 PKD
ROOT
HETATM    1  C   UNL     1      -7.129  10.390  69.313  1.00  0.00    -0.090 C  
HETATM    2  C   UNL     1      -8.012   9.589  70.265  1.00  0.00    -0.190 C  
HETATM    3  C   UNL     1      -9.232   8.740  69.746  1.00  0.00    -0.155 C  
HETATM    4  N   UNL     1      -8.872   7.678  68.747  1.00  0.00    -0.131 NA 
HETATM    5  C   UNL     1      -9.943   8.044  70.990  1.00  0.00    -0.208 A  
HETATM    6  C   UNL     1     -10.372   9.690  69.211  1.00  0.00    -0.209 C  
HETATM    7  C   UNL     1      -9.481   8.175  72.314  1.00  0.00    -0.312 A  
HETATM    8  C   UNL     1     -11.711   6.575  71.852  1.00  0.00    -0.371 A  
HETATM    9  C   UNL     1      -8.229   8.092  67.503  1.00  0.00    -0.123 C  
HETATM   10  C   UNL     1      -8.117   6.554  69.304  1.00  0.00    -0.112 C  
HETATM   11  C   UNL     1     -10.101   7.506  73.375  1.00  0.00    -0.393 A  
HETATM   12  C   UNL     1     -11.210   6.701  73.143  1.00  0.00    -0.119 A  
HETATM   13  C   UNL     1     -11.087   7.235  70.789  1.00  0.00    -0.290 A  
ENDROOT
BRANCH   6  14
HETATM   14  O   UNL     1     -10.029  10.645  68.203  1.00  0.00    -0.153 OA 
BRANCH  14  15
HETATM   15  C   UNL     1     -11.037  11.488  67.865  1.00  0.00    -0.256 C  
HETATM   16  O   UNL     1     -12.232  11.296  68.015  1.00  0.00    -0.621 OA 
BRANCH  15  17
HETATM   17  C   UNL     1     -10.480  12.783  67.423  1.00  0.00    -0.234 A  
HETATM   18  C   UNL     1      -8.703  14.419  67.620  1.00  0.00    -0.189 A  
HETATM   19  C   UNL     1      -9.367  13.288  68.100  1.00  0.00    -0.220 A  
HETATM   20  C   UNL     1     -10.943  13.432  66.273  1.00  0.00    -0.296 A  
HETATM   21  C   UNL     1      -9.140  15.043  66.426  1.00  0.00    -0.277 A  
HETATM   22  C   UNL     1     -10.286  14.556  65.762  1.00  0.00    -0.335 A  
BRANCH  18  23
HETATM   23  O   UNL     1      -7.570  14.925  68.214  1.00  0.00    -0.104 OA 
HETATM   24  C   UNL     1      -6.495  14.012  68.414  1.00  0.00    -0.103 C  
ENDBRANCH  18  23
BRANCH  21  25
HETATM   25  O   UNL     1      -8.414  16.151  66.053  1.00  0.00    -0.319 OA 
HETATM   26  C   UNL     1      -8.893  17.422  66.475  1.00  0.00    -0.263 C  
ENDBRANCH  21  25
BRANCH  22  27
HETATM   27  O   UNL     1     -10.720  15.206  64.637  1.00  0.00    -0.366 OA 
HETATM   28  C   UNL     1     -12.091  15.083  64.276  1.00  0.00    -0.306 C  
ENDBRANCH  22  27
ENDBRANCH  15  17
ENDBRANCH  14  15
ENDBRANCH   6  14
TORSDOF 6
ENDMDL
MODEL      100
REMARK 921   NORMALIZED FREE ENERGY PREDICTED BY IDOCK:   -4.89 KCAL/MOL
REMARK 922        TOTAL FREE ENERGY PREDICTED BY IDOCK:   -7.55 KCAL/MOL
REMARK 923 INTER-LIGAND FREE ENERGY PREDICTED BY IDOCK:   -6.77 KCAL/MOL
REMARK 924 INTRA-LIGAND FREE ENERGY PREDICTED BY IDOCK:   -0.78 KCAL/MOL
REMARK 927      BINDING AFFINITY PREDICTED BY RF-SCORE:    0.00 PKD
ROOT
HETATM    1  C   UNL     1      -8.786  11.289  68.925  1.00  0.00    -0.055 C  
HETATM    2  C   UNL     1      -9.322  12.296  67.911  1.00  0.00    -0.190 C  
HETATM    3  C   UNL     1     -10.794  12.213  67.360  1.00  0.00    -0.245 C  
HETATM    4  N   UNL     1     -11.861  12.290  68.414  1.00  0.00    -0.327 NA 
HETATM    5  C   UNL     1     -11.024  13.397  66.320  1.00  0.00    -0.296 A  
HETATM    6  C   UNL     1     -10.963  10.940  66.444  1.00  0.00    -0.088 C  
HETATM    7  C   UNL     1     -10.039  14.358  66.016  1.00  0.00    -0.338 A  
HETATM    8  C   UNL     1     -12.522  14.583  64.778  1.00  0.00    -0.333 A  
HETATM    9  C   UNL     1     -11.864  11.278  69.466  1.00  0.00    -0.357 C  
HETATM   10  C   UNL     1     -11.997  13.607  69.042  1.00  0.00    -0.353 C  
HETATM   11  C   UNL     1     -10.296  15.415  65.137  1.00  0.00    -0.405 A  
HETATM   12  C   UNL     1     -11.538  15.532  64.524  1.00  0.00    -0.283 A  
HETATM   13  C   UNL     1     -12.271  13.531  65.664  1.00  0.00    -0.500 A  
ENDROOT
BRANCH   6  14
HETATM   14  O   UNL     1     -10.619   9.668  66.996  1.00  0.00    -0.241 OA 
BRANCH  14  15
HETATM   15  C   UNL     1      -9.789   8.926  66.219  1.00  0.00    -0.285 C  
HETATM   16  O   UNL     1      -9.167   9.308  65.243  1.00  0.00    -0.224 OA 
BRANCH  15  17
HETATM   17  C   UNL     1      -9.600   7.590  66.821  1.00  0.00    -0.265 A  
HETATM   18  C   UNL     1     -10.316   5.973  68.479  1.00  0.00    -0.207 A  
HETATM   19  C   UNL     1     -10.331   7.273  67.969  1.00  0.00    -0.243 A  
HETATM   20  C   UNL     1      -8.830   6.601  66.198  1.00  0.00    -0.160 A  
HETATM   21  C   UNL     1      -9.580   4.962  67.816  1.00  0.00    -0.148 A  
HETATM   22  C   UNL     1      -8.812   5.288  66.678  1.00  0.00    -0.113 A  
BRANCH  18  23
HETATM   23  O   UNL     1     -11.060   5.594  69.572  1.00  0.00    -0.310 OA 
HETATM   24  C   UNL     1     -11.539   6.642  70.409  1.00  0.00    -0.398 C  
ENDBRANCH  18  23
BRANCH  21  25
HETATM   25  O   UNL     1      -9.633   3.722  68.412  1.00  0.00    -0.162 OA 
HETATM   26  C   UNL     1      -8.653   3.426  69.399  1.00  0.00    -0.069 C  
ENDBRANCH  21  25
BRANCH  22  27
HETATM   27  O   UNL     1      -8.067   4.304  66.084  1.00  0.00    -0.101 OA 
HETATM   28  C   UNL     1      -7.388   4.614  64.871  1.00  0.00    -0.071 C  
ENDBRANCH  22  27
ENDBRANCH  15  17
ENDBRANCH  14  15
ENDBRANCH   6  14
TORSDOF 6
ENDMDL
MODEL      101
REMARK 921   NORMALIZED FREE ENERGY PREDICTED BY IDOCK:   -4.88 KCAL/MOL
REMARK 922        TOTAL FREE ENERGY PREDICTED BY IDOCK:   -7.53 KCAL/MOL
REMARK 923 INTER-LIGAND FREE ENERGY PREDICTED BY IDOCK:   -6.44 KCAL/MOL
REMARK 924 INTRA-LIGAND FREE ENERGY PREDICTED BY IDOCK:   -1.09 KCAL/MOL
REMARK 927      BINDING AFFINITY PREDICTED BY RF-SCORE:    0.00 PKD
ROOT
HETATM    1  C   UNL     1      -8.130   7.038  70.232  1.00  0.00    -0.119 C  
HETATM    2  C   UNL     1      -9.487   7.552  70.703  1.00  0.00    -0.164 C  
HETATM    3  C   UNL     1     -10.775   6.650  70.660  1.00  0.00    -0.241 C  
HETATM    4  N   UNL     1     -10.673   5.379  71.454  1.00  0.00    -0.222 NA 
HETATM    5  C   UNL     1     -12.013   7.490  71.208  1.00  0.00    -0.333 A  
HETATM    6  C   UNL     1     -11.204   6.379  69.167  1.00  0.00    -0.354 C  
HETATM    7  C   UNL     1     -11.899   8.813  71.679  1.00  0.00    -0.399 A  
HETATM    8  C   UNL     1     -14.401   7.598  71.767  1.00  0.00    -0.586 A  
HETATM    9  C   UNL     1      -9.618   4.432  71.105  1.00  0.00    -0.175 C  
HETATM   10  C   UNL     1     -10.659   5.571  72.906  1.00  0.00    -0.229 C  
HETATM   11  C   UNL     1     -12.999   9.501  72.202  1.00  0.00    -0.497 A  
HETATM   12  C   UNL     1     -14.247   8.892  72.253  1.00  0.00    -0.474 A  
HETATM   13  C   UNL     1     -13.301   6.905  71.254  1.00  0.00    -0.205 A  
ENDROOT
BRANCH   6  14
HETATM   14  O   UNL     1     -10.231   5.814  68.284  1.00  0.00    -0.157 OA 
BRANCH  14  15
HETATM   15  C   UNL     1     -10.395   6.153  66.980  1.00  0.00    -0.237 C  
HETATM   16  O   UNL     1     -11.069   5.564  66.151  1.00  0.00    -0.072 OA 
BRANCH  15  17
HETATM   17  C   UNL     1      -9.762   7.462  66.719  1.00  0.00    -0.271 A  
HETATM   18  C   UNL     1      -9.947   9.876  66.803  1.00  0.00    -0.214 A  
HETATM   19  C   UNL     1     -10.538   8.613  66.875  1.00  0.00    -0.270 A  
HETATM   20  C   UNL     1      -8.391   7.581  66.465  1.00  0.00    -0.126 A  
HETATM   21  C   UNL     1      -8.551   9.995  66.601  1.00  0.00    -0.125 A  
HETATM   22  C   UNL     1      -7.772   8.834  66.406  1.00  0.00    -0.099 A  
BRANCH  18  23
HETATM   23  O   UNL     1     -10.653  11.040  67.005  1.00  0.00    -0.231 OA 
HETATM   24  C   UNL     1     -11.186  11.242  68.310  1.00  0.00    -0.267 C  
ENDBRANCH  18  23
BRANCH  21  25
HETATM   25  O   UNL     1      -8.082  11.287  66.542  1.00  0.00    -0.163 OA 
HETATM   26  C   UNL     1      -7.383  11.784  67.677  1.00  0.00    -0.119 C  
ENDBRANCH  21  25
BRANCH  22  27
HETATM   27  O   UNL     1      -6.432   8.975  66.161  1.00  0.00    -0.063 OA 
HETATM   28  C   UNL     1      -5.642   7.796  66.044  1.00  0.00    -0.033 C  
ENDBRANCH  22  27
ENDBRANCH  15  17
ENDBRANCH  14  15
ENDBRANCH   6  14
TORSDOF 6
ENDMDL
MODEL      102
REMARK 921   NORMALIZED FREE ENERGY PREDICTED BY IDOCK:   -4.87 KCAL/MOL
REMARK 922        TOTAL FREE ENERGY PREDICTED BY IDOCK:   -7.52 KCAL/MOL
REMARK 923 INTER-LIGAND FREE ENERGY PREDICTED BY IDOCK:   -6.67 KCAL/MOL
REMARK 924 INTRA-LIGAND FREE ENERGY PREDICTED BY IDOCK:   -0.85 KCAL/MOL
REMARK 927      BINDING AFFINITY PREDICTED BY RF-SCORE:    0.00 PKD
ROOT
HETATM    1  C   UNL     1      -7.392  10.593  69.592  1.00  0.00    -0.133 C  
HETATM    2  C   UNL     1      -7.975   9.232  69.222  1.00  0.00    -0.098 C  
HETATM    3  C   UNL     1      -9.046   9.073  68.080  1.00  0.00    -0.136 C  
HETATM    4  N   UNL     1      -8.595   9.553  66.731  1.00  0.00    -0.127 NA 
HETATM    5  C   UNL     1      -9.449   7.536  67.960  1.00  0.00    -0.149 A  
HETATM    6  C   UNL     1     -10.411   9.732  68.514  1.00  0.00    -0.210 C  
HETATM    7  C   UNL     1      -8.872   6.524  68.753  1.00  0.00    -0.125 A  
HETATM    8  C   UNL     1     -10.764   5.785  66.850  1.00  0.00    -0.381 A  
HETATM    9  C   UNL     1      -8.201  10.952  66.594  1.00  0.00    -0.145 C  
HETATM   10  C   UNL     1      -7.565   8.721  66.105  1.00  0.00    -0.094 C  
HETATM   11  C   UNL     1      -9.213   5.178  68.583  1.00  0.00    -0.150 A  
HETATM   12  C   UNL     1     -10.152   4.808  67.628  1.00  0.00    -0.142 A  
HETATM   13  C   UNL     1     -10.417   7.130  67.011  1.00  0.00    -0.392 A  
ENDROOT
BRANCH   6  14
HETATM   14  O   UNL     1     -10.392  11.102  68.922  1.00  0.00    -0.195 OA 
BRANCH  14  15
HETATM   15  C   UNL     1     -11.476  11.819  68.528  1.00  0.00    -0.296 C  
HETATM   16  O   UNL     1     -12.615  11.710  68.949  1.00  0.00    -0.127 OA 
BRANCH  15  17
HETATM   17  C   UNL     1     -11.057  12.897  67.610  1.00  0.00    -0.297 A  
HETATM   18  C   UNL     1     -11.495  14.133  65.572  1.00  0.00    -0.324 A  
HETATM   19  C   UNL     1     -11.738  13.034  66.398  1.00  0.00    -0.444 A  
HETATM   20  C   UNL     1     -10.108  13.856  67.982  1.00  0.00    -0.244 A  
HETATM   21  C   UNL     1     -10.574  15.131  65.975  1.00  0.00    -0.322 A  
HETATM   22  C   UNL     1      -9.858  14.975  67.181  1.00  0.00    -0.233 A  
BRANCH  18  23
HETATM   23  O   UNL     1     -12.177  14.347  64.396  1.00  0.00    -0.483 OA 
HETATM   24  C   UNL     1     -12.138  13.292  63.439  1.00  0.00    -0.439 C  
ENDBRANCH  18  23
BRANCH  21  25
HETATM   25  O   UNL     1     -10.411  16.163  65.080  1.00  0.00    -0.573 OA 
HETATM   26  C   UNL     1     -10.876  17.450  65.469  1.00  0.00     0.001 C  
ENDBRANCH  21  25
BRANCH  22  27
HETATM   27  O   UNL     1      -8.935  15.927  67.525  1.00  0.00    -0.190 OA 
HETATM   28  C   UNL     1      -7.615  15.803  67.007  1.00  0.00    -0.222 C  
ENDBRANCH  22  27
ENDBRANCH  15  17
ENDBRANCH  14  15
ENDBRANCH   6  14
TORSDOF 6
ENDMDL
MODEL      103
REMARK 921   NORMALIZED FREE ENERGY PREDICTED BY IDOCK:   -4.87 KCAL/MOL
REMARK 922        TOTAL FREE ENERGY PREDICTED BY IDOCK:   -7.51 KCAL/MOL
REMARK 923 INTER-LIGAND FREE ENERGY PREDICTED BY IDOCK:   -6.71 KCAL/MOL
REMARK 924 INTRA-LIGAND FREE ENERGY PREDICTED BY IDOCK:   -0.80 KCAL/MOL
REMARK 927      BINDING AFFINITY PREDICTED BY RF-SCORE:    0.00 PKD
ROOT
HETATM    1  C   UNL     1      -7.770   8.008  67.415  1.00  0.00    -0.102 C  
HETATM    2  C   UNL     1      -7.893   6.915  68.472  1.00  0.00    -0.118 C  
HETATM    3  C   UNL     1      -9.280   6.526  69.104  1.00  0.00    -0.135 C  
HETATM    4  N   UNL     1     -10.310   6.064  68.113  1.00  0.00    -0.182 NA 
HETATM    5  C   UNL     1      -9.054   5.367  70.174  1.00  0.00    -0.165 A  
HETATM    6  C   UNL     1      -9.819   7.700  70.009  1.00  0.00    -0.180 C  
HETATM    7  C   UNL     1      -7.793   4.797  70.437  1.00  0.00    -0.061 A  
HETATM    8  C   UNL     1      -9.998   3.805  71.817  1.00  0.00    -0.227 A  
HETATM    9  C   UNL     1     -10.699   6.982  67.047  1.00  0.00    -0.353 C  
HETATM   10  C   UNL     1     -10.031   4.756  67.515  1.00  0.00    -0.144 C  
HETATM   11  C   UNL     1      -7.641   3.744  71.346  1.00  0.00    -0.056 A  
HETATM   12  C   UNL     1      -8.743   3.244  72.030  1.00  0.00    -0.114 A  
HETATM   13  C   UNL     1     -10.153   4.851  70.901  1.00  0.00    -0.292 A  
ENDROOT
BRANCH   6  14
HETATM   14  O   UNL     1      -9.943   8.996  69.417  1.00  0.00    -0.181 OA 
BRANCH  14  15
HETATM   15  C   UNL     1     -11.124   9.616  69.671  1.00  0.00    -0.193 C  
HETATM   16  O   UNL     1     -11.874   9.404  70.609  1.00  0.00    -0.265 OA 
BRANCH  15  17
HETATM   17  C   UNL     1     -11.317  10.733  68.724  1.00  0.00    -0.352 A  
HETATM   18  C   UNL     1     -11.717  13.103  68.411  1.00  0.00    -0.351 A  
HETATM   19  C   UNL     1     -11.684  11.979  69.239  1.00  0.00    -0.389 A  
HETATM   20  C   UNL     1     -11.004  10.612  67.366  1.00  0.00    -0.361 A  
HETATM   21  C   UNL     1     -11.348  12.989  67.049  1.00  0.00    -0.301 A  
HETATM   22  C   UNL     1     -11.012  11.725  66.519  1.00  0.00    -0.295 A  
BRANCH  18  23
HETATM   23  O   UNL     1     -12.017  14.362  68.877  1.00  0.00    -0.318 OA 
HETATM   24  C   UNL     1     -12.572  14.439  70.186  1.00  0.00    -0.286 C  
ENDBRANCH  18  23
BRANCH  21  25
HETATM   25  O   UNL     1     -11.423  14.159  66.329  1.00  0.00    -0.332 OA 
HETATM   26  C   UNL     1     -12.591  14.375  65.545  1.00  0.00    -0.333 C  
ENDBRANCH  21  25
BRANCH  22  27
HETATM   27  O   UNL     1     -10.708  11.631  65.187  1.00  0.00    -0.282 OA 
HETATM   28  C   UNL     1      -9.945  10.511  64.748  1.00  0.00    -0.345 C  
ENDBRANCH  22  27
ENDBRANCH  15  17
ENDBRANCH  14  15
ENDBRANCH   6  14
TORSDOF 6
ENDMDL
MODEL      104
REMARK 921   NORMALIZED FREE ENERGY PREDICTED BY IDOCK:   -4.86 KCAL/MOL
REMARK 922        TOTAL FREE ENERGY PREDICTED BY IDOCK:   -7.50 KCAL/MOL
REMARK 923 INTER-LIGAND FREE ENERGY PREDICTED BY IDOCK:   -6.41 KCAL/MOL
REMARK 924 INTRA-LIGAND FREE ENERGY PREDICTED BY IDOCK:   -1.09 KCAL/MOL
REMARK 927      BINDING AFFINITY PREDICTED BY RF-SCORE:    0.00 PKD
ROOT
HETATM    1  C   UNL     1     -10.668  14.407  65.832  1.00  0.00    -0.308 C  
HETATM    2  C   UNL     1     -11.310  14.635  67.198  1.00  0.00    -0.365 C  
HETATM    3  C   UNL     1     -10.495  15.226  68.407  1.00  0.00    -0.236 C  
HETATM    4  N   UNL     1      -9.899  16.581  68.156  1.00  0.00    -0.239 NA 
HETATM    5  C   UNL     1     -11.453  15.323  69.677  1.00  0.00    -0.321 A  
HETATM    6  C   UNL     1      -9.414  14.188  68.898  1.00  0.00    -0.025 C  
HETATM    7  C   UNL     1     -12.814  14.960  69.645  1.00  0.00     0.153 A  
HETATM    8  C   UNL     1     -11.773  15.948  72.029  1.00  0.00    -0.588 A  
HETATM    9  C   UNL     1      -8.959  16.724  67.048  1.00  0.00    -0.206 C  
HETATM   10  C   UNL     1     -10.878  17.667  68.073  1.00  0.00    -0.234 C  
HETATM   11  C   UNL     1     -13.638  15.109  70.766  1.00  0.00    -0.299 A  
HETATM   12  C   UNL     1     -13.120  15.609  71.954  1.00  0.00    -0.545 A  
HETATM   13  C   UNL     1     -10.951  15.810  70.907  1.00  0.00    -0.277 A  
ENDROOT
BRANCH   6  14
HETATM   14  O   UNL     1      -8.484  13.686  67.935  1.00  0.00    -0.153 OA 
BRANCH  14  15
HETATM   15  C   UNL     1      -7.774  12.606  68.351  1.00  0.00    -0.133 C  
HETATM   16  O   UNL     1      -6.796  12.612  69.080  1.00  0.00    -0.097 OA 
BRANCH  15  17
HETATM   17  C   UNL     1      -8.455  11.366  67.928  1.00  0.00    -0.139 A  
HETATM   18  C   UNL     1      -9.640   9.357  68.585  1.00  0.00    -0.147 A  
HETATM   19  C   UNL     1      -8.850  10.460  68.915  1.00  0.00    -0.161 A  
HETATM   20  C   UNL     1      -8.836  11.149  66.599  1.00  0.00    -0.168 A  
HETATM   21  C   UNL     1     -10.070   9.169  67.249  1.00  0.00    -0.233 A  
HETATM   22  C   UNL     1      -9.642  10.062  66.245  1.00  0.00    -0.202 A  
BRANCH  18  23
HETATM   23  O   UNL     1     -10.104   8.465  69.525  1.00  0.00    -0.190 OA 
HETATM   24  C   UNL     1     -10.996   8.983  70.507  1.00  0.00    -0.252 C  
ENDBRANCH  18  23
BRANCH  21  25
HETATM   25  O   UNL     1     -10.839   8.046  67.041  1.00  0.00    -0.283 OA 
HETATM   26  C   UNL     1     -10.170   6.858  66.635  1.00  0.00    -0.145 C  
ENDBRANCH  21  25
BRANCH  22  27
HETATM   27  O   UNL     1     -10.028   9.831  64.951  1.00  0.00    -0.252 OA 
HETATM   28  C   UNL     1     -10.329  10.954  64.128  1.00  0.00    -0.364 C  
ENDBRANCH  22  27
ENDBRANCH  15  17
ENDBRANCH  14  15
ENDBRANCH   6  14
TORSDOF 6
ENDMDL
MODEL      105
REMARK 921   NORMALIZED FREE ENERGY PREDICTED BY IDOCK:   -4.85 KCAL/MOL
REMARK 922        TOTAL FREE ENERGY PREDICTED BY IDOCK:   -7.49 KCAL/MOL
REMARK 923 INTER-LIGAND FREE ENERGY PREDICTED BY IDOCK:   -6.56 KCAL/MOL
REMARK 924 INTRA-LIGAND FREE ENERGY PREDICTED BY IDOCK:   -0.93 KCAL/MOL
REMARK 927      BINDING AFFINITY PREDICTED BY RF-SCORE:    0.00 PKD
ROOT
HETATM    1  C   UNL     1     -11.658  11.640  67.467  1.00  0.00    -0.345 C  
HETATM    2  C   UNL     1     -11.296  13.121  67.530  1.00  0.00    -0.336 C  
HETATM    3  C   UNL     1     -10.144  13.731  66.648  1.00  0.00    -0.277 C  
HETATM    4  N   UNL     1     -10.333  13.557  65.169  1.00  0.00    -0.347 NA 
HETATM    5  C   UNL     1     -10.021  15.287  66.963  1.00  0.00    -0.235 A  
HETATM    6  C   UNL     1      -8.743  13.191  67.131  1.00  0.00    -0.213 C  
HETATM    7  C   UNL     1     -10.866  15.960  67.868  1.00  0.00    -0.327 A  
HETATM    8  C   UNL     1      -8.928  17.443  66.529  1.00  0.00    -0.285 A  
HETATM    9  C   UNL     1     -10.443  12.200  64.643  1.00  0.00    -0.299 C  
HETATM   10  C   UNL     1     -11.416  14.362  64.598  1.00  0.00    -0.387 C  
HETATM   11  C   UNL     1     -10.761  17.339  68.080  1.00  0.00    -0.367 A  
HETATM   12  C   UNL     1      -9.799  18.081  67.406  1.00  0.00    -0.309 A  
HETATM   13  C   UNL     1      -9.037  16.066  66.308  1.00  0.00    -0.379 A  
ENDROOT
BRANCH   6  14
HETATM   14  O   UNL     1      -8.557  11.775  67.194  1.00  0.00    -0.155 OA 
BRANCH  14  15
HETATM   15  C   UNL     1      -7.905  11.345  68.304  1.00  0.00    -0.132 C  
HETATM   16  O   UNL     1      -7.163  12.001  69.015  1.00  0.00    -0.108 OA 
BRANCH  15  17
HETATM   17  C   UNL     1      -8.348   9.978  68.648  1.00  0.00    -0.116 A  
HETATM   18  C   UNL     1      -9.269   8.487  70.322  1.00  0.00    -0.158 A  
HETATM   19  C   UNL     1      -8.687   9.709  69.976  1.00  0.00    -0.256 A  
HETATM   20  C   UNL     1      -8.572   9.006  67.666  1.00  0.00    -0.120 A  
HETATM   21  C   UNL     1      -9.544   7.526  69.320  1.00  0.00    -0.158 A  
HETATM   22  C   UNL     1      -9.169   7.781  67.984  1.00  0.00    -0.138 A  
BRANCH  18  23
HETATM   23  O   UNL     1      -9.673   8.192  71.603  1.00  0.00    -0.158 OA 
HETATM   24  C   UNL     1      -8.708   8.384  72.634  1.00  0.00    -0.197 C  
ENDBRANCH  18  23
BRANCH  21  25
HETATM   25  O   UNL     1     -10.112   6.359  69.778  1.00  0.00    -0.169 OA 
HETATM   26  C   UNL     1     -11.524   6.228  69.669  1.00  0.00    -0.355 C  
ENDBRANCH  21  25
BRANCH  22  27
HETATM   27  O   UNL     1      -9.398   6.815  67.040  1.00  0.00    -0.133 OA 
HETATM   28  C   UNL     1      -8.701   6.905  65.802  1.00  0.00    -0.106 C  
ENDBRANCH  22  27
ENDBRANCH  15  17
ENDBRANCH  14  15
ENDBRANCH   6  14
TORSDOF 6
ENDMDL
MODEL      106
REMARK 921   NORMALIZED FREE ENERGY PREDICTED BY IDOCK:   -4.85 KCAL/MOL
REMARK 922        TOTAL FREE ENERGY PREDICTED BY IDOCK:   -7.48 KCAL/MOL
REMARK 923 INTER-LIGAND FREE ENERGY PREDICTED BY IDOCK:   -6.46 KCAL/MOL
REMARK 924 INTRA-LIGAND FREE ENERGY PREDICTED BY IDOCK:   -1.02 KCAL/MOL
REMARK 927      BINDING AFFINITY PREDICTED BY RF-SCORE:    0.00 PKD
ROOT
HETATM    1  C   UNL     1     -11.085  10.568  66.741  1.00  0.00    -0.061 C  
HETATM    2  C   UNL     1     -11.415  11.645  67.770  1.00  0.00    -0.373 C  
HETATM    3  C   UNL     1     -10.720  13.057  67.744  1.00  0.00    -0.229 C  
HETATM    4  N   UNL     1     -10.917  13.826  66.469  1.00  0.00    -0.297 NA 
HETATM    5  C   UNL     1     -11.278  13.930  68.953  1.00  0.00    -0.304 A  
HETATM    6  C   UNL     1      -9.194  12.922  68.120  1.00  0.00    -0.212 C  
HETATM    7  C   UNL     1     -12.267  13.469  69.845  1.00  0.00    -0.356 A  
HETATM    8  C   UNL     1     -11.291  16.053  70.187  1.00  0.00    -0.369 A  
HETATM    9  C   UNL     1     -10.450  13.226  65.224  1.00  0.00    -0.313 C  
HETATM   10  C   UNL     1     -12.282  14.314  66.262  1.00  0.00    -0.410 C  
HETATM   11  C   UNL     1     -12.771  14.285  70.864  1.00  0.00    -0.427 A  
HETATM   12  C   UNL     1     -12.289  15.577  71.030  1.00  0.00    -0.471 A  
HETATM   13  C   UNL     1     -10.793  15.243  69.161  1.00  0.00    -0.250 A  
ENDROOT
BRANCH   6  14
HETATM   14  O   UNL     1      -8.395  12.014  67.357  1.00  0.00    -0.154 OA 
BRANCH  14  15
HETATM   15  C   UNL     1      -7.537  11.266  68.097  1.00  0.00    -0.105 C  
HETATM   16  O   UNL     1      -6.413  11.580  68.450  1.00  0.00    -0.050 OA 
BRANCH  15  17
HETATM   17  C   UNL     1      -8.219  10.046  68.574  1.00  0.00    -0.108 A  
HETATM   18  C   UNL     1      -8.583   7.666  68.299  1.00  0.00    -0.124 A  
HETATM   19  C   UNL     1      -8.100   8.882  67.810  1.00  0.00    -0.106 A  
HETATM   20  C   UNL     1      -8.847   9.992  69.823  1.00  0.00    -0.205 A  
HETATM   21  C   UNL     1      -9.169   7.603  69.586  1.00  0.00    -0.146 A  
HETATM   22  C   UNL     1      -9.323   8.784  70.343  1.00  0.00    -0.180 A  
BRANCH  18  23
HETATM   23  O   UNL     1      -8.443   6.481  67.614  1.00  0.00    -0.117 OA 
HETATM   24  C   UNL     1      -7.111   6.060  67.338  1.00  0.00    -0.074 C  
ENDBRANCH  18  23
BRANCH  21  25
HETATM   25  O   UNL     1      -9.614   6.355  69.959  1.00  0.00    -0.158 OA 
HETATM   26  C   UNL     1     -11.003   6.082  69.815  1.00  0.00    -0.401 C  
ENDBRANCH  21  25
BRANCH  22  27
HETATM   27  O   UNL     1      -9.940   8.707  71.563  1.00  0.00    -0.220 OA 
HETATM   28  C   UNL     1      -9.141   8.403  72.702  1.00  0.00    -0.241 C  
ENDBRANCH  22  27
ENDBRANCH  15  17
ENDBRANCH  14  15
ENDBRANCH   6  14
TORSDOF 6
ENDMDL
MODEL      107
REMARK 921   NORMALIZED FREE ENERGY PREDICTED BY IDOCK:   -4.85 KCAL/MOL
REMARK 922        TOTAL FREE ENERGY PREDICTED BY IDOCK:   -7.48 KCAL/MOL
REMARK 923 INTER-LIGAND FREE ENERGY PREDICTED BY IDOCK:   -6.80 KCAL/MOL
REMARK 924 INTRA-LIGAND FREE ENERGY PREDICTED BY IDOCK:   -0.68 KCAL/MOL
REMARK 927      BINDING AFFINITY PREDICTED BY RF-SCORE:    0.00 PKD
ROOT
HETATM    1  C   UNL     1     -12.713   7.630  71.438  1.00  0.00    -0.357 C  
HETATM    2  C   UNL     1     -11.703   6.666  70.822  1.00  0.00    -0.445 C  
HETATM    3  C   UNL     1     -10.178   7.034  70.698  1.00  0.00    -0.191 C  
HETATM    4  N   UNL     1      -9.502   7.341  72.003  1.00  0.00    -0.134 NA 
HETATM    5  C   UNL     1      -9.410   5.823  70.004  1.00  0.00    -0.175 A  
HETATM    6  C   UNL     1      -9.977   8.190  69.644  1.00  0.00    -0.193 C  
HETATM    7  C   UNL     1     -10.045   4.624  69.622  1.00  0.00    -0.232 A  
HETATM    8  C   UNL     1      -7.305   4.854  69.191  1.00  0.00    -0.053 A  
HETATM    9  C   UNL     1     -10.023   8.443  72.805  1.00  0.00    -0.215 C  
HETATM   10  C   UNL     1      -9.319   6.180  72.878  1.00  0.00    -0.143 C  
HETATM   11  C   UNL     1      -9.327   3.562  69.063  1.00  0.00    -0.240 A  
HETATM   12  C   UNL     1      -7.958   3.673  68.854  1.00  0.00    -0.062 A  
HETATM   13  C   UNL     1      -8.019   5.914  69.759  1.00  0.00    -0.101 A  
ENDROOT
BRANCH   6  14
HETATM   14  O   UNL     1     -10.715   9.400  69.831  1.00  0.00    -0.216 OA 
BRANCH  14  15
HETATM   15  C   UNL     1     -10.875  10.138  68.703  1.00  0.00    -0.235 C  
HETATM   16  O   UNL     1     -10.971   9.718  67.562  1.00  0.00    -0.275 OA 
BRANCH  15  17
HETATM   17  C   UNL     1     -11.088  11.556  69.058  1.00  0.00    -0.302 A  
HETATM   18  C   UNL     1     -10.691  13.883  68.511  1.00  0.00    -0.257 A  
HETATM   19  C   UNL     1     -10.401  12.530  68.328  1.00  0.00    -0.241 A  
HETATM   20  C   UNL     1     -12.053  11.946  69.994  1.00  0.00    -0.366 A  
HETATM   21  C   UNL     1     -11.706  14.273  69.418  1.00  0.00    -0.316 A  
HETATM   22  C   UNL     1     -12.374  13.294  70.183  1.00  0.00    -0.236 A  
BRANCH  18  23
HETATM   23  O   UNL     1     -10.086  14.880  67.780  1.00  0.00    -0.232 OA 
HETATM   24  C   UNL     1      -8.722  15.154  68.088  1.00  0.00    -0.167 C  
ENDBRANCH  18  23
BRANCH  21  25
HETATM   25  O   UNL     1     -11.900  15.632  69.520  1.00  0.00    -0.347 OA 
HETATM   26  C   UNL     1     -11.285  16.303  70.614  1.00  0.00    -0.288 C  
ENDBRANCH  21  25
BRANCH  22  27
HETATM   27  O   UNL     1     -13.316  13.699  71.091  1.00  0.00    -0.238 OA 
HETATM   28  C   UNL     1     -13.428  12.974  72.312  1.00  0.00    -0.547 C  
ENDBRANCH  22  27
ENDBRANCH  15  17
ENDBRANCH  14  15
ENDBRANCH   6  14
TORSDOF 6
ENDMDL
MODEL      108
REMARK 921   NORMALIZED FREE ENERGY PREDICTED BY IDOCK:   -4.84 KCAL/MOL
REMARK 922        TOTAL FREE ENERGY PREDICTED BY IDOCK:   -7.47 KCAL/MOL
REMARK 923 INTER-LIGAND FREE ENERGY PREDICTED BY IDOCK:   -6.67 KCAL/MOL
REMARK 924 INTRA-LIGAND FREE ENERGY PREDICTED BY IDOCK:   -0.80 KCAL/MOL
REMARK 927      BINDING AFFINITY PREDICTED BY RF-SCORE:    0.00 PKD
ROOT
HETATM    1  C   UNL     1     -11.161   9.459  71.394  1.00  0.00    -0.450 C  
HETATM    2  C   UNL     1     -10.771   7.996  71.206  1.00  0.00    -0.265 C  
HETATM    3  C   UNL     1      -9.708   7.553  70.133  1.00  0.00    -0.172 C  
HETATM    4  N   UNL     1      -8.353   8.178  70.302  1.00  0.00    -0.122 NA 
HETATM    5  C   UNL     1      -9.544   5.970  70.190  1.00  0.00    -0.192 A  
HETATM    6  C   UNL     1     -10.277   7.767  68.678  1.00  0.00    -0.201 C  
HETATM    7  C   UNL     1     -10.240   5.156  71.106  1.00  0.00    -0.291 A  
HETATM    8  C   UNL     1      -8.454   3.935  69.355  1.00  0.00    -0.093 A  
HETATM    9  C   UNL     1      -8.255   9.634  70.255  1.00  0.00    -0.191 C  
HETATM   10  C   UNL     1      -7.609   7.705  71.472  1.00  0.00    -0.081 C  
HETATM   11  C   UNL     1     -10.031   3.773  71.162  1.00  0.00    -0.144 A  
HETATM   12  C   UNL     1      -9.134   3.164  70.293  1.00  0.00    -0.194 A  
HETATM   13  C   UNL     1      -8.654   5.318  69.304  1.00  0.00    -0.102 A  
ENDROOT
BRANCH   6  14
HETATM   14  O   UNL     1     -10.749   9.071  68.330  1.00  0.00    -0.191 OA 
BRANCH  14  15
HETATM   15  C   UNL     1     -10.298   9.529  67.134  1.00  0.00    -0.253 C  
HETATM   16  O   UNL     1      -9.766   8.874  66.254  1.00  0.00    -0.240 OA 
BRANCH  15  17
HETATM   17  C   UNL     1     -10.692  10.942  66.958  1.00  0.00    -0.323 A  
HETATM   18  C   UNL     1     -10.434  13.242  67.674  1.00  0.00    -0.229 A  
HETATM   19  C   UNL     1     -10.230  11.877  67.887  1.00  0.00    -0.203 A  
HETATM   20  C   UNL     1     -11.384  11.379  65.823  1.00  0.00    -0.077 A  
HETATM   21  C   UNL     1     -11.086  13.686  66.499  1.00  0.00    -0.305 A  
HETATM   22  C   UNL     1     -11.586  12.741  65.578  1.00  0.00    -0.362 A  
BRANCH  18  23
HETATM   23  O   UNL     1      -9.951  14.208  68.527  1.00  0.00    -0.229 OA 
HETATM   24  C   UNL     1      -8.537  14.265  68.688  1.00  0.00    -0.149 C  
ENDBRANCH  18  23
BRANCH  21  25
HETATM   25  O   UNL     1     -11.236  15.050  66.399  1.00  0.00    -0.342 OA 
HETATM   26  C   UNL     1     -10.413  15.735  65.462  1.00  0.00    -0.403 C  
ENDBRANCH  21  25
BRANCH  22  27
HETATM   27  O   UNL     1     -12.259  13.192  64.473  1.00  0.00    -0.384 OA 
HETATM   28  C   UNL     1     -12.521  12.268  63.422  1.00  0.00    -0.481 C  
ENDBRANCH  22  27
ENDBRANCH  15  17
ENDBRANCH  14  15
ENDBRANCH   6  14
TORSDOF 6
ENDMDL
MODEL      109
REMARK 921   NORMALIZED FREE ENERGY PREDICTED BY IDOCK:   -4.83 KCAL/MOL
REMARK 922        TOTAL FREE ENERGY PREDICTED BY IDOCK:   -7.46 KCAL/MOL
REMARK 923 INTER-LIGAND FREE ENERGY PREDICTED BY IDOCK:   -6.72 KCAL/MOL
REMARK 924 INTRA-LIGAND FREE ENERGY PREDICTED BY IDOCK:   -0.74 KCAL/MOL
REMARK 927      BINDING AFFINITY PREDICTED BY RF-SCORE:    0.00 PKD
ROOT
HETATM    1  C   UNL     1     -11.409   9.900  71.323  1.00  0.00    -0.404 C  
HETATM    2  C   UNL     1     -11.099   8.420  71.531  1.00  0.00    -0.329 C  
HETATM    3  C   UNL     1      -9.982   7.684  70.701  1.00  0.00    -0.183 C  
HETATM    4  N   UNL     1      -8.609   8.274  70.841  1.00  0.00    -0.129 NA 
HETATM    5  C   UNL     1      -9.925   6.157  71.154  1.00  0.00    -0.218 A  
HETATM    6  C   UNL     1     -10.418   7.557  69.191  1.00  0.00    -0.215 C  
HETATM    7  C   UNL     1     -10.742   5.623  72.170  1.00  0.00    -0.287 A  
HETATM    8  C   UNL     1      -8.901   3.936  70.941  1.00  0.00    -0.133 A  
HETATM    9  C   UNL     1      -8.416   9.668  70.454  1.00  0.00    -0.146 C  
HETATM   10  C   UNL     1      -7.994   8.073  72.155  1.00  0.00    -0.121 C  
HETATM   11  C   UNL     1     -10.626   4.290  72.577  1.00  0.00    -0.183 A  
HETATM   12  C   UNL     1      -9.702   3.449  71.968  1.00  0.00    -0.234 A  
HETATM   13  C   UNL     1      -9.008   5.271  70.539  1.00  0.00    -0.162 A  
ENDROOT
BRANCH   6  14
HETATM   14  O   UNL     1     -10.777   8.753  68.496  1.00  0.00    -0.168 OA 
BRANCH  14  15
HETATM   15  C   UNL     1     -10.275   8.842  67.238  1.00  0.00    -0.258 C  
HETATM   16  O   UNL     1     -10.096   7.923  66.456  1.00  0.00    -0.246 OA 
BRANCH  15  17
HETATM   17  C   UNL     1     -10.116  10.261  66.860  1.00  0.00    -0.274 A  
HETATM   18  C   UNL     1     -10.357  11.962  65.151  1.00  0.00    -0.277 A  
HETATM   19  C   UNL     1     -10.330  10.617  65.526  1.00  0.00    -0.297 A  
HETATM   20  C   UNL     1      -9.905  11.260  67.817  1.00  0.00    -0.186 A  
HETATM   21  C   UNL     1     -10.196  12.973  66.129  1.00  0.00    -0.284 A  
HETATM   22  C   UNL     1      -9.944  12.615  67.470  1.00  0.00    -0.205 A  
BRANCH  18  23
HETATM   23  O   UNL     1     -10.617  12.370  63.863  1.00  0.00    -0.370 OA 
HETATM   24  C   UNL     1     -11.976  12.303  63.438  1.00  0.00    -0.494 C  
ENDBRANCH  18  23
BRANCH  21  25
HETATM   25  O   UNL     1     -10.235  14.260  65.643  1.00  0.00    -0.313 OA 
HETATM   26  C   UNL     1     -11.409  15.023  65.896  1.00  0.00    -0.273 C  
ENDBRANCH  21  25
BRANCH  22  27
HETATM   27  O   UNL     1      -9.741  13.610  68.389  1.00  0.00    -0.224 OA 
HETATM   28  C   UNL     1      -8.406  14.042  68.629  1.00  0.00    -0.104 C  
ENDBRANCH  22  27
ENDBRANCH  15  17
ENDBRANCH  14  15
ENDBRANCH   6  14
TORSDOF 6
ENDMDL
MODEL      110
REMARK 921   NORMALIZED FREE ENERGY PREDICTED BY IDOCK:   -4.82 KCAL/MOL
REMARK 922        TOTAL FREE ENERGY PREDICTED BY IDOCK:   -7.45 KCAL/MOL
REMARK 923 INTER-LIGAND FREE ENERGY PREDICTED BY IDOCK:   -6.69 KCAL/MOL
REMARK 924 INTRA-LIGAND FREE ENERGY PREDICTED BY IDOCK:   -0.76 KCAL/MOL
REMARK 927      BINDING AFFINITY PREDICTED BY RF-SCORE:    0.00 PKD
ROOT
HETATM    1  C   UNL     1     -11.253  11.397  66.257  1.00  0.00    -0.228 C  
HETATM    2  C   UNL     1     -10.699  10.313  67.178  1.00  0.00    -0.303 C  
HETATM    3  C   UNL     1     -10.143  10.649  68.611  1.00  0.00    -0.183 C  
HETATM    4  N   UNL     1     -11.135  11.305  69.527  1.00  0.00    -0.252 NA 
HETATM    5  C   UNL     1      -9.635   9.303  69.296  1.00  0.00    -0.161 A  
HETATM    6  C   UNL     1      -8.806  11.478  68.499  1.00  0.00    -0.139 C  
HETATM    7  C   UNL     1      -9.734   8.040  68.680  1.00  0.00    -0.163 A  
HETATM    8  C   UNL     1      -8.651   8.173  71.241  1.00  0.00    -0.162 A  
HETATM    9  C   UNL     1     -11.717  12.578  69.113  1.00  0.00    -0.321 C  
HETATM   10  C   UNL     1     -12.219  10.427  69.975  1.00  0.00    -0.189 C  
HETATM   11  C   UNL     1      -9.325   6.873  69.335  1.00  0.00    -0.146 A  
HETATM   12  C   UNL     1      -8.792   6.938  70.616  1.00  0.00    -0.150 A  
HETATM   13  C   UNL     1      -9.068   9.339  70.592  1.00  0.00    -0.309 A  
ENDROOT
BRANCH   6  14
HETATM   14  O   UNL     1      -8.831  12.686  67.734  1.00  0.00    -0.161 OA 
BRANCH  14  15
HETATM   15  C   UNL     1      -7.919  13.614  68.121  1.00  0.00    -0.148 C  
HETATM   16  O   UNL     1      -6.725  13.436  68.295  1.00  0.00    -0.083 OA 
BRANCH  15  17
HETATM   17  C   UNL     1      -8.545  14.951  68.152  1.00  0.00    -0.159 A  
HETATM   18  C   UNL     1      -8.949  17.047  67.005  1.00  0.00    -0.221 A  
HETATM   19  C   UNL     1      -8.258  15.839  67.113  1.00  0.00    -0.237 A  
HETATM   20  C   UNL     1      -9.515  15.290  69.102  1.00  0.00    -0.236 A  
HETATM   21  C   UNL     1      -9.968  17.365  67.936  1.00  0.00    -0.301 A  
HETATM   22  C   UNL     1     -10.234  16.486  69.008  1.00  0.00    -0.285 A  
BRANCH  18  23
HETATM   23  O   UNL     1      -8.746  17.932  65.972  1.00  0.00    -0.492 OA 
HETATM   24  C   UNL     1      -7.511  18.643  65.979  1.00  0.00    -0.230 C  
ENDBRANCH  18  23
BRANCH  21  25
HETATM   25  O   UNL     1     -10.576  18.583  67.736  1.00  0.00    -0.406 OA 
HETATM   26  C   UNL     1     -10.127  19.679  68.524  1.00  0.00    -0.453 C  
ENDBRANCH  21  25
BRANCH  22  27
HETATM   27  O   UNL     1     -11.188  16.838  69.925  1.00  0.00    -0.150 OA 
HETATM   28  C   UNL     1     -11.445  15.946  71.005  1.00  0.00    -0.418 C  
ENDBRANCH  22  27
ENDBRANCH  15  17
ENDBRANCH  14  15
ENDBRANCH   6  14
TORSDOF 6
ENDMDL
MODEL      111
REMARK 921   NORMALIZED FREE ENERGY PREDICTED BY IDOCK:   -4.82 KCAL/MOL
REMARK 922        TOTAL FREE ENERGY PREDICTED BY IDOCK:   -7.45 KCAL/MOL
REMARK 923 INTER-LIGAND FREE ENERGY PREDICTED BY IDOCK:   -6.67 KCAL/MOL
REMARK 924 INTRA-LIGAND FREE ENERGY PREDICTED BY IDOCK:   -0.78 KCAL/MOL
REMARK 927      BINDING AFFINITY PREDICTED BY RF-SCORE:    0.00 PKD
ROOT
HETATM    1  C   UNL     1     -12.192  13.917  67.614  1.00  0.00    -0.232 C  
HETATM    2  C   UNL     1     -11.562  15.306  67.557  1.00  0.00    -0.223 C  
HETATM    3  C   UNL     1     -10.323  15.616  66.639  1.00  0.00    -0.289 C  
HETATM    4  N   UNL     1     -10.549  15.358  65.177  1.00  0.00    -0.420 NA 
HETATM    5  C   UNL     1      -9.912  17.144  66.824  1.00  0.00    -0.291 A  
HETATM    6  C   UNL     1      -9.042  14.870  67.177  1.00  0.00    -0.222 C  
HETATM    7  C   UNL     1     -10.613  18.035  67.662  1.00  0.00    -0.413 A  
HETATM    8  C   UNL     1      -8.443  19.017  66.222  1.00  0.00    -0.289 A  
HETATM    9  C   UNL     1     -10.911  14.005  64.765  1.00  0.00    -0.419 C  
HETATM   10  C   UNL     1     -11.469  16.298  64.531  1.00  0.00    -0.169 C  
HETATM   11  C   UNL     1     -10.254  19.384  67.758  1.00  0.00    -0.530 A  
HETATM   12  C   UNL     1      -9.176  19.876  67.034  1.00  0.00    -0.472 A  
HETATM   13  C   UNL     1      -8.806  17.671  66.116  1.00  0.00    -0.138 A  
ENDROOT
BRANCH   6  14
HETATM   14  O   UNL     1      -9.121  13.454  67.360  1.00  0.00    -0.196 OA 
BRANCH  14  15
HETATM   15  C   UNL     1      -7.992  12.890  67.860  1.00  0.00    -0.156 C  
HETATM   16  O   UNL     1      -6.878  13.386  67.889  1.00  0.00    -0.109 OA 
BRANCH  15  17
HETATM   17  C   UNL     1      -8.324  11.620  68.537  1.00  0.00    -0.140 A  
HETATM   18  C   UNL     1      -7.552   9.754  69.877  1.00  0.00    -0.152 A  
HETATM   19  C   UNL     1      -7.279  10.872  69.086  1.00  0.00    -0.118 A  
HETATM   20  C   UNL     1      -9.648  11.229  68.765  1.00  0.00    -0.160 A  
HETATM   21  C   UNL     1      -8.893   9.391  70.151  1.00  0.00    -0.223 A  
HETATM   22  C   UNL     1      -9.949  10.124  69.568  1.00  0.00    -0.235 A  
BRANCH  18  23
HETATM   23  O   UNL     1      -6.565   9.015  70.486  1.00  0.00    -0.042 OA 
HETATM   24  C   UNL     1      -5.229   9.267  70.062  1.00  0.00    -0.028 C  
ENDBRANCH  18  23
BRANCH  21  25
HETATM   25  O   UNL     1      -9.041   8.270  70.936  1.00  0.00    -0.141 OA 
HETATM   26  C   UNL     1      -9.425   8.464  72.292  1.00  0.00    -0.297 C  
ENDBRANCH  21  25
BRANCH  22  27
HETATM   27  O   UNL     1     -11.237   9.723  69.806  1.00  0.00    -0.238 OA 
HETATM   28  C   UNL     1     -12.219  10.726  70.046  1.00  0.00    -0.334 C  
ENDBRANCH  22  27
ENDBRANCH  15  17
ENDBRANCH  14  15
ENDBRANCH   6  14
TORSDOF 6
ENDMDL
MODEL      112
REMARK 921   NORMALIZED FREE ENERGY PREDICTED BY IDOCK:   -4.79 KCAL/MOL
REMARK 922        TOTAL FREE ENERGY PREDICTED BY IDOCK:   -7.40 KCAL/MOL
REMARK 923 INTER-LIGAND FREE ENERGY PREDICTED BY IDOCK:   -6.54 KCAL/MOL
REMARK 924 INTRA-LIGAND FREE ENERGY PREDICTED BY IDOCK:   -0.87 KCAL/MOL
REMARK 927      BINDING AFFINITY PREDICTED BY RF-SCORE:    0.00 PKD
ROOT
HETATM    1  C   UNL     1      -7.829   7.372  68.571  1.00  0.00    -0.122 C  
HETATM    2  C   UNL     1      -8.287   6.781  69.901  1.00  0.00    -0.135 C  
HETATM    3  C   UNL     1      -9.785   6.372  70.153  1.00  0.00    -0.166 C  
HETATM    4  N   UNL     1     -10.321   5.344  69.198  1.00  0.00    -0.236 NA 
HETATM    5  C   UNL     1      -9.923   5.804  71.636  1.00  0.00    -0.218 A  
HETATM    6  C   UNL     1     -10.700   7.655  70.212  1.00  0.00    -0.239 C  
HETATM    7  C   UNL     1      -8.831   5.677  72.517  1.00  0.00    -0.130 A  
HETATM    8  C   UNL     1     -11.336   4.840  73.397  1.00  0.00    -0.397 A  
HETATM    9  C   UNL     1     -10.320   5.662  67.773  1.00  0.00    -0.206 C  
HETATM   10  C   UNL     1      -9.755   4.004  69.371  1.00  0.00    -0.135 C  
HETATM   11  C   UNL     1      -8.982   5.125  73.794  1.00  0.00    -0.117 A  
HETATM   12  C   UNL     1     -10.231   4.701  74.231  1.00  0.00    -0.280 A  
HETATM   13  C   UNL     1     -11.186   5.383  72.117  1.00  0.00    -0.197 A  
ENDROOT
BRANCH   6  14
HETATM   14  O   UNL     1     -10.663   8.554  69.101  1.00  0.00    -0.202 OA 
BRANCH  14  15
HETATM   15  C   UNL     1     -10.618   9.867  69.444  1.00  0.00    -0.229 C  
HETATM   16  O   UNL     1     -10.619  10.327  70.574  1.00  0.00    -0.251 OA 
BRANCH  15  17
HETATM   17  C   UNL     1     -10.396  10.693  68.240  1.00  0.00    -0.201 A  
HETATM   18  C   UNL     1     -10.267  10.790  65.822  1.00  0.00    -0.257 A  
HETATM   19  C   UNL     1     -10.308  10.047  67.004  1.00  0.00    -0.305 A  
HETATM   20  C   UNL     1     -10.418  12.091  68.290  1.00  0.00    -0.218 A  
HETATM   21  C   UNL     1     -10.343  12.203  65.871  1.00  0.00    -0.255 A  
HETATM   22  C   UNL     1     -10.395  12.857  67.120  1.00  0.00    -0.238 A  
BRANCH  18  23
HETATM   23  O   UNL     1     -10.236  10.206  64.577  1.00  0.00    -0.256 OA 
HETATM   24  C   UNL     1      -8.979   9.691  64.147  1.00  0.00    -0.229 C  
ENDBRANCH  18  23
BRANCH  21  25
HETATM   25  O   UNL     1     -10.287  12.828  64.646  1.00  0.00    -0.324 OA 
HETATM   26  C   UNL     1     -11.518  13.230  64.057  1.00  0.00    -0.388 C  
ENDBRANCH  21  25
BRANCH  22  27
HETATM   27  O   UNL     1     -10.416  14.227  67.144  1.00  0.00    -0.264 OA 
HETATM   28  C   UNL     1     -11.612  14.873  67.568  1.00  0.00    -0.339 C  
ENDBRANCH  22  27
ENDBRANCH  15  17
ENDBRANCH  14  15
ENDBRANCH   6  14
TORSDOF 6
ENDMDL
MODEL      113
REMARK 921   NORMALIZED FREE ENERGY PREDICTED BY IDOCK:   -4.77 KCAL/MOL
REMARK 922        TOTAL FREE ENERGY PREDICTED BY IDOCK:   -7.38 KCAL/MOL
REMARK 923 INTER-LIGAND FREE ENERGY PREDICTED BY IDOCK:   -6.81 KCAL/MOL
REMARK 924 INTRA-LIGAND FREE ENERGY PREDICTED BY IDOCK:   -0.57 KCAL/MOL
REMARK 927      BINDING AFFINITY PREDICTED BY RF-SCORE:    0.00 PKD
ROOT
HETATM    1  C   UNL     1      -8.002  11.966  68.496  1.00  0.00    -0.137 C  
HETATM    2  C   UNL     1      -8.881  11.938  67.249  1.00  0.00    -0.179 C  
HETATM    3  C   UNL     1     -10.258  12.697  67.189  1.00  0.00    -0.225 C  
HETATM    4  N   UNL     1     -10.165  14.177  67.426  1.00  0.00    -0.243 NA 
HETATM    5  C   UNL     1     -10.921  12.454  65.761  1.00  0.00    -0.333 A  
HETATM    6  C   UNL     1     -11.303  12.011  68.151  1.00  0.00    -0.291 C  
HETATM    7  C   UNL     1     -10.302  11.702  64.743  1.00  0.00    -0.331 A  
HETATM    8  C   UNL     1     -12.775  12.861  64.204  1.00  0.00    -0.256 A  
HETATM    9  C   UNL     1      -9.610  14.638  68.694  1.00  0.00    -0.219 C  
HETATM   10  C   UNL     1      -9.521  14.924  66.342  1.00  0.00    -0.300 C  
HETATM   11  C   UNL     1     -10.892  11.554  63.482  1.00  0.00    -0.473 A  
HETATM   12  C   UNL     1     -12.122  12.139  63.211  1.00  0.00    -0.512 A  
HETATM   13  C   UNL     1     -12.183  13.019  65.461  1.00  0.00    -0.521 A  
ENDROOT
BRANCH   6  14
HETATM   14  O   UNL     1     -10.940  11.848  69.525  1.00  0.00    -0.158 OA 
BRANCH  14  15
HETATM   15  C   UNL     1     -11.705  10.956  70.204  1.00  0.00    -0.347 C  
HETATM   16  O   UNL     1     -12.876  11.087  70.518  1.00  0.00    -0.266 OA 
BRANCH  15  17
HETATM   17  C   UNL     1     -10.962   9.691  70.380  1.00  0.00    -0.356 A  
HETATM   18  C   UNL     1      -8.815   8.568  70.421  1.00  0.00    -0.150 A  
HETATM   19  C   UNL     1      -9.591   9.687  70.112  1.00  0.00    -0.300 A  
HETATM   20  C   UNL     1     -11.561   8.555  70.938  1.00  0.00    -0.295 A  
HETATM   21  C   UNL     1      -9.412   7.441  71.035  1.00  0.00    -0.157 A  
HETATM   22  C   UNL     1     -10.803   7.428  71.272  1.00  0.00    -0.238 A  
BRANCH  18  23
HETATM   23  O   UNL     1      -7.453   8.532  70.230  1.00  0.00    -0.059 OA 
HETATM   24  C   UNL     1      -7.003   8.100  68.949  1.00  0.00    -0.062 C  
ENDBRANCH  18  23
BRANCH  21  25
HETATM   25  O   UNL     1      -8.552   6.396  71.287  1.00  0.00    -0.126 OA 
HETATM   26  C   UNL     1      -8.056   6.259  72.614  1.00  0.00    -0.106 C  
ENDBRANCH  21  25
BRANCH  22  27
HETATM   27  O   UNL     1     -11.366   6.307  71.820  1.00  0.00    -0.269 OA 
HETATM   28  C   UNL     1     -12.640   6.430  72.445  1.00  0.00     0.100 C  
ENDBRANCH  22  27
ENDBRANCH  15  17
ENDBRANCH  14  15
ENDBRANCH   6  14
TORSDOF 6
ENDMDL
MODEL      114
REMARK 921   NORMALIZED FREE ENERGY PREDICTED BY IDOCK:   -4.74 KCAL/MOL
REMARK 922        TOTAL FREE ENERGY PREDICTED BY IDOCK:   -7.34 KCAL/MOL
REMARK 923 INTER-LIGAND FREE ENERGY PREDICTED BY IDOCK:   -6.43 KCAL/MOL
REMARK 924 INTRA-LIGAND FREE ENERGY PREDICTED BY IDOCK:   -0.91 KCAL/MOL
REMARK 927      BINDING AFFINITY PREDICTED BY RF-SCORE:    0.00 PKD
ROOT
HETATM    1  C   UNL     1     -11.742  10.896  67.370  1.00  0.00     0.177 C  
HETATM    2  C   UNL     1     -11.496  12.369  67.681  1.00  0.00    -0.399 C  
HETATM    3  C   UNL     1     -10.187  13.107  67.213  1.00  0.00    -0.243 C  
HETATM    4  N   UNL     1      -9.963  13.099  65.728  1.00  0.00    -0.275 NA 
HETATM    5  C   UNL     1     -10.242  14.620  67.708  1.00  0.00    -0.229 A  
HETATM    6  C   UNL     1      -8.937  12.555  68.001  1.00  0.00    -0.192 C  
HETATM    7  C   UNL     1     -11.335  15.161  68.413  1.00  0.00    -0.326 A  
HETATM    8  C   UNL     1      -9.198  16.840  67.811  1.00  0.00    -0.222 A  
HETATM    9  C   UNL     1      -9.850  11.808  65.056  1.00  0.00    -0.229 C  
HETATM   10  C   UNL     1     -10.898  13.933  64.970  1.00  0.00    -0.382 C  
HETATM   11  C   UNL     1     -11.370  16.510  68.786  1.00  0.00    -0.221 A  
HETATM   12  C   UNL     1     -10.307  17.350  68.479  1.00  0.00    -0.378 A  
HETATM   13  C   UNL     1      -9.165  15.495  67.429  1.00  0.00    -0.209 A  
ENDROOT
BRANCH   6  14
HETATM   14  O   UNL     1      -8.694  11.146  67.966  1.00  0.00    -0.131 OA 
BRANCH  14  15
HETATM   15  C   UNL     1      -8.259  10.624  69.141  1.00  0.00    -0.139 C  
HETATM   16  O   UNL     1      -7.251  10.939  69.752  1.00  0.00    -0.136 OA 
BRANCH  15  17
HETATM   17  C   UNL     1      -9.278   9.706  69.690  1.00  0.00    -0.225 A  
HETATM   18  C   UNL     1      -9.936   7.420  70.153  1.00  0.00    -0.184 A  
HETATM   19  C   UNL     1      -9.094   8.333  69.513  1.00  0.00    -0.154 A  
HETATM   20  C   UNL     1     -10.328  10.166  70.493  1.00  0.00    -0.108 A  
HETATM   21  C   UNL     1     -10.964   7.885  71.008  1.00  0.00    -0.244 A  
HETATM   22  C   UNL     1     -11.174   9.272  71.159  1.00  0.00    -0.343 A  
BRANCH  18  23
HETATM   23  O   UNL     1      -9.765   6.059  70.059  1.00  0.00    -0.160 OA 
HETATM   24  C   UNL     1     -10.035   5.471  68.789  1.00  0.00    -0.172 C  
ENDBRANCH  18  23
BRANCH  21  25
HETATM   25  O   UNL     1     -11.733   6.897  71.579  1.00  0.00    -0.276 OA 
HETATM   26  C   UNL     1     -13.115   6.863  71.241  1.00  0.00    -0.201 C  
ENDBRANCH  21  25
BRANCH  22  27
HETATM   27  O   UNL     1     -12.207   9.698  71.951  1.00  0.00    -0.376 OA 
HETATM   28  C   UNL     1     -12.973  10.817  71.514  1.00  0.00    -0.456 C  
ENDBRANCH  22  27
ENDBRANCH  15  17
ENDBRANCH  14  15
ENDBRANCH   6  14
TORSDOF 6
ENDMDL
MODEL      115
REMARK 921   NORMALIZED FREE ENERGY PREDICTED BY IDOCK:   -4.70 KCAL/MOL
REMARK 922        TOTAL FREE ENERGY PREDICTED BY IDOCK:   -7.28 KCAL/MOL
REMARK 923 INTER-LIGAND FREE ENERGY PREDICTED BY IDOCK:   -6.66 KCAL/MOL
REMARK 924 INTRA-LIGAND FREE ENERGY PREDICTED BY IDOCK:   -0.62 KCAL/MOL
REMARK 927      BINDING AFFINITY PREDICTED BY RF-SCORE:    0.00 PKD
ROOT
HETATM    1  C   UNL     1      -8.971  10.159  64.364  1.00  0.00    -0.264 C  
HETATM    2  C   UNL     1      -9.714  11.199  65.198  1.00  0.00    -0.296 C  
HETATM    3  C   UNL     1      -9.738  11.136  66.770  1.00  0.00    -0.193 C  
HETATM    4  N   UNL     1      -8.383  11.185  67.417  1.00  0.00    -0.132 NA 
HETATM    5  C   UNL     1     -10.605  12.353  67.323  1.00  0.00    -0.246 A  
HETATM    6  C   UNL     1     -10.578   9.893  67.256  1.00  0.00    -0.252 C  
HETATM    7  C   UNL     1     -11.198  13.320  66.486  1.00  0.00    -0.329 A  
HETATM    8  C   UNL     1     -11.517  13.590  69.238  1.00  0.00    -0.345 A  
HETATM    9  C   UNL     1      -7.421  10.141  67.078  1.00  0.00    -0.092 C  
HETATM   10  C   UNL     1      -7.710  12.482  67.316  1.00  0.00    -0.146 C  
HETATM   11  C   UNL     1     -11.909  14.404  67.011  1.00  0.00    -0.437 A  
HETATM   12  C   UNL     1     -12.062  14.543  68.385  1.00  0.00    -0.249 A  
HETATM   13  C   UNL     1     -10.797  12.510  68.716  1.00  0.00    -0.276 A  
ENDROOT
BRANCH   6  14
HETATM   14  O   UNL     1     -10.210   8.603  66.762  1.00  0.00    -0.270 OA 
BRANCH  14  15
HETATM   15  C   UNL     1     -10.660   7.566  67.514  1.00  0.00    -0.261 C  
HETATM   16  O   UNL     1     -11.168   6.535  67.107  1.00  0.00    -0.388 OA 
BRANCH  15  17
HETATM   17  C   UNL     1     -10.296   7.779  68.930  1.00  0.00    -0.224 A  
HETATM   18  C   UNL     1      -8.554   7.794  70.614  1.00  0.00    -0.127 A  
HETATM   19  C   UNL     1      -8.998   7.458  69.334  1.00  0.00    -0.139 A  
HETATM   20  C   UNL     1     -11.160   8.419  69.826  1.00  0.00    -0.062 A  
HETATM   21  C   UNL     1      -9.411   8.489  71.501  1.00  0.00    -0.222 A  
HETATM   22  C   UNL     1     -10.735   8.782  71.108  1.00  0.00    -0.248 A  
BRANCH  18  23
HETATM   23  O   UNL     1      -7.270   7.551  71.044  1.00  0.00    -0.064 OA 
HETATM   24  C   UNL     1      -6.267   8.457  70.593  1.00  0.00    -0.036 C  
ENDBRANCH  18  23
BRANCH  21  25
HETATM   25  O   UNL     1      -8.870   8.762  72.736  1.00  0.00    -0.382 OA 
HETATM   26  C   UNL     1      -9.213   7.894  73.810  1.00  0.00    -0.203 C  
ENDBRANCH  21  25
BRANCH  22  27
HETATM   27  O   UNL     1     -11.562   9.410  72.001  1.00  0.00    -0.342 OA 
HETATM   28  C   UNL     1     -12.560  10.288  71.490  1.00  0.00    -0.440 C  
ENDBRANCH  22  27
ENDBRANCH  15  17
ENDBRANCH  14  15
ENDBRANCH   6  14
TORSDOF 6
ENDMDL
MODEL      116
REMARK 921   NORMALIZED FREE ENERGY PREDICTED BY IDOCK:   -4.68 KCAL/MOL
REMARK 922        TOTAL FREE ENERGY PREDICTED BY IDOCK:   -7.26 KCAL/MOL
REMARK 923 INTER-LIGAND FREE ENERGY PREDICTED BY IDOCK:   -6.88 KCAL/MOL
REMARK 924 INTRA-LIGAND FREE ENERGY PREDICTED BY IDOCK:   -0.37 KCAL/MOL
REMARK 927      BINDING AFFINITY PREDICTED BY RF-SCORE:    0.00 PKD
ROOT
HETATM    1  C   UNL     1     -11.097   6.660  68.909  1.00  0.00    -0.312 C  
HETATM    2  C   UNL     1      -9.845   7.525  68.803  1.00  0.00    -0.166 C  
HETATM    3  C   UNL     1      -9.252   8.280  70.050  1.00  0.00    -0.151 C  
HETATM    4  N   UNL     1      -8.873   7.389  71.197  1.00  0.00    -0.141 NA 
HETATM    5  C   UNL     1      -7.961   9.095  69.594  1.00  0.00    -0.103 A  
HETATM    6  C   UNL     1     -10.223   9.439  70.499  1.00  0.00    -0.271 C  
HETATM    7  C   UNL     1      -7.458   9.069  68.279  1.00  0.00    -0.083 A  
HETATM    8  C   UNL     1      -6.090  10.573  70.180  1.00  0.00    -0.105 A  
HETATM    9  C   UNL     1      -9.914   6.562  71.800  1.00  0.00    -0.176 C  
HETATM   10  C   UNL     1      -7.702   6.545  70.947  1.00  0.00    -0.101 C  
HETATM   11  C   UNL     1      -6.290   9.756  67.928  1.00  0.00    -0.056 A  
HETATM   12  C   UNL     1      -5.603  10.501  68.879  1.00  0.00    -0.041 A  
HETATM   13  C   UNL     1      -7.251   9.879  70.535  1.00  0.00    -0.099 A  
ENDROOT
BRANCH   6  14
HETATM   14  O   UNL     1     -11.582   9.099  70.786  1.00  0.00    -0.276 OA 
BRANCH  14  15
HETATM   15  C   UNL     1     -12.348  10.144  71.191  1.00  0.00    -0.385 C  
HETATM   16  O   UNL     1     -13.028  10.202  72.202  1.00  0.00    -0.415 OA 
BRANCH  15  17
HETATM   17  C   UNL     1     -12.119  11.305  70.307  1.00  0.00    -0.459 A  
HETATM   18  C   UNL     1     -11.829  12.129  68.047  1.00  0.00    -0.285 A  
HETATM   19  C   UNL     1     -11.885  11.066  68.951  1.00  0.00    -0.378 A  
HETATM   20  C   UNL     1     -12.274  12.620  70.761  1.00  0.00    -0.331 A  
HETATM   21  C   UNL     1     -12.040  13.454  68.499  1.00  0.00    -0.248 A  
HETATM   22  C   UNL     1     -12.239  13.701  69.874  1.00  0.00    -0.304 A  
BRANCH  18  23
HETATM   23  O   UNL     1     -11.657  11.947  66.694  1.00  0.00    -0.465 OA 
HETATM   24  C   UNL     1     -10.723  10.947  66.301  1.00  0.00    -0.176 C  
ENDBRANCH  18  23
BRANCH  21  25
HETATM   25  O   UNL     1     -11.956  14.420  67.521  1.00  0.00    -0.384 OA 
HETATM   26  C   UNL     1     -10.702  15.069  67.345  1.00  0.00    -0.289 C  
ENDBRANCH  21  25
BRANCH  22  27
HETATM   27  O   UNL     1     -12.389  14.995  70.295  1.00  0.00    -0.313 OA 
HETATM   28  C   UNL     1     -11.278  15.634  70.915  1.00  0.00    -0.369 C  
ENDBRANCH  22  27
ENDBRANCH  15  17
ENDBRANCH  14  15
ENDBRANCH   6  14
TORSDOF 6
ENDMDL
MODEL      117
REMARK 921   NORMALIZED FREE ENERGY PREDICTED BY IDOCK:   -4.68 KCAL/MOL
REMARK 922        TOTAL FREE ENERGY PREDICTED BY IDOCK:   -7.25 KCAL/MOL
REMARK 923 INTER-LIGAND FREE ENERGY PREDICTED BY IDOCK:   -6.50 KCAL/MOL
REMARK 924 INTRA-LIGAND FREE ENERGY PREDICTED BY IDOCK:   -0.76 KCAL/MOL
REMARK 927      BINDING AFFINITY PREDICTED BY RF-SCORE:    0.00 PKD
ROOT
HETATM    1  C   UNL     1      -9.410   8.968  66.386  1.00  0.00    -0.264 C  
HETATM    2  C   UNL     1      -9.780  10.422  66.107  1.00  0.00    -0.262 C  
HETATM    3  C   UNL     1      -9.856  11.493  67.258  1.00  0.00    -0.190 C  
HETATM    4  N   UNL     1      -8.578  11.678  68.024  1.00  0.00    -0.146 NA 
HETATM    5  C   UNL     1     -10.277  12.896  66.631  1.00  0.00    -0.251 A  
HETATM    6  C   UNL     1     -11.075  11.186  68.210  1.00  0.00    -0.251 C  
HETATM    7  C   UNL     1     -10.493  13.090  65.252  1.00  0.00    -0.318 A  
HETATM    8  C   UNL     1     -10.762  15.282  66.947  1.00  0.00    -0.313 A  
HETATM    9  C   UNL     1      -8.015  10.520  68.712  1.00  0.00    -0.127 C  
HETATM   10  C   UNL     1      -7.507  12.330  67.266  1.00  0.00    -0.147 C  
HETATM   11  C   UNL     1     -10.810  14.350  64.732  1.00  0.00    -0.415 A  
HETATM   12  C   UNL     1     -10.937  15.445  65.577  1.00  0.00    -0.350 A  
HETATM   13  C   UNL     1     -10.434  14.026  67.468  1.00  0.00    -0.252 A  
ENDROOT
BRANCH   6  14
HETATM   14  O   UNL     1     -11.151   9.887  68.802  1.00  0.00    -0.209 OA 
BRANCH  14  15
HETATM   15  C   UNL     1     -11.204   9.891  70.158  1.00  0.00    -0.289 C  
HETATM   16  O   UNL     1     -11.942  10.565  70.858  1.00  0.00    -0.329 OA 
BRANCH  15  17
HETATM   17  C   UNL     1     -10.341   8.820  70.698  1.00  0.00    -0.253 A  
HETATM   18  C   UNL     1      -9.371   7.765  72.651  1.00  0.00    -0.188 A  
HETATM   19  C   UNL     1     -10.041   8.839  72.062  1.00  0.00    -0.397 A  
HETATM   20  C   UNL     1      -9.944   7.729  69.917  1.00  0.00    -0.191 A  
HETATM   21  C   UNL     1      -9.018   6.637  71.871  1.00  0.00    -0.136 A  
HETATM   22  C   UNL     1      -9.288   6.633  70.486  1.00  0.00    -0.166 A  
BRANCH  18  23
HETATM   23  O   UNL     1      -9.099   7.706  73.999  1.00  0.00    -0.259 OA 
HETATM   24  C   UNL     1      -7.900   8.341  74.433  1.00  0.00    -0.244 C  
ENDBRANCH  18  23
BRANCH  21  25
HETATM   25  O   UNL     1      -8.357   5.643  72.556  1.00  0.00    -0.114 OA 
HETATM   26  C   UNL     1      -9.115   4.512  72.968  1.00  0.00    -0.119 C  
ENDBRANCH  21  25
BRANCH  22  27
HETATM   27  O   UNL     1      -8.891   5.553  69.743  1.00  0.00    -0.116 OA 
HETATM   28  C   UNL     1      -9.881   4.610  69.345  1.00  0.00    -0.202 C  
ENDBRANCH  22  27
ENDBRANCH  15  17
ENDBRANCH  14  15
ENDBRANCH   6  14
TORSDOF 6
ENDMDL
MODEL      118
REMARK 921   NORMALIZED FREE ENERGY PREDICTED BY IDOCK:   -4.68 KCAL/MOL
REMARK 922        TOTAL FREE ENERGY PREDICTED BY IDOCK:   -7.25 KCAL/MOL
REMARK 923 INTER-LIGAND FREE ENERGY PREDICTED BY IDOCK:   -6.48 KCAL/MOL
REMARK 924 INTRA-LIGAND FREE ENERGY PREDICTED BY IDOCK:   -0.78 KCAL/MOL
REMARK 927      BINDING AFFINITY PREDICTED BY RF-SCORE:    0.00 PKD
ROOT
HETATM    1  C   UNL     1     -11.478   6.787  70.042  1.00  0.00    -0.390 C  
HETATM    2  C   UNL     1     -10.640   5.638  69.488  1.00  0.00    -0.384 C  
HETATM    3  C   UNL     1      -9.231   5.882  68.832  1.00  0.00    -0.119 C  
HETATM    4  N   UNL     1      -8.228   6.542  69.734  1.00  0.00    -0.125 NA 
HETATM    5  C   UNL     1      -8.635   4.485  68.352  1.00  0.00    -0.104 A  
HETATM    6  C   UNL     1      -9.390   6.652  67.465  1.00  0.00    -0.123 C  
HETATM    7  C   UNL     1      -9.297   3.256  68.550  1.00  0.00    -0.237 A  
HETATM    8  C   UNL     1      -6.804   3.222  67.312  1.00  0.00    -0.046 A  
HETATM    9  C   UNL     1      -8.552   7.859  70.276  1.00  0.00    -0.137 C  
HETATM   10  C   UNL     1      -7.752   5.697  70.832  1.00  0.00    -0.096 C  
HETATM   11  C   UNL     1      -8.719   2.043  68.161  1.00  0.00    -0.121 A  
HETATM   12  C   UNL     1      -7.471   2.025  67.550  1.00  0.00    -0.056 A  
HETATM   13  C   UNL     1      -7.376   4.435  67.708  1.00  0.00    -0.069 A  
ENDROOT
BRANCH   6  14
HETATM   14  O   UNL     1     -10.100   7.893  67.475  1.00  0.00    -0.178 OA 
BRANCH  14  15
HETATM   15  C   UNL     1      -9.625   8.818  66.602  1.00  0.00    -0.220 C  
HETATM   16  O   UNL     1      -8.826   8.628  65.700  1.00  0.00    -0.175 OA 
BRANCH  15  17
HETATM   17  C   UNL     1     -10.344  10.095  66.785  1.00  0.00    -0.285 A  
HETATM   18  C   UNL     1     -11.294  11.705  68.326  1.00  0.00    -0.285 A  
HETATM   19  C   UNL     1     -10.761  10.440  68.072  1.00  0.00    -0.292 A  
HETATM   20  C   UNL     1     -10.485  11.018  65.742  1.00  0.00    -0.290 A  
HETATM   21  C   UNL     1     -11.387  12.657  67.282  1.00  0.00    -0.318 A  
HETATM   22  C   UNL     1     -11.000  12.298  65.973  1.00  0.00    -0.292 A  
BRANCH  18  23
HETATM   23  O   UNL     1     -11.669  12.116  69.585  1.00  0.00    -0.303 OA 
HETATM   24  C   UNL     1     -12.092  11.097  70.486  1.00  0.00    -0.381 C  
ENDBRANCH  18  23
BRANCH  21  25
HETATM   25  O   UNL     1     -11.932  13.866  67.647  1.00  0.00    -0.366 OA 
HETATM   26  C   UNL     1     -11.051  14.978  67.759  1.00  0.00    -0.310 C  
ENDBRANCH  21  25
BRANCH  22  27
HETATM   27  O   UNL     1     -11.146  13.218  64.969  1.00  0.00    -0.294 OA 
HETATM   28  C   UNL     1     -12.105  12.955  63.950  1.00  0.00    -0.480 C  
ENDBRANCH  22  27
ENDBRANCH  15  17
ENDBRANCH  14  15
ENDBRANCH   6  14
TORSDOF 6
ENDMDL
MODEL      119
REMARK 921   NORMALIZED FREE ENERGY PREDICTED BY IDOCK:   -4.65 KCAL/MOL
REMARK 922        TOTAL FREE ENERGY PREDICTED BY IDOCK:   -7.22 KCAL/MOL
REMARK 923 INTER-LIGAND FREE ENERGY PREDICTED BY IDOCK:   -7.35 KCAL/MOL
REMARK 924 INTRA-LIGAND FREE ENERGY PREDICTED BY IDOCK:    0.13 KCAL/MOL
REMARK 927      BINDING AFFINITY PREDICTED BY RF-SCORE:    0.00 PKD
ROOT
HETATM    1  C   UNL     1      -7.666   7.242  66.990  1.00  0.00    -0.111 C  
HETATM    2  C   UNL     1      -8.243   7.392  68.394  1.00  0.00    -0.125 C  
HETATM    3  C   UNL     1      -9.791   7.305  68.668  1.00  0.00    -0.161 C  
HETATM    4  N   UNL     1     -10.427   6.012  68.246  1.00  0.00    -0.209 NA 
HETATM    5  C   UNL     1     -10.053   7.514  70.225  1.00  0.00    -0.194 A  
HETATM    6  C   UNL     1     -10.527   8.553  68.046  1.00  0.00    -0.191 C  
HETATM    7  C   UNL     1      -9.018   7.702  71.163  1.00  0.00    -0.143 A  
HETATM    8  C   UNL     1     -11.640   7.636  72.095  1.00  0.00    -0.354 A  
HETATM    9  C   UNL     1     -10.337   5.625  66.842  1.00  0.00    -0.259 C  
HETATM   10  C   UNL     1     -10.052   4.857  69.067  1.00  0.00    -0.140 C  
HETATM   11  C   UNL     1      -9.284   7.829  72.530  1.00  0.00    -0.227 A  
HETATM   12  C   UNL     1     -10.592   7.789  72.997  1.00  0.00    -0.441 A  
HETATM   13  C   UNL     1     -11.376   7.499  70.728  1.00  0.00    -0.300 A  
ENDROOT
BRANCH   6  14
HETATM   14  O   UNL     1     -10.332   8.820  66.655  1.00  0.00    -0.279 OA 
BRANCH  14  15
HETATM   15  C   UNL     1      -9.713   9.999  66.392  1.00  0.00    -0.210 C  
HETATM   16  O   UNL     1      -8.679  10.157  65.765  1.00  0.00    -0.142 OA 
BRANCH  15  17
HETATM   17  C   UNL     1     -10.563  11.122  66.837  1.00  0.00    -0.304 A  
HETATM   18  C   UNL     1     -11.638  12.268  68.682  1.00  0.00    -0.323 A  
HETATM   19  C   UNL     1     -10.976  11.149  68.171  1.00  0.00    -0.292 A  
HETATM   20  C   UNL     1     -10.839  12.214  66.005  1.00  0.00    -0.318 A  
HETATM   21  C   UNL     1     -11.868  13.393  67.854  1.00  0.00    -0.357 A  
HETATM   22  C   UNL     1     -11.485  13.353  66.497  1.00  0.00    -0.341 A  
BRANCH  18  23
HETATM   23  O   UNL     1     -12.017  12.371  70.000  1.00  0.00    -0.328 OA 
HETATM   24  C   UNL     1     -12.103  11.152  70.733  1.00  0.00    -0.357 C  
ENDBRANCH  18  23
BRANCH  21  25
HETATM   25  O   UNL     1     -12.533  14.433  68.462  1.00  0.00    -0.101 OA 
HETATM   26  C   UNL     1     -11.766  15.567  68.850  1.00  0.00    -0.370 C  
ENDBRANCH  21  25
BRANCH  22  27
HETATM   27  O   UNL     1     -11.763  14.433  65.702  1.00  0.00    -0.347 OA 
HETATM   28  C   UNL     1     -10.684  15.062  65.018  1.00  0.00    -0.427 C  
ENDBRANCH  22  27
ENDBRANCH  15  17
ENDBRANCH  14  15
ENDBRANCH   6  14
TORSDOF 6
ENDMDL
MODEL      120
REMARK 921   NORMALIZED FREE ENERGY PREDICTED BY IDOCK:   -4.64 KCAL/MOL
REMARK 922        TOTAL FREE ENERGY PREDICTED BY IDOCK:   -7.21 KCAL/MOL
REMARK 923 INTER-LIGAND FREE ENERGY PREDICTED BY IDOCK:   -6.44 KCAL/MOL
REMARK 924 INTRA-LIGAND FREE ENERGY PREDICTED BY IDOCK:   -0.76 KCAL/MOL
REMARK 927      BINDING AFFINITY PREDICTED BY RF-SCORE:    0.00 PKD
ROOT
HETATM    1  C   UNL     1      -7.602   6.350  66.679  1.00  0.00    -0.094 C  
HETATM    2  C   UNL     1      -8.015   6.830  68.067  1.00  0.00    -0.114 C  
HETATM    3  C   UNL     1      -9.485   7.297  68.379  1.00  0.00    -0.142 C  
HETATM    4  N   UNL     1     -10.537   6.256  68.125  1.00  0.00    -0.227 NA 
HETATM    5  C   UNL     1      -9.573   7.742  69.906  1.00  0.00    -0.164 A  
HETATM    6  C   UNL     1      -9.800   8.648  67.629  1.00  0.00    -0.180 C  
HETATM    7  C   UNL     1      -8.482   7.668  70.795  1.00  0.00    -0.125 A  
HETATM    8  C   UNL     1     -10.919   8.585  71.779  1.00  0.00    -0.376 A  
HETATM    9  C   UNL     1     -10.661   5.717  66.774  1.00  0.00    -0.297 C  
HETATM   10  C   UNL     1     -10.519   5.135  69.068  1.00  0.00    -0.079 C  
HETATM   11  C   UNL     1      -8.611   8.019  72.143  1.00  0.00    -0.206 A  
HETATM   12  C   UNL     1      -9.829   8.470  72.636  1.00  0.00    -0.281 A  
HETATM   13  C   UNL     1     -10.794   8.225  70.433  1.00  0.00    -0.241 A  
ENDROOT
BRANCH   6  14
HETATM   14  O   UNL     1      -9.609   8.687  66.213  1.00  0.00    -0.226 OA 
BRANCH  14  15
HETATM   15  C   UNL     1      -8.724   9.628  65.794  1.00  0.00    -0.147 C  
HETATM   16  O   UNL     1      -7.590   9.434  65.388  1.00  0.00    -0.096 OA 
BRANCH  15  17
HETATM   17  C   UNL     1      -9.385  10.947  65.735  1.00  0.00    -0.232 A  
HETATM   18  C   UNL     1     -11.390  12.210  65.226  1.00  0.00    -0.336 A  
HETATM   19  C   UNL     1     -10.654  11.024  65.157  1.00  0.00    -0.295 A  
HETATM   20  C   UNL     1      -8.842  12.074  66.363  1.00  0.00    -0.126 A  
HETATM   21  C   UNL     1     -10.861  13.332  65.909  1.00  0.00    -0.277 A  
HETATM   22  C   UNL     1      -9.564  13.267  66.461  1.00  0.00    -0.264 A  
BRANCH  18  23
HETATM   23  O   UNL     1     -12.665  12.324  64.723  1.00  0.00    -0.556 OA 
HETATM   24  C   UNL     1     -12.862  11.883  63.383  1.00  0.00    -0.256 C  
ENDBRANCH  18  23
BRANCH  21  25
HETATM   25  O   UNL     1     -11.671  14.445  65.907  1.00  0.00    -0.360 OA 
HETATM   26  C   UNL     1     -11.401  15.452  64.939  1.00  0.00    -0.363 C  
ENDBRANCH  21  25
BRANCH  22  27
HETATM   27  O   UNL     1      -9.054  14.381  67.072  1.00  0.00    -0.214 OA 
HETATM   28  C   UNL     1      -7.824  14.257  67.780  1.00  0.00    -0.165 C  
ENDBRANCH  22  27
ENDBRANCH  15  17
ENDBRANCH  14  15
ENDBRANCH   6  14
TORSDOF 6
ENDMDL
MODEL      121
REMARK 921   NORMALIZED FREE ENERGY PREDICTED BY IDOCK:   -4.64 KCAL/MOL
REMARK 922        TOTAL FREE ENERGY PREDICTED BY IDOCK:   -7.20 KCAL/MOL
REMARK 923 INTER-LIGAND FREE ENERGY PREDICTED BY IDOCK:   -6.60 KCAL/MOL
REMARK 924 INTRA-LIGAND FREE ENERGY PREDICTED BY IDOCK:   -0.61 KCAL/MOL
REMARK 927      BINDING AFFINITY PREDICTED BY RF-SCORE:    0.00 PKD
ROOT
HETATM    1  C   UNL     1     -10.216   6.991  70.403  1.00  0.00    -0.209 C  
HETATM    2  C   UNL     1      -9.612   7.598  69.140  1.00  0.00    -0.155 C  
HETATM    3  C   UNL     1      -8.736   8.904  69.186  1.00  0.00    -0.132 C  
HETATM    4  N   UNL     1      -7.514   8.806  70.054  1.00  0.00    -0.052 NA 
HETATM    5  C   UNL     1      -8.276   9.271  67.705  1.00  0.00    -0.115 A  
HETATM    6  C   UNL     1      -9.628  10.148  69.565  1.00  0.00    -0.221 C  
HETATM    7  C   UNL     1      -8.602   8.486  66.581  1.00  0.00    -0.122 A  
HETATM    8  C   UNL     1      -7.031  10.751  66.194  1.00  0.00    -0.124 A  
HETATM    9  C   UNL     1      -7.698   8.504  71.470  1.00  0.00    -0.118 C  
HETATM   10  C   UNL     1      -6.467   7.927  69.527  1.00  0.00    -0.035 C  
HETATM   11  C   UNL     1      -8.136   8.811  65.303  1.00  0.00    -0.129 A  
HETATM   12  C   UNL     1      -7.346   9.938  65.110  1.00  0.00    -0.133 A  
HETATM   13  C   UNL     1      -7.488  10.423  67.474  1.00  0.00    -0.093 A  
ENDROOT
BRANCH   6  14
HETATM   14  O   UNL     1     -10.394  10.080  70.770  1.00  0.00    -0.223 OA 
BRANCH  14  15
HETATM   15  C   UNL     1     -11.723  10.302  70.603  1.00  0.00    -0.348 C  
HETATM   16  O   UNL     1     -12.636   9.732  71.176  1.00  0.00    -0.315 OA 
BRANCH  15  17
HETATM   17  C   UNL     1     -11.929  11.473  69.727  1.00  0.00    -0.415 A  
HETATM   18  C   UNL     1     -12.105  13.883  69.543  1.00  0.00    -0.342 A  
HETATM   19  C   UNL     1     -12.074  12.727  70.326  1.00  0.00    -0.373 A  
HETATM   20  C   UNL     1     -11.838  11.379  68.334  1.00  0.00    -0.344 A  
HETATM   21  C   UNL     1     -11.958  13.791  68.138  1.00  0.00    -0.358 A  
HETATM   22  C   UNL     1     -11.849  12.522  67.529  1.00  0.00    -0.323 A  
BRANCH  18  23
HETATM   23  O   UNL     1     -12.190  15.146  70.083  1.00  0.00    -0.318 OA 
HETATM   24  C   UNL     1     -11.135  15.535  70.958  1.00  0.00    -0.340 C  
ENDBRANCH  18  23
BRANCH  21  25
HETATM   25  O   UNL     1     -12.010  14.993  67.470  1.00  0.00    -0.272 OA 
HETATM   26  C   UNL     1     -10.775  15.572  67.065  1.00  0.00    -0.321 C  
ENDBRANCH  21  25
BRANCH  22  27
HETATM   27  O   UNL     1     -11.760  12.454  66.164  1.00  0.00    -0.386 OA 
HETATM   28  C   UNL     1     -10.734  11.646  65.596  1.00  0.00    -0.278 C  
ENDBRANCH  22  27
ENDBRANCH  15  17
ENDBRANCH  14  15
ENDBRANCH   6  14
TORSDOF 6
ENDMDL
MODEL      122
REMARK 921   NORMALIZED FREE ENERGY PREDICTED BY IDOCK:   -4.63 KCAL/MOL
REMARK 922        TOTAL FREE ENERGY PREDICTED BY IDOCK:   -7.19 KCAL/MOL
REMARK 923 INTER-LIGAND FREE ENERGY PREDICTED BY IDOCK:   -6.39 KCAL/MOL
REMARK 924 INTRA-LIGAND FREE ENERGY PREDICTED BY IDOCK:   -0.81 KCAL/MOL
REMARK 927      BINDING AFFINITY PREDICTED BY RF-SCORE:    0.00 PKD
ROOT
HETATM    1  C   UNL     1     -12.259  14.208  67.998  1.00  0.00    -0.181 C  
HETATM    2  C   UNL     1     -11.095  15.195  68.012  1.00  0.00    -0.310 C  
HETATM    3  C   UNL     1      -9.926  15.111  66.962  1.00  0.00    -0.241 C  
HETATM    4  N   UNL     1     -10.364  15.224  65.530  1.00  0.00    -0.351 NA 
HETATM    5  C   UNL     1      -8.877  16.271  67.263  1.00  0.00    -0.204 A  
HETATM    6  C   UNL     1      -9.058  13.818  67.212  1.00  0.00    -0.232 C  
HETATM    7  C   UNL     1      -9.047  17.215  68.295  1.00  0.00    -0.259 A  
HETATM    8  C   UNL     1      -6.795  17.432  66.674  1.00  0.00    -0.268 A  
HETATM    9  C   UNL     1     -11.312  14.238  65.020  1.00  0.00    -0.365 C  
HETATM   10  C   UNL     1     -10.833  16.557  65.144  1.00  0.00    -0.233 C  
HETATM   11  C   UNL     1      -8.130  18.253  68.496  1.00  0.00    -0.330 A  
HETATM   12  C   UNL     1      -7.010  18.366  67.682  1.00  0.00    -0.208 A  
HETATM   13  C   UNL     1      -7.716  16.400  66.465  1.00  0.00    -0.295 A  
ENDROOT
BRANCH   6  14
HETATM   14  O   UNL     1      -9.730  12.556  67.236  1.00  0.00    -0.197 OA 
BRANCH  14  15
HETATM   15  C   UNL     1      -8.926  11.489  66.998  1.00  0.00    -0.174 C  
HETATM   16  O   UNL     1      -8.010  11.429  66.195  1.00  0.00    -0.102 OA 
BRANCH  15  17
HETATM   17  C   UNL     1      -9.203  10.422  67.982  1.00  0.00    -0.142 A  
HETATM   18  C   UNL     1     -10.548   9.661  69.849  1.00  0.00    -0.249 A  
HETATM   19  C   UNL     1     -10.127  10.685  68.997  1.00  0.00    -0.226 A  
HETATM   20  C   UNL     1      -8.682   9.132  67.838  1.00  0.00    -0.128 A  
HETATM   21  C   UNL     1     -10.061   8.345  69.668  1.00  0.00    -0.199 A  
HETATM   22  C   UNL     1      -9.100   8.086  68.667  1.00  0.00    -0.140 A  
BRANCH  18  23
HETATM   23  O   UNL     1     -11.496   9.851  70.828  1.00  0.00    -0.298 OA 
HETATM   24  C   UNL     1     -12.759  10.353  70.401  1.00  0.00    -0.218 C  
ENDBRANCH  18  23
BRANCH  21  25
HETATM   25  O   UNL     1     -10.540   7.421  70.569  1.00  0.00    -0.216 OA 
HETATM   26  C   UNL     1     -11.653   6.631  70.170  1.00  0.00    -0.386 C  
ENDBRANCH  21  25
BRANCH  22  27
HETATM   27  O   UNL     1      -8.605   6.815  68.544  1.00  0.00    -0.125 OA 
HETATM   28  C   UNL     1      -9.116   5.992  67.501  1.00  0.00    -0.109 C  
ENDBRANCH  22  27
ENDBRANCH  15  17
ENDBRANCH  14  15
ENDBRANCH   6  14
TORSDOF 6
ENDMDL
MODEL      123
REMARK 921   NORMALIZED FREE ENERGY PREDICTED BY IDOCK:   -4.63 KCAL/MOL
REMARK 922        TOTAL FREE ENERGY PREDICTED BY IDOCK:   -7.19 KCAL/MOL
REMARK 923 INTER-LIGAND FREE ENERGY PREDICTED BY IDOCK:   -6.28 KCAL/MOL
REMARK 924 INTRA-LIGAND FREE ENERGY PREDICTED BY IDOCK:   -0.90 KCAL/MOL
REMARK 927      BINDING AFFINITY PREDICTED BY RF-SCORE:    0.00 PKD
ROOT
HETATM    1  C   UNL     1     -10.868  14.313  65.939  1.00  0.00    -0.300 C  
HETATM    2  C   UNL     1     -11.443  14.544  67.334  1.00  0.00    -0.385 C  
HETATM    3  C   UNL     1     -10.577  15.156  68.496  1.00  0.00    -0.237 C  
HETATM    4  N   UNL     1     -10.012  16.516  68.204  1.00  0.00    -0.242 NA 
HETATM    5  C   UNL     1     -11.470  15.251  69.812  1.00  0.00    -0.332 A  
HETATM    6  C   UNL     1      -9.458  14.136  68.939  1.00  0.00    -0.025 C  
HETATM    7  C   UNL     1     -12.826  14.870  69.852  1.00  0.00    -0.035 A  
HETATM    8  C   UNL     1     -11.679  15.892  72.173  1.00  0.00    -0.586 A  
HETATM    9  C   UNL     1      -9.131  16.662  67.049  1.00  0.00    -0.216 C  
HETATM   10  C   UNL     1     -11.008  17.589  68.163  1.00  0.00    -0.124 C  
HETATM   11  C   UNL     1     -13.594  15.018  71.012  1.00  0.00    -0.442 A  
HETATM   12  C   UNL     1     -13.023  15.535  72.169  1.00  0.00    -0.506 A  
HETATM   13  C   UNL     1     -10.912  15.754  71.011  1.00  0.00    -0.235 A  
ENDROOT
BRANCH   6  14
HETATM   14  O   UNL     1      -8.572  13.638  67.934  1.00  0.00    -0.158 OA 
BRANCH  14  15
HETATM   15  C   UNL     1      -7.754  12.638  68.353  1.00  0.00    -0.133 C  
HETATM   16  O   UNL     1      -6.769  12.750  69.063  1.00  0.00    -0.095 OA 
BRANCH  15  17
HETATM   17  C   UNL     1      -8.319  11.331  67.961  1.00  0.00    -0.136 A  
HETATM   18  C   UNL     1      -9.274   9.958  66.206  1.00  0.00    -0.168 A  
HETATM   19  C   UNL     1      -8.878  11.209  66.686  1.00  0.00    -0.168 A  
HETATM   20  C   UNL     1      -8.180  10.195  68.766  1.00  0.00    -0.113 A  
HETATM   21  C   UNL     1      -9.082   8.802  67.001  1.00  0.00    -0.133 A  
HETATM   22  C   UNL     1      -8.551   8.929  68.302  1.00  0.00    -0.134 A  
BRANCH  18  23
HETATM   23  O   UNL     1      -9.777   9.773  64.939  1.00  0.00    -0.296 OA 
HETATM   24  C   UNL     1     -10.475  10.875  64.365  1.00  0.00    -0.333 C  
ENDBRANCH  18  23
BRANCH  21  25
HETATM   25  O   UNL     1      -9.513   7.628  66.428  1.00  0.00    -0.190 OA 
HETATM   26  C   UNL     1     -10.664   7.008  66.989  1.00  0.00    -0.353 C  
ENDBRANCH  21  25
BRANCH  22  27
HETATM   27  O   UNL     1      -8.422   7.803  69.072  1.00  0.00    -0.130 OA 
HETATM   28  C   UNL     1      -7.122   7.247  69.237  1.00  0.00    -0.079 C  
ENDBRANCH  22  27
ENDBRANCH  15  17
ENDBRANCH  14  15
ENDBRANCH   6  14
TORSDOF 6
ENDMDL
MODEL      124
REMARK 921   NORMALIZED FREE ENERGY PREDICTED BY IDOCK:   -4.61 KCAL/MOL
REMARK 922        TOTAL FREE ENERGY PREDICTED BY IDOCK:   -7.16 KCAL/MOL
REMARK 923 INTER-LIGAND FREE ENERGY PREDICTED BY IDOCK:   -6.45 KCAL/MOL
REMARK 924 INTRA-LIGAND FREE ENERGY PREDICTED BY IDOCK:   -0.71 KCAL/MOL
REMARK 927      BINDING AFFINITY PREDICTED BY RF-SCORE:    0.00 PKD
ROOT
HETATM    1  C   UNL     1      -8.537   7.281  66.034  1.00  0.00    -0.160 C  
HETATM    2  C   UNL     1      -9.166   8.598  65.588  1.00  0.00    -0.204 C  
HETATM    3  C   UNL     1      -8.673   9.983  66.148  1.00  0.00    -0.140 C  
HETATM    4  N   UNL     1      -7.221  10.275  65.900  1.00  0.00    -0.125 NA 
HETATM    5  C   UNL     1      -9.542  11.145  65.491  1.00  0.00    -0.263 A  
HETATM    6  C   UNL     1      -9.050  10.121  67.674  1.00  0.00    -0.137 C  
HETATM    7  C   UNL     1     -10.550  10.907  64.536  1.00  0.00    -0.335 A  
HETATM    8  C   UNL     1     -10.020  13.542  65.260  1.00  0.00    -0.206 A  
HETATM    9  C   UNL     1      -6.231   9.350  66.442  1.00  0.00    -0.064 C  
HETATM   10  C   UNL     1      -6.888  10.539  64.499  1.00  0.00     0.086 C  
HETATM   11  C   UNL     1     -11.257  11.958  63.941  1.00  0.00    -0.497 A  
HETATM   12  C   UNL     1     -10.988  13.274  64.297  1.00  0.00    -0.418 A  
HETATM   13  C   UNL     1      -9.306  12.494  65.848  1.00  0.00    -0.039 A  
ENDROOT
BRANCH   6  14
HETATM   14  O   UNL     1      -8.610   9.095  68.567  1.00  0.00    -0.126 OA 
BRANCH  14  15
HETATM   15  C   UNL     1      -8.540   9.476  69.867  1.00  0.00    -0.204 C  
HETATM   16  O   UNL     1      -7.748  10.265  70.356  1.00  0.00    -0.194 OA 
BRANCH  15  17
HETATM   17  C   UNL     1      -9.686   8.921  70.615  1.00  0.00    -0.260 A  
HETATM   18  C   UNL     1     -11.846   9.318  71.640  1.00  0.00    -0.383 A  
HETATM   19  C   UNL     1     -10.665   9.805  71.076  1.00  0.00    -0.342 A  
HETATM   20  C   UNL     1      -9.885   7.541  70.744  1.00  0.00    -0.178 A  
HETATM   21  C   UNL     1     -12.069   7.922  71.720  1.00  0.00    -0.303 A  
HETATM   22  C   UNL     1     -11.066   7.028  71.289  1.00  0.00    -0.252 A  
BRANCH  18  23
HETATM   23  O   UNL     1     -12.865  10.141  72.059  1.00  0.00    -0.411 OA 
HETATM   24  C   UNL     1     -12.895  11.451  71.499  1.00  0.00    -0.403 C  
ENDBRANCH  18  23
BRANCH  21  25
HETATM   25  O   UNL     1     -13.264   7.559  72.299  1.00  0.00    -0.082 OA 
HETATM   26  C   UNL     1     -14.406   7.481  71.455  1.00  0.00    -0.394 C  
ENDBRANCH  21  25
BRANCH  22  27
HETATM   27  O   UNL     1     -11.283   5.682  71.423  1.00  0.00    -0.213 OA 
HETATM   28  C   UNL     1     -10.249   4.888  71.994  1.00  0.00    -0.199 C  
ENDBRANCH  22  27
ENDBRANCH  15  17
ENDBRANCH  14  15
ENDBRANCH   6  14
TORSDOF 6
ENDMDL
MODEL      125
REMARK 921   NORMALIZED FREE ENERGY PREDICTED BY IDOCK:   -4.59 KCAL/MOL
REMARK 922        TOTAL FREE ENERGY PREDICTED BY IDOCK:   -7.14 KCAL/MOL
REMARK 923 INTER-LIGAND FREE ENERGY PREDICTED BY IDOCK:   -6.34 KCAL/MOL
REMARK 924 INTRA-LIGAND FREE ENERGY PREDICTED BY IDOCK:   -0.80 KCAL/MOL
REMARK 927      BINDING AFFINITY PREDICTED BY RF-SCORE:    0.00 PKD
ROOT
HETATM    1  C   UNL     1     -11.994   6.697  70.717  1.00  0.00    -0.412 C  
HETATM    2  C   UNL     1     -10.785   5.916  71.225  1.00  0.00    -0.325 C  
HETATM    3  C   UNL     1      -9.331   6.516  71.174  1.00  0.00    -0.163 C  
HETATM    4  N   UNL     1      -9.161   7.805  71.925  1.00  0.00    -0.129 NA 
HETATM    5  C   UNL     1      -8.310   5.446  71.767  1.00  0.00    -0.119 A  
HETATM    6  C   UNL     1      -8.842   6.636  69.680  1.00  0.00    -0.143 C  
HETATM    7  C   UNL     1      -8.713   4.196  72.277  1.00  0.00    -0.118 A  
HETATM    8  C   UNL     1      -6.007   4.842  72.366  1.00  0.00    -0.020 A  
HETATM    9  C   UNL     1      -9.982   8.945  71.531  1.00  0.00    -0.320 C  
HETATM   10  C   UNL     1      -9.229   7.670  73.383  1.00  0.00    -0.255 C  
HETATM   11  C   UNL     1      -7.793   3.304  72.838  1.00  0.00    -0.061 A  
HETATM   12  C   UNL     1      -6.443   3.629  72.890  1.00  0.00    -0.024 A  
HETATM   13  C   UNL     1      -6.926   5.740  71.814  1.00  0.00    -0.073 A  
ENDROOT
BRANCH   6  14
HETATM   14  O   UNL     1      -9.661   7.369  68.765  1.00  0.00    -0.147 OA 
BRANCH  14  15
HETATM   15  C   UNL     1      -8.973   7.997  67.778  1.00  0.00    -0.132 C  
HETATM   16  O   UNL     1      -7.900   7.661  67.306  1.00  0.00    -0.113 OA 
BRANCH  15  17
HETATM   17  C   UNL     1      -9.793   9.089  67.213  1.00  0.00    -0.252 A  
HETATM   18  C   UNL     1     -11.363  10.889  67.622  1.00  0.00    -0.270 A  
HETATM   19  C   UNL     1     -10.689   9.747  68.059  1.00  0.00    -0.298 A  
HETATM   20  C   UNL     1      -9.592   9.567  65.913  1.00  0.00    -0.327 A  
HETATM   21  C   UNL     1     -11.118  11.402  66.325  1.00  0.00    -0.221 A  
HETATM   22  C   UNL     1     -10.241  10.718  65.456  1.00  0.00    -0.266 A  
BRANCH  18  23
HETATM   23  O   UNL     1     -12.213  11.607  68.430  1.00  0.00    -0.498 OA 
HETATM   24  C   UNL     1     -11.841  11.721  69.801  1.00  0.00    -0.349 C  
ENDBRANCH  18  23
BRANCH  21  25
HETATM   25  O   UNL     1     -11.842  12.527  66.001  1.00  0.00    -0.407 OA 
HETATM   26  C   UNL     1     -11.192  13.786  66.126  1.00  0.00    -0.300 C  
ENDBRANCH  21  25
BRANCH  22  27
HETATM   27  O   UNL     1     -10.059  11.205  64.189  1.00  0.00    -0.274 OA 
HETATM   28  C   UNL     1      -9.430  10.362  63.229  1.00  0.00    -0.323 C  
ENDBRANCH  22  27
ENDBRANCH  15  17
ENDBRANCH  14  15
ENDBRANCH   6  14
TORSDOF 6
ENDMDL
MODEL      126
REMARK 921   NORMALIZED FREE ENERGY PREDICTED BY IDOCK:   -4.59 KCAL/MOL
REMARK 922        TOTAL FREE ENERGY PREDICTED BY IDOCK:   -7.14 KCAL/MOL
REMARK 923 INTER-LIGAND FREE ENERGY PREDICTED BY IDOCK:   -6.31 KCAL/MOL
REMARK 924 INTRA-LIGAND FREE ENERGY PREDICTED BY IDOCK:   -0.83 KCAL/MOL
REMARK 927      BINDING AFFINITY PREDICTED BY RF-SCORE:    0.00 PKD
ROOT
HETATM    1  C   UNL     1     -11.218   7.784  73.092  1.00  0.00    -0.277 C  
HETATM    2  C   UNL     1     -10.776   6.351  72.809  1.00  0.00    -0.267 C  
HETATM    3  C   UNL     1      -9.774   6.009  71.644  1.00  0.00    -0.158 C  
HETATM    4  N   UNL     1      -8.441   6.693  71.746  1.00  0.00    -0.119 NA 
HETATM    5  C   UNL     1      -9.534   4.434  71.616  1.00  0.00    -0.214 A  
HETATM    6  C   UNL     1     -10.458   6.256  70.245  1.00  0.00    -0.221 C  
HETATM    7  C   UNL     1     -10.122   3.548  72.540  1.00  0.00    -0.235 A  
HETATM    8  C   UNL     1      -8.414   2.494  70.612  1.00  0.00    -0.089 A  
HETATM    9  C   UNL     1      -8.416   8.152  71.759  1.00  0.00    -0.144 C  
HETATM   10  C   UNL     1      -7.593   6.207  72.837  1.00  0.00    -0.101 C  
HETATM   11  C   UNL     1      -9.845   2.177  72.516  1.00  0.00    -0.197 A  
HETATM   12  C   UNL     1      -8.987   1.651  71.559  1.00  0.00    -0.116 A  
HETATM   13  C   UNL     1      -8.681   3.866  70.640  1.00  0.00    -0.119 A  
ENDROOT
BRANCH   6  14
HETATM   14  O   UNL     1     -11.015   7.549  69.992  1.00  0.00    -0.257 OA 
BRANCH  14  15
HETATM   15  C   UNL     1     -10.504   8.174  68.900  1.00  0.00    -0.185 C  
HETATM   16  O   UNL     1      -9.935   7.651  67.957  1.00  0.00    -0.162 OA 
BRANCH  15  17
HETATM   17  C   UNL     1     -10.880   9.603  68.920  1.00  0.00    -0.201 A  
HETATM   18  C   UNL     1     -11.409  11.597  67.648  1.00  0.00    -0.295 A  
HETATM   19  C   UNL     1     -10.903  10.296  67.708  1.00  0.00    -0.346 A  
HETATM   20  C   UNL     1     -11.346  10.227  70.083  1.00  0.00    -0.388 A  
HETATM   21  C   UNL     1     -11.930  12.207  68.814  1.00  0.00    -0.239 A  
HETATM   22  C   UNL     1     -11.874  11.522  70.047  1.00  0.00    -0.355 A  
BRANCH  18  23
HETATM   23  O   UNL     1     -11.506  12.304  66.472  1.00  0.00    -0.342 OA 
HETATM   24  C   UNL     1     -10.603  11.937  65.433  1.00  0.00    -0.271 C  
ENDBRANCH  18  23
BRANCH  21  25
HETATM   25  O   UNL     1     -12.396  13.490  68.637  1.00  0.00    -0.232 OA 
HETATM   26  C   UNL     1     -11.491  14.558  68.889  1.00  0.00    -0.300 C  
ENDBRANCH  21  25
BRANCH  22  27
HETATM   27  O   UNL     1     -12.337  12.153  71.171  1.00  0.00    -0.306 OA 
HETATM   28  C   UNL     1     -13.046  11.378  72.133  1.00  0.00    -0.170 C  
ENDBRANCH  22  27
ENDBRANCH  15  17
ENDBRANCH  14  15
ENDBRANCH   6  14
TORSDOF 6
ENDMDL
MODEL      127
REMARK 921   NORMALIZED FREE ENERGY PREDICTED BY IDOCK:   -4.58 KCAL/MOL
REMARK 922        TOTAL FREE ENERGY PREDICTED BY IDOCK:   -7.12 KCAL/MOL
REMARK 923 INTER-LIGAND FREE ENERGY PREDICTED BY IDOCK:   -6.39 KCAL/MOL
REMARK 924 INTRA-LIGAND FREE ENERGY PREDICTED BY IDOCK:   -0.72 KCAL/MOL
REMARK 927      BINDING AFFINITY PREDICTED BY RF-SCORE:    0.00 PKD
ROOT
HETATM    1  C   UNL     1     -11.993   9.078  72.119  1.00  0.00    -0.395 C  
HETATM    2  C   UNL     1     -11.646   7.607  72.328  1.00  0.00    -0.370 C  
HETATM    3  C   UNL     1     -10.420   6.935  71.605  1.00  0.00    -0.204 C  
HETATM    4  N   UNL     1      -9.094   7.575  71.901  1.00  0.00    -0.128 NA 
HETATM    5  C   UNL     1     -10.347   5.401  72.030  1.00  0.00    -0.268 A  
HETATM    6  C   UNL     1     -10.690   6.828  70.055  1.00  0.00    -0.247 C  
HETATM    7  C   UNL     1     -11.243   4.811  72.943  1.00  0.00    -0.286 A  
HETATM    8  C   UNL     1      -9.216   3.227  71.879  1.00  0.00    -0.180 A  
HETATM    9  C   UNL     1      -8.919   8.984  71.565  1.00  0.00    -0.125 C  
HETATM   10  C   UNL     1      -8.611   7.364  73.268  1.00  0.00    -0.145 C  
HETATM   11  C   UNL     1     -11.115   3.473  73.332  1.00  0.00    -0.291 A  
HETATM   12  C   UNL     1     -10.099   2.684  72.807  1.00  0.00    -0.225 A  
HETATM   13  C   UNL     1      -9.336   4.566  71.497  1.00  0.00    -0.203 A  
ENDROOT
BRANCH   6  14
HETATM   14  O   UNL     1     -11.023   8.027  69.351  1.00  0.00    -0.150 OA 
BRANCH  14  15
HETATM   15  C   UNL     1     -10.301   8.231  68.220  1.00  0.00    -0.198 C  
HETATM   16  O   UNL     1      -9.965   7.388  67.406  1.00  0.00    -0.154 OA 
BRANCH  15  17
HETATM   17  C   UNL     1     -10.105   9.680  68.005  1.00  0.00    -0.213 A  
HETATM   18  C   UNL     1      -8.547  11.502  67.652  1.00  0.00    -0.135 A  
HETATM   19  C   UNL     1      -8.799  10.177  68.013  1.00  0.00    -0.125 A  
HETATM   20  C   UNL     1     -11.165  10.525  67.656  1.00  0.00    -0.338 A  
HETATM   21  C   UNL     1      -9.614  12.340  67.246  1.00  0.00    -0.187 A  
HETATM   22  C   UNL     1     -10.937  11.851  67.273  1.00  0.00    -0.268 A  
BRANCH  18  23
HETATM   23  O   UNL     1      -7.277  12.028  67.589  1.00  0.00    -0.098 OA 
HETATM   24  C   UNL     1      -6.242  11.139  67.178  1.00  0.00    -0.083 C  
ENDBRANCH  18  23
BRANCH  21  25
HETATM   25  O   UNL     1      -9.248  13.626  66.919  1.00  0.00    -0.237 OA 
HETATM   26  C   UNL     1      -9.593  14.660  67.833  1.00  0.00    -0.212 C  
ENDBRANCH  21  25
BRANCH  22  27
HETATM   27  O   UNL     1     -11.958  12.695  66.926  1.00  0.00    -0.457 OA 
HETATM   28  C   UNL     1     -12.179  12.950  65.543  1.00  0.00    -0.474 C  
ENDBRANCH  22  27
ENDBRANCH  15  17
ENDBRANCH  14  15
ENDBRANCH   6  14
TORSDOF 6
ENDMDL
MODEL      128
REMARK 921   NORMALIZED FREE ENERGY PREDICTED BY IDOCK:   -4.58 KCAL/MOL
REMARK 922        TOTAL FREE ENERGY PREDICTED BY IDOCK:   -7.12 KCAL/MOL
REMARK 923 INTER-LIGAND FREE ENERGY PREDICTED BY IDOCK:   -6.29 KCAL/MOL
REMARK 924 INTRA-LIGAND FREE ENERGY PREDICTED BY IDOCK:   -0.83 KCAL/MOL
REMARK 927      BINDING AFFINITY PREDICTED BY RF-SCORE:    0.00 PKD
ROOT
HETATM    1  C   UNL     1      -7.634  11.389  69.151  1.00  0.00    -0.038 C  
HETATM    2  C   UNL     1      -8.316  10.025  69.215  1.00  0.00    -0.154 C  
HETATM    3  C   UNL     1      -8.930   9.346  67.935  1.00  0.00    -0.123 C  
HETATM    4  N   UNL     1      -7.949   9.111  66.822  1.00  0.00    -0.104 NA 
HETATM    5  C   UNL     1      -9.570   7.948  68.348  1.00  0.00    -0.155 A  
HETATM    6  C   UNL     1     -10.196  10.149  67.444  1.00  0.00    -0.218 C  
HETATM    7  C   UNL     1      -9.525   7.438  69.661  1.00  0.00    -0.156 A  
HETATM    8  C   UNL     1     -10.743   5.893  67.692  1.00  0.00    -0.352 A  
HETATM    9  C   UNL     1      -7.256  10.266  66.260  1.00  0.00    -0.117 C  
HETATM   10  C   UNL     1      -6.958   8.068  67.099  1.00  0.00    -0.075 C  
HETATM   11  C   UNL     1     -10.053   6.181  69.976  1.00  0.00    -0.228 A  
HETATM   12  C   UNL     1     -10.654   5.406  68.992  1.00  0.00    -0.217 A  
HETATM   13  C   UNL     1     -10.208   7.145  67.373  1.00  0.00    -0.291 A  
ENDROOT
BRANCH   6  14
HETATM   14  O   UNL     1     -10.041  11.545  67.180  1.00  0.00    -0.194 OA 
BRANCH  14  15
HETATM   15  C   UNL     1     -11.059  12.318  67.638  1.00  0.00    -0.268 C  
HETATM   16  O   UNL     1     -12.042  11.941  68.253  1.00  0.00    -0.485 OA 
BRANCH  15  17
HETATM   17  C   UNL     1     -10.736  13.745  67.434  1.00  0.00    -0.279 A  
HETATM   18  C   UNL     1      -9.432  15.667  68.127  1.00  0.00    -0.195 A  
HETATM   19  C   UNL     1      -9.901  14.372  68.362  1.00  0.00    -0.234 A  
HETATM   20  C   UNL     1     -11.121  14.431  66.277  1.00  0.00    -0.331 A  
HETATM   21  C   UNL     1      -9.779  16.338  66.930  1.00  0.00    -0.238 A  
HETATM   22  C   UNL     1     -10.652  15.721  66.010  1.00  0.00    -0.326 A  
BRANCH  18  23
HETATM   23  O   UNL     1      -8.564  16.310  68.979  1.00  0.00    -0.242 OA 
HETATM   24  C   UNL     1      -7.326  15.653  69.239  1.00  0.00    -0.207 C  
ENDBRANCH  18  23
BRANCH  21  25
HETATM   25  O   UNL     1      -9.264  17.609  66.810  1.00  0.00    -0.255 OA 
HETATM   26  C   UNL     1     -10.108  18.696  67.172  1.00  0.00    -0.359 C  
ENDBRANCH  21  25
BRANCH  22  27
HETATM   27  O   UNL     1     -11.014  16.410  64.883  1.00  0.00    -0.600 OA 
HETATM   28  C   UNL     1     -11.939  15.800  63.989  1.00  0.00     0.156 C  
ENDBRANCH  22  27
ENDBRANCH  15  17
ENDBRANCH  14  15
ENDBRANCH   6  14
TORSDOF 6
ENDMDL
MODEL      129
REMARK 921   NORMALIZED FREE ENERGY PREDICTED BY IDOCK:   -4.56 KCAL/MOL
REMARK 922        TOTAL FREE ENERGY PREDICTED BY IDOCK:   -7.10 KCAL/MOL
REMARK 923 INTER-LIGAND FREE ENERGY PREDICTED BY IDOCK:   -6.33 KCAL/MOL
REMARK 924 INTRA-LIGAND FREE ENERGY PREDICTED BY IDOCK:   -0.77 KCAL/MOL
REMARK 927      BINDING AFFINITY PREDICTED BY RF-SCORE:    0.00 PKD
ROOT
HETATM    1  C   UNL     1     -11.909  13.981  68.317  1.00  0.00    -0.406 C  
HETATM    2  C   UNL     1     -11.365  15.395  68.138  1.00  0.00    -0.353 C  
HETATM    3  C   UNL     1     -10.024  15.674  67.364  1.00  0.00    -0.232 C  
HETATM    4  N   UNL     1     -10.013  15.195  65.941  1.00  0.00    -0.304 NA 
HETATM    5  C   UNL     1      -9.739  17.242  67.372  1.00  0.00    -0.258 A  
HETATM    6  C   UNL     1      -8.794  15.119  68.182  1.00  0.00    -0.169 C  
HETATM    7  C   UNL     1     -10.610  18.180  67.960  1.00  0.00    -0.359 A  
HETATM    8  C   UNL     1      -8.314  19.126  66.703  1.00  0.00    -0.309 A  
HETATM    9  C   UNL     1     -10.226  13.773  65.692  1.00  0.00    -0.313 C  
HETATM   10  C   UNL     1     -10.882  15.956  65.040  1.00  0.00    -0.426 C  
HETATM   11  C   UNL     1     -10.354  19.554  67.901  1.00  0.00    -0.567 A  
HETATM   12  C   UNL     1      -9.211  20.027  67.268  1.00  0.00    -0.481 A  
HETATM   13  C   UNL     1      -8.574  17.753  66.752  1.00  0.00    -0.272 A  
ENDROOT
BRANCH   6  14
HETATM   14  O   UNL     1      -8.813  13.742  68.563  1.00  0.00    -0.174 OA 
BRANCH  14  15
HETATM   15  C   UNL     1      -7.736  13.030  68.144  1.00  0.00    -0.143 C  
HETATM   16  O   UNL     1      -6.745  13.466  67.582  1.00  0.00    -0.149 OA 
BRANCH  15  17
HETATM   17  C   UNL     1      -7.843  11.634  68.615  1.00  0.00    -0.132 A  
HETATM   18  C   UNL     1      -8.892   9.464  68.359  1.00  0.00    -0.128 A  
HETATM   19  C   UNL     1      -8.850  10.831  68.074  1.00  0.00    -0.132 A  
HETATM   20  C   UNL     1      -6.888  11.066  69.465  1.00  0.00    -0.133 A  
HETATM   21  C   UNL     1      -7.893   8.881  69.175  1.00  0.00    -0.093 A  
HETATM   22  C   UNL     1      -6.897   9.697  69.752  1.00  0.00    -0.070 A  
BRANCH  18  23
HETATM   23  O   UNL     1      -9.828   8.618  67.810  1.00  0.00    -0.159 OA 
HETATM   24  C   UNL     1      -9.797   8.470  66.394  1.00  0.00    -0.257 C  
ENDBRANCH  18  23
BRANCH  21  25
HETATM   25  O   UNL     1      -8.039   7.529  69.392  1.00  0.00    -0.124 OA 
HETATM   26  C   UNL     1      -8.707   7.123  70.581  1.00  0.00    -0.148 C  
ENDBRANCH  21  25
BRANCH  22  27
HETATM   27  O   UNL     1      -5.971   9.119  70.580  1.00  0.00    -0.034 OA 
HETATM   28  C   UNL     1      -5.594   9.819  71.760  1.00  0.00    -0.005 C  
ENDBRANCH  22  27
ENDBRANCH  15  17
ENDBRANCH  14  15
ENDBRANCH   6  14
TORSDOF 6
ENDMDL
MODEL      130
REMARK 921   NORMALIZED FREE ENERGY PREDICTED BY IDOCK:   -4.54 KCAL/MOL
REMARK 922        TOTAL FREE ENERGY PREDICTED BY IDOCK:   -7.07 KCAL/MOL
REMARK 923 INTER-LIGAND FREE ENERGY PREDICTED BY IDOCK:   -6.46 KCAL/MOL
REMARK 924 INTRA-LIGAND FREE ENERGY PREDICTED BY IDOCK:   -0.61 KCAL/MOL
REMARK 927      BINDING AFFINITY PREDICTED BY RF-SCORE:    0.00 PKD
ROOT
HETATM    1  C   UNL     1     -10.284  14.081  65.046  1.00  0.00    -0.395 C  
HETATM    2  C   UNL     1     -10.304  12.707  65.711  1.00  0.00    -0.298 C  
HETATM    3  C   UNL     1     -10.061  12.532  67.256  1.00  0.00    -0.213 C  
HETATM    4  N   UNL     1     -11.033  13.273  68.128  1.00  0.00    -0.246 NA 
HETATM    5  C   UNL     1     -10.136  10.982  67.618  1.00  0.00    -0.208 A  
HETATM    6  C   UNL     1      -8.565  12.876  67.617  1.00  0.00    -0.182 C  
HETATM    7  C   UNL     1     -10.419   9.981  66.667  1.00  0.00    -0.244 A  
HETATM    8  C   UNL     1     -10.031   9.209  69.313  1.00  0.00    -0.187 A  
HETATM    9  C   UNL     1     -11.116  14.723  67.989  1.00  0.00    -0.286 C  
HETATM   10  C   UNL     1     -12.394  12.730  68.115  1.00  0.00     0.329 C  
HETATM   11  C   UNL     1     -10.529   8.635  67.032  1.00  0.00    -0.354 A  
HETATM   12  C   UNL     1     -10.343   8.250  68.354  1.00  0.00    -0.237 A  
HETATM   13  C   UNL     1      -9.931  10.556  68.952  1.00  0.00    -0.213 A  
ENDROOT
BRANCH   6  14
HETATM   14  O   UNL     1      -8.060  14.155  67.227  1.00  0.00    -0.187 OA 
BRANCH  14  15
HETATM   15  C   UNL     1      -7.548  14.890  68.246  1.00  0.00    -0.113 C  
HETATM   16  O   UNL     1      -7.032  14.464  69.266  1.00  0.00    -0.120 OA 
BRANCH  15  17
HETATM   17  C   UNL     1      -7.546  16.321  67.881  1.00  0.00    -0.148 A  
HETATM   18  C   UNL     1      -7.057  18.005  66.208  1.00  0.00    -0.272 A  
HETATM   19  C   UNL     1      -6.941  16.695  66.679  1.00  0.00    -0.243 A  
HETATM   20  C   UNL     1      -8.249  17.274  68.627  1.00  0.00    -0.262 A  
HETATM   21  C   UNL     1      -7.814  18.954  66.937  1.00  0.00    -0.246 A  
HETATM   22  C   UNL     1      -8.394  18.588  68.170  1.00  0.00    -0.296 A  
BRANCH  18  23
HETATM   23  O   UNL     1      -6.530  18.413  65.005  1.00  0.00    -0.436 OA 
HETATM   24  C   UNL     1      -5.133  18.693  64.985  1.00  0.00    -0.169 C  
ENDBRANCH  18  23
BRANCH  21  25
HETATM   25  O   UNL     1      -7.854  20.213  66.381  1.00  0.00    -0.289 OA 
HETATM   26  C   UNL     1      -6.898  21.162  66.837  1.00  0.00    -0.246 C  
ENDBRANCH  21  25
BRANCH  22  27
HETATM   27  O   UNL     1      -9.079  19.537  68.882  1.00  0.00    -0.367 OA 
HETATM   28  C   UNL     1     -10.306  20.023  68.347  1.00  0.00    -0.330 C  
ENDBRANCH  22  27
ENDBRANCH  15  17
ENDBRANCH  14  15
ENDBRANCH   6  14
TORSDOF 6
ENDMDL
MODEL      131
REMARK 921   NORMALIZED FREE ENERGY PREDICTED BY IDOCK:   -4.52 KCAL/MOL
REMARK 922        TOTAL FREE ENERGY PREDICTED BY IDOCK:   -7.04 KCAL/MOL
REMARK 923 INTER-LIGAND FREE ENERGY PREDICTED BY IDOCK:   -5.77 KCAL/MOL
REMARK 924 INTRA-LIGAND FREE ENERGY PREDICTED BY IDOCK:   -1.26 KCAL/MOL
REMARK 927      BINDING AFFINITY PREDICTED BY RF-SCORE:    0.00 PKD
ROOT
HETATM    1  C   UNL     1     -10.347  10.780  65.955  1.00  0.00    -0.302 C  
HETATM    2  C   UNL     1     -10.841  11.501  67.205  1.00  0.00    -0.301 C  
HETATM    3  C   UNL     1     -10.479  13.005  67.491  1.00  0.00    -0.227 C  
HETATM    4  N   UNL     1     -10.922  13.967  66.426  1.00  0.00    -0.305 NA 
HETATM    5  C   UNL     1     -11.139  13.442  68.873  1.00  0.00    -0.307 A  
HETATM    6  C   UNL     1      -8.941  13.147  67.809  1.00  0.00    -0.194 C  
HETATM    7  C   UNL     1     -11.943  12.583  69.649  1.00  0.00    -0.339 A  
HETATM    8  C   UNL     1     -11.544  15.184  70.556  1.00  0.00    -0.340 A  
HETATM    9  C   UNL     1     -10.414  13.777  65.071  1.00  0.00    -0.402 C  
HETATM   10  C   UNL     1     -12.373  14.161  66.351  1.00  0.00    -0.400 C  
HETATM   11  C   UNL     1     -12.549  13.019  70.832  1.00  0.00    -0.364 A  
HETATM   12  C   UNL     1     -12.356  14.319  71.281  1.00  0.00    -0.439 A  
HETATM   13  C   UNL     1     -10.945  14.754  69.368  1.00  0.00    -0.282 A  
ENDROOT
BRANCH   6  14
HETATM   14  O   UNL     1      -8.011  12.636  66.851  1.00  0.00    -0.101 OA 
BRANCH  14  15
HETATM   15  C   UNL     1      -6.918  12.040  67.393  1.00  0.00    -0.139 C  
HETATM   16  O   UNL     1      -5.966  12.597  67.914  1.00  0.00    -0.081 OA 
BRANCH  15  17
HETATM   17  C   UNL     1      -7.107  10.576  67.419  1.00  0.00    -0.090 A  
HETATM   18  C   UNL     1      -8.067   8.657  68.546  1.00  0.00    -0.117 A  
HETATM   19  C   UNL     1      -7.715  10.009  68.542  1.00  0.00    -0.089 A  
HETATM   20  C   UNL     1      -6.828   9.775  66.305  1.00  0.00    -0.092 A  
HETATM   21  C   UNL     1      -7.834   7.861  67.399  1.00  0.00    -0.121 A  
HETATM   22  C   UNL     1      -7.186   8.423  66.278  1.00  0.00    -0.078 A  
BRANCH  18  23
HETATM   23  O   UNL     1      -8.717   8.061  69.602  1.00  0.00    -0.131 OA 
HETATM   24  C   UNL     1      -8.113   8.206  70.884  1.00  0.00    -0.098 C  
ENDBRANCH  18  23
BRANCH  21  25
HETATM   25  O   UNL     1      -8.215   6.545  67.520  1.00  0.00    -0.119 OA 
HETATM   26  C   UNL     1      -9.457   6.164  66.939  1.00  0.00    -0.136 C  
ENDBRANCH  21  25
BRANCH  22  27
HETATM   27  O   UNL     1      -6.925   7.622  65.199  1.00  0.00    -0.053 OA 
HETATM   28  C   UNL     1      -7.723   7.785  64.031  1.00  0.00    -0.126 C  
ENDBRANCH  22  27
ENDBRANCH  15  17
ENDBRANCH  14  15
ENDBRANCH   6  14
TORSDOF 6
ENDMDL
MODEL      132
REMARK 921   NORMALIZED FREE ENERGY PREDICTED BY IDOCK:   -4.52 KCAL/MOL
REMARK 922        TOTAL FREE ENERGY PREDICTED BY IDOCK:   -7.03 KCAL/MOL
REMARK 923 INTER-LIGAND FREE ENERGY PREDICTED BY IDOCK:   -6.25 KCAL/MOL
REMARK 924 INTRA-LIGAND FREE ENERGY PREDICTED BY IDOCK:   -0.79 KCAL/MOL
REMARK 927      BINDING AFFINITY PREDICTED BY RF-SCORE:    0.00 PKD
ROOT
HETATM    1  C   UNL     1     -10.810   7.420  69.885  1.00  0.00    -0.259 C  
HETATM    2  C   UNL     1      -9.999   7.587  68.604  1.00  0.00    -0.178 C  
HETATM    3  C   UNL     1      -8.900   8.704  68.459  1.00  0.00    -0.142 C  
HETATM    4  N   UNL     1      -7.796   8.628  69.474  1.00  0.00    -0.093 NA 
HETATM    5  C   UNL     1      -8.256   8.611  67.005  1.00  0.00    -0.106 A  
HETATM    6  C   UNL     1      -9.571  10.131  68.425  1.00  0.00    -0.143 C  
HETATM    7  C   UNL     1      -8.628   7.635  66.059  1.00  0.00    -0.165 A  
HETATM    8  C   UNL     1      -6.632   9.447  65.364  1.00  0.00    -0.071 A  
HETATM    9  C   UNL     1      -8.151   8.722  70.887  1.00  0.00    -0.150 C  
HETATM   10  C   UNL     1      -6.892   7.488  69.302  1.00  0.00    -0.056 C  
HETATM   11  C   UNL     1      -8.003   7.551  64.810  1.00  0.00    -0.132 A  
HETATM   12  C   UNL     1      -7.002   8.451  64.465  1.00  0.00    -0.073 A  
HETATM   13  C   UNL     1      -7.249   9.525  66.617  1.00  0.00    -0.086 A  
ENDROOT
BRANCH   6  14
HETATM   14  O   UNL     1     -10.435  10.489  69.506  1.00  0.00    -0.227 OA 
BRANCH  14  15
HETATM   15  C   UNL     1     -11.654  10.945  69.121  1.00  0.00    -0.319 C  
HETATM   16  O   UNL     1     -12.738  10.559  69.524  1.00  0.00    -0.174 OA 
BRANCH  15  17
HETATM   17  C   UNL     1     -11.495  12.121  68.242  1.00  0.00    -0.360 A  
HETATM   18  C   UNL     1     -11.926  13.135  66.084  1.00  0.00    -0.422 A  
HETATM   19  C   UNL     1     -11.900  12.009  66.910  1.00  0.00    -0.250 A  
HETATM   20  C   UNL     1     -11.091  13.366  68.740  1.00  0.00    -0.297 A  
HETATM   21  C   UNL     1     -11.570  14.402  66.603  1.00  0.00    -0.384 A  
HETATM   22  C   UNL     1     -11.125  14.511  67.938  1.00  0.00    -0.279 A  
BRANCH  18  23
HETATM   23  O   UNL     1     -12.369  13.092  64.782  1.00  0.00    -0.403 OA 
HETATM   24  C   UNL     1     -11.684  12.200  63.907  1.00  0.00    -0.458 C  
ENDBRANCH  18  23
BRANCH  21  25
HETATM   25  O   UNL     1     -11.627  15.437  65.697  1.00  0.00    -0.140 OA 
HETATM   26  C   UNL     1     -10.416  15.815  65.054  1.00  0.00    -0.301 C  
ENDBRANCH  21  25
BRANCH  22  27
HETATM   27  O   UNL     1     -10.736  15.739  68.403  1.00  0.00    -0.259 OA 
HETATM   28  C   UNL     1     -10.603  15.914  69.810  1.00  0.00    -0.322 C  
ENDBRANCH  22  27
ENDBRANCH  15  17
ENDBRANCH  14  15
ENDBRANCH   6  14
TORSDOF 6
ENDMDL
MODEL      133
REMARK 921   NORMALIZED FREE ENERGY PREDICTED BY IDOCK:   -4.49 KCAL/MOL
REMARK 922        TOTAL FREE ENERGY PREDICTED BY IDOCK:   -7.00 KCAL/MOL
REMARK 923 INTER-LIGAND FREE ENERGY PREDICTED BY IDOCK:   -6.48 KCAL/MOL
REMARK 924 INTRA-LIGAND FREE ENERGY PREDICTED BY IDOCK:   -0.51 KCAL/MOL
REMARK 927      BINDING AFFINITY PREDICTED BY RF-SCORE:    0.00 PKD
ROOT
HETATM    1  C   UNL     1     -12.610   6.894  71.185  1.00  0.00    -0.366 C  
HETATM    2  C   UNL     1     -11.314   6.904  70.378  1.00  0.00    -0.376 C  
HETATM    3  C   UNL     1     -10.092   7.808  70.786  1.00  0.00    -0.192 C  
HETATM    4  N   UNL     1      -9.555   7.547  72.164  1.00  0.00    -0.149 NA 
HETATM    5  C   UNL     1      -8.915   7.590  69.735  1.00  0.00    -0.141 A  
HETATM    6  C   UNL     1     -10.442   9.331  70.568  1.00  0.00    -0.255 C  
HETATM    7  C   UNL     1      -9.002   6.687  68.657  1.00  0.00    -0.124 A  
HETATM    8  C   UNL     1      -6.634   8.111  68.991  1.00  0.00    -0.048 A  
HETATM    9  C   UNL     1     -10.459   7.715  73.298  1.00  0.00    -0.355 C  
HETATM   10  C   UNL     1      -8.864   6.264  72.311  1.00  0.00    -0.136 C  
HETATM   11  C   UNL     1      -7.927   6.483  67.784  1.00  0.00    -0.115 A  
HETATM   12  C   UNL     1      -6.743   7.189  67.955  1.00  0.00    -0.061 A  
HETATM   13  C   UNL     1      -7.704   8.309  69.870  1.00  0.00    -0.097 A  
ENDROOT
BRANCH   6  14
HETATM   14  O   UNL     1     -11.612   9.846  71.207  1.00  0.00    -0.360 OA 
BRANCH  14  15
HETATM   15  C   UNL     1     -12.567  10.291  70.351  1.00  0.00    -0.204 C  
HETATM   16  O   UNL     1     -13.775  10.183  70.484  1.00  0.00     0.012 OA 
BRANCH  15  17
HETATM   17  C   UNL     1     -11.945  11.094  69.279  1.00  0.00    -0.421 A  
HETATM   18  C   UNL     1     -10.989  13.217  68.607  1.00  0.00    -0.265 A  
HETATM   19  C   UNL     1     -11.722  12.452  69.517  1.00  0.00    -0.388 A  
HETATM   20  C   UNL     1     -11.451  10.507  68.109  1.00  0.00    -0.255 A  
HETATM   21  C   UNL     1     -10.443  12.609  67.450  1.00  0.00    -0.224 A  
HETATM   22  C   UNL     1     -10.700  11.246  67.189  1.00  0.00    -0.253 A  
BRANCH  18  23
HETATM   23  O   UNL     1     -10.692  14.543  68.818  1.00  0.00    -0.238 OA 
HETATM   24  C   UNL     1     -11.774  15.462  68.705  1.00  0.00    -0.351 C  
ENDBRANCH  18  23
BRANCH  21  25
HETATM   25  O   UNL     1      -9.746  13.460  66.623  1.00  0.00    -0.260 OA 
HETATM   26  C   UNL     1     -10.443  14.015  65.514  1.00  0.00    -0.327 C  
ENDBRANCH  21  25
BRANCH  22  27
HETATM   27  O   UNL     1     -10.205  10.692  66.039  1.00  0.00    -0.242 OA 
HETATM   28  C   UNL     1      -9.822   9.321  66.062  1.00  0.00    -0.293 C  
ENDBRANCH  22  27
ENDBRANCH  15  17
ENDBRANCH  14  15
ENDBRANCH   6  14
TORSDOF 6
ENDMDL
MODEL      134
REMARK 921   NORMALIZED FREE ENERGY PREDICTED BY IDOCK:   -4.48 KCAL/MOL
REMARK 922        TOTAL FREE ENERGY PREDICTED BY IDOCK:   -6.99 KCAL/MOL
REMARK 923 INTER-LIGAND FREE ENERGY PREDICTED BY IDOCK:   -6.59 KCAL/MOL
REMARK 924 INTRA-LIGAND FREE ENERGY PREDICTED BY IDOCK:   -0.39 KCAL/MOL
REMARK 927      BINDING AFFINITY PREDICTED BY RF-SCORE:    0.00 PKD
ROOT
HETATM    1  C   UNL     1     -12.348  14.035  66.381  1.00  0.00    -0.468 C  
HETATM    2  C   UNL     1     -11.460  12.989  65.712  1.00  0.00    -0.367 C  
HETATM    3  C   UNL     1     -10.177  12.416  66.421  1.00  0.00    -0.234 C  
HETATM    4  N   UNL     1     -10.440  11.748  67.741  1.00  0.00    -0.190 NA 
HETATM    5  C   UNL     1      -9.478  11.362  65.452  1.00  0.00    -0.240 A  
HETATM    6  C   UNL     1      -9.070  13.533  66.537  1.00  0.00    -0.113 C  
HETATM    7  C   UNL     1      -9.998  11.013  64.190  1.00  0.00    -0.385 A  
HETATM    8  C   UNL     1      -7.669   9.753  65.046  1.00  0.00    -0.126 A  
HETATM    9  C   UNL     1     -11.055  12.539  68.802  1.00  0.00    -0.270 C  
HETATM   10  C   UNL     1     -11.155  10.473  67.643  1.00  0.00    -0.309 C  
HETATM   11  C   UNL     1      -9.385  10.044  63.388  1.00  0.00    -0.300 A  
HETATM   12  C   UNL     1      -8.226   9.410  63.819  1.00  0.00    -0.165 A  
HETATM   13  C   UNL     1      -8.286  10.714  65.853  1.00  0.00    -0.161 A  
ENDROOT
BRANCH   6  14
HETATM   14  O   UNL     1      -9.424  14.762  67.176  1.00  0.00    -0.214 OA 
BRANCH  14  15
HETATM   15  C   UNL     1      -8.539  15.178  68.118  1.00  0.00    -0.158 C  
HETATM   16  O   UNL     1      -8.026  14.498  68.990  1.00  0.00    -0.137 OA 
BRANCH  15  17
HETATM   17  C   UNL     1      -8.136  16.573  67.845  1.00  0.00    -0.168 A  
HETATM   18  C   UNL     1      -6.481  18.079  66.915  1.00  0.00    -0.180 A  
HETATM   19  C   UNL     1      -6.852  16.803  67.345  1.00  0.00    -0.186 A  
HETATM   20  C   UNL     1      -9.044  17.635  67.935  1.00  0.00    -0.260 A  
HETATM   21  C   UNL     1      -7.417  19.140  66.957  1.00  0.00    -0.215 A  
HETATM   22  C   UNL     1      -8.702  18.918  67.495  1.00  0.00    -0.275 A  
BRANCH  18  23
HETATM   23  O   UNL     1      -5.250  18.349  66.364  1.00  0.00    -0.134 OA 
HETATM   24  C   UNL     1      -5.204  18.481  64.946  1.00  0.00    -0.163 C  
ENDBRANCH  18  23
BRANCH  21  25
HETATM   25  O   UNL     1      -6.939  20.352  66.513  1.00  0.00    -0.240 OA 
HETATM   26  C   UNL     1      -6.295  21.191  67.465  1.00  0.00    -0.368 C  
ENDBRANCH  21  25
BRANCH  22  27
HETATM   27  O   UNL     1      -9.574  19.971  67.572  1.00  0.00    -0.351 OA 
HETATM   28  C   UNL     1     -10.953  19.723  67.320  1.00  0.00    -0.221 C  
ENDBRANCH  22  27
ENDBRANCH  15  17
ENDBRANCH  14  15
ENDBRANCH   6  14
TORSDOF 6
ENDMDL
MODEL      135
REMARK 921   NORMALIZED FREE ENERGY PREDICTED BY IDOCK:   -4.48 KCAL/MOL
REMARK 922        TOTAL FREE ENERGY PREDICTED BY IDOCK:   -6.99 KCAL/MOL
REMARK 923 INTER-LIGAND FREE ENERGY PREDICTED BY IDOCK:   -6.22 KCAL/MOL
REMARK 924 INTRA-LIGAND FREE ENERGY PREDICTED BY IDOCK:   -0.77 KCAL/MOL
REMARK 927      BINDING AFFINITY PREDICTED BY RF-SCORE:    0.00 PKD
ROOT
HETATM    1  C   UNL     1      -8.071   6.823  66.368  1.00  0.00    -0.110 C  
HETATM    2  C   UNL     1      -8.201   7.183  67.845  1.00  0.00    -0.119 C  
HETATM    3  C   UNL     1      -9.565   7.669  68.462  1.00  0.00    -0.148 C  
HETATM    4  N   UNL     1     -10.698   6.695  68.316  1.00  0.00    -0.240 NA 
HETATM    5  C   UNL     1      -9.353   7.969  70.012  1.00  0.00    -0.156 A  
HETATM    6  C   UNL     1      -9.939   9.096  67.905  1.00  0.00    -0.186 C  
HETATM    7  C   UNL     1      -8.125   7.772  70.675  1.00  0.00    -0.103 A  
HETATM    8  C   UNL     1     -10.294   8.676  72.167  1.00  0.00    -0.403 A  
HETATM    9  C   UNL     1     -11.091   6.292  66.970  1.00  0.00    -0.297 C  
HETATM   10  C   UNL     1     -10.569   5.489  69.138  1.00  0.00    -0.230 C  
HETATM   11  C   UNL     1      -7.991   7.997  72.049  1.00  0.00    -0.147 A  
HETATM   12  C   UNL     1      -9.075   8.441  72.796  1.00  0.00    -0.299 A  
HETATM   13  C   UNL     1     -10.433   8.442  70.796  1.00  0.00    -0.230 A  
ENDROOT
BRANCH   6  14
HETATM   14  O   UNL     1     -10.004   9.264  66.486  1.00  0.00    -0.234 OA 
BRANCH  14  15
HETATM   15  C   UNL     1      -9.143  10.189  65.992  1.00  0.00    -0.154 C  
HETATM   16  O   UNL     1      -8.222   9.991  65.218  1.00  0.00    -0.135 OA 
BRANCH  15  17
HETATM   17  C   UNL     1      -9.577  11.543  66.396  1.00  0.00    -0.230 A  
HETATM   18  C   UNL     1      -8.935  13.768  67.110  1.00  0.00    -0.235 A  
HETATM   19  C   UNL     1      -8.609  12.430  66.873  1.00  0.00    -0.171 A  
HETATM   20  C   UNL     1     -10.883  11.995  66.179  1.00  0.00    -0.325 A  
HETATM   21  C   UNL     1     -10.243  14.236  66.838  1.00  0.00    -0.266 A  
HETATM   22  C   UNL     1     -11.231  13.333  66.392  1.00  0.00    -0.302 A  
BRANCH  18  23
HETATM   23  O   UNL     1      -8.009  14.697  67.526  1.00  0.00    -0.160 OA 
HETATM   24  C   UNL     1      -7.305  14.397  68.728  1.00  0.00    -0.131 C  
ENDBRANCH  18  23
BRANCH  21  25
HETATM   25  O   UNL     1     -10.450  15.569  67.115  1.00  0.00    -0.275 OA 
HETATM   26  C   UNL     1     -11.037  15.896  68.368  1.00  0.00    -0.345 C  
ENDBRANCH  21  25
BRANCH  22  27
HETATM   27  O   UNL     1     -12.502  13.798  66.185  1.00  0.00    -0.446 OA 
HETATM   28  C   UNL     1     -12.901  14.094  64.850  1.00  0.00    -0.145 C  
ENDBRANCH  22  27
ENDBRANCH  15  17
ENDBRANCH  14  15
ENDBRANCH   6  14
TORSDOF 6
ENDMDL
MODEL      136
REMARK 921   NORMALIZED FREE ENERGY PREDICTED BY IDOCK:   -4.46 KCAL/MOL
REMARK 922        TOTAL FREE ENERGY PREDICTED BY IDOCK:   -6.97 KCAL/MOL
REMARK 923 INTER-LIGAND FREE ENERGY PREDICTED BY IDOCK:   -6.44 KCAL/MOL
REMARK 924 INTRA-LIGAND FREE ENERGY PREDICTED BY IDOCK:   -0.52 KCAL/MOL
REMARK 927      BINDING AFFINITY PREDICTED BY RF-SCORE:    0.00 PKD
ROOT
HETATM    1  C   UNL     1     -11.975  13.883  68.018  1.00  0.00    -0.390 C  
HETATM    2  C   UNL     1     -11.453  15.311  67.891  1.00  0.00    -0.325 C  
HETATM    3  C   UNL     1     -10.232  15.667  66.965  1.00  0.00    -0.274 C  
HETATM    4  N   UNL     1     -10.424  15.316  65.517  1.00  0.00    -0.343 NA 
HETATM    5  C   UNL     1      -9.941  17.230  67.072  1.00  0.00    -0.289 A  
HETATM    6  C   UNL     1      -8.904  15.050  67.550  1.00  0.00    -0.185 C  
HETATM    7  C   UNL     1     -10.716  18.106  67.857  1.00  0.00    -0.331 A  
HETATM    8  C   UNL     1      -8.613  19.176  66.380  1.00  0.00    -0.335 A  
HETATM    9  C   UNL     1     -10.677  13.920  65.175  1.00  0.00    -0.362 C  
HETATM   10  C   UNL     1     -11.406  16.148  64.818  1.00  0.00    -0.249 C  
HETATM   11  C   UNL     1     -10.462  19.482  67.885  1.00  0.00    -0.552 A  
HETATM   12  C   UNL     1      -9.417  20.017  67.142  1.00  0.00    -0.514 A  
HETATM   13  C   UNL     1      -8.871  17.802  66.343  1.00  0.00    -0.256 A  
ENDROOT
BRANCH   6  14
HETATM   14  O   UNL     1      -8.876  13.644  67.807  1.00  0.00    -0.169 OA 
BRANCH  14  15
HETATM   15  C   UNL     1      -7.644  13.082  67.712  1.00  0.00    -0.152 C  
HETATM   16  O   UNL     1      -6.595  13.548  68.124  1.00  0.00    -0.092 OA 
BRANCH  15  17
HETATM   17  C   UNL     1      -7.759  11.711  67.175  1.00  0.00    -0.159 A  
HETATM   18  C   UNL     1      -8.790  10.226  65.560  1.00  0.00    -0.172 A  
HETATM   19  C   UNL     1      -8.746  11.457  66.220  1.00  0.00    -0.173 A  
HETATM   20  C   UNL     1      -6.826  10.715  67.486  1.00  0.00    -0.078 A  
HETATM   21  C   UNL     1      -7.812   9.240  65.837  1.00  0.00    -0.099 A  
HETATM   22  C   UNL     1      -6.837   9.481  66.828  1.00  0.00    -0.080 A  
BRANCH  18  23
HETATM   23  O   UNL     1      -9.705   9.943  64.573  1.00  0.00    -0.291 OA 
HETATM   24  C   UNL     1      -9.377  10.384  63.258  1.00  0.00    -0.304 C  
ENDBRANCH  18  23
BRANCH  21  25
HETATM   25  O   UNL     1      -7.958   8.067  65.132  1.00  0.00    -0.112 OA 
HETATM   26  C   UNL     1      -7.020   7.803  64.095  1.00  0.00    -0.068 C  
ENDBRANCH  21  25
BRANCH  22  27
HETATM   27  O   UNL     1      -5.933   8.493  67.115  1.00  0.00    -0.051 OA 
HETATM   28  C   UNL     1      -5.867   8.009  68.452  1.00  0.00    -0.036 C  
ENDBRANCH  22  27
ENDBRANCH  15  17
ENDBRANCH  14  15
ENDBRANCH   6  14
TORSDOF 6
ENDMDL
MODEL      137
REMARK 921   NORMALIZED FREE ENERGY PREDICTED BY IDOCK:   -4.43 KCAL/MOL
REMARK 922        TOTAL FREE ENERGY PREDICTED BY IDOCK:   -6.92 KCAL/MOL
REMARK 923 INTER-LIGAND FREE ENERGY PREDICTED BY IDOCK:   -6.61 KCAL/MOL
REMARK 924 INTRA-LIGAND FREE ENERGY PREDICTED BY IDOCK:   -0.31 KCAL/MOL
REMARK 927      BINDING AFFINITY PREDICTED BY RF-SCORE:    0.00 PKD
ROOT
HETATM    1  C   UNL     1      -8.398  18.335  68.605  1.00  0.00    -0.305 C  
HETATM    2  C   UNL     1      -7.679  17.068  69.060  1.00  0.00    -0.180 C  
HETATM    3  C   UNL     1      -7.390  15.879  68.070  1.00  0.00    -0.131 C  
HETATM    4  N   UNL     1      -6.562  16.250  66.873  1.00  0.00    -0.273 NA 
HETATM    5  C   UNL     1      -6.642  14.717  68.862  1.00  0.00    -0.093 A  
HETATM    6  C   UNL     1      -8.738  15.172  67.657  1.00  0.00    -0.170 C  
HETATM    7  C   UNL     1      -6.287  14.816  70.222  1.00  0.00    -0.162 A  
HETATM    8  C   UNL     1      -5.592  12.498  68.848  1.00  0.00    -0.063 A  
HETATM    9  C   UNL     1      -7.070  17.284  65.978  1.00  0.00    -0.165 C  
HETATM   10  C   UNL     1      -5.161  16.551  67.177  1.00  0.00    -0.075 C  
HETATM   11  C   UNL     1      -5.583  13.796  70.871  1.00  0.00    -0.198 A  
HETATM   12  C   UNL     1      -5.230  12.641  70.183  1.00  0.00    -0.100 A  
HETATM   13  C   UNL     1      -6.287  13.521  68.195  1.00  0.00    -0.124 A  
ENDROOT
BRANCH   6  14
HETATM   14  O   UNL     1      -9.773  15.983  67.094  1.00  0.00    -0.224 OA 
BRANCH  14  15
HETATM   15  C   UNL     1     -10.864  16.128  67.888  1.00  0.00    -0.332 C  
HETATM   16  O   UNL     1     -11.449  17.168  68.142  1.00  0.00     0.021 OA 
BRANCH  15  17
HETATM   17  C   UNL     1     -11.373  14.801  68.290  1.00  0.00    -0.319 A  
HETATM   18  C   UNL     1     -11.651  12.461  67.727  1.00  0.00    -0.352 A  
HETATM   19  C   UNL     1     -11.340  13.769  67.349  1.00  0.00    -0.348 A  
HETATM   20  C   UNL     1     -11.744  14.522  69.610  1.00  0.00    -0.356 A  
HETATM   21  C   UNL     1     -11.974  12.171  69.074  1.00  0.00    -0.247 A  
HETATM   22  C   UNL     1     -12.044  13.218  70.017  1.00  0.00    -0.315 A  
BRANCH  18  23
HETATM   23  O   UNL     1     -11.581  11.398  66.855  1.00  0.00    -0.492 OA 
HETATM   24  C   UNL     1     -10.278  11.018  66.421  1.00  0.00    -0.236 C  
ENDBRANCH  18  23
BRANCH  21  25
HETATM   25  O   UNL     1     -12.269  10.851  69.328  1.00  0.00    -0.364 OA 
HETATM   26  C   UNL     1     -11.311  10.093  70.058  1.00  0.00    -0.287 C  
ENDBRANCH  21  25
BRANCH  22  27
HETATM   27  O   UNL     1     -12.409  12.921  71.304  1.00  0.00    -0.271 OA 
HETATM   28  C   UNL     1     -13.307  13.803  71.969  1.00  0.00    -0.447 C  
ENDBRANCH  22  27
ENDBRANCH  15  17
ENDBRANCH  14  15
ENDBRANCH   6  14
TORSDOF 6
ENDMDL
MODEL      138
REMARK 921   NORMALIZED FREE ENERGY PREDICTED BY IDOCK:   -4.42 KCAL/MOL
REMARK 922        TOTAL FREE ENERGY PREDICTED BY IDOCK:   -6.91 KCAL/MOL
REMARK 923 INTER-LIGAND FREE ENERGY PREDICTED BY IDOCK:   -6.20 KCAL/MOL
REMARK 924 INTRA-LIGAND FREE ENERGY PREDICTED BY IDOCK:   -0.71 KCAL/MOL
REMARK 927      BINDING AFFINITY PREDICTED BY RF-SCORE:    0.00 PKD
ROOT
HETATM    1  C   UNL     1     -11.050   6.438  68.905  1.00  0.00    -0.420 C  
HETATM    2  C   UNL     1     -10.707   5.742  67.591  1.00  0.00    -0.313 C  
HETATM    3  C   UNL     1      -9.339   5.992  66.854  1.00  0.00    -0.131 C  
HETATM    4  N   UNL     1      -8.122   5.657  67.668  1.00  0.00    -0.101 NA 
HETATM    5  C   UNL     1      -9.306   5.127  65.517  1.00  0.00    -0.125 A  
HETATM    6  C   UNL     1      -9.283   7.463  66.289  1.00  0.00    -0.135 C  
HETATM    7  C   UNL     1     -10.352   4.264  65.132  1.00  0.00    -0.215 A  
HETATM    8  C   UNL     1      -8.102   4.414  63.500  1.00  0.00    -0.094 A  
HETATM    9  C   UNL     1      -7.926   6.357  68.934  1.00  0.00    -0.110 C  
HETATM   10  C   UNL     1      -7.922   4.224  67.898  1.00  0.00    -0.087 C  
HETATM   11  C   UNL     1     -10.265   3.480  63.976  1.00  0.00    -0.223 A  
HETATM   12  C   UNL     1      -9.139   3.549  63.165  1.00  0.00    -0.096 A  
HETATM   13  C   UNL     1      -8.182   5.191  64.659  1.00  0.00    -0.132 A  
ENDROOT
BRANCH   6  14
HETATM   14  O   UNL     1      -9.502   8.540  67.203  1.00  0.00    -0.148 OA 
BRANCH  14  15
HETATM   15  C   UNL     1      -9.092   9.752  66.751  1.00  0.00    -0.146 C  
HETATM   16  O   UNL     1      -8.160   9.973  65.995  1.00  0.00    -0.117 OA 
BRANCH  15  17
HETATM   17  C   UNL     1     -10.049  10.795  67.173  1.00  0.00    -0.243 A  
HETATM   18  C   UNL     1     -11.459  11.686  68.931  1.00  0.00    -0.287 A  
HETATM   19  C   UNL     1     -10.677  10.652  68.413  1.00  0.00    -0.260 A  
HETATM   20  C   UNL     1     -10.229  11.973  66.439  1.00  0.00    -0.243 A  
HETATM   21  C   UNL     1     -11.596  12.898  68.212  1.00  0.00    -0.335 A  
HETATM   22  C   UNL     1     -10.993  13.030  66.943  1.00  0.00    -0.265 A  
BRANCH  18  23
HETATM   23  O   UNL     1     -12.054  11.621  70.170  1.00  0.00    -0.322 OA 
HETATM   24  C   UNL     1     -12.127  10.332  70.772  1.00  0.00    -0.353 C  
ENDBRANCH  18  23
BRANCH  21  25
HETATM   25  O   UNL     1     -12.394  13.843  68.816  1.00  0.00    -0.288 OA 
HETATM   26  C   UNL     1     -11.747  14.890  69.530  1.00  0.00    -0.320 C  
ENDBRANCH  21  25
BRANCH  22  27
HETATM   27  O   UNL     1     -11.181  14.193  66.244  1.00  0.00    -0.317 OA 
HETATM   28  C   UNL     1     -10.087  14.712  65.495  1.00  0.00    -0.377 C  
ENDBRANCH  22  27
ENDBRANCH  15  17
ENDBRANCH  14  15
ENDBRANCH   6  14
TORSDOF 6
ENDMDL
MODEL      139
REMARK 921   NORMALIZED FREE ENERGY PREDICTED BY IDOCK:   -4.42 KCAL/MOL
REMARK 922        TOTAL FREE ENERGY PREDICTED BY IDOCK:   -6.90 KCAL/MOL
REMARK 923 INTER-LIGAND FREE ENERGY PREDICTED BY IDOCK:   -6.00 KCAL/MOL
REMARK 924 INTRA-LIGAND FREE ENERGY PREDICTED BY IDOCK:   -0.90 KCAL/MOL
REMARK 927      BINDING AFFINITY PREDICTED BY RF-SCORE:    0.00 PKD
ROOT
HETATM    1  C   UNL     1     -11.704  11.957  68.770  1.00  0.00    -0.379 C  
HETATM    2  C   UNL     1     -11.342  13.412  68.482  1.00  0.00    -0.324 C  
HETATM    3  C   UNL     1     -10.361  13.806  67.316  1.00  0.00    -0.253 C  
HETATM    4  N   UNL     1     -10.800  13.357  65.952  1.00  0.00    -0.273 NA 
HETATM    5  C   UNL     1     -10.191  15.390  67.297  1.00  0.00    -0.254 A  
HETATM    6  C   UNL     1      -8.896  13.328  67.650  1.00  0.00    -0.200 C  
HETATM    7  C   UNL     1     -10.871  16.248  68.184  1.00  0.00    -0.342 A  
HETATM    8  C   UNL     1      -9.198  17.388  66.274  1.00  0.00    -0.234 A  
HETATM    9  C   UNL     1     -10.994  11.928  65.726  1.00  0.00    -0.311 C  
HETATM   10  C   UNL     1     -11.969  14.069  65.428  1.00  0.00    -0.380 C  
HETATM   11  C   UNL     1     -10.737  17.639  68.103  1.00  0.00    -0.312 A  
HETATM   12  C   UNL     1      -9.908  18.208  67.144  1.00  0.00    -0.319 A  
HETATM   13  C   UNL     1      -9.338  15.998  66.346  1.00  0.00    -0.329 A  
ENDROOT
BRANCH   6  14
HETATM   14  O   UNL     1      -8.697  11.945  67.955  1.00  0.00    -0.152 OA 
BRANCH  14  15
HETATM   15  C   UNL     1      -7.650  11.374  67.307  1.00  0.00    -0.138 C  
HETATM   16  O   UNL     1      -6.546  11.861  67.131  1.00  0.00    -0.130 OA 
BRANCH  15  17
HETATM   17  C   UNL     1      -7.973   9.972  66.970  1.00  0.00    -0.106 A  
HETATM   18  C   UNL     1      -9.062   7.910  67.626  1.00  0.00    -0.133 A  
HETATM   19  C   UNL     1      -8.586   9.183  67.946  1.00  0.00    -0.121 A  
HETATM   20  C   UNL     1      -7.815   9.470  65.673  1.00  0.00    -0.101 A  
HETATM   21  C   UNL     1      -8.950   7.424  66.301  1.00  0.00    -0.162 A  
HETATM   22  C   UNL     1      -8.298   8.205  65.323  1.00  0.00    -0.152 A  
BRANCH  18  23
HETATM   23  O   UNL     1      -9.723   7.113  68.533  1.00  0.00    -0.141 OA 
HETATM   24  C   UNL     1     -10.625   7.771  69.418  1.00  0.00    -0.208 C  
ENDBRANCH  18  23
BRANCH  21  25
HETATM   25  O   UNL     1      -9.448   6.156  66.105  1.00  0.00    -0.147 OA 
HETATM   26  C   UNL     1      -8.537   5.069  66.214  1.00  0.00    -0.113 C  
ENDBRANCH  21  25
BRANCH  22  27
HETATM   27  O   UNL     1      -8.156   7.693  64.061  1.00  0.00    -0.122 OA 
HETATM   28  C   UNL     1      -8.247   8.589  62.958  1.00  0.00    -0.165 C  
ENDBRANCH  22  27
ENDBRANCH  15  17
ENDBRANCH  14  15
ENDBRANCH   6  14
TORSDOF 6
ENDMDL
MODEL      140
REMARK 921   NORMALIZED FREE ENERGY PREDICTED BY IDOCK:   -4.40 KCAL/MOL
REMARK 922        TOTAL FREE ENERGY PREDICTED BY IDOCK:   -6.88 KCAL/MOL
REMARK 923 INTER-LIGAND FREE ENERGY PREDICTED BY IDOCK:   -7.00 KCAL/MOL
REMARK 924 INTRA-LIGAND FREE ENERGY PREDICTED BY IDOCK:    0.12 KCAL/MOL
REMARK 927      BINDING AFFINITY PREDICTED BY RF-SCORE:    0.00 PKD
ROOT
HETATM    1  C   UNL     1     -12.958   7.467  71.661  1.00  0.00    -0.409 C  
HETATM    2  C   UNL     1     -12.094   6.962  70.509  1.00  0.00    -0.315 C  
HETATM    3  C   UNL     1     -10.556   7.285  70.425  1.00  0.00    -0.226 C  
HETATM    4  N   UNL     1      -9.753   6.808  71.600  1.00  0.00    -0.163 NA 
HETATM    5  C   UNL     1      -9.961   6.624  69.103  1.00  0.00    -0.168 A  
HETATM    6  C   UNL     1     -10.334   8.822  70.145  1.00  0.00    -0.208 C  
HETATM    7  C   UNL     1     -10.733   5.851  68.213  1.00  0.00    -0.319 A  
HETATM    8  C   UNL     1      -8.027   6.185  67.656  1.00  0.00    -0.106 A  
HETATM    9  C   UNL     1     -10.104   7.310  72.924  1.00  0.00    -0.227 C  
HETATM   10  C   UNL     1      -9.608   5.352  71.683  1.00  0.00    -0.150 C  
HETATM   11  C   UNL     1     -10.164   5.242  67.090  1.00  0.00    -0.264 A  
HETATM   12  C   UNL     1      -8.811   5.402  66.816  1.00  0.00    -0.112 A  
HETATM   13  C   UNL     1      -8.592   6.787  68.785  1.00  0.00    -0.123 A  
ENDROOT
BRANCH   6  14
HETATM   14  O   UNL     1     -10.940   9.758  71.040  1.00  0.00    -0.320 OA 
BRANCH  14  15
HETATM   15  C   UNL     1     -11.588  10.781  70.425  1.00  0.00    -0.339 C  
HETATM   16  O   UNL     1     -12.405  11.534  70.927  1.00  0.00    -0.377 OA 
BRANCH  15  17
HETATM   17  C   UNL     1     -11.041  10.977  69.067  1.00  0.00    -0.301 A  
HETATM   18  C   UNL     1     -11.410  11.776  66.809  1.00  0.00    -0.320 A  
HETATM   19  C   UNL     1     -11.908  11.416  68.064  1.00  0.00    -0.273 A  
HETATM   20  C   UNL     1      -9.671  10.875  68.802  1.00  0.00    -0.196 A  
HETATM   21  C   UNL     1     -10.018  11.724  66.559  1.00  0.00    -0.204 A  
HETATM   22  C   UNL     1      -9.145  11.246  67.560  1.00  0.00    -0.151 A  
BRANCH  18  23
HETATM   23  O   UNL     1     -12.210  12.267  65.804  1.00  0.00    -0.622 OA 
HETATM   24  C   UNL     1     -12.657  13.612  65.947  1.00  0.00    -0.425 C  
ENDBRANCH  18  23
BRANCH  21  25
HETATM   25  O   UNL     1      -9.643  12.095  65.288  1.00  0.00    -0.182 OA 
HETATM   26  C   UNL     1      -9.458  11.060  64.329  1.00  0.00    -0.235 C  
ENDBRANCH  21  25
BRANCH  22  27
HETATM   27  O   UNL     1      -7.808  11.156  67.278  1.00  0.00    -0.125 OA 
HETATM   28  C   UNL     1      -6.996  12.306  67.494  1.00  0.00    -0.142 C  
ENDBRANCH  22  27
ENDBRANCH  15  17
ENDBRANCH  14  15
ENDBRANCH   6  14
TORSDOF 6
ENDMDL
MODEL      141
REMARK 921   NORMALIZED FREE ENERGY PREDICTED BY IDOCK:   -4.40 KCAL/MOL
REMARK 922        TOTAL FREE ENERGY PREDICTED BY IDOCK:   -6.87 KCAL/MOL
REMARK 923 INTER-LIGAND FREE ENERGY PREDICTED BY IDOCK:   -6.03 KCAL/MOL
REMARK 924 INTRA-LIGAND FREE ENERGY PREDICTED BY IDOCK:   -0.84 KCAL/MOL
REMARK 927      BINDING AFFINITY PREDICTED BY RF-SCORE:    0.00 PKD
ROOT
HETATM    1  C   UNL     1      -9.249   9.845  64.057  1.00  0.00    -0.302 C  
HETATM    2  C   UNL     1      -9.952  10.847  64.967  1.00  0.00    -0.356 C  
HETATM    3  C   UNL     1      -9.866  10.743  66.535  1.00  0.00    -0.203 C  
HETATM    4  N   UNL     1      -8.472  10.801  67.089  1.00  0.00    -0.125 NA 
HETATM    5  C   UNL     1     -10.715  11.928  67.179  1.00  0.00    -0.280 A  
HETATM    6  C   UNL     1     -10.650   9.472  67.043  1.00  0.00    -0.201 C  
HETATM    7  C   UNL     1     -11.380  12.905  66.411  1.00  0.00    -0.361 A  
HETATM    8  C   UNL     1     -11.515  13.096  69.185  1.00  0.00    -0.358 A  
HETATM    9  C   UNL     1      -7.517   9.785  66.657  1.00  0.00    -0.095 C  
HETATM   10  C   UNL     1      -7.830  12.113  66.979  1.00  0.00    -0.123 C  
HETATM   11  C   UNL     1     -12.073  13.961  67.013  1.00  0.00    -0.451 A  
HETATM   12  C   UNL     1     -12.134  14.061  68.397  1.00  0.00    -0.318 A  
HETATM   13  C   UNL     1     -10.814  12.045  68.586  1.00  0.00    -0.273 A  
ENDROOT
BRANCH   6  14
HETATM   14  O   UNL     1     -10.294   8.203  66.490  1.00  0.00    -0.273 OA 
BRANCH  14  15
HETATM   15  C   UNL     1     -10.660   7.138  67.248  1.00  0.00    -0.327 C  
HETATM   16  O   UNL     1     -11.342   6.191  66.897  1.00  0.00    -0.199 OA 
BRANCH  15  17
HETATM   17  C   UNL     1      -9.970   7.192  68.553  1.00  0.00    -0.163 A  
HETATM   18  C   UNL     1     -10.160   7.186  70.969  1.00  0.00    -0.192 A  
HETATM   19  C   UNL     1     -10.749   7.298  69.708  1.00  0.00    -0.253 A  
HETATM   20  C   UNL     1      -8.589   6.997  68.667  1.00  0.00    -0.120 A  
HETATM   21  C   UNL     1      -8.772   6.934  71.082  1.00  0.00    -0.135 A  
HETATM   22  C   UNL     1      -7.977   6.863  69.918  1.00  0.00    -0.120 A  
BRANCH  18  23
HETATM   23  O   UNL     1     -10.887   7.227  72.137  1.00  0.00    -0.217 OA 
HETATM   24  C   UNL     1     -11.758   6.126  72.381  1.00  0.00    -0.272 C  
ENDBRANCH  18  23
BRANCH  21  25
HETATM   25  O   UNL     1      -8.301   6.848  72.372  1.00  0.00    -0.111 OA 
HETATM   26  C   UNL     1      -7.731   8.020  72.943  1.00  0.00    -0.134 C  
ENDBRANCH  21  25
BRANCH  22  27
HETATM   27  O   UNL     1      -6.628   6.669  70.053  1.00  0.00    -0.045 OA 
HETATM   28  C   UNL     1      -6.108   5.366  69.814  1.00  0.00    -0.021 C  
ENDBRANCH  22  27
ENDBRANCH  15  17
ENDBRANCH  14  15
ENDBRANCH   6  14
TORSDOF 6
ENDMDL
MODEL      142
REMARK 921   NORMALIZED FREE ENERGY PREDICTED BY IDOCK:   -4.37 KCAL/MOL
REMARK 922        TOTAL FREE ENERGY PREDICTED BY IDOCK:   -6.83 KCAL/MOL
REMARK 923 INTER-LIGAND FREE ENERGY PREDICTED BY IDOCK:   -6.14 KCAL/MOL
REMARK 924 INTRA-LIGAND FREE ENERGY PREDICTED BY IDOCK:   -0.69 KCAL/MOL
REMARK 927      BINDING AFFINITY PREDICTED BY RF-SCORE:    0.00 PKD
ROOT
HETATM    1  C   UNL     1     -11.086   5.969  68.642  1.00  0.00    -0.293 C  
HETATM    2  C   UNL     1     -10.180   6.089  69.864  1.00  0.00    -0.265 C  
HETATM    3  C   UNL     1     -10.348   7.254  70.908  1.00  0.00    -0.201 C  
HETATM    4  N   UNL     1     -11.698   7.316  71.562  1.00  0.00    -0.276 NA 
HETATM    5  C   UNL     1      -9.243   7.092  72.045  1.00  0.00    -0.148 A  
HETATM    6  C   UNL     1      -9.944   8.633  70.259  1.00  0.00    -0.186 C  
HETATM    7  C   UNL     1      -8.318   6.030  72.075  1.00  0.00    -0.118 A  
HETATM    8  C   UNL     1      -8.241   7.898  74.136  1.00  0.00    -0.303 A  
HETATM    9  C   UNL     1     -12.869   7.492  70.708  1.00  0.00     0.080 C  
HETATM   10  C   UNL     1     -11.970   6.220  72.496  1.00  0.00    -0.102 C  
HETATM   11  C   UNL     1      -7.396   5.892  73.118  1.00  0.00    -0.094 A  
HETATM   12  C   UNL     1      -7.362   6.820  74.151  1.00  0.00    -0.094 A  
HETATM   13  C   UNL     1      -9.170   8.033  73.100  1.00  0.00    -0.347 A  
ENDROOT
BRANCH   6  14
HETATM   14  O   UNL     1     -10.599   9.019  69.048  1.00  0.00    -0.223 OA 
BRANCH  14  15
HETATM   15  C   UNL     1      -9.762   9.222  67.999  1.00  0.00    -0.150 C  
HETATM   16  O   UNL     1      -9.091   8.380  67.426  1.00  0.00    -0.135 OA 
BRANCH  15  17
HETATM   17  C   UNL     1      -9.891  10.612  67.516  1.00  0.00    -0.194 A  
HETATM   18  C   UNL     1     -11.171  12.221  66.233  1.00  0.00    -0.323 A  
HETATM   19  C   UNL     1     -10.899  10.899  66.593  1.00  0.00    -0.258 A  
HETATM   20  C   UNL     1      -9.135  11.656  68.061  1.00  0.00    -0.177 A  
HETATM   21  C   UNL     1     -10.442  13.280  66.826  1.00  0.00    -0.270 A  
HETATM   22  C   UNL     1      -9.399  12.990  67.731  1.00  0.00    -0.199 A  
BRANCH  18  23
HETATM   23  O   UNL     1     -12.187  12.564  65.372  1.00  0.00    -0.497 OA 
HETATM   24  C   UNL     1     -12.075  12.087  64.034  1.00  0.00    -0.406 C  
ENDBRANCH  18  23
BRANCH  21  25
HETATM   25  O   UNL     1     -10.791  14.538  66.391  1.00  0.00    -0.306 OA 
HETATM   26  C   UNL     1     -10.085  15.066  65.274  1.00  0.00    -0.343 C  
ENDBRANCH  21  25
BRANCH  22  27
HETATM   27  O   UNL     1      -8.673  14.028  68.253  1.00  0.00    -0.171 OA 
HETATM   28  C   UNL     1      -7.274  14.067  67.995  1.00  0.00    -0.144 C  
ENDBRANCH  22  27
ENDBRANCH  15  17
ENDBRANCH  14  15
ENDBRANCH   6  14
TORSDOF 6
ENDMDL
MODEL      143
REMARK 921   NORMALIZED FREE ENERGY PREDICTED BY IDOCK:   -4.35 KCAL/MOL
REMARK 922        TOTAL FREE ENERGY PREDICTED BY IDOCK:   -6.82 KCAL/MOL
REMARK 923 INTER-LIGAND FREE ENERGY PREDICTED BY IDOCK:   -6.10 KCAL/MOL
REMARK 924 INTRA-LIGAND FREE ENERGY PREDICTED BY IDOCK:   -0.72 KCAL/MOL
REMARK 927      BINDING AFFINITY PREDICTED BY RF-SCORE:    0.00 PKD
ROOT
HETATM    1  C   UNL     1      -9.067   8.493  66.776  1.00  0.00    -0.186 C  
HETATM    2  C   UNL     1      -9.843   9.742  66.368  1.00  0.00    -0.298 C  
HETATM    3  C   UNL     1     -10.295  10.818  67.425  1.00  0.00    -0.211 C  
HETATM    4  N   UNL     1      -9.171  11.435  68.206  1.00  0.00    -0.177 NA 
HETATM    5  C   UNL     1     -11.087  11.978  66.674  1.00  0.00    -0.358 A  
HETATM    6  C   UNL     1     -11.410  10.223  68.368  1.00  0.00    -0.178 C  
HETATM    7  C   UNL     1     -11.282  12.000  65.279  1.00  0.00    -0.374 A  
HETATM    8  C   UNL     1     -12.282  14.121  66.780  1.00  0.00    -0.429 A  
HETATM    9  C   UNL     1      -8.320  10.556  69.002  1.00  0.00    -0.154 C  
HETATM   10  C   UNL     1      -8.310  12.327  67.426  1.00  0.00    -0.177 C  
HETATM   11  C   UNL     1     -11.938  13.064  64.649  1.00  0.00    -0.445 A  
HETATM   12  C   UNL     1     -12.430  14.126  65.397  1.00  0.00    -0.488 A  
HETATM   13  C   UNL     1     -11.618  13.063  67.411  1.00  0.00    -0.407 A  
ENDROOT
BRANCH   6  14
HETATM   14  O   UNL     1     -11.120   9.007  69.062  1.00  0.00    -0.044 OA 
BRANCH  14  15
HETATM   15  C   UNL     1     -10.933   9.156  70.398  1.00  0.00    -0.248 C  
HETATM   16  O   UNL     1     -11.460   9.984  71.122  1.00  0.00    -0.357 OA 
BRANCH  15  17
HETATM   17  C   UNL     1     -10.104   8.047  70.915  1.00  0.00    -0.211 A  
HETATM   18  C   UNL     1      -9.048   5.909  70.482  1.00  0.00    -0.148 A  
HETATM   19  C   UNL     1      -9.950   6.911  70.117  1.00  0.00    -0.188 A  
HETATM   20  C   UNL     1      -9.367   8.166  72.098  1.00  0.00    -0.270 A  
HETATM   21  C   UNL     1      -8.263   6.057  71.651  1.00  0.00    -0.119 A  
HETATM   22  C   UNL     1      -8.444   7.186  72.477  1.00  0.00    -0.111 A  
BRANCH  18  23
HETATM   23  O   UNL     1      -8.816   4.797  69.706  1.00  0.00    -0.090 OA 
HETATM   24  C   UNL     1      -8.669   5.019  68.306  1.00  0.00    -0.102 C  
ENDBRANCH  18  23
BRANCH  21  25
HETATM   25  O   UNL     1      -7.414   5.006  71.914  1.00  0.00    -0.084 OA 
HETATM   26  C   UNL     1      -7.954   3.879  72.594  1.00  0.00    -0.082 C  
ENDBRANCH  21  25
BRANCH  22  27
HETATM   27  O   UNL     1      -7.710   7.282  73.629  1.00  0.00    -0.101 OA 
HETATM   28  C   UNL     1      -6.973   8.478  73.860  1.00  0.00    -0.061 C  
ENDBRANCH  22  27
ENDBRANCH  15  17
ENDBRANCH  14  15
ENDBRANCH   6  14
TORSDOF 6
ENDMDL
MODEL      144
REMARK 921   NORMALIZED FREE ENERGY PREDICTED BY IDOCK:   -4.35 KCAL/MOL
REMARK 922        TOTAL FREE ENERGY PREDICTED BY IDOCK:   -6.81 KCAL/MOL
REMARK 923 INTER-LIGAND FREE ENERGY PREDICTED BY IDOCK:   -6.20 KCAL/MOL
REMARK 924 INTRA-LIGAND FREE ENERGY PREDICTED BY IDOCK:   -0.61 KCAL/MOL
REMARK 927      BINDING AFFINITY PREDICTED BY RF-SCORE:    0.00 PKD
ROOT
HETATM    1  C   UNL     1     -11.154   6.365  67.332  1.00  0.00    -0.412 C  
HETATM    2  C   UNL     1      -9.789   6.354  68.014  1.00  0.00    -0.126 C  
HETATM    3  C   UNL     1      -9.533   7.114  69.367  1.00  0.00    -0.153 C  
HETATM    4  N   UNL     1     -10.411   6.678  70.504  1.00  0.00    -0.199 NA 
HETATM    5  C   UNL     1      -8.012   6.910  69.795  1.00  0.00    -0.124 A  
HETATM    6  C   UNL     1      -9.597   8.674  69.139  1.00  0.00    -0.163 C  
HETATM    7  C   UNL     1      -7.102   6.127  69.057  1.00  0.00    -0.081 A  
HETATM    8  C   UNL     1      -6.205   7.322  71.405  1.00  0.00    -0.036 A  
HETATM    9  C   UNL     1     -11.857   6.803  70.345  1.00  0.00    -0.338 C  
HETATM   10  C   UNL     1     -10.118   5.336  71.015  1.00  0.00    -0.221 C  
HETATM   11  C   UNL     1      -5.788   5.927  69.493  1.00  0.00    -0.020 A  
HETATM   12  C   UNL     1      -5.342   6.518  70.668  1.00  0.00    -0.018 A  
HETATM   13  C   UNL     1      -7.522   7.515  70.977  1.00  0.00    -0.072 A  
ENDROOT
BRANCH   6  14
HETATM   14  O   UNL     1     -10.777   9.213  68.538  1.00  0.00    -0.196 OA 
BRANCH  14  15
HETATM   15  C   UNL     1     -10.555   9.910  67.394  1.00  0.00    -0.277 C  
HETATM   16  O   UNL     1     -10.349   9.446  66.285  1.00  0.00    -0.240 OA 
BRANCH  15  17
HETATM   17  C   UNL     1     -10.761  11.352  67.637  1.00  0.00    -0.261 A  
HETATM   18  C   UNL     1     -10.637  13.611  66.769  1.00  0.00    -0.273 A  
HETATM   19  C   UNL     1     -10.319  12.255  66.667  1.00  0.00    -0.237 A  
HETATM   20  C   UNL     1     -11.505  11.818  68.728  1.00  0.00    -0.350 A  
HETATM   21  C   UNL     1     -11.435  14.072  67.844  1.00  0.00    -0.316 A  
HETATM   22  C   UNL     1     -11.851  13.168  68.844  1.00  0.00    -0.320 A  
BRANCH  18  23
HETATM   23  O   UNL     1     -10.275  14.534  65.815  1.00  0.00    -0.300 OA 
HETATM   24  C   UNL     1     -11.105  14.610  64.659  1.00  0.00    -0.334 C  
ENDBRANCH  18  23
BRANCH  21  25
HETATM   25  O   UNL     1     -11.678  15.427  67.845  1.00  0.00    -0.319 OA 
HETATM   26  C   UNL     1     -10.795  16.252  68.594  1.00  0.00    -0.322 C  
ENDBRANCH  21  25
BRANCH  22  27
HETATM   27  O   UNL     1     -12.578  13.646  69.901  1.00  0.00    -0.221 OA 
HETATM   28  C   UNL     1     -12.427  13.009  71.166  1.00  0.00    -0.271 C  
ENDBRANCH  22  27
ENDBRANCH  15  17
ENDBRANCH  14  15
ENDBRANCH   6  14
TORSDOF 6
ENDMDL
MODEL      145
REMARK 921   NORMALIZED FREE ENERGY PREDICTED BY IDOCK:   -4.34 KCAL/MOL
REMARK 922        TOTAL FREE ENERGY PREDICTED BY IDOCK:   -6.80 KCAL/MOL
REMARK 923 INTER-LIGAND FREE ENERGY PREDICTED BY IDOCK:   -6.02 KCAL/MOL
REMARK 924 INTRA-LIGAND FREE ENERGY PREDICTED BY IDOCK:   -0.79 KCAL/MOL
REMARK 927      BINDING AFFINITY PREDICTED BY RF-SCORE:    0.00 PKD
ROOT
HETATM    1  C   UNL     1      -7.390   8.272  67.846  1.00  0.00    -0.096 C  
HETATM    2  C   UNL     1      -8.110   7.622  69.024  1.00  0.00    -0.126 C  
HETATM    3  C   UNL     1      -9.640   7.869  69.298  1.00  0.00    -0.157 C  
HETATM    4  N   UNL     1     -10.548   7.472  68.170  1.00  0.00    -0.179 NA 
HETATM    5  C   UNL     1     -10.069   7.059  70.601  1.00  0.00    -0.201 A  
HETATM    6  C   UNL     1      -9.880   9.360  69.751  1.00  0.00    -0.201 C  
HETATM    7  C   UNL     1      -9.181   6.238  71.325  1.00  0.00    -0.157 A  
HETATM    8  C   UNL     1     -11.823   6.400  72.188  1.00  0.00    -0.361 A  
HETATM    9  C   UNL     1     -10.356   8.114  66.874  1.00  0.00    -0.331 C  
HETATM   10  C   UNL     1     -10.653   6.026  67.957  1.00  0.00    -0.262 C  
HETATM   11  C   UNL     1      -9.608   5.500  72.435  1.00  0.00    -0.170 A  
HETATM   12  C   UNL     1     -10.928   5.575  72.861  1.00  0.00    -0.332 A  
HETATM   13  C   UNL     1     -11.401   7.131  71.073  1.00  0.00    -0.310 A  
ENDROOT
BRANCH   6  14
HETATM   14  O   UNL     1      -9.404  10.404  68.898  1.00  0.00    -0.168 OA 
BRANCH  14  15
HETATM   15  C   UNL     1     -10.205  11.498  68.850  1.00  0.00    -0.149 C  
HETATM   16  O   UNL     1     -11.302  11.624  69.368  1.00  0.00    -0.251 OA 
BRANCH  15  17
HETATM   17  C   UNL     1      -9.487  12.618  68.207  1.00  0.00    -0.203 A  
HETATM   18  C   UNL     1      -9.496  14.955  67.566  1.00  0.00    -0.200 A  
HETATM   19  C   UNL     1     -10.174  13.819  68.015  1.00  0.00    -0.248 A  
HETATM   20  C   UNL     1      -8.118  12.550  67.923  1.00  0.00    -0.163 A  
HETATM   21  C   UNL     1      -8.101  14.900  67.332  1.00  0.00    -0.196 A  
HETATM   22  C   UNL     1      -7.413  13.678  67.489  1.00  0.00    -0.170 A  
BRANCH  18  23
HETATM   23  O   UNL     1     -10.110  16.176  67.414  1.00  0.00    -0.247 OA 
HETATM   24  C   UNL     1     -10.718  16.731  68.577  1.00  0.00    -0.358 C  
ENDBRANCH  18  23
BRANCH  21  25
HETATM   25  O   UNL     1      -7.542  16.076  66.887  1.00  0.00    -0.212 OA 
HETATM   26  C   UNL     1      -6.867  16.885  67.843  1.00  0.00    -0.148 C  
ENDBRANCH  21  25
BRANCH  22  27
HETATM   27  O   UNL     1      -6.074  13.636  67.207  1.00  0.00    -0.324 OA 
HETATM   28  C   UNL     1      -5.167  13.397  68.279  1.00  0.00    -0.095 C  
ENDBRANCH  22  27
ENDBRANCH  15  17
ENDBRANCH  14  15
ENDBRANCH   6  14
TORSDOF 6
ENDMDL
MODEL      146
REMARK 921   NORMALIZED FREE ENERGY PREDICTED BY IDOCK:   -4.34 KCAL/MOL
REMARK 922        TOTAL FREE ENERGY PREDICTED BY IDOCK:   -6.79 KCAL/MOL
REMARK 923 INTER-LIGAND FREE ENERGY PREDICTED BY IDOCK:   -5.98 KCAL/MOL
REMARK 924 INTRA-LIGAND FREE ENERGY PREDICTED BY IDOCK:   -0.82 KCAL/MOL
REMARK 927      BINDING AFFINITY PREDICTED BY RF-SCORE:    0.00 PKD
ROOT
HETATM    1  C   UNL     1     -10.147  12.054  65.101  1.00  0.00    -0.295 C  
HETATM    2  C   UNL     1      -9.119  10.959  65.369  1.00  0.00    -0.218 C  
HETATM    3  C   UNL     1      -8.864  10.399  66.818  1.00  0.00    -0.130 C  
HETATM    4  N   UNL     1     -10.074   9.807  67.480  1.00  0.00    -0.184 NA 
HETATM    5  C   UNL     1      -7.729   9.284  66.748  1.00  0.00    -0.094 A  
HETATM    6  C   UNL     1      -8.180  11.500  67.717  1.00  0.00    -0.135 C  
HETATM    7  C   UNL     1      -7.118   8.879  65.544  1.00  0.00    -0.080 A  
HETATM    8  C   UNL     1      -6.337   7.622  67.901  1.00  0.00    -0.050 A  
HETATM    9  C   UNL     1     -11.239  10.663  67.678  1.00  0.00    -0.290 C  
HETATM   10  C   UNL     1     -10.526   8.542  66.895  1.00  0.00    -0.275 C  
HETATM   11  C   UNL     1      -6.162   7.858  65.516  1.00  0.00    -0.038 A  
HETATM   12  C   UNL     1      -5.777   7.226  66.691  1.00  0.00    -0.024 A  
HETATM   13  C   UNL     1      -7.300   8.635  67.931  1.00  0.00    -0.092 A  
ENDROOT
BRANCH   6  14
HETATM   14  O   UNL     1      -8.832  12.767  67.835  1.00  0.00    -0.168 OA 
BRANCH  14  15
HETATM   15  C   UNL     1      -8.068  13.741  68.392  1.00  0.00    -0.148 C  
HETATM   16  O   UNL     1      -7.159  13.589  69.190  1.00  0.00    -0.098 OA 
BRANCH  15  17
HETATM   17  C   UNL     1      -8.378  15.041  67.764  1.00  0.00    -0.158 A  
HETATM   18  C   UNL     1      -7.754  17.362  67.450  1.00  0.00    -0.192 A  
HETATM   19  C   UNL     1      -7.613  16.151  68.131  1.00  0.00    -0.140 A  
HETATM   20  C   UNL     1      -9.307  15.156  66.724  1.00  0.00    -0.268 A  
HETATM   21  C   UNL     1      -8.654  17.461  66.362  1.00  0.00    -0.247 A  
HETATM   22  C   UNL     1      -9.455  16.352  66.014  1.00  0.00    -0.310 A  
BRANCH  18  23
HETATM   23  O   UNL     1      -6.987  18.468  67.733  1.00  0.00    -0.210 OA 
HETATM   24  C   UNL     1      -7.290  19.159  68.941  1.00  0.00    -0.344 C  
ENDBRANCH  18  23
BRANCH  21  25
HETATM   25  O   UNL     1      -8.713  18.702  65.771  1.00  0.00    -0.420 OA 
HETATM   26  C   UNL     1      -9.803  19.547  66.124  1.00  0.00    -0.412 C  
ENDBRANCH  21  25
BRANCH  22  27
HETATM   27  O   UNL     1     -10.356  16.488  64.991  1.00  0.00    -0.622 OA 
HETATM   28  C   UNL     1     -11.393  15.519  64.876  1.00  0.00    -0.335 C  
ENDBRANCH  22  27
ENDBRANCH  15  17
ENDBRANCH  14  15
ENDBRANCH   6  14
TORSDOF 6
ENDMDL
MODEL      147
REMARK 921   NORMALIZED FREE ENERGY PREDICTED BY IDOCK:   -4.31 KCAL/MOL
REMARK 922        TOTAL FREE ENERGY PREDICTED BY IDOCK:   -6.75 KCAL/MOL
REMARK 923 INTER-LIGAND FREE ENERGY PREDICTED BY IDOCK:   -6.74 KCAL/MOL
REMARK 924 INTRA-LIGAND FREE ENERGY PREDICTED BY IDOCK:   -0.02 KCAL/MOL
REMARK 927      BINDING AFFINITY PREDICTED BY RF-SCORE:    0.00 PKD
ROOT
HETATM    1  C   UNL     1     -11.056  11.903  69.868  1.00  0.00     0.081 C  
HETATM    2  C   UNL     1     -11.320  11.999  68.368  1.00  0.00    -0.332 C  
HETATM    3  C   UNL     1     -10.193  11.705  67.309  1.00  0.00    -0.201 C  
HETATM    4  N   UNL     1      -9.599  10.329  67.396  1.00  0.00    -0.156 NA 
HETATM    5  C   UNL     1     -10.794  11.905  65.847  1.00  0.00    -0.342 A  
HETATM    6  C   UNL     1      -9.088  12.829  67.361  1.00  0.00    -0.192 C  
HETATM    7  C   UNL     1     -12.139  12.251  65.608  1.00  0.00    -0.306 A  
HETATM    8  C   UNL     1     -10.475  11.844  63.414  1.00  0.00    -0.487 A  
HETATM    9  C   UNL     1      -8.961   9.932  68.647  1.00  0.00    -0.128 C  
HETATM   10  C   UNL     1     -10.500   9.253  66.977  1.00  0.00    -0.233 C  
HETATM   11  C   UNL     1     -12.644  12.367  64.308  1.00  0.00    -0.494 A  
HETATM   12  C   UNL     1     -11.815  12.157  63.213  1.00  0.00    -0.466 A  
HETATM   13  C   UNL     1      -9.970  11.718  64.712  1.00  0.00    -0.275 A  
ENDROOT
BRANCH   6  14
HETATM   14  O   UNL     1      -8.462  13.093  68.619  1.00  0.00    -0.096 OA 
BRANCH  14  15
HETATM   15  C   UNL     1      -7.207  13.603  68.524  1.00  0.00    -0.109 C  
HETATM   16  O   UNL     1      -6.160  12.981  68.576  1.00  0.00    -0.068 OA 
BRANCH  15  17
HETATM   17  C   UNL     1      -7.274  15.037  68.174  1.00  0.00    -0.122 A  
HETATM   18  C   UNL     1      -8.246  16.757  66.771  1.00  0.00    -0.235 A  
HETATM   19  C   UNL     1      -8.014  15.408  67.049  1.00  0.00    -0.259 A  
HETATM   20  C   UNL     1      -6.744  16.026  69.010  1.00  0.00    -0.157 A  
HETATM   21  C   UNL     1      -7.756  17.755  67.648  1.00  0.00    -0.208 A  
HETATM   22  C   UNL     1      -6.977  17.383  68.764  1.00  0.00    -0.236 A  
BRANCH  18  23
HETATM   23  O   UNL     1      -9.014  17.177  65.709  1.00  0.00    -0.523 OA 
HETATM   24  C   UNL     1     -10.275  16.534  65.544  1.00  0.00    -0.234 C  
ENDBRANCH  18  23
BRANCH  21  25
HETATM   25  O   UNL     1      -8.040  19.047  67.271  1.00  0.00    -0.258 OA 
HETATM   26  C   UNL     1      -7.163  19.667  66.338  1.00  0.00    -0.246 C  
ENDBRANCH  21  25
BRANCH  22  27
HETATM   27  O   UNL     1      -6.470  18.368  69.569  1.00  0.00    -0.261 OA 
HETATM   28  C   UNL     1      -5.146  18.828  69.318  1.00  0.00    -0.193 C  
ENDBRANCH  22  27
ENDBRANCH  15  17
ENDBRANCH  14  15
ENDBRANCH   6  14
TORSDOF 6
ENDMDL
MODEL      148
REMARK 921   NORMALIZED FREE ENERGY PREDICTED BY IDOCK:   -4.30 KCAL/MOL
REMARK 922        TOTAL FREE ENERGY PREDICTED BY IDOCK:   -6.75 KCAL/MOL
REMARK 923 INTER-LIGAND FREE ENERGY PREDICTED BY IDOCK:   -6.72 KCAL/MOL
REMARK 924 INTRA-LIGAND FREE ENERGY PREDICTED BY IDOCK:   -0.03 KCAL/MOL
REMARK 927      BINDING AFFINITY PREDICTED BY RF-SCORE:    0.00 PKD
ROOT
HETATM    1  C   UNL     1     -10.194  11.941  69.549  1.00  0.00     0.533 C  
HETATM    2  C   UNL     1     -10.739  11.981  68.124  1.00  0.00    -0.246 C  
HETATM    3  C   UNL     1      -9.807  11.760  66.875  1.00  0.00    -0.203 C  
HETATM    4  N   UNL     1      -9.090  10.441  66.857  1.00  0.00    -0.143 NA 
HETATM    5  C   UNL     1     -10.683  11.878  65.550  1.00  0.00    -0.329 A  
HETATM    6  C   UNL     1      -8.812  12.974  66.713  1.00  0.00    -0.137 C  
HETATM    7  C   UNL     1     -12.074  12.104  65.563  1.00  0.00    -0.209 A  
HETATM    8  C   UNL     1     -10.816  11.790  63.100  1.00  0.00    -0.299 A  
HETATM    9  C   UNL     1      -8.199  10.127  67.970  1.00  0.00    -0.113 C  
HETATM   10  C   UNL     1      -9.956   9.284  66.620  1.00  0.00    -0.264 C  
HETATM   11  C   UNL     1     -12.819  12.148  64.380  1.00  0.00    -0.216 A  
HETATM   12  C   UNL     1     -12.192  11.985  63.150  1.00  0.00    -0.365 A  
HETATM   13  C   UNL     1     -10.071  11.736  64.282  1.00  0.00    -0.326 A  
ENDROOT
BRANCH   6  14
HETATM   14  O   UNL     1      -7.990  13.317  67.831  1.00  0.00    -0.130 OA 
BRANCH  14  15
HETATM   15  C   UNL     1      -7.139  14.350  67.603  1.00  0.00    -0.183 C  
HETATM   16  O   UNL     1      -5.924  14.288  67.506  1.00  0.00    -0.337 OA 
BRANCH  15  17
HETATM   17  C   UNL     1      -7.907  15.579  67.317  1.00  0.00    -0.236 A  
HETATM   18  C   UNL     1      -8.017  17.997  67.435  1.00  0.00    -0.221 A  
HETATM   19  C   UNL     1      -7.424  16.791  67.815  1.00  0.00    -0.176 A  
HETATM   20  C   UNL     1      -9.007  15.576  66.451  1.00  0.00    -0.359 A  
HETATM   21  C   UNL     1      -9.095  17.996  66.517  1.00  0.00    -0.269 A  
HETATM   22  C   UNL     1      -9.608  16.771  66.041  1.00  0.00    -0.234 A  
BRANCH  18  23
HETATM   23  O   UNL     1      -7.548  19.221  67.852  1.00  0.00    -0.263 OA 
HETATM   24  C   UNL     1      -6.532  19.205  68.851  1.00  0.00    -0.268 C  
ENDBRANCH  18  23
BRANCH  21  25
HETATM   25  O   UNL     1      -9.603  19.241  66.221  1.00  0.00    -0.349 OA 
HETATM   26  C   UNL     1     -10.841  19.605  66.821  1.00  0.00    -0.376 C  
ENDBRANCH  21  25
BRANCH  22  27
HETATM   27  O   UNL     1     -10.683  16.793  65.194  1.00  0.00    -0.641 OA 
HETATM   28  C   UNL     1     -11.084  15.571  64.583  1.00  0.00    -0.359 C  
ENDBRANCH  22  27
ENDBRANCH  15  17
ENDBRANCH  14  15
ENDBRANCH   6  14
TORSDOF 6
ENDMDL
MODEL      149
REMARK 921   NORMALIZED FREE ENERGY PREDICTED BY IDOCK:   -4.30 KCAL/MOL
REMARK 922        TOTAL FREE ENERGY PREDICTED BY IDOCK:   -6.74 KCAL/MOL
REMARK 923 INTER-LIGAND FREE ENERGY PREDICTED BY IDOCK:   -5.95 KCAL/MOL
REMARK 924 INTRA-LIGAND FREE ENERGY PREDICTED BY IDOCK:   -0.79 KCAL/MOL
REMARK 927      BINDING AFFINITY PREDICTED BY RF-SCORE:    0.00 PKD
ROOT
HETATM    1  C   UNL     1     -12.858   7.550  71.012  1.00  0.00    -0.180 C  
HETATM    2  C   UNL     1     -12.106   6.492  71.815  1.00  0.00    -0.393 C  
HETATM    3  C   UNL     1     -10.573   6.217  71.590  1.00  0.00    -0.227 C  
HETATM    4  N   UNL     1      -9.686   7.409  71.809  1.00  0.00    -0.153 NA 
HETATM    5  C   UNL     1     -10.107   5.053  72.573  1.00  0.00    -0.231 A  
HETATM    6  C   UNL     1     -10.336   5.560  70.176  1.00  0.00    -0.284 C  
HETATM    7  C   UNL     1     -10.970   4.437  73.501  1.00  0.00    -0.379 A  
HETATM    8  C   UNL     1      -8.312   3.614  73.430  1.00  0.00    -0.083 A  
HETATM    9  C   UNL     1      -9.913   8.596  70.990  1.00  0.00    -0.215 C  
HETATM   10  C   UNL     1      -9.572   7.829  73.208  1.00  0.00    -0.283 C  
HETATM   11  C   UNL     1     -10.512   3.454  74.385  1.00  0.00    -0.254 A  
HETATM   12  C   UNL     1      -9.184   3.048  74.354  1.00  0.00    -0.100 A  
HETATM   13  C   UNL     1      -8.765   4.603  72.552  1.00  0.00    -0.119 A  
ENDROOT
BRANCH   6  14
HETATM   14  O   UNL     1     -10.842   6.245  69.027  1.00  0.00    -0.267 OA 
BRANCH  14  15
HETATM   15  C   UNL     1     -10.245   5.895  67.859  1.00  0.00    -0.184 C  
HETATM   16  O   UNL     1     -10.024   4.763  67.462  1.00  0.00    -0.174 OA 
BRANCH  15  17
HETATM   17  C   UNL     1     -10.037   7.095  67.024  1.00  0.00    -0.308 A  
HETATM   18  C   UNL     1     -10.432   9.466  66.715  1.00  0.00    -0.195 A  
HETATM   19  C   UNL     1     -10.719   8.265  67.367  1.00  0.00    -0.236 A  
HETATM   20  C   UNL     1      -9.078   7.127  66.004  1.00  0.00    -0.108 A  
HETATM   21  C   UNL     1      -9.424   9.509  65.721  1.00  0.00    -0.250 A  
HETATM   22  C   UNL     1      -8.760   8.321  65.348  1.00  0.00    -0.113 A  
BRANCH  18  23
HETATM   23  O   UNL     1     -11.033  10.657  67.050  1.00  0.00    -0.269 OA 
HETATM   24  C   UNL     1     -10.799  11.137  68.371  1.00  0.00    -0.205 C  
ENDBRANCH  18  23
BRANCH  21  25
HETATM   25  O   UNL     1      -9.232  10.743  65.144  1.00  0.00    -0.194 OA 
HETATM   26  C   UNL     1     -10.070  11.094  64.049  1.00  0.00    -0.336 C  
ENDBRANCH  21  25
BRANCH  22  27
HETATM   27  O   UNL     1      -7.825   8.377  64.348  1.00  0.00    -0.125 OA 
HETATM   28  C   UNL     1      -7.929   7.444  63.277  1.00  0.00    -0.086 C  
ENDBRANCH  22  27
ENDBRANCH  15  17
ENDBRANCH  14  15
ENDBRANCH   6  14
TORSDOF 6
ENDMDL
MODEL      150
REMARK 921   NORMALIZED FREE ENERGY PREDICTED BY IDOCK:   -4.30 KCAL/MOL
REMARK 922        TOTAL FREE ENERGY PREDICTED BY IDOCK:   -6.74 KCAL/MOL
REMARK 923 INTER-LIGAND FREE ENERGY PREDICTED BY IDOCK:   -6.48 KCAL/MOL
REMARK 924 INTRA-LIGAND FREE ENERGY PREDICTED BY IDOCK:   -0.25 KCAL/MOL
REMARK 927      BINDING AFFINITY PREDICTED BY RF-SCORE:    0.00 PKD
ROOT
HETATM    1  C   UNL     1      -9.876  16.202  65.733  1.00  0.00    -0.354 C  
HETATM    2  C   UNL     1     -10.593  15.944  67.055  1.00  0.00    -0.306 C  
HETATM    3  C   UNL     1      -9.841  16.028  68.435  1.00  0.00    -0.213 C  
HETATM    4  N   UNL     1      -9.210  17.359  68.722  1.00  0.00    -0.267 NA 
HETATM    5  C   UNL     1     -10.870  15.694  69.605  1.00  0.00    -0.287 A  
HETATM    6  C   UNL     1      -8.807  14.845  68.567  1.00  0.00    -0.174 C  
HETATM    7  C   UNL     1     -12.233  15.415  69.377  1.00  0.00    -0.250 A  
HETATM    8  C   UNL     1     -11.317  15.437  72.005  1.00  0.00    -0.466 A  
HETATM    9  C   UNL     1      -8.205  17.860  67.789  1.00  0.00    -0.233 C  
HETATM   10  C   UNL     1     -10.165  18.437  68.991  1.00  0.00    -0.167 C  
HETATM   11  C   UNL     1     -13.118  15.178  70.434  1.00  0.00    -0.232 A  
HETATM   12  C   UNL     1     -12.663  15.196  71.746  1.00  0.00    -0.423 A  
HETATM   13  C   UNL     1     -10.433  15.684  70.950  1.00  0.00     0.206 A  
ENDROOT
BRANCH   6  14
HETATM   14  O   UNL     1      -7.830  14.692  67.534  1.00  0.00    -0.162 OA 
BRANCH  14  15
HETATM   15  C   UNL     1      -7.482  13.405  67.279  1.00  0.00    -0.046 C  
HETATM   16  O   UNL     1      -6.368  12.991  67.001  1.00  0.00    -0.194 OA 
BRANCH  15  17
HETATM   17  C   UNL     1      -8.627  12.512  67.548  1.00  0.00    -0.183 A  
HETATM   18  C   UNL     1      -9.615  10.828  68.984  1.00  0.00    -0.180 A  
HETATM   19  C   UNL     1      -8.508  11.579  68.581  1.00  0.00    -0.115 A  
HETATM   20  C   UNL     1      -9.858  12.675  66.901  1.00  0.00    -0.234 A  
HETATM   21  C   UNL     1     -10.872  11.033  68.366  1.00  0.00    -0.220 A  
HETATM   22  C   UNL     1     -10.985  11.948  67.298  1.00  0.00    -0.268 A  
BRANCH  18  23
HETATM   23  O   UNL     1      -9.568   9.937  70.031  1.00  0.00    -0.234 OA 
HETATM   24  C   UNL     1      -8.489   9.007  70.025  1.00  0.00    -0.145 C  
ENDBRANCH  18  23
BRANCH  21  25
HETATM   25  O   UNL     1     -11.887  10.234  68.840  1.00  0.00    -0.086 OA 
HETATM   26  C   UNL     1     -12.467  10.582  70.091  1.00  0.00    -0.226 C  
ENDBRANCH  21  25
BRANCH  22  27
HETATM   27  O   UNL     1     -12.200  12.092  66.681  1.00  0.00    -0.550 OA 
HETATM   28  C   UNL     1     -12.272  12.914  65.521  1.00  0.00    -0.474 C  
ENDBRANCH  22  27
ENDBRANCH  15  17
ENDBRANCH  14  15
ENDBRANCH   6  14
TORSDOF 6
ENDMDL
MODEL      151
REMARK 921   NORMALIZED FREE ENERGY PREDICTED BY IDOCK:   -4.29 KCAL/MOL
REMARK 922        TOTAL FREE ENERGY PREDICTED BY IDOCK:   -6.73 KCAL/MOL
REMARK 923 INTER-LIGAND FREE ENERGY PREDICTED BY IDOCK:   -5.61 KCAL/MOL
REMARK 924 INTRA-LIGAND FREE ENERGY PREDICTED BY IDOCK:   -1.12 KCAL/MOL
REMARK 927      BINDING AFFINITY PREDICTED BY RF-SCORE:    0.00 PKD
ROOT
HETATM    1  C   UNL     1     -11.621  10.473  68.363  1.00  0.00    -0.205 C  
HETATM    2  C   UNL     1     -10.164  10.372  68.804  1.00  0.00    -0.201 C  
HETATM    3  C   UNL     1      -9.081   9.646  67.922  1.00  0.00    -0.125 C  
HETATM    4  N   UNL     1      -8.911  10.219  66.545  1.00  0.00    -0.143 NA 
HETATM    5  C   UNL     1      -7.677   9.709  68.673  1.00  0.00    -0.080 A  
HETATM    6  C   UNL     1      -9.357   8.094  67.884  1.00  0.00    -0.134 C  
HETATM    7  C   UNL     1      -7.492  10.361  69.908  1.00  0.00    -0.134 A  
HETATM    8  C   UNL     1      -5.280   9.179  68.701  1.00  0.00    -0.034 A  
HETATM    9  C   UNL     1     -10.072  10.239  65.660  1.00  0.00    -0.271 C  
HETATM   10  C   UNL     1      -8.285  11.544  66.513  1.00  0.00    -0.129 C  
HETATM   11  C   UNL     1      -6.232  10.441  70.511  1.00  0.00    -0.113 A  
HETATM   12  C   UNL     1      -5.126   9.858  69.905  1.00  0.00    -0.037 A  
HETATM   13  C   UNL     1      -6.536   9.107  68.091  1.00  0.00    -0.060 A  
ENDROOT
BRANCH   6  14
HETATM   14  O   UNL     1     -10.650   7.655  67.458  1.00  0.00    -0.255 OA 
BRANCH  14  15
HETATM   15  C   UNL     1     -10.912   6.349  67.718  1.00  0.00    -0.332 C  
HETATM   16  O   UNL     1     -10.864   5.422  66.927  1.00  0.00    -0.237 OA 
BRANCH  15  17
HETATM   17  C   UNL     1     -11.114   6.158  69.169  1.00  0.00    -0.448 A  
HETATM   18  C   UNL     1     -10.332   5.146  71.227  1.00  0.00    -0.205 A  
HETATM   19  C   UNL     1     -10.296   5.242  69.835  1.00  0.00    -0.374 A  
HETATM   20  C   UNL     1     -11.990   6.964  69.905  1.00  0.00    -0.047 A  
HETATM   21  C   UNL     1     -11.179   6.000  71.974  1.00  0.00    -0.288 A  
HETATM   22  C   UNL     1     -12.033   6.900  71.301  1.00  0.00    -0.356 A  
BRANCH  18  23
HETATM   23  O   UNL     1      -9.509   4.302  71.937  1.00  0.00    -0.129 OA 
HETATM   24  C   UNL     1      -9.722   2.905  71.754  1.00  0.00    -0.154 C  
ENDBRANCH  18  23
BRANCH  21  25
HETATM   25  O   UNL     1     -11.136   5.812  73.337  1.00  0.00    -0.254 OA 
HETATM   26  C   UNL     1     -10.465   6.796  74.115  1.00  0.00    -0.190 C  
ENDBRANCH  21  25
BRANCH  22  27
HETATM   27  O   UNL     1     -12.881   7.680  72.042  1.00  0.00    -0.287 OA 
HETATM   28  C   UNL     1     -12.821   9.092  71.868  1.00  0.00    -0.387 C  
ENDBRANCH  22  27
ENDBRANCH  15  17
ENDBRANCH  14  15
ENDBRANCH   6  14
TORSDOF 6
ENDMDL
MODEL      152
REMARK 921   NORMALIZED FREE ENERGY PREDICTED BY IDOCK:   -4.28 KCAL/MOL
REMARK 922        TOTAL FREE ENERGY PREDICTED BY IDOCK:   -6.72 KCAL/MOL
REMARK 923 INTER-LIGAND FREE ENERGY PREDICTED BY IDOCK:   -6.12 KCAL/MOL
REMARK 924 INTRA-LIGAND FREE ENERGY PREDICTED BY IDOCK:   -0.60 KCAL/MOL
REMARK 927      BINDING AFFINITY PREDICTED BY RF-SCORE:    0.00 PKD
ROOT
HETATM    1  C   UNL     1     -12.486  12.922  66.810  1.00  0.00     0.239 C  
HETATM    2  C   UNL     1     -11.617  14.135  67.130  1.00  0.00    -0.400 C  
HETATM    3  C   UNL     1     -10.279  14.423  66.354  1.00  0.00    -0.289 C  
HETATM    4  N   UNL     1     -10.441  14.586  64.870  1.00  0.00    -0.431 NA 
HETATM    5  C   UNL     1      -9.617  15.748  66.939  1.00  0.00    -0.243 A  
HETATM    6  C   UNL     1      -9.194  13.335  66.712  1.00  0.00    -0.233 C  
HETATM    7  C   UNL     1     -10.207  16.518  67.962  1.00  0.00    -0.271 A  
HETATM    8  C   UNL     1      -7.798  17.396  66.879  1.00  0.00    -0.258 A  
HETATM    9  C   UNL     1     -11.008  13.474  64.113  1.00  0.00    -0.251 C  
HETATM   10  C   UNL     1     -11.130  15.815  64.468  1.00  0.00    -0.277 C  
HETATM   11  C   UNL     1      -9.622  17.705  68.414  1.00  0.00    -0.310 A  
HETATM   12  C   UNL     1      -8.423  18.148  67.868  1.00  0.00    -0.259 A  
HETATM   13  C   UNL     1      -8.386  16.214  66.418  1.00  0.00    -0.357 A  
ENDROOT
BRANCH   6  14
HETATM   14  O   UNL     1      -9.537  11.960  66.519  1.00  0.00    -0.203 OA 
BRANCH  14  15
HETATM   15  C   UNL     1      -9.568  11.226  67.660  1.00  0.00    -0.171 C  
HETATM   16  O   UNL     1      -9.625  11.651  68.802  1.00  0.00    -0.167 OA 
BRANCH  15  17
HETATM   17  C   UNL     1      -9.693   9.792  67.330  1.00  0.00    -0.213 A  
HETATM   18  C   UNL     1      -8.972   7.942  65.939  1.00  0.00    -0.123 A  
HETATM   19  C   UNL     1      -9.023   9.313  66.201  1.00  0.00    -0.202 A  
HETATM   20  C   UNL     1     -10.336   8.890  68.186  1.00  0.00    -0.261 A  
HETATM   21  C   UNL     1      -9.576   7.028  66.835  1.00  0.00    -0.168 A  
HETATM   22  C   UNL     1     -10.285   7.511  67.956  1.00  0.00    -0.195 A  
BRANCH  18  23
HETATM   23  O   UNL     1      -8.280   7.414  64.874  1.00  0.00    -0.131 OA 
HETATM   24  C   UNL     1      -6.860   7.387  64.990  1.00  0.00    -0.050 C  
ENDBRANCH  18  23
BRANCH  21  25
HETATM   25  O   UNL     1      -9.468   5.705  66.473  1.00  0.00    -0.143 OA 
HETATM   26  C   UNL     1     -10.655   5.035  66.066  1.00  0.00    -0.232 C  
ENDBRANCH  21  25
BRANCH  22  27
HETATM   27  O   UNL     1     -10.905   6.611  68.780  1.00  0.00    -0.241 OA 
HETATM   28  C   UNL     1     -11.282   7.041  70.084  1.00  0.00    -0.284 C  
ENDBRANCH  22  27
ENDBRANCH  15  17
ENDBRANCH  14  15
ENDBRANCH   6  14
TORSDOF 6
ENDMDL
MODEL      153
REMARK 921   NORMALIZED FREE ENERGY PREDICTED BY IDOCK:   -4.28 KCAL/MOL
REMARK 922        TOTAL FREE ENERGY PREDICTED BY IDOCK:   -6.71 KCAL/MOL
REMARK 923 INTER-LIGAND FREE ENERGY PREDICTED BY IDOCK:   -6.04 KCAL/MOL
REMARK 924 INTRA-LIGAND FREE ENERGY PREDICTED BY IDOCK:   -0.67 KCAL/MOL
REMARK 927      BINDING AFFINITY PREDICTED BY RF-SCORE:    0.00 PKD
ROOT
HETATM    1  C   UNL     1     -11.767   8.814  70.912  1.00  0.00    -0.299 C  
HETATM    2  C   UNL     1     -11.488   7.475  71.588  1.00  0.00    -0.292 C  
HETATM    3  C   UNL     1     -10.381   6.492  71.054  1.00  0.00    -0.206 C  
HETATM    4  N   UNL     1      -8.996   7.073  71.016  1.00  0.00    -0.150 NA 
HETATM    5  C   UNL     1     -10.357   5.191  71.973  1.00  0.00    -0.274 A  
HETATM    6  C   UNL     1     -10.807   5.894  69.658  1.00  0.00    -0.374 C  
HETATM    7  C   UNL     1     -11.193   5.025  73.095  1.00  0.00    -0.408 A  
HETATM    8  C   UNL     1      -9.378   3.002  72.498  1.00  0.00    -0.152 A  
HETATM    9  C   UNL     1      -8.772   8.265  70.204  1.00  0.00    -0.133 C  
HETATM   10  C   UNL     1      -8.396   7.293  72.334  1.00  0.00    -0.108 C  
HETATM   11  C   UNL     1     -11.108   3.891  73.910  1.00  0.00    -0.239 A  
HETATM   12  C   UNL     1     -10.197   2.884  73.617  1.00  0.00    -0.197 A  
HETATM   13  C   UNL     1      -9.455   4.139  71.688  1.00  0.00    -0.216 A  
ENDROOT
BRANCH   6  14
HETATM   14  O   UNL     1     -11.136   6.810  68.611  1.00  0.00    -0.219 OA 
BRANCH  14  15
HETATM   15  C   UNL     1     -10.679   6.447  67.386  1.00  0.00    -0.336 C  
HETATM   16  O   UNL     1     -10.901   5.399  66.804  1.00  0.00    -0.259 OA 
BRANCH  15  17
HETATM   17  C   UNL     1      -9.985   7.587  66.752  1.00  0.00    -0.307 A  
HETATM   18  C   UNL     1      -8.229   8.341  65.262  1.00  0.00    -0.148 A  
HETATM   19  C   UNL     1      -8.827   7.329  66.016  1.00  0.00    -0.161 A  
HETATM   20  C   UNL     1     -10.533   8.875  66.750  1.00  0.00    -0.269 A  
HETATM   21  C   UNL     1      -8.814   9.629  65.218  1.00  0.00    -0.171 A  
HETATM   22  C   UNL     1      -9.963   9.902  65.990  1.00  0.00    -0.268 A  
BRANCH  18  23
HETATM   23  O   UNL     1      -7.121   8.128  64.475  1.00  0.00    -0.073 OA 
HETATM   24  C   UNL     1      -5.964   7.620  65.133  1.00  0.00    -0.038 C  
ENDBRANCH  18  23
BRANCH  21  25
HETATM   25  O   UNL     1      -8.136  10.547  64.448  1.00  0.00    -0.138 OA 
HETATM   26  C   UNL     1      -8.308  10.477  63.038  1.00  0.00    -0.158 C  
ENDBRANCH  21  25
BRANCH  22  27
HETATM   27  O   UNL     1     -10.482  11.170  65.971  1.00  0.00    -0.251 OA 
HETATM   28  C   UNL     1     -10.249  12.009  67.098  1.00  0.00    -0.202 C  
ENDBRANCH  22  27
ENDBRANCH  15  17
ENDBRANCH  14  15
ENDBRANCH   6  14
TORSDOF 6
ENDMDL
MODEL      154
REMARK 921   NORMALIZED FREE ENERGY PREDICTED BY IDOCK:   -4.26 KCAL/MOL
REMARK 922        TOTAL FREE ENERGY PREDICTED BY IDOCK:   -6.69 KCAL/MOL
REMARK 923 INTER-LIGAND FREE ENERGY PREDICTED BY IDOCK:   -6.06 KCAL/MOL
REMARK 924 INTRA-LIGAND FREE ENERGY PREDICTED BY IDOCK:   -0.63 KCAL/MOL
REMARK 927      BINDING AFFINITY PREDICTED BY RF-SCORE:    0.00 PKD
ROOT
HETATM    1  C   UNL     1      -7.334   8.226  67.773  1.00  0.00    -0.093 C  
HETATM    2  C   UNL     1      -8.203   8.120  69.022  1.00  0.00    -0.127 C  
HETATM    3  C   UNL     1      -9.664   8.703  69.067  1.00  0.00    -0.173 C  
HETATM    4  N   UNL     1     -10.595   8.133  68.037  1.00  0.00    -0.171 NA 
HETATM    5  C   UNL     1     -10.283   8.437  70.511  1.00  0.00    -0.216 A  
HETATM    6  C   UNL     1      -9.625  10.279  69.018  1.00  0.00    -0.203 C  
HETATM    7  C   UNL     1      -9.595   7.747  71.529  1.00  0.00    -0.187 A  
HETATM    8  C   UNL     1     -12.180   8.632  72.056  1.00  0.00    -0.439 A  
HETATM    9  C   UNL     1     -10.241   8.286  66.629  1.00  0.00    -0.263 C  
HETATM   10  C   UNL     1     -10.971   6.736  68.268  1.00  0.00    -0.197 C  
HETATM   11  C   UNL     1     -10.191   7.486  72.767  1.00  0.00    -0.307 A  
HETATM   12  C   UNL     1     -11.484   7.921  73.028  1.00  0.00    -0.230 A  
HETATM   13  C   UNL     1     -11.590   8.886  70.814  1.00  0.00    -0.301 A  
ENDROOT
BRANCH   6  14
HETATM   14  O   UNL     1      -8.929  10.897  67.933  1.00  0.00    -0.136 OA 
BRANCH  14  15
HETATM   15  C   UNL     1      -8.046  11.857  68.309  1.00  0.00    -0.154 C  
HETATM   16  O   UNL     1      -6.936  11.684  68.784  1.00  0.00    -0.084 OA 
BRANCH  15  17
HETATM   17  C   UNL     1      -8.549  13.186  67.905  1.00  0.00    -0.185 A  
HETATM   18  C   UNL     1     -10.288  14.862  68.103  1.00  0.00    -0.237 A  
HETATM   19  C   UNL     1      -9.831  13.559  68.314  1.00  0.00    -0.233 A  
HETATM   20  C   UNL     1      -7.730  14.120  67.259  1.00  0.00    -0.132 A  
HETATM   21  C   UNL     1      -9.440  15.820  67.498  1.00  0.00    -0.218 A  
HETATM   22  C   UNL     1      -8.158  15.436  67.051  1.00  0.00    -0.230 A  
BRANCH  18  23
HETATM   23  O   UNL     1     -11.520  15.297  68.535  1.00  0.00    -0.309 OA 
HETATM   24  C   UNL     1     -11.773  15.203  69.933  1.00  0.00    -0.315 C  
ENDBRANCH  18  23
BRANCH  21  25
HETATM   25  O   UNL     1      -9.998  17.067  67.336  1.00  0.00    -0.264 OA 
HETATM   26  C   UNL     1     -10.492  17.403  66.045  1.00  0.00    -0.276 C  
ENDBRANCH  21  25
BRANCH  22  27
HETATM   27  O   UNL     1      -7.374  16.367  66.423  1.00  0.00    -0.203 OA 
HETATM   28  C   UNL     1      -6.350  17.005  67.179  1.00  0.00    -0.180 C  
ENDBRANCH  22  27
ENDBRANCH  15  17
ENDBRANCH  14  15
ENDBRANCH   6  14
TORSDOF 6
ENDMDL
MODEL      155
REMARK 921   NORMALIZED FREE ENERGY PREDICTED BY IDOCK:   -4.24 KCAL/MOL
REMARK 922        TOTAL FREE ENERGY PREDICTED BY IDOCK:   -6.66 KCAL/MOL
REMARK 923 INTER-LIGAND FREE ENERGY PREDICTED BY IDOCK:   -6.56 KCAL/MOL
REMARK 924 INTRA-LIGAND FREE ENERGY PREDICTED BY IDOCK:   -0.10 KCAL/MOL
REMARK 927      BINDING AFFINITY PREDICTED BY RF-SCORE:    0.00 PKD
ROOT
HETATM    1  C   UNL     1     -10.972  15.978  68.443  1.00  0.00    -0.331 C  
HETATM    2  C   UNL     1     -11.076  15.129  67.180  1.00  0.00    -0.335 C  
HETATM    3  C   UNL     1     -10.250  13.801  67.004  1.00  0.00    -0.254 C  
HETATM    4  N   UNL     1     -10.508  12.761  68.056  1.00  0.00    -0.220 NA 
HETATM    5  C   UNL     1     -10.580  13.171  65.579  1.00  0.00    -0.299 A  
HETATM    6  C   UNL     1      -8.713  14.128  66.864  1.00  0.00    -0.166 C  
HETATM    7  C   UNL     1     -11.506  13.739  64.681  1.00  0.00    -0.385 A  
HETATM    8  C   UNL     1     -10.243  11.371  63.943  1.00  0.00    -0.415 A  
HETATM    9  C   UNL     1     -10.245  13.110  69.449  1.00  0.00     0.554 C  
HETATM   10  C   UNL     1     -11.833  12.139  67.980  1.00  0.00    -0.285 C  
HETATM   11  C   UNL     1     -11.810  13.129  63.459  1.00  0.00    -0.539 A  
HETATM   12  C   UNL     1     -11.185  11.943  63.094  1.00  0.00    -0.248 A  
HETATM   13  C   UNL     1      -9.945  11.974  65.169  1.00  0.00    -0.265 A  
ENDROOT
BRANCH   6  14
HETATM   14  O   UNL     1      -8.098  14.905  67.895  1.00  0.00    -0.127 OA 
BRANCH  14  15
HETATM   15  C   UNL     1      -6.917  15.472  67.540  1.00  0.00    -0.194 C  
HETATM   16  O   UNL     1      -5.896  14.889  67.216  1.00  0.00    -0.310 OA 
BRANCH  15  17
HETATM   17  C   UNL     1      -7.075  16.937  67.435  1.00  0.00    -0.185 A  
HETATM   18  C   UNL     1      -8.384  18.798  66.600  1.00  0.00    -0.288 A  
HETATM   19  C   UNL     1      -8.084  17.434  66.607  1.00  0.00    -0.294 A  
HETATM   20  C   UNL     1      -6.347  17.817  68.242  1.00  0.00    -0.188 A  
HETATM   21  C   UNL     1      -7.682  19.680  67.457  1.00  0.00    -0.267 A  
HETATM   22  C   UNL     1      -6.638  19.185  68.267  1.00  0.00    -0.244 A  
BRANCH  18  23
HETATM   23  O   UNL     1      -9.403  19.333  65.847  1.00  0.00    -0.429 OA 
HETATM   24  C   UNL     1     -10.655  18.655  65.900  1.00  0.00    -0.321 C  
ENDBRANCH  18  23
BRANCH  21  25
HETATM   25  O   UNL     1      -8.058  21.001  67.362  1.00  0.00    -0.224 OA 
HETATM   26  C   UNL     1      -9.423  21.315  67.606  1.00  0.00     0.220 C  
ENDBRANCH  21  25
BRANCH  22  27
HETATM   27  O   UNL     1      -5.940  20.066  69.050  1.00  0.00    -0.252 OA 
HETATM   28  C   UNL     1      -5.757  19.744  70.425  1.00  0.00    -0.270 C  
ENDBRANCH  22  27
ENDBRANCH  15  17
ENDBRANCH  14  15
ENDBRANCH   6  14
TORSDOF 6
ENDMDL
MODEL      156
REMARK 921   NORMALIZED FREE ENERGY PREDICTED BY IDOCK:   -4.24 KCAL/MOL
REMARK 922        TOTAL FREE ENERGY PREDICTED BY IDOCK:   -6.66 KCAL/MOL
REMARK 923 INTER-LIGAND FREE ENERGY PREDICTED BY IDOCK:   -6.22 KCAL/MOL
REMARK 924 INTRA-LIGAND FREE ENERGY PREDICTED BY IDOCK:   -0.43 KCAL/MOL
REMARK 927      BINDING AFFINITY PREDICTED BY RF-SCORE:    0.00 PKD
ROOT
HETATM    1  C   UNL     1     -12.602   7.675  71.846  1.00  0.00    -0.332 C  
HETATM    2  C   UNL     1     -11.820   7.075  70.681  1.00  0.00    -0.377 C  
HETATM    3  C   UNL     1     -10.347   7.522  70.356  1.00  0.00    -0.214 C  
HETATM    4  N   UNL     1      -9.370   7.315  71.477  1.00  0.00    -0.149 NA 
HETATM    5  C   UNL     1      -9.832   6.716  69.081  1.00  0.00    -0.155 A  
HETATM    6  C   UNL     1     -10.330   9.007  69.826  1.00  0.00    -0.211 C  
HETATM    7  C   UNL     1     -10.607   5.742  68.421  1.00  0.00    -0.289 A  
HETATM    8  C   UNL     1      -8.033   6.232  67.482  1.00  0.00    -0.109 A  
HETATM    9  C   UNL     1      -9.626   7.988  72.746  1.00  0.00    -0.277 C  
HETATM   10  C   UNL     1      -9.056   5.911  71.755  1.00  0.00    -0.142 C  
HETATM   11  C   UNL     1     -10.102   5.016  67.337  1.00  0.00    -0.213 A  
HETATM   12  C   UNL     1      -8.814   5.256  66.872  1.00  0.00    -0.110 A  
HETATM   13  C   UNL     1      -8.533   6.952  68.572  1.00  0.00    -0.123 A  
ENDROOT
BRANCH   6  14
HETATM   14  O   UNL     1     -10.933  10.015  70.642  1.00  0.00    -0.300 OA 
BRANCH  14  15
HETATM   15  C   UNL     1     -11.952  10.684  70.044  1.00  0.00    -0.329 C  
HETATM   16  O   UNL     1     -13.133  10.636  70.345  1.00  0.00    -0.260 OA 
BRANCH  15  17
HETATM   17  C   UNL     1     -11.412  11.636  69.052  1.00  0.00    -0.356 A  
HETATM   18  C   UNL     1      -9.482  12.830  68.203  1.00  0.00    -0.219 A  
HETATM   19  C   UNL     1     -10.091  12.065  69.200  1.00  0.00     0.182 A  
HETATM   20  C   UNL     1     -12.132  11.998  67.909  1.00  0.00    -0.002 A  
HETATM   21  C   UNL     1     -10.194  13.150  67.023  1.00  0.00    -0.250 A  
HETATM   22  C   UNL     1     -11.540  12.749  66.888  1.00  0.00    -0.366 A  
BRANCH  18  23
HETATM   23  O   UNL     1      -8.168  13.232  68.272  1.00  0.00    -0.148 OA 
HETATM   24  C   UNL     1      -7.188  12.268  67.895  1.00  0.00    -0.106 C  
ENDBRANCH  18  23
BRANCH  21  25
HETATM   25  O   UNL     1      -9.496  13.913  66.114  1.00  0.00    -0.255 OA 
HETATM   26  C   UNL     1      -9.687  15.322  66.155  1.00  0.00    -0.314 C  
ENDBRANCH  21  25
BRANCH  22  27
HETATM   27  O   UNL     1     -12.225  13.114  65.759  1.00  0.00    -0.425 OA 
HETATM   28  C   UNL     1     -12.132  12.273  64.614  1.00  0.00    -0.374 C  
ENDBRANCH  22  27
ENDBRANCH  15  17
ENDBRANCH  14  15
ENDBRANCH   6  14
TORSDOF 6
ENDMDL
MODEL      157
REMARK 921   NORMALIZED FREE ENERGY PREDICTED BY IDOCK:   -4.23 KCAL/MOL
REMARK 922        TOTAL FREE ENERGY PREDICTED BY IDOCK:   -6.65 KCAL/MOL
REMARK 923 INTER-LIGAND FREE ENERGY PREDICTED BY IDOCK:   -6.38 KCAL/MOL
REMARK 924 INTRA-LIGAND FREE ENERGY PREDICTED BY IDOCK:   -0.27 KCAL/MOL
REMARK 927      BINDING AFFINITY PREDICTED BY RF-SCORE:    0.00 PKD
ROOT
HETATM    1  C   UNL     1      -7.812   7.941  73.316  1.00  0.00    -0.194 C  
HETATM    2  C   UNL     1      -9.301   8.094  73.021  1.00  0.00    -0.335 C  
HETATM    3  C   UNL     1     -10.069   7.083  72.090  1.00  0.00    -0.181 C  
HETATM    4  N   UNL     1     -10.025   5.655  72.550  1.00  0.00    -0.167 NA 
HETATM    5  C   UNL     1     -11.593   7.534  71.984  1.00  0.00    -0.326 A  
HETATM    6  C   UNL     1      -9.581   7.236  70.598  1.00  0.00    -0.172 C  
HETATM    7  C   UNL     1     -12.117   8.647  72.671  1.00  0.00    -0.267 A  
HETATM    8  C   UNL     1     -13.849   7.136  71.100  1.00  0.00    -0.177 A  
HETATM    9  C   UNL     1      -8.720   5.017  72.693  1.00  0.00    -0.119 C  
HETATM   10  C   UNL     1     -10.806   5.384  73.760  1.00  0.00    -0.233 C  
HETATM   11  C   UNL     1     -13.474   8.981  72.594  1.00  0.00    -0.400 A  
HETATM   12  C   UNL     1     -14.340   8.223  71.816  1.00  0.00    -0.574 A  
HETATM   13  C   UNL     1     -12.495   6.795  71.183  1.00  0.00    -0.351 A  
ENDROOT
BRANCH   6  14
HETATM   14  O   UNL     1      -8.181   7.113  70.336  1.00  0.00    -0.122 OA 
BRANCH  14  15
HETATM   15  C   UNL     1      -7.577   8.270  69.963  1.00  0.00    -0.072 C  
HETATM   16  O   UNL     1      -6.406   8.567  70.127  1.00  0.00    -0.037 OA 
BRANCH  15  17
HETATM   17  C   UNL     1      -8.510   9.087  69.161  1.00  0.00    -0.128 A  
HETATM   18  C   UNL     1      -9.687   9.381  67.063  1.00  0.00    -0.178 A  
HETATM   19  C   UNL     1      -8.697   8.749  67.818  1.00  0.00    -0.136 A  
HETATM   20  C   UNL     1      -9.305  10.082  69.741  1.00  0.00    -0.233 A  
HETATM   21  C   UNL     1     -10.527  10.349  67.666  1.00  0.00    -0.233 A  
HETATM   22  C   UNL     1     -10.315  10.718  69.011  1.00  0.00    -0.215 A  
BRANCH  18  23
HETATM   23  O   UNL     1      -9.951   9.048  65.755  1.00  0.00    -0.241 OA 
HETATM   24  C   UNL     1      -8.822   8.814  64.919  1.00  0.00    -0.074 C  
ENDBRANCH  18  23
BRANCH  21  25
HETATM   25  O   UNL     1     -11.461  10.909  66.825  1.00  0.00    -0.285 OA 
HETATM   26  C   UNL     1     -11.346  12.299  66.547  1.00  0.00    -0.351 C  
ENDBRANCH  21  25
BRANCH  22  27
HETATM   27  O   UNL     1     -11.106  11.693  69.558  1.00  0.00    -0.233 OA 
HETATM   28  C   UNL     1     -12.256  11.292  70.296  1.00  0.00    -0.345 C  
ENDBRANCH  22  27
ENDBRANCH  15  17
ENDBRANCH  14  15
ENDBRANCH   6  14
TORSDOF 6
ENDMDL
MODEL      158
REMARK 921   NORMALIZED FREE ENERGY PREDICTED BY IDOCK:   -4.22 KCAL/MOL
REMARK 922        TOTAL FREE ENERGY PREDICTED BY IDOCK:   -6.63 KCAL/MOL
REMARK 923 INTER-LIGAND FREE ENERGY PREDICTED BY IDOCK:   -6.05 KCAL/MOL
REMARK 924 INTRA-LIGAND FREE ENERGY PREDICTED BY IDOCK:   -0.57 KCAL/MOL
REMARK 927      BINDING AFFINITY PREDICTED BY RF-SCORE:    0.00 PKD
ROOT
HETATM    1  C   UNL     1     -12.226  14.205  66.145  1.00  0.00    -0.465 C  
HETATM    2  C   UNL     1     -12.141  13.252  67.333  1.00  0.00    -0.327 C  
HETATM    3  C   UNL     1     -10.900  12.309  67.551  1.00  0.00    -0.234 C  
HETATM    4  N   UNL     1      -9.586  13.026  67.680  1.00  0.00    -0.200 NA 
HETATM    5  C   UNL     1     -11.134  11.443  68.868  1.00  0.00    -0.290 A  
HETATM    6  C   UNL     1     -10.856  11.195  66.435  1.00  0.00    -0.225 C  
HETATM    7  C   UNL     1     -12.273  11.576  69.685  1.00  0.00    -0.296 A  
HETATM    8  C   UNL     1     -10.315   9.749  70.446  1.00  0.00    -0.354 A  
HETATM    9  C   UNL     1      -9.148  13.865  66.569  1.00  0.00    -0.143 C  
HETATM   10  C   UNL     1      -9.431  13.787  68.922  1.00  0.00     0.089 C  
HETATM   11  C   UNL     1     -12.419  10.834  70.863  1.00  0.00    -0.500 A  
HETATM   12  C   UNL     1     -11.439   9.928  71.247  1.00  0.00    -0.435 A  
HETATM   13  C   UNL     1     -10.163  10.497  69.274  1.00  0.00    -0.245 A  
ENDROOT
BRANCH   6  14
HETATM   14  O   UNL     1     -10.863  11.617  65.069  1.00  0.00    -0.287 OA 
BRANCH  14  15
HETATM   15  C   UNL     1     -10.026  10.918  64.262  1.00  0.00    -0.333 C  
HETATM   16  O   UNL     1      -9.936  11.007  63.049  1.00  0.00    -0.320 OA 
BRANCH  15  17
HETATM   17  C   UNL     1      -9.089  10.122  65.081  1.00  0.00    -0.242 A  
HETATM   18  C   UNL     1      -7.040  10.068  66.374  1.00  0.00    -0.102 A  
HETATM   19  C   UNL     1      -7.883  10.713  65.466  1.00  0.00    -0.099 A  
HETATM   20  C   UNL     1      -9.438   8.867  65.592  1.00  0.00    -0.230 A  
HETATM   21  C   UNL     1      -7.420   8.824  66.932  1.00  0.00    -0.090 A  
HETATM   22  C   UNL     1      -8.620   8.208  66.516  1.00  0.00    -0.138 A  
BRANCH  18  23
HETATM   23  O   UNL     1      -5.869  10.629  66.830  1.00  0.00    -0.055 OA 
HETATM   24  C   UNL     1      -5.993  11.826  67.592  1.00  0.00    -0.072 C  
ENDBRANCH  18  23
BRANCH  21  25
HETATM   25  O   UNL     1      -6.510   8.281  67.810  1.00  0.00    -0.054 OA 
HETATM   26  C   UNL     1      -6.811   8.356  69.198  1.00  0.00    -0.055 C  
ENDBRANCH  21  25
BRANCH  22  27
HETATM   27  O   UNL     1      -8.942   6.981  67.031  1.00  0.00    -0.119 OA 
HETATM   28  C   UNL     1     -10.310   6.710  67.321  1.00  0.00    -0.232 C  
ENDBRANCH  22  27
ENDBRANCH  15  17
ENDBRANCH  14  15
ENDBRANCH   6  14
TORSDOF 6
ENDMDL
MODEL      159
REMARK 921   NORMALIZED FREE ENERGY PREDICTED BY IDOCK:   -4.20 KCAL/MOL
REMARK 922        TOTAL FREE ENERGY PREDICTED BY IDOCK:   -6.61 KCAL/MOL
REMARK 923 INTER-LIGAND FREE ENERGY PREDICTED BY IDOCK:   -6.33 KCAL/MOL
REMARK 924 INTRA-LIGAND FREE ENERGY PREDICTED BY IDOCK:   -0.28 KCAL/MOL
REMARK 927      BINDING AFFINITY PREDICTED BY RF-SCORE:    0.00 PKD
ROOT
HETATM    1  C   UNL     1     -11.564  12.226  66.088  1.00  0.00    -0.450 C  
HETATM    2  C   UNL     1     -11.154  10.845  66.590  1.00  0.00    -0.155 C  
HETATM    3  C   UNL     1     -10.270  10.660  67.879  1.00  0.00    -0.177 C  
HETATM    4  N   UNL     1     -10.861  11.242  69.130  1.00  0.00    -0.221 NA 
HETATM    5  C   UNL     1     -10.018   9.105  68.114  1.00  0.00    -0.206 A  
HETATM    6  C   UNL     1      -8.807  11.188  67.618  1.00  0.00    -0.136 C  
HETATM    7  C   UNL     1     -10.562   8.102  67.288  1.00  0.00    -0.344 A  
HETATM    8  C   UNL     1      -9.021   7.316  69.468  1.00  0.00    -0.144 A  
HETATM    9  C   UNL     1     -11.151  12.673  69.154  1.00  0.00    -0.195 C  
HETATM   10  C   UNL     1     -12.034  10.526  69.636  1.00  0.00    -0.208 C  
HETATM   11  C   UNL     1     -10.363   6.744  67.557  1.00  0.00    -0.267 A  
HETATM   12  C   UNL     1      -9.600   6.351  68.650  1.00  0.00    -0.121 A  
HETATM   13  C   UNL     1      -9.228   8.674  69.207  1.00  0.00    -0.150 A  
ENDROOT
BRANCH   6  14
HETATM   14  O   UNL     1      -8.654  12.533  67.158  1.00  0.00    -0.188 OA 
BRANCH  14  15
HETATM   15  C   UNL     1      -8.026  13.358  68.035  1.00  0.00    -0.148 C  
HETATM   16  O   UNL     1      -7.104  13.067  68.778  1.00  0.00    -0.100 OA 
BRANCH  15  17
HETATM   17  C   UNL     1      -8.508  14.742  67.855  1.00  0.00    -0.156 A  
HETATM   18  C   UNL     1      -9.876  16.557  68.696  1.00  0.00    -0.250 A  
HETATM   19  C   UNL     1      -9.504  15.211  68.714  1.00  0.00    -0.209 A  
HETATM   20  C   UNL     1      -7.900  15.624  66.955  1.00  0.00    -0.258 A  
HETATM   21  C   UNL     1      -9.221  17.460  67.823  1.00  0.00    -0.248 A  
HETATM   22  C   UNL     1      -8.241  16.981  66.928  1.00  0.00    -0.213 A  
BRANCH  18  23
HETATM   23  O   UNL     1     -10.810  17.084  69.558  1.00  0.00    -0.264 OA 
HETATM   24  C   UNL     1     -11.379  16.184  70.504  1.00  0.00    -0.373 C  
ENDBRANCH  18  23
BRANCH  21  25
HETATM   25  O   UNL     1      -9.674  18.758  67.887  1.00  0.00    -0.307 OA 
HETATM   26  C   UNL     1      -8.811  19.726  68.471  1.00  0.00    -0.226 C  
ENDBRANCH  21  25
BRANCH  22  27
HETATM   27  O   UNL     1      -7.658  17.863  66.058  1.00  0.00    -0.415 OA 
HETATM   28  C   UNL     1      -6.255  17.762  65.836  1.00  0.00    -0.205 C  
ENDBRANCH  22  27
ENDBRANCH  15  17
ENDBRANCH  14  15
ENDBRANCH   6  14
TORSDOF 6
ENDMDL
MODEL      160
REMARK 921   NORMALIZED FREE ENERGY PREDICTED BY IDOCK:   -4.19 KCAL/MOL
REMARK 922        TOTAL FREE ENERGY PREDICTED BY IDOCK:   -6.59 KCAL/MOL
REMARK 923 INTER-LIGAND FREE ENERGY PREDICTED BY IDOCK:   -5.39 KCAL/MOL
REMARK 924 INTRA-LIGAND FREE ENERGY PREDICTED BY IDOCK:   -1.20 KCAL/MOL
REMARK 927      BINDING AFFINITY PREDICTED BY RF-SCORE:    0.00 PKD
ROOT
HETATM    1  C   UNL     1      -9.923   8.685  72.002  1.00  0.00    -0.399 C  
HETATM    2  C   UNL     1      -9.724   9.569  70.775  1.00  0.00    -0.289 C  
HETATM    3  C   UNL     1     -10.834   9.715  69.670  1.00  0.00    -0.244 C  
HETATM    4  N   UNL     1     -12.150  10.237  70.172  1.00  0.00    -0.234 NA 
HETATM    5  C   UNL     1     -10.304  10.694  68.530  1.00  0.00    -0.202 A  
HETATM    6  C   UNL     1     -11.001   8.360  68.880  1.00  0.00     0.152 C  
HETATM    7  C   UNL     1      -9.047  11.328  68.582  1.00  0.00    -0.153 A  
HETATM    8  C   UNL     1     -10.700  11.862  66.407  1.00  0.00    -0.303 A  
HETATM    9  C   UNL     1     -12.841   9.478  71.210  1.00  0.00    -0.333 C  
HETATM   10  C   UNL     1     -12.130  11.647  70.569  1.00  0.00    -0.366 C  
HETATM   11  C   UNL     1      -8.637  12.223  67.588  1.00  0.00    -0.169 A  
HETATM   12  C   UNL     1      -9.465  12.495  66.506  1.00  0.00    -0.240 A  
HETATM   13  C   UNL     1     -11.116  10.975  67.405  1.00  0.00    -0.370 A  
ENDROOT
BRANCH   6  14
HETATM   14  O   UNL     1     -11.272   7.176  69.634  1.00  0.00    -0.215 OA 
BRANCH  14  15
HETATM   15  C   UNL     1     -10.673   6.057  69.153  1.00  0.00    -0.331 C  
HETATM   16  O   UNL     1     -10.751   5.615  68.019  1.00  0.00    -0.219 OA 
BRANCH  15  17
HETATM   17  C   UNL     1      -9.750   5.508  70.168  1.00  0.00    -0.242 A  
HETATM   18  C   UNL     1      -7.510   5.479  71.093  1.00  0.00    -0.086 A  
HETATM   19  C   UNL     1      -8.394   5.833  70.072  1.00  0.00    -0.123 A  
HETATM   20  C   UNL     1     -10.214   4.802  71.284  1.00  0.00    -0.229 A  
HETATM   21  C   UNL     1      -7.991   4.814  72.247  1.00  0.00    -0.106 A  
HETATM   22  C   UNL     1      -9.353   4.452  72.329  1.00  0.00    -0.128 A  
BRANCH  18  23
HETATM   23  O   UNL     1      -6.178   5.822  71.076  1.00  0.00    -0.032 OA 
HETATM   24  C   UNL     1      -5.579   5.982  69.793  1.00  0.00    -0.013 C  
ENDBRANCH  18  23
BRANCH  21  25
HETATM   25  O   UNL     1      -7.029   4.511  73.183  1.00  0.00    -0.063 OA 
HETATM   26  C   UNL     1      -6.911   5.376  74.306  1.00  0.00    -0.077 C  
ENDBRANCH  21  25
BRANCH  22  27
HETATM   27  O   UNL     1      -9.785   3.764  73.431  1.00  0.00    -0.109 OA 
HETATM   28  C   UNL     1     -10.474   4.485  74.447  1.00  0.00    -0.270 C  
ENDBRANCH  22  27
ENDBRANCH  15  17
ENDBRANCH  14  15
ENDBRANCH   6  14
TORSDOF 6
ENDMDL
MODEL      161
REMARK 921   NORMALIZED FREE ENERGY PREDICTED BY IDOCK:   -4.17 KCAL/MOL
REMARK 922        TOTAL FREE ENERGY PREDICTED BY IDOCK:   -6.57 KCAL/MOL
REMARK 923 INTER-LIGAND FREE ENERGY PREDICTED BY IDOCK:   -6.14 KCAL/MOL
REMARK 924 INTRA-LIGAND FREE ENERGY PREDICTED BY IDOCK:   -0.43 KCAL/MOL
REMARK 927      BINDING AFFINITY PREDICTED BY RF-SCORE:    0.00 PKD
ROOT
HETATM    1  C   UNL     1      -9.242   8.195  66.216  1.00  0.00    -0.245 C  
HETATM    2  C   UNL     1      -9.960   9.541  66.264  1.00  0.00    -0.344 C  
HETATM    3  C   UNL     1     -10.117  10.347  67.607  1.00  0.00    -0.188 C  
HETATM    4  N   UNL     1      -8.822  10.702  68.277  1.00  0.00    -0.133 NA 
HETATM    5  C   UNL     1     -10.919  11.691  67.311  1.00  0.00    -0.318 A  
HETATM    6  C   UNL     1     -11.099   9.594  68.585  1.00  0.00    -0.038 C  
HETATM    7  C   UNL     1     -11.354  12.061  66.023  1.00  0.00    -0.398 A  
HETATM    8  C   UNL     1     -11.874  13.797  68.136  1.00  0.00    -0.411 A  
HETATM    9  C   UNL     1      -7.929   9.616  68.669  1.00  0.00    -0.089 C  
HETATM   10  C   UNL     1      -8.033  11.715  67.572  1.00  0.00    -0.141 C  
HETATM   11  C   UNL     1     -12.010  13.276  65.794  1.00  0.00    -0.463 A  
HETATM   12  C   UNL     1     -12.263  14.146  66.847  1.00  0.00    -0.400 A  
HETATM   13  C   UNL     1     -11.210  12.588  68.366  1.00  0.00    -0.313 A  
ENDROOT
BRANCH   6  14
HETATM   14  O   UNL     1     -10.805   8.233  68.911  1.00  0.00    -0.116 OA 
BRANCH  14  15
HETATM   15  C   UNL     1     -10.825   7.959  70.240  1.00  0.00    -0.241 C  
HETATM   16  O   UNL     1     -11.342   8.631  71.117  1.00  0.00    -0.255 OA 
BRANCH  15  17
HETATM   17  C   UNL     1     -10.263   6.615  70.483  1.00  0.00    -0.215 A  
HETATM   18  C   UNL     1      -9.832   4.834  72.070  1.00  0.00    -0.176 A  
HETATM   19  C   UNL     1     -10.198   6.155  71.801  1.00  0.00    -0.236 A  
HETATM   20  C   UNL     1      -9.935   5.750  69.432  1.00  0.00    -0.244 A  
HETATM   21  C   UNL     1      -9.553   3.946  71.003  1.00  0.00    -0.181 A  
HETATM   22  C   UNL     1      -9.583   4.419  69.674  1.00  0.00    -0.205 A  
BRANCH  18  23
HETATM   23  O   UNL     1      -9.805   4.314  73.343  1.00  0.00    -0.122 OA 
HETATM   24  C   UNL     1     -11.027   4.358  74.073  1.00  0.00    -0.198 C  
ENDBRANCH  18  23
BRANCH  21  25
HETATM   25  O   UNL     1      -9.198   2.673  71.387  1.00  0.00    -0.096 OA 
HETATM   26  C   UNL     1     -10.233   1.815  71.855  1.00  0.00    -0.110 C  
ENDBRANCH  21  25
BRANCH  22  27
HETATM   27  O   UNL     1      -9.260   3.554  68.661  1.00  0.00    -0.137 OA 
HETATM   28  C   UNL     1      -8.984   4.099  67.375  1.00  0.00    -0.125 C  
ENDBRANCH  22  27
ENDBRANCH  15  17
ENDBRANCH  14  15
ENDBRANCH   6  14
TORSDOF 6
ENDMDL
MODEL      162
REMARK 921   NORMALIZED FREE ENERGY PREDICTED BY IDOCK:   -4.17 KCAL/MOL
REMARK 922        TOTAL FREE ENERGY PREDICTED BY IDOCK:   -6.57 KCAL/MOL
REMARK 923 INTER-LIGAND FREE ENERGY PREDICTED BY IDOCK:   -6.07 KCAL/MOL
REMARK 924 INTRA-LIGAND FREE ENERGY PREDICTED BY IDOCK:   -0.50 KCAL/MOL
REMARK 927      BINDING AFFINITY PREDICTED BY RF-SCORE:    0.00 PKD
ROOT
HETATM    1  C   UNL     1      -8.579   7.862  69.747  1.00  0.00    -0.133 C  
HETATM    2  C   UNL     1      -8.482   7.990  68.230  1.00  0.00    -0.123 C  
HETATM    3  C   UNL     1      -8.523   9.390  67.512  1.00  0.00    -0.122 C  
HETATM    4  N   UNL     1      -7.441  10.341  67.937  1.00  0.00    -0.087 NA 
HETATM    5  C   UNL     1      -8.410   9.167  65.938  1.00  0.00    -0.127 A  
HETATM    6  C   UNL     1      -9.957  10.031  67.646  1.00  0.00    -0.176 C  
HETATM    7  C   UNL     1      -8.259   7.896  65.349  1.00  0.00    -0.139 A  
HETATM    8  C   UNL     1      -8.305  10.123  63.680  1.00  0.00    -0.170 A  
HETATM    9  C   UNL     1      -7.369  10.715  69.346  1.00  0.00    -0.133 C  
HETATM   10  C   UNL     1      -6.097   9.969  67.489  1.00  0.00    -0.058 C  
HETATM   11  C   UNL     1      -8.111   7.745  63.966  1.00  0.00    -0.062 A  
HETATM   12  C   UNL     1      -8.126   8.857  63.133  1.00  0.00    -0.173 A  
HETATM   13  C   UNL     1      -8.443  10.278  65.062  1.00  0.00    -0.177 A  
ENDROOT
BRANCH   6  14
HETATM   14  O   UNL     1     -10.501  10.185  68.959  1.00  0.00    -0.194 OA 
BRANCH  14  15
HETATM   15  C   UNL     1     -11.491  11.109  69.051  1.00  0.00    -0.296 C  
HETATM   16  O   UNL     1     -12.359  11.167  69.906  1.00  0.00    -0.303 OA 
BRANCH  15  17
HETATM   17  C   UNL     1     -11.284  12.168  68.042  1.00  0.00    -0.319 A  
HETATM   18  C   UNL     1      -9.945  14.042  67.291  1.00  0.00    -0.242 A  
HETATM   19  C   UNL     1     -10.293  13.123  68.283  1.00  0.00    -0.256 A  
HETATM   20  C   UNL     1     -11.944  12.152  66.808  1.00  0.00    -0.170 A  
HETATM   21  C   UNL     1     -10.575  13.990  66.024  1.00  0.00    -0.297 A  
HETATM   22  C   UNL     1     -11.602  13.050  65.792  1.00  0.00    -0.356 A  
BRANCH  18  23
HETATM   23  O   UNL     1      -8.939  14.967  67.454  1.00  0.00    -0.173 OA 
HETATM   24  C   UNL     1      -7.841  14.574  68.271  1.00  0.00    -0.131 C  
ENDBRANCH  18  23
BRANCH  21  25
HETATM   25  O   UNL     1     -10.156  14.948  65.129  1.00  0.00    -0.365 OA 
HETATM   26  C   UNL     1     -10.993  16.083  64.941  1.00  0.00    -0.384 C  
ENDBRANCH  21  25
BRANCH  22  27
HETATM   27  O   UNL     1     -12.233  13.052  64.577  1.00  0.00    -0.383 OA 
HETATM   28  C   UNL     1     -11.807  12.112  63.596  1.00  0.00    -0.516 C  
ENDBRANCH  22  27
ENDBRANCH  15  17
ENDBRANCH  14  15
ENDBRANCH   6  14
TORSDOF 6
ENDMDL
MODEL      163
REMARK 921   NORMALIZED FREE ENERGY PREDICTED BY IDOCK:   -4.15 KCAL/MOL
REMARK 922        TOTAL FREE ENERGY PREDICTED BY IDOCK:   -6.55 KCAL/MOL
REMARK 923 INTER-LIGAND FREE ENERGY PREDICTED BY IDOCK:   -6.35 KCAL/MOL
REMARK 924 INTRA-LIGAND FREE ENERGY PREDICTED BY IDOCK:   -0.19 KCAL/MOL
REMARK 927      BINDING AFFINITY PREDICTED BY RF-SCORE:    0.00 PKD
ROOT
HETATM    1  C   UNL     1     -10.902  14.421  64.649  1.00  0.00    -0.363 C  
HETATM    2  C   UNL     1     -10.746  15.686  65.489  1.00  0.00    -0.403 C  
HETATM    3  C   UNL     1     -10.160  15.643  66.949  1.00  0.00    -0.263 C  
HETATM    4  N   UNL     1      -8.774  15.074  67.049  1.00  0.00    -0.222 NA 
HETATM    5  C   UNL     1     -10.145  17.121  67.544  1.00  0.00    -0.301 A  
HETATM    6  C   UNL     1     -11.166  14.914  67.921  1.00  0.00    -0.315 C  
HETATM    7  C   UNL     1     -10.564  18.250  66.812  1.00  0.00    -0.338 A  
HETATM    8  C   UNL     1      -9.610  18.638  69.398  1.00  0.00     0.102 A  
HETATM    9  C   UNL     1      -8.555  13.708  66.586  1.00  0.00     0.078 C  
HETATM   10  C   UNL     1      -7.727  15.927  66.480  1.00  0.00    -0.063 C  
HETATM   11  C   UNL     1     -10.486  19.539  67.349  1.00  0.00    -0.593 A  
HETATM   12  C   UNL     1     -10.003  19.734  68.637  1.00  0.00    -0.535 A  
HETATM   13  C   UNL     1      -9.677  17.349  68.860  1.00  0.00    -0.251 A  
ENDROOT
BRANCH   6  14
HETATM   14  O   UNL     1     -11.597  13.597  67.572  1.00  0.00    -0.311 OA 
BRANCH  14  15
HETATM   15  C   UNL     1     -11.308  12.649  68.500  1.00  0.00    -0.296 C  
HETATM   16  O   UNL     1     -11.833  12.510  69.592  1.00  0.00    -0.309 OA 
BRANCH  15  17
HETATM   17  C   UNL     1     -10.355  11.671  67.936  1.00  0.00    -0.206 A  
HETATM   18  C   UNL     1      -8.539  10.118  68.340  1.00  0.00    -0.119 A  
HETATM   19  C   UNL     1      -9.357  11.164  68.772  1.00  0.00    -0.156 A  
HETATM   20  C   UNL     1     -10.515  11.141  66.651  1.00  0.00    -0.298 A  
HETATM   21  C   UNL     1      -8.737   9.547  67.060  1.00  0.00    -0.128 A  
HETATM   22  C   UNL     1      -9.720  10.082  66.200  1.00  0.00    -0.227 A  
BRANCH  18  23
HETATM   23  O   UNL     1      -7.579   9.544  69.141  1.00  0.00    -0.071 OA 
HETATM   24  C   UNL     1      -7.059  10.356  70.190  1.00  0.00    -0.117 C  
ENDBRANCH  18  23
BRANCH  21  25
HETATM   25  O   UNL     1      -7.869   8.528  66.739  1.00  0.00    -0.090 OA 
HETATM   26  C   UNL     1      -8.359   7.196  66.826  1.00  0.00    -0.116 C  
ENDBRANCH  21  25
BRANCH  22  27
HETATM   27  O   UNL     1      -9.859   9.547  64.947  1.00  0.00    -0.152 OA 
HETATM   28  C   UNL     1      -9.761  10.422  63.827  1.00  0.00    -0.290 C  
ENDBRANCH  22  27
ENDBRANCH  15  17
ENDBRANCH  14  15
ENDBRANCH   6  14
TORSDOF 6
ENDMDL
MODEL      164
REMARK 921   NORMALIZED FREE ENERGY PREDICTED BY IDOCK:   -4.11 KCAL/MOL
REMARK 922        TOTAL FREE ENERGY PREDICTED BY IDOCK:   -6.48 KCAL/MOL
REMARK 923 INTER-LIGAND FREE ENERGY PREDICTED BY IDOCK:   -5.90 KCAL/MOL
REMARK 924 INTRA-LIGAND FREE ENERGY PREDICTED BY IDOCK:   -0.58 KCAL/MOL
REMARK 927      BINDING AFFINITY PREDICTED BY RF-SCORE:    0.00 PKD
ROOT
HETATM    1  C   UNL     1     -10.701   6.741  66.596  1.00  0.00    -0.187 C  
HETATM    2  C   UNL     1      -9.397   6.940  67.363  1.00  0.00    -0.144 C  
HETATM    3  C   UNL     1      -9.367   7.618  68.783  1.00  0.00    -0.148 C  
HETATM    4  N   UNL     1     -10.195   6.921  69.825  1.00  0.00    -0.191 NA 
HETATM    5  C   UNL     1      -7.860   7.681  69.294  1.00  0.00    -0.121 A  
HETATM    6  C   UNL     1      -9.733   9.148  68.667  1.00  0.00    -0.155 C  
HETATM    7  C   UNL     1      -6.775   7.158  68.561  1.00  0.00    -0.060 A  
HETATM    8  C   UNL     1      -6.255   8.302  71.045  1.00  0.00    -0.034 A  
HETATM    9  C   UNL     1     -11.626   6.772  69.581  1.00  0.00    -0.176 C  
HETATM   10  C   UNL     1      -9.663   5.625  70.253  1.00  0.00    -0.178 C  
HETATM   11  C   UNL     1      -5.471   7.185  69.066  1.00  0.00    -0.018 A  
HETATM   12  C   UNL     1      -5.212   7.749  70.309  1.00  0.00    -0.023 A  
HETATM   13  C   UNL     1      -7.561   8.267  70.547  1.00  0.00    -0.076 A  
ENDROOT
BRANCH   6  14
HETATM   14  O   UNL     1     -10.966   9.494  68.031  1.00  0.00    -0.203 OA 
BRANCH  14  15
HETATM   15  C   UNL     1     -11.611  10.547  68.596  1.00  0.00    -0.171 C  
HETATM   16  O   UNL     1     -12.000  10.633  69.748  1.00  0.00    -0.291 OA 
BRANCH  15  17
HETATM   17  C   UNL     1     -11.640  11.681  67.650  1.00  0.00    -0.349 A  
HETATM   18  C   UNL     1     -11.528  14.081  67.330  1.00  0.00    -0.348 A  
HETATM   19  C   UNL     1     -11.667  12.976  68.173  1.00  0.00    -0.391 A  
HETATM   20  C   UNL     1     -11.498  11.496  66.270  1.00  0.00    -0.124 A  
HETATM   21  C   UNL     1     -11.329  13.891  65.942  1.00  0.00    -0.313 A  
HETATM   22  C   UNL     1     -11.339  12.585  65.406  1.00  0.00    -0.325 A  
BRANCH  18  23
HETATM   23  O   UNL     1     -11.492  15.374  67.798  1.00  0.00    -0.334 OA 
HETATM   24  C   UNL     1     -10.614  15.630  68.891  1.00  0.00    -0.228 C  
ENDBRANCH  18  23
BRANCH  21  25
HETATM   25  O   UNL     1     -11.211  15.050  65.209  1.00  0.00    -0.345 OA 
HETATM   26  C   UNL     1      -9.954  15.716  65.233  1.00  0.00    -0.194 C  
ENDBRANCH  21  25
BRANCH  22  27
HETATM   27  O   UNL     1     -11.196  12.428  64.053  1.00  0.00    -0.334 OA 
HETATM   28  C   UNL     1     -12.338  12.040  63.297  1.00  0.00    -0.438 C  
ENDBRANCH  22  27
ENDBRANCH  15  17
ENDBRANCH  14  15
ENDBRANCH   6  14
TORSDOF 6
ENDMDL
MODEL      165
REMARK 921   NORMALIZED FREE ENERGY PREDICTED BY IDOCK:   -4.10 KCAL/MOL
REMARK 922        TOTAL FREE ENERGY PREDICTED BY IDOCK:   -6.47 KCAL/MOL
REMARK 923 INTER-LIGAND FREE ENERGY PREDICTED BY IDOCK:   -5.71 KCAL/MOL
REMARK 924 INTRA-LIGAND FREE ENERGY PREDICTED BY IDOCK:   -0.76 KCAL/MOL
REMARK 927      BINDING AFFINITY PREDICTED BY RF-SCORE:    0.00 PKD
ROOT
HETATM    1  C   UNL     1      -6.975   9.006  65.398  1.00  0.00    -0.080 C  
HETATM    2  C   UNL     1      -8.150   9.884  64.979  1.00  0.00    -0.140 C  
HETATM    3  C   UNL     1      -9.217  10.390  66.019  1.00  0.00    -0.167 C  
HETATM    4  N   UNL     1      -8.652  11.207  67.146  1.00  0.00    -0.136 NA 
HETATM    5  C   UNL     1     -10.307  11.267  65.256  1.00  0.00    -0.337 A  
HETATM    6  C   UNL     1     -10.084   9.182  66.545  1.00  0.00    -0.287 C  
HETATM    7  C   UNL     1     -10.246  11.541  63.875  1.00  0.00    -0.411 A  
HETATM    8  C   UNL     1     -12.344  12.635  65.342  1.00  0.00    -0.499 A  
HETATM    9  C   UNL     1      -7.647  10.591  68.006  1.00  0.00    -0.091 C  
HETATM   10  C   UNL     1      -8.171  12.533  66.750  1.00  0.00     0.008 C  
HETATM   11  C   UNL     1     -11.193  12.359  63.250  1.00  0.00    -0.377 A  
HETATM   12  C   UNL     1     -12.236  12.911  63.983  1.00  0.00    -0.500 A  
HETATM   13  C   UNL     1     -11.393  11.826  65.971  1.00  0.00    -0.335 A  
ENDROOT
BRANCH   6  14
HETATM   14  O   UNL     1      -9.398   8.065  67.115  1.00  0.00    -0.138 OA 
BRANCH  14  15
HETATM   15  C   UNL     1     -10.213   7.131  67.670  1.00  0.00    -0.198 C  
HETATM   16  O   UNL     1     -11.203   6.631  67.163  1.00  0.00    -0.392 OA 
BRANCH  15  17
HETATM   17  C   UNL     1      -9.638   6.660  68.946  1.00  0.00    -0.129 A  
HETATM   18  C   UNL     1      -7.824   6.799  70.548  1.00  0.00    -0.105 A  
HETATM   19  C   UNL     1      -8.348   7.078  69.284  1.00  0.00    -0.129 A  
HETATM   20  C   UNL     1     -10.395   5.937  69.874  1.00  0.00    -0.307 A  
HETATM   21  C   UNL     1      -8.612   6.114  71.505  1.00  0.00    -0.131 A  
HETATM   22  C   UNL     1      -9.901   5.659  71.153  1.00  0.00    -0.177 A  
BRANCH  18  23
HETATM   23  O   UNL     1      -6.583   7.234  70.952  1.00  0.00    -0.043 OA 
HETATM   24  C   UNL     1      -5.603   7.394  69.931  1.00  0.00    -0.023 C  
ENDBRANCH  18  23
BRANCH  21  25
HETATM   25  O   UNL     1      -7.991   5.890  72.712  1.00  0.00    -0.104 OA 
HETATM   26  C   UNL     1      -7.450   4.594  72.942  1.00  0.00    -0.086 C  
ENDBRANCH  21  25
BRANCH  22  27
HETATM   27  O   UNL     1     -10.624   4.955  72.078  1.00  0.00    -0.201 OA 
HETATM   28  C   UNL     1     -11.744   5.593  72.684  1.00  0.00    -0.197 C  
ENDBRANCH  22  27
ENDBRANCH  15  17
ENDBRANCH  14  15
ENDBRANCH   6  14
TORSDOF 6
ENDMDL
MODEL      166
REMARK 921   NORMALIZED FREE ENERGY PREDICTED BY IDOCK:   -4.09 KCAL/MOL
REMARK 922        TOTAL FREE ENERGY PREDICTED BY IDOCK:   -6.46 KCAL/MOL
REMARK 923 INTER-LIGAND FREE ENERGY PREDICTED BY IDOCK:   -5.34 KCAL/MOL
REMARK 924 INTRA-LIGAND FREE ENERGY PREDICTED BY IDOCK:   -1.12 KCAL/MOL
REMARK 927      BINDING AFFINITY PREDICTED BY RF-SCORE:    0.00 PKD
ROOT
HETATM    1  C   UNL     1     -10.778   9.380  68.290  1.00  0.00    -0.220 C  
HETATM    2  C   UNL     1     -10.494   8.035  67.628  1.00  0.00    -0.301 C  
HETATM    3  C   UNL     1      -9.194   7.210  67.954  1.00  0.00    -0.129 C  
HETATM    4  N   UNL     1      -9.035   6.842  69.401  1.00  0.00    -0.138 NA 
HETATM    5  C   UNL     1      -9.202   5.871  67.090  1.00  0.00    -0.116 A  
HETATM    6  C   UNL     1      -7.921   7.950  67.391  1.00  0.00    -0.122 C  
HETATM    7  C   UNL     1     -10.255   5.521  66.222  1.00  0.00    -0.200 A  
HETATM    8  C   UNL     1      -8.118   3.755  66.478  1.00  0.00    -0.096 A  
HETATM    9  C   UNL     1      -8.973   7.921  70.383  1.00  0.00    -0.147 C  
HETATM   10  C   UNL     1      -9.988   5.838  69.880  1.00  0.00    -0.194 C  
HETATM   11  C   UNL     1     -10.251   4.311  65.519  1.00  0.00    -0.224 A  
HETATM   12  C   UNL     1      -9.188   3.426  65.652  1.00  0.00    -0.154 A  
HETATM   13  C   UNL     1      -8.124   4.959  67.189  1.00  0.00    -0.107 A  
ENDROOT
BRANCH   6  14
HETATM   14  O   UNL     1      -7.703   9.305  67.792  1.00  0.00    -0.088 OA 
BRANCH  14  15
HETATM   15  C   UNL     1      -7.209  10.107  66.814  1.00  0.00    -0.093 C  
HETATM   16  O   UNL     1      -6.257   9.872  66.089  1.00  0.00    -0.066 OA 
BRANCH  15  17
HETATM   17  C   UNL     1      -8.100  11.269  66.620  1.00  0.00    -0.160 A  
HETATM   18  C   UNL     1     -10.044  12.193  65.507  1.00  0.00    -0.248 A  
HETATM   19  C   UNL     1      -9.074  11.196  65.621  1.00  0.00    -0.221 A  
HETATM   20  C   UNL     1      -8.088  12.362  67.494  1.00  0.00    -0.173 A  
HETATM   21  C   UNL     1     -10.063  13.270  66.426  1.00  0.00    -0.290 A  
HETATM   22  C   UNL     1      -9.059  13.365  67.412  1.00  0.00    -0.216 A  
BRANCH  18  23
HETATM   23  O   UNL     1     -11.058  12.143  64.578  1.00  0.00    -0.300 OA 
HETATM   24  C   UNL     1     -10.715  11.638  63.291  1.00  0.00    -0.333 C  
ENDBRANCH  18  23
BRANCH  21  25
HETATM   25  O   UNL     1     -11.060  14.195  66.213  1.00  0.00    -0.310 OA 
HETATM   26  C   UNL     1     -10.704  15.405  65.555  1.00  0.00    -0.384 C  
ENDBRANCH  21  25
BRANCH  22  27
HETATM   27  O   UNL     1      -9.067  14.443  68.257  1.00  0.00    -0.180 OA 
HETATM   28  C   UNL     1      -7.868  15.199  68.396  1.00  0.00    -0.127 C  
ENDBRANCH  22  27
ENDBRANCH  15  17
ENDBRANCH  14  15
ENDBRANCH   6  14
TORSDOF 6
ENDMDL
MODEL      167
REMARK 921   NORMALIZED FREE ENERGY PREDICTED BY IDOCK:   -4.09 KCAL/MOL
REMARK 922        TOTAL FREE ENERGY PREDICTED BY IDOCK:   -6.46 KCAL/MOL
REMARK 923 INTER-LIGAND FREE ENERGY PREDICTED BY IDOCK:   -5.61 KCAL/MOL
REMARK 924 INTRA-LIGAND FREE ENERGY PREDICTED BY IDOCK:   -0.85 KCAL/MOL
REMARK 927      BINDING AFFINITY PREDICTED BY RF-SCORE:    0.00 PKD
ROOT
HETATM    1  C   UNL     1     -11.063   9.886  67.057  1.00  0.00     0.042 C  
HETATM    2  C   UNL     1     -10.059   8.892  67.634  1.00  0.00    -0.274 C  
HETATM    3  C   UNL     1      -9.433   9.084  69.065  1.00  0.00    -0.155 C  
HETATM    4  N   UNL     1     -10.435   9.141  70.182  1.00  0.00    -0.206 NA 
HETATM    5  C   UNL     1      -8.424   7.886  69.353  1.00  0.00    -0.133 A  
HETATM    6  C   UNL     1      -8.467  10.330  69.077  1.00  0.00    -0.150 C  
HETATM    7  C   UNL     1      -8.202   6.831  68.445  1.00  0.00    -0.119 A  
HETATM    8  C   UNL     1      -6.850   6.779  70.878  1.00  0.00    -0.059 A  
HETATM    9  C   UNL     1     -11.450  10.189  70.144  1.00  0.00    -0.296 C  
HETATM   10  C   UNL     1     -11.099   7.866  70.466  1.00  0.00    -0.256 C  
HETATM   11  C   UNL     1      -7.347   5.767  68.755  1.00  0.00    -0.084 A  
HETATM   12  C   UNL     1      -6.677   5.737  69.972  1.00  0.00    -0.051 A  
HETATM   13  C   UNL     1      -7.712   7.838  70.575  1.00  0.00    -0.088 A  
ENDROOT
BRANCH   6  14
HETATM   14  O   UNL     1      -8.992  11.588  68.646  1.00  0.00    -0.170 OA 
BRANCH  14  15
HETATM   15  C   UNL     1      -8.249  12.209  67.695  1.00  0.00    -0.163 C  
HETATM   16  O   UNL     1      -7.350  11.718  67.033  1.00  0.00    -0.139 OA 
BRANCH  15  17
HETATM   17  C   UNL     1      -8.792  13.559  67.437  1.00  0.00    -0.221 A  
HETATM   18  C   UNL     1     -10.415  14.920  66.260  1.00  0.00    -0.302 A  
HETATM   19  C   UNL     1      -9.751  13.704  66.432  1.00  0.00    -0.300 A  
HETATM   20  C   UNL     1      -8.480  14.649  68.258  1.00  0.00    -0.158 A  
HETATM   21  C   UNL     1     -10.138  16.006  67.126  1.00  0.00    -0.270 A  
HETATM   22  C   UNL     1      -9.143  15.873  68.118  1.00  0.00    -0.182 A  
BRANCH  18  23
HETATM   23  O   UNL     1     -11.407  15.102  65.324  1.00  0.00    -0.349 OA 
HETATM   24  C   UNL     1     -12.474  14.158  65.338  1.00  0.00    -0.472 C  
ENDBRANCH  18  23
BRANCH  21  25
HETATM   25  O   UNL     1     -10.847  17.155  66.859  1.00  0.00    -0.171 OA 
HETATM   26  C   UNL     1     -10.203  18.158  66.083  1.00  0.00    -0.367 C  
ENDBRANCH  21  25
BRANCH  22  27
HETATM   27  O   UNL     1      -8.856  16.952  68.910  1.00  0.00    -0.262 OA 
HETATM   28  C   UNL     1      -7.607  17.611  68.724  1.00  0.00    -0.253 C  
ENDBRANCH  22  27
ENDBRANCH  15  17
ENDBRANCH  14  15
ENDBRANCH   6  14
TORSDOF 6
ENDMDL
MODEL      168
REMARK 921   NORMALIZED FREE ENERGY PREDICTED BY IDOCK:   -4.08 KCAL/MOL
REMARK 922        TOTAL FREE ENERGY PREDICTED BY IDOCK:   -6.45 KCAL/MOL
REMARK 923 INTER-LIGAND FREE ENERGY PREDICTED BY IDOCK:   -6.38 KCAL/MOL
REMARK 924 INTRA-LIGAND FREE ENERGY PREDICTED BY IDOCK:   -0.07 KCAL/MOL
REMARK 927      BINDING AFFINITY PREDICTED BY RF-SCORE:    0.00 PKD
ROOT
HETATM    1  C   UNL     1      -7.762   6.976  64.860  1.00  0.00    -0.114 C  
HETATM    2  C   UNL     1      -8.473   8.314  64.681  1.00  0.00    -0.069 C  
HETATM    3  C   UNL     1      -8.427   9.431  65.790  1.00  0.00    -0.132 C  
HETATM    4  N   UNL     1      -7.046   9.900  66.146  1.00  0.00    -0.099 NA 
HETATM    5  C   UNL     1      -9.276  10.685  65.294  1.00  0.00    -0.230 A  
HETATM    6  C   UNL     1      -9.240   8.973  67.061  1.00  0.00    -0.136 C  
HETATM    7  C   UNL     1      -9.908  10.740  64.037  1.00  0.00    -0.390 A  
HETATM    8  C   UNL     1     -10.108  12.958  65.706  1.00  0.00    -0.294 A  
HETATM    9  C   UNL     1      -6.095   8.917  66.655  1.00  0.00    -0.060 C  
HETATM   10  C   UNL     1      -6.384  10.683  65.100  1.00  0.00     0.001 C  
HETATM   11  C   UNL     1     -10.601  11.880  63.615  1.00  0.00    -0.500 A  
HETATM   12  C   UNL     1     -10.695  12.990  64.445  1.00  0.00    -0.414 A  
HETATM   13  C   UNL     1      -9.407  11.823  66.125  1.00  0.00    -0.236 A  
ENDROOT
BRANCH   6  14
HETATM   14  O   UNL     1      -8.888   7.726  67.666  1.00  0.00    -0.128 OA 
BRANCH  14  15
HETATM   15  C   UNL     1      -8.619   7.805  68.995  1.00  0.00    -0.135 C  
HETATM   16  O   UNL     1      -7.517   7.827  69.516  1.00  0.00    -0.089 OA 
BRANCH  15  17
HETATM   17  C   UNL     1      -9.870   8.030  69.747  1.00  0.00    -0.183 A  
HETATM   18  C   UNL     1     -11.267   7.407  71.627  1.00  0.00    -0.247 A  
HETATM   19  C   UNL     1     -10.188   7.145  70.779  1.00  0.00    -0.208 A  
HETATM   20  C   UNL     1     -10.654   9.173  69.550  1.00  0.00    -0.233 A  
HETATM   21  C   UNL     1     -12.026   8.590  71.460  1.00  0.00    -0.303 A  
HETATM   22  C   UNL     1     -11.729   9.467  70.395  1.00  0.00    -0.170 A  
BRANCH  18  23
HETATM   23  O   UNL     1     -11.591   6.599  72.692  1.00  0.00    -0.230 OA 
HETATM   24  C   UNL     1     -10.675   5.550  72.994  1.00  0.00    -0.256 C  
ENDBRANCH  18  23
BRANCH  21  25
HETATM   25  O   UNL     1     -13.067   8.740  72.347  1.00  0.00    -0.395 OA 
HETATM   26  C   UNL     1     -14.355   8.306  71.928  1.00  0.00    -0.476 C  
ENDBRANCH  21  25
BRANCH  22  27
HETATM   27  O   UNL     1     -12.509  10.580  70.222  1.00  0.00    -0.305 OA 
HETATM   28  C   UNL     1     -11.872  11.798  69.850  1.00  0.00    -0.348 C  
ENDBRANCH  22  27
ENDBRANCH  15  17
ENDBRANCH  14  15
ENDBRANCH   6  14
TORSDOF 6
ENDMDL
MODEL      169
REMARK 921   NORMALIZED FREE ENERGY PREDICTED BY IDOCK:   -4.06 KCAL/MOL
REMARK 922        TOTAL FREE ENERGY PREDICTED BY IDOCK:   -6.42 KCAL/MOL
REMARK 923 INTER-LIGAND FREE ENERGY PREDICTED BY IDOCK:   -7.05 KCAL/MOL
REMARK 924 INTRA-LIGAND FREE ENERGY PREDICTED BY IDOCK:    0.63 KCAL/MOL
REMARK 927      BINDING AFFINITY PREDICTED BY RF-SCORE:    0.00 PKD
ROOT
HETATM    1  C   UNL     1     -10.611  13.952  67.188  1.00  0.00    -0.277 C  
HETATM    2  C   UNL     1      -9.672  12.876  66.651  1.00  0.00    -0.254 C  
HETATM    3  C   UNL     1     -10.217  11.540  66.023  1.00  0.00    -0.242 C  
HETATM    4  N   UNL     1     -11.122  11.730  64.840  1.00  0.00    -0.302 NA 
HETATM    5  C   UNL     1      -8.982  10.638  65.576  1.00  0.00    -0.209 A  
HETATM    6  C   UNL     1     -10.884  10.645  67.137  1.00  0.00    -0.270 C  
HETATM    7  C   UNL     1      -7.640  11.047  65.711  1.00  0.00     0.058 A  
HETATM    8  C   UNL     1      -8.149   8.567  64.553  1.00  0.00    -0.158 A  
HETATM    9  C   UNL     1     -12.343  12.508  65.025  1.00  0.00    -0.453 C  
HETATM   10  C   UNL     1     -10.446  12.212  63.633  1.00  0.00    -0.460 C  
HETATM   11  C   UNL     1      -6.584  10.249  65.258  1.00  0.00    -0.119 A  
HETATM   12  C   UNL     1      -6.838   9.015  64.673  1.00  0.00    -0.084 A  
HETATM   13  C   UNL     1      -9.208   9.367  64.996  1.00  0.00    -0.280 A  
ENDROOT
BRANCH   6  14
HETATM   14  O   UNL     1     -11.924  11.226  67.927  1.00  0.00    -0.630 OA 
BRANCH  14  15
HETATM   15  C   UNL     1     -11.659  11.270  69.257  1.00  0.00    -0.322 C  
HETATM   16  O   UNL     1     -11.809  12.226  70.000  1.00  0.00    -0.327 OA 
BRANCH  15  17
HETATM   17  C   UNL     1     -11.306   9.921  69.744  1.00  0.00    -0.241 A  
HETATM   18  C   UNL     1     -10.490   7.703  69.210  1.00  0.00    -0.218 A  
HETATM   19  C   UNL     1     -10.989   8.941  68.800  1.00  0.00     0.057 A  
HETATM   20  C   UNL     1     -11.145   9.646  71.107  1.00  0.00    -0.444 A  
HETATM   21  C   UNL     1     -10.275   7.446  70.585  1.00  0.00    -0.199 A  
HETATM   22  C   UNL     1     -10.630   8.421  71.542  1.00  0.00    -0.241 A  
BRANCH  18  23
HETATM   23  O   UNL     1     -10.109   6.723  68.322  1.00  0.00    -0.148 OA 
HETATM   24  C   UNL     1     -10.995   6.471  67.235  1.00  0.00    -0.400 C  
ENDBRANCH  18  23
BRANCH  21  25
HETATM   25  O   UNL     1      -9.786   6.192  70.871  1.00  0.00    -0.178 OA 
HETATM   26  C   UNL     1     -10.709   5.220  71.349  1.00  0.00    -0.133 C  
ENDBRANCH  21  25
BRANCH  22  27
HETATM   27  O   UNL     1     -10.462   8.131  72.870  1.00  0.00    -0.340 OA 
HETATM   28  C   UNL     1      -9.140   8.148  73.400  1.00  0.00    -0.239 C  
ENDBRANCH  22  27
ENDBRANCH  15  17
ENDBRANCH  14  15
ENDBRANCH   6  14
TORSDOF 6
ENDMDL
MODEL      170
REMARK 921   NORMALIZED FREE ENERGY PREDICTED BY IDOCK:   -4.05 KCAL/MOL
REMARK 922        TOTAL FREE ENERGY PREDICTED BY IDOCK:   -6.41 KCAL/MOL
REMARK 923 INTER-LIGAND FREE ENERGY PREDICTED BY IDOCK:   -6.11 KCAL/MOL
REMARK 924 INTRA-LIGAND FREE ENERGY PREDICTED BY IDOCK:   -0.30 KCAL/MOL
REMARK 927      BINDING AFFINITY PREDICTED BY RF-SCORE:    0.00 PKD
ROOT
HETATM    1  C   UNL     1      -6.130   9.060  66.497  1.00  0.00    -0.064 C  
HETATM    2  C   UNL     1      -6.080  10.524  66.923  1.00  0.00    -0.064 C  
HETATM    3  C   UNL     1      -7.271  11.204  67.694  1.00  0.00    -0.094 C  
HETATM    4  N   UNL     1      -7.623  10.550  68.999  1.00  0.00    -0.106 NA 
HETATM    5  C   UNL     1      -6.903  12.728  67.975  1.00  0.00    -0.100 A  
HETATM    6  C   UNL     1      -8.526  11.344  66.748  1.00  0.00    -0.165 C  
HETATM    7  C   UNL     1      -5.672  13.305  67.602  1.00  0.00    -0.090 A  
HETATM    8  C   UNL     1      -7.518  14.898  68.944  1.00  0.00    -0.137 A  
HETATM    9  C   UNL     1      -8.025   9.147  68.981  1.00  0.00    -0.101 C  
HETATM   10  C   UNL     1      -6.624  10.730  70.055  1.00  0.00    -0.159 C  
HETATM   11  C   UNL     1      -5.363  14.633  67.913  1.00  0.00    -0.086 A  
HETATM   12  C   UNL     1      -6.281  15.427  68.589  1.00  0.00    -0.096 A  
HETATM   13  C   UNL     1      -7.825  13.568  68.644  1.00  0.00    -0.084 A  
ENDROOT
BRANCH   6  14
HETATM   14  O   UNL     1      -9.019  10.162  66.113  1.00  0.00    -0.145 OA 
BRANCH  14  15
HETATM   15  C   UNL     1     -10.239   9.758  66.552  1.00  0.00    -0.219 C  
HETATM   16  O   UNL     1     -10.658   8.614  66.591  1.00  0.00    -0.240 OA 
BRANCH  15  17
HETATM   17  C   UNL     1     -10.960  10.900  67.149  1.00  0.00    -0.334 A  
HETATM   18  C   UNL     1     -11.696  12.027  69.165  1.00  0.00    -0.330 A  
HETATM   19  C   UNL     1     -11.170  10.899  68.530  1.00  0.00    -0.335 A  
HETATM   20  C   UNL     1     -11.305  12.030  66.398  1.00  0.00    -0.411 A  
HETATM   21  C   UNL     1     -11.993  13.188  68.412  1.00  0.00    -0.289 A  
HETATM   22  C   UNL     1     -11.817  13.178  67.011  1.00  0.00    -0.379 A  
BRANCH  18  23
HETATM   23  O   UNL     1     -11.870  12.100  70.527  1.00  0.00    -0.287 OA 
HETATM   24  C   UNL     1     -12.517  10.992  71.146  1.00  0.00    -0.397 C  
ENDBRANCH  18  23
BRANCH  21  25
HETATM   25  O   UNL     1     -12.512  14.234  69.141  1.00  0.00    -0.212 OA 
HETATM   26  C   UNL     1     -11.645  15.324  69.434  1.00  0.00    -0.330 C  
ENDBRANCH  21  25
BRANCH  22  27
HETATM   27  O   UNL     1     -12.159  14.295  66.297  1.00  0.00    -0.415 OA 
HETATM   28  C   UNL     1     -12.042  14.249  64.879  1.00  0.00    -0.435 C  
ENDBRANCH  22  27
ENDBRANCH  15  17
ENDBRANCH  14  15
ENDBRANCH   6  14
TORSDOF 6
ENDMDL
MODEL      171
REMARK 921   NORMALIZED FREE ENERGY PREDICTED BY IDOCK:   -4.05 KCAL/MOL
REMARK 922        TOTAL FREE ENERGY PREDICTED BY IDOCK:   -6.40 KCAL/MOL
REMARK 923 INTER-LIGAND FREE ENERGY PREDICTED BY IDOCK:   -5.58 KCAL/MOL
REMARK 924 INTRA-LIGAND FREE ENERGY PREDICTED BY IDOCK:   -0.82 KCAL/MOL
REMARK 927      BINDING AFFINITY PREDICTED BY RF-SCORE:    0.00 PKD
ROOT
HETATM    1  C   UNL     1      -7.921   6.677  71.213  1.00  0.00    -0.107 C  
HETATM    2  C   UNL     1      -9.302   7.276  71.461  1.00  0.00    -0.155 C  
HETATM    3  C   UNL     1     -10.620   6.461  71.188  1.00  0.00    -0.236 C  
HETATM    4  N   UNL     1     -10.733   5.180  71.965  1.00  0.00    -0.201 NA 
HETATM    5  C   UNL     1     -11.876   7.376  71.536  1.00  0.00    -0.327 A  
HETATM    6  C   UNL     1     -10.808   6.229  69.639  1.00  0.00    -0.339 C  
HETATM    7  C   UNL     1     -11.758   8.686  72.043  1.00  0.00    -0.439 A  
HETATM    8  C   UNL     1     -14.312   7.637  71.691  1.00  0.00    -0.613 A  
HETATM    9  C   UNL     1      -9.697   4.169  71.780  1.00  0.00    -0.175 C  
HETATM   10  C   UNL     1     -10.950   5.362  73.402  1.00  0.00    -0.297 C  
HETATM   11  C   UNL     1     -12.884   9.441  72.387  1.00  0.00    -0.394 A  
HETATM   12  C   UNL     1     -14.159   8.915  72.219  1.00  0.00    -0.512 A  
HETATM   13  C   UNL     1     -13.188   6.877  71.356  1.00  0.00    -0.287 A  
ENDROOT
BRANCH   6  14
HETATM   14  O   UNL     1      -9.740   5.607  68.921  1.00  0.00    -0.124 OA 
BRANCH  14  15
HETATM   15  C   UNL     1      -9.846   5.696  67.571  1.00  0.00    -0.139 C  
HETATM   16  O   UNL     1     -10.796   5.350  66.889  1.00  0.00    -0.237 OA 
BRANCH  15  17
HETATM   17  C   UNL     1      -8.693   6.440  67.025  1.00  0.00    -0.115 A  
HETATM   18  C   UNL     1      -7.423   7.098  65.069  1.00  0.00    -0.093 A  
HETATM   19  C   UNL     1      -8.394   6.293  65.669  1.00  0.00    -0.147 A  
HETATM   20  C   UNL     1      -7.994   7.382  67.789  1.00  0.00    -0.118 A  
HETATM   21  C   UNL     1      -6.756   8.088  65.830  1.00  0.00    -0.048 A  
HETATM   22  C   UNL     1      -7.029   8.212  67.208  1.00  0.00    -0.075 A  
BRANCH  18  23
HETATM   23  O   UNL     1      -7.129   7.034  63.726  1.00  0.00    -0.054 OA 
HETATM   24  C   UNL     1      -7.560   5.864  63.037  1.00  0.00    -0.081 C  
ENDBRANCH  18  23
BRANCH  21  25
HETATM   25  O   UNL     1      -5.816   8.815  65.136  1.00  0.00    -0.047 OA 
HETATM   26  C   UNL     1      -6.168  10.137  64.743  1.00  0.00    -0.130 C  
ENDBRANCH  21  25
BRANCH  22  27
HETATM   27  O   UNL     1      -6.335   9.142  67.935  1.00  0.00    -0.054 OA 
HETATM   28  C   UNL     1      -5.192   8.709  68.666  1.00  0.00    -0.033 C  
ENDBRANCH  22  27
ENDBRANCH  15  17
ENDBRANCH  14  15
ENDBRANCH   6  14
TORSDOF 6
ENDMDL
MODEL      172
REMARK 921   NORMALIZED FREE ENERGY PREDICTED BY IDOCK:   -4.03 KCAL/MOL
REMARK 922        TOTAL FREE ENERGY PREDICTED BY IDOCK:   -6.38 KCAL/MOL
REMARK 923 INTER-LIGAND FREE ENERGY PREDICTED BY IDOCK:   -5.90 KCAL/MOL
REMARK 924 INTRA-LIGAND FREE ENERGY PREDICTED BY IDOCK:   -0.48 KCAL/MOL
REMARK 927      BINDING AFFINITY PREDICTED BY RF-SCORE:    0.00 PKD
ROOT
HETATM    1  C   UNL     1     -11.902  14.027  65.994  1.00  0.00    -0.401 C  
HETATM    2  C   UNL     1     -12.223  14.355  67.449  1.00  0.00    -0.230 C  
HETATM    3  C   UNL     1     -11.090  14.570  68.519  1.00  0.00    -0.256 C  
HETATM    4  N   UNL     1     -10.127  15.676  68.195  1.00  0.00    -0.221 NA 
HETATM    5  C   UNL     1     -11.763  14.883  69.929  1.00  0.00    -0.347 A  
HETATM    6  C   UNL     1     -10.348  13.210  68.811  1.00  0.00    -0.130 C  
HETATM    7  C   UNL     1     -13.157  14.979  70.113  1.00  0.00    -0.018 A  
HETATM    8  C   UNL     1     -11.507  15.417  72.312  1.00  0.00    -0.506 A  
HETATM    9  C   UNL     1      -9.368  15.585  66.951  1.00  0.00    -0.233 C  
HETATM   10  C   UNL     1     -10.697  17.022  68.289  1.00  0.00    -0.372 C  
HETATM   11  C   UNL     1     -13.710  15.308  71.355  1.00  0.00    -0.602 A  
HETATM   12  C   UNL     1     -12.886  15.533  72.451  1.00  0.00    -0.495 A  
HETATM   13  C   UNL     1     -10.952  15.098  71.068  1.00  0.00    -0.216 A  
ENDROOT
BRANCH   6  14
HETATM   14  O   UNL     1      -9.788  12.503  67.701  1.00  0.00    -0.195 OA 
BRANCH  14  15
HETATM   15  C   UNL     1      -8.505  12.097  67.885  1.00  0.00    -0.163 C  
HETATM   16  O   UNL     1      -7.551  12.801  68.170  1.00  0.00    -0.112 OA 
BRANCH  15  17
HETATM   17  C   UNL     1      -8.437  10.622  67.855  1.00  0.00    -0.120 A  
HETATM   18  C   UNL     1      -7.459   8.601  68.767  1.00  0.00    -0.091 A  
HETATM   19  C   UNL     1      -7.461   9.991  68.629  1.00  0.00    -0.083 A  
HETATM   20  C   UNL     1      -9.401   9.852  67.194  1.00  0.00    -0.170 A  
HETATM   21  C   UNL     1      -8.467   7.827  68.142  1.00  0.00    -0.124 A  
HETATM   22  C   UNL     1      -9.432   8.460  67.329  1.00  0.00    -0.154 A  
BRANCH  18  23
HETATM   23  O   UNL     1      -6.557   7.932  69.561  1.00  0.00    -0.034 OA 
HETATM   24  C   UNL     1      -5.573   8.729  70.213  1.00  0.00    -0.027 C  
ENDBRANCH  18  23
BRANCH  21  25
HETATM   25  O   UNL     1      -8.362   6.469  68.342  1.00  0.00    -0.116 OA 
HETATM   26  C   UNL     1      -7.639   5.717  67.374  1.00  0.00    -0.096 C  
ENDBRANCH  21  25
BRANCH  22  27
HETATM   27  O   UNL     1     -10.366   7.686  66.694  1.00  0.00    -0.273 OA 
HETATM   28  C   UNL     1     -11.234   6.888  67.493  1.00  0.00    -0.116 C  
ENDBRANCH  22  27
ENDBRANCH  15  17
ENDBRANCH  14  15
ENDBRANCH   6  14
TORSDOF 6
ENDMDL
MODEL      173
REMARK 921   NORMALIZED FREE ENERGY PREDICTED BY IDOCK:   -3.99 KCAL/MOL
REMARK 922        TOTAL FREE ENERGY PREDICTED BY IDOCK:   -6.33 KCAL/MOL
REMARK 923 INTER-LIGAND FREE ENERGY PREDICTED BY IDOCK:   -5.85 KCAL/MOL
REMARK 924 INTRA-LIGAND FREE ENERGY PREDICTED BY IDOCK:   -0.48 KCAL/MOL
REMARK 927      BINDING AFFINITY PREDICTED BY RF-SCORE:    0.00 PKD
ROOT
HETATM    1  C   UNL     1      -9.013   9.797  65.212  1.00  0.00    -0.233 C  
HETATM    2  C   UNL     1      -9.810  10.394  66.368  1.00  0.00    -0.266 C  
HETATM    3  C   UNL     1      -9.918   9.669  67.761  1.00  0.00    -0.171 C  
HETATM    4  N   UNL     1      -8.601   9.418  68.437  1.00  0.00    -0.123 NA 
HETATM    5  C   UNL     1     -10.825  10.548  68.732  1.00  0.00    -0.269 A  
HETATM    6  C   UNL     1     -10.772   8.350  67.627  1.00  0.00    -0.121 C  
HETATM    7  C   UNL     1     -11.380  11.788  68.355  1.00  0.00    -0.328 A  
HETATM    8  C   UNL     1     -11.850  10.867  70.940  1.00  0.00    -0.363 A  
HETATM    9  C   UNL     1      -7.612   8.603  67.738  1.00  0.00    -0.098 C  
HETATM   10  C   UNL     1      -7.935  10.625  68.933  1.00  0.00    -0.132 C  
HETATM   11  C   UNL     1     -12.128  12.557  69.253  1.00  0.00    -0.214 A  
HETATM   12  C   UNL     1     -12.357  12.101  70.546  1.00  0.00    -0.358 A  
HETATM   13  C   UNL     1     -11.093  10.101  70.047  1.00  0.00    -0.368 A  
ENDROOT
BRANCH   6  14
HETATM   14  O   UNL     1     -10.366   7.387  66.651  1.00  0.00    -0.252 OA 
BRANCH  14  15
HETATM   15  C   UNL     1     -10.681   6.105  66.965  1.00  0.00    -0.350 C  
HETATM   16  O   UNL     1     -11.124   5.256  66.210  1.00  0.00    -0.156 OA 
BRANCH  15  17
HETATM   17  C   UNL     1     -10.252   5.808  68.347  1.00  0.00    -0.242 A  
HETATM   18  C   UNL     1      -8.442   5.210  69.844  1.00  0.00    -0.096 A  
HETATM   19  C   UNL     1      -8.949   5.347  68.550  1.00  0.00    -0.114 A  
HETATM   20  C   UNL     1     -11.058   6.110  69.451  1.00  0.00    -0.479 A  
HETATM   21  C   UNL     1      -9.240   5.568  70.957  1.00  0.00    -0.148 A  
HETATM   22  C   UNL     1     -10.568   5.999  70.756  1.00  0.00    -0.255 A  
BRANCH  18  23
HETATM   23  O   UNL     1      -7.149   4.814  70.099  1.00  0.00    -0.047 OA 
HETATM   24  C   UNL     1      -6.117   5.687  69.650  1.00  0.00    -0.025 C  
ENDBRANCH  18  23
BRANCH  21  25
HETATM   25  O   UNL     1      -8.639   5.386  72.182  1.00  0.00    -0.125 OA 
HETATM   26  C   UNL     1      -8.102   6.535  72.827  1.00  0.00    -0.106 C  
ENDBRANCH  21  25
BRANCH  22  27
HETATM   27  O   UNL     1     -11.338   6.290  71.851  1.00  0.00    -0.271 OA 
HETATM   28  C   UNL     1     -11.702   5.223  72.721  1.00  0.00    -0.139 C  
ENDBRANCH  22  27
ENDBRANCH  15  17
ENDBRANCH  14  15
ENDBRANCH   6  14
TORSDOF 6
ENDMDL
MODEL      174
REMARK 921   NORMALIZED FREE ENERGY PREDICTED BY IDOCK:   -3.99 KCAL/MOL
REMARK 922        TOTAL FREE ENERGY PREDICTED BY IDOCK:   -6.33 KCAL/MOL
REMARK 923 INTER-LIGAND FREE ENERGY PREDICTED BY IDOCK:   -5.74 KCAL/MOL
REMARK 924 INTRA-LIGAND FREE ENERGY PREDICTED BY IDOCK:   -0.58 KCAL/MOL
REMARK 927      BINDING AFFINITY PREDICTED BY RF-SCORE:    0.00 PKD
ROOT
HETATM    1  C   UNL     1     -12.343  13.853  65.921  1.00  0.00    -0.517 C  
HETATM    2  C   UNL     1     -12.159  12.926  67.119  1.00  0.00    -0.283 C  
HETATM    3  C   UNL     1     -10.815  12.143  67.361  1.00  0.00    -0.245 C  
HETATM    4  N   UNL     1      -9.602  13.016  67.501  1.00  0.00    -0.198 NA 
HETATM    5  C   UNL     1     -10.961  11.264  68.682  1.00  0.00    -0.266 A  
HETATM    6  C   UNL     1     -10.620  11.036  66.255  1.00  0.00    -0.237 C  
HETATM    7  C   UNL     1     -12.120  11.262  69.483  1.00  0.00    -0.386 A  
HETATM    8  C   UNL     1      -9.964   9.694  70.285  1.00  0.00    -0.326 A  
HETATM    9  C   UNL     1      -9.254  13.895  66.389  1.00  0.00    -0.152 C  
HETATM   10  C   UNL     1      -9.558  13.799  68.738  1.00  0.00    -0.040 C  
HETATM   11  C   UNL     1     -12.191  10.517  70.665  1.00  0.00    -0.446 A  
HETATM   12  C   UNL     1     -11.112   9.740  71.070  1.00  0.00    -0.431 A  
HETATM   13  C   UNL     1      -9.887  10.446  69.109  1.00  0.00    -0.237 A  
ENDROOT
BRANCH   6  14
HETATM   14  O   UNL     1     -10.660  11.444  64.886  1.00  0.00    -0.289 OA 
BRANCH  14  15
HETATM   15  C   UNL     1      -9.870  10.712  64.060  1.00  0.00    -0.338 C  
HETATM   16  O   UNL     1      -9.928  10.670  62.842  1.00  0.00    -0.300 OA 
BRANCH  15  17
HETATM   17  C   UNL     1      -8.788  10.075  64.836  1.00  0.00    -0.219 A  
HETATM   18  C   UNL     1      -7.661   8.026  65.475  1.00  0.00    -0.093 A  
HETATM   19  C   UNL     1      -8.752   8.680  64.897  1.00  0.00    -0.126 A  
HETATM   20  C   UNL     1      -7.734  10.818  65.381  1.00  0.00     0.022 A  
HETATM   21  C   UNL     1      -6.571   8.777  65.977  1.00  0.00    -0.057 A  
HETATM   22  C   UNL     1      -6.622  10.187  65.950  1.00  0.00    -0.105 A  
BRANCH  18  23
HETATM   23  O   UNL     1      -7.549   6.656  65.512  1.00  0.00    -0.079 OA 
HETATM   24  C   UNL     1      -8.482   5.963  66.336  1.00  0.00    -0.120 C  
ENDBRANCH  18  23
BRANCH  21  25
HETATM   25  O   UNL     1      -5.557   8.028  66.528  1.00  0.00    -0.031 OA 
HETATM   26  C   UNL     1      -5.639   7.733  67.917  1.00  0.00    -0.032 C  
ENDBRANCH  21  25
BRANCH  22  27
HETATM   27  O   UNL     1      -5.579  10.893  66.487  1.00  0.00    -0.070 OA 
HETATM   28  C   UNL     1      -5.868  12.119  67.153  1.00  0.00    -0.139 C  
ENDBRANCH  22  27
ENDBRANCH  15  17
ENDBRANCH  14  15
ENDBRANCH   6  14
TORSDOF 6
ENDMDL
MODEL      175
REMARK 921   NORMALIZED FREE ENERGY PREDICTED BY IDOCK:   -3.99 KCAL/MOL
REMARK 922        TOTAL FREE ENERGY PREDICTED BY IDOCK:   -6.32 KCAL/MOL
REMARK 923 INTER-LIGAND FREE ENERGY PREDICTED BY IDOCK:   -5.47 KCAL/MOL
REMARK 924 INTRA-LIGAND FREE ENERGY PREDICTED BY IDOCK:   -0.85 KCAL/MOL
REMARK 927      BINDING AFFINITY PREDICTED BY RF-SCORE:    0.00 PKD
ROOT
HETATM    1  C   UNL     1     -13.093   7.496  71.470  1.00  0.00    -0.402 C  
HETATM    2  C   UNL     1     -12.117   6.372  71.803  1.00  0.00    -0.351 C  
HETATM    3  C   UNL     1     -10.584   6.478  71.462  1.00  0.00    -0.229 C  
HETATM    4  N   UNL     1      -9.883   7.646  72.094  1.00  0.00    -0.171 NA 
HETATM    5  C   UNL     1      -9.857   5.139  71.928  1.00  0.00    -0.230 A  
HETATM    6  C   UNL     1     -10.368   6.436  69.900  1.00  0.00    -0.196 C  
HETATM    7  C   UNL     1     -10.529   4.083  72.575  1.00  0.00    -0.190 A  
HETATM    8  C   UNL     1      -7.790   3.834  72.148  1.00  0.00    -0.068 A  
HETATM    9  C   UNL     1     -10.365   8.988  71.783  1.00  0.00    -0.337 C  
HETATM   10  C   UNL     1      -9.718   7.540  73.545  1.00  0.00    -0.303 C  
HETATM   11  C   UNL     1      -9.846   2.944  73.017  1.00  0.00    -0.178 A  
HETATM   12  C   UNL     1      -8.478   2.823  72.811  1.00  0.00    -0.071 A  
HETATM   13  C   UNL     1      -8.468   4.977  71.714  1.00  0.00    -0.124 A  
ENDROOT
BRANCH   6  14
HETATM   14  O   UNL     1     -11.072   7.390  69.102  1.00  0.00    -0.091 OA 
BRANCH  14  15
HETATM   15  C   UNL     1     -10.487   7.661  67.906  1.00  0.00    -0.207 C  
HETATM   16  O   UNL     1     -10.609   7.024  66.873  1.00  0.00    -0.296 OA 
BRANCH  15  17
HETATM   17  C   UNL     1      -9.789   8.960  67.973  1.00  0.00    -0.199 A  
HETATM   18  C   UNL     1      -9.920  11.368  67.725  1.00  0.00    -0.178 A  
HETATM   19  C   UNL     1     -10.469  10.098  67.530  1.00  0.00    -0.304 A  
HETATM   20  C   UNL     1      -8.541   9.097  68.591  1.00  0.00    -0.128 A  
HETATM   21  C   UNL     1      -8.683  11.508  68.399  1.00  0.00    -0.160 A  
HETATM   22  C   UNL     1      -7.978  10.358  68.813  1.00  0.00    -0.122 A  
BRANCH  18  23
HETATM   23  O   UNL     1     -10.571  12.523  67.360  1.00  0.00    -0.220 OA 
HETATM   24  C   UNL     1     -11.623  12.958  68.217  1.00  0.00    -0.335 C  
ENDBRANCH  18  23
BRANCH  21  25
HETATM   25  O   UNL     1      -8.237  12.804  68.527  1.00  0.00    -0.142 OA 
HETATM   26  C   UNL     1      -7.297  13.273  67.569  1.00  0.00    -0.152 C  
ENDBRANCH  21  25
BRANCH  22  27
HETATM   27  O   UNL     1      -6.759  10.516  69.417  1.00  0.00    -0.056 OA 
HETATM   28  C   UNL     1      -5.611   9.981  68.766  1.00  0.00    -0.035 C  
ENDBRANCH  22  27
ENDBRANCH  15  17
ENDBRANCH  14  15
ENDBRANCH   6  14
TORSDOF 6
ENDMDL
MODEL      176
REMARK 921   NORMALIZED FREE ENERGY PREDICTED BY IDOCK:   -3.98 KCAL/MOL
REMARK 922        TOTAL FREE ENERGY PREDICTED BY IDOCK:   -6.31 KCAL/MOL
REMARK 923 INTER-LIGAND FREE ENERGY PREDICTED BY IDOCK:   -5.66 KCAL/MOL
REMARK 924 INTRA-LIGAND FREE ENERGY PREDICTED BY IDOCK:   -0.65 KCAL/MOL
REMARK 927      BINDING AFFINITY PREDICTED BY RF-SCORE:    0.00 PKD
ROOT
HETATM    1  C   UNL     1      -8.086   9.872  69.706  1.00  0.00    -0.185 C  
HETATM    2  C   UNL     1      -9.499   9.702  70.256  1.00  0.00    -0.300 C  
HETATM    3  C   UNL     1     -10.113   8.280  70.534  1.00  0.00    -0.195 C  
HETATM    4  N   UNL     1      -9.337   7.445  71.512  1.00  0.00    -0.144 NA 
HETATM    5  C   UNL     1     -11.597   8.457  71.087  1.00  0.00    -0.317 A  
HETATM    6  C   UNL     1     -10.364   7.517  69.177  1.00  0.00    -0.212 C  
HETATM    7  C   UNL     1     -12.192   9.716  71.308  1.00  0.00    -0.452 A  
HETATM    8  C   UNL     1     -13.667   7.437  71.926  1.00  0.00    -0.329 A  
HETATM    9  C   UNL     1      -7.948   7.128  71.195  1.00  0.00    -0.102 C  
HETATM   10  C   UNL     1      -9.397   7.922  72.896  1.00  0.00    -0.246 C  
HETATM   11  C   UNL     1     -13.478   9.832  71.845  1.00  0.00    -0.485 A  
HETATM   12  C   UNL     1     -14.212   8.695  72.160  1.00  0.00    -0.520 A  
HETATM   13  C   UNL     1     -12.377   7.318  71.399  1.00  0.00    -0.403 A  
ENDROOT
BRANCH   6  14
HETATM   14  O   UNL     1      -9.258   7.360  68.284  1.00  0.00    -0.138 OA 
BRANCH  14  15
HETATM   15  C   UNL     1      -9.333   6.264  67.487  1.00  0.00    -0.113 C  
HETATM   16  O   UNL     1      -9.842   5.191  67.766  1.00  0.00    -0.142 OA 
BRANCH  15  17
HETATM   17  C   UNL     1      -8.846   6.595  66.132  1.00  0.00    -0.160 A  
HETATM   18  C   UNL     1      -8.248   8.319  64.539  1.00  0.00    -0.135 A  
HETATM   19  C   UNL     1      -8.849   7.935  65.739  1.00  0.00    -0.155 A  
HETATM   20  C   UNL     1      -8.258   5.632  65.304  1.00  0.00    -0.134 A  
HETATM   21  C   UNL     1      -7.605   7.353  63.728  1.00  0.00    -0.118 A  
HETATM   22  C   UNL     1      -7.634   5.993  64.105  1.00  0.00    -0.091 A  
BRANCH  18  23
HETATM   23  O   UNL     1      -8.173   9.631  64.130  1.00  0.00    -0.136 OA 
HETATM   24  C   UNL     1      -9.133  10.525  64.685  1.00  0.00    -0.218 C  
ENDBRANCH  18  23
BRANCH  21  25
HETATM   25  O   UNL     1      -7.054   7.845  62.567  1.00  0.00    -0.083 OA 
HETATM   26  C   UNL     1      -5.638   7.785  62.436  1.00  0.00    -0.060 C  
ENDBRANCH  21  25
BRANCH  22  27
HETATM   27  O   UNL     1      -7.050   5.069  63.280  1.00  0.00    -0.045 OA 
HETATM   28  C   UNL     1      -6.692   3.806  63.830  1.00  0.00    -0.043 C  
ENDBRANCH  22  27
ENDBRANCH  15  17
ENDBRANCH  14  15
ENDBRANCH   6  14
TORSDOF 6
ENDMDL
MODEL      177
REMARK 921   NORMALIZED FREE ENERGY PREDICTED BY IDOCK:   -3.96 KCAL/MOL
REMARK 922        TOTAL FREE ENERGY PREDICTED BY IDOCK:   -6.28 KCAL/MOL
REMARK 923 INTER-LIGAND FREE ENERGY PREDICTED BY IDOCK:   -6.24 KCAL/MOL
REMARK 924 INTRA-LIGAND FREE ENERGY PREDICTED BY IDOCK:   -0.04 KCAL/MOL
REMARK 927      BINDING AFFINITY PREDICTED BY RF-SCORE:    0.00 PKD
ROOT
HETATM    1  C   UNL     1      -7.881   9.946  69.003  1.00  0.00    -0.095 C  
HETATM    2  C   UNL     1      -7.912   8.460  69.349  1.00  0.00    -0.112 C  
HETATM    3  C   UNL     1      -9.266   7.670  69.485  1.00  0.00    -0.150 C  
HETATM    4  N   UNL     1     -10.122   7.682  68.251  1.00  0.00    -0.180 NA 
HETATM    5  C   UNL     1      -8.944   6.156  69.862  1.00  0.00    -0.139 A  
HETATM    6  C   UNL     1     -10.059   8.158  70.757  1.00  0.00    -0.189 C  
HETATM    7  C   UNL     1      -7.633   5.657  69.998  1.00  0.00    -0.082 A  
HETATM    8  C   UNL     1      -9.755   3.891  70.352  1.00  0.00    -0.245 A  
HETATM    9  C   UNL     1     -10.566   8.972  67.734  1.00  0.00    -0.214 C  
HETATM   10  C   UNL     1      -9.588   6.897  67.136  1.00  0.00    -0.147 C  
HETATM   11  C   UNL     1      -7.389   4.308  70.279  1.00  0.00    -0.045 A  
HETATM   12  C   UNL     1      -8.448   3.425  70.448  1.00  0.00    -0.094 A  
HETATM   13  C   UNL     1     -10.001   5.236  70.061  1.00  0.00    -0.315 A  
ENDROOT
BRANCH   6  14
HETATM   14  O   UNL     1     -10.342   9.555  70.873  1.00  0.00    -0.291 OA 
BRANCH  14  15
HETATM   15  C   UNL     1     -11.664   9.856  70.930  1.00  0.00    -0.364 C  
HETATM   16  O   UNL     1     -12.583   9.076  71.117  1.00  0.00    -0.293 OA 
BRANCH  15  17
HETATM   17  C   UNL     1     -11.847  11.321  70.898  1.00  0.00    -0.177 A  
HETATM   18  C   UNL     1     -11.533  13.396  69.686  1.00  0.00    -0.207 A  
HETATM   19  C   UNL     1     -11.255  12.038  69.856  1.00  0.00    -0.020 A  
HETATM   20  C   UNL     1     -12.705  11.977  71.789  1.00  0.00    -0.273 A  
HETATM   21  C   UNL     1     -12.443  14.046  70.555  1.00  0.00    -0.359 A  
HETATM   22  C   UNL     1     -13.013  13.332  71.630  1.00  0.00    -0.349 A  
BRANCH  18  23
HETATM   23  O   UNL     1     -11.022  14.136  68.645  1.00  0.00    -0.241 OA 
HETATM   24  C   UNL     1      -9.662  14.544  68.764  1.00  0.00    -0.210 C  
ENDBRANCH  18  23
BRANCH  21  25
HETATM   25  O   UNL     1     -12.635  15.384  70.296  1.00  0.00    -0.377 OA 
HETATM   26  C   UNL     1     -11.845  16.314  71.027  1.00  0.00    -0.205 C  
ENDBRANCH  21  25
BRANCH  22  27
HETATM   27  O   UNL     1     -13.851  13.995  72.488  1.00  0.00    -0.555 OA 
HETATM   28  C   UNL     1     -13.295  15.004  73.325  1.00  0.00    -0.315 C  
ENDBRANCH  22  27
ENDBRANCH  15  17
ENDBRANCH  14  15
ENDBRANCH   6  14
TORSDOF 6
ENDMDL
MODEL      178
REMARK 921   NORMALIZED FREE ENERGY PREDICTED BY IDOCK:   -3.96 KCAL/MOL
REMARK 922        TOTAL FREE ENERGY PREDICTED BY IDOCK:   -6.28 KCAL/MOL
REMARK 923 INTER-LIGAND FREE ENERGY PREDICTED BY IDOCK:   -6.02 KCAL/MOL
REMARK 924 INTRA-LIGAND FREE ENERGY PREDICTED BY IDOCK:   -0.25 KCAL/MOL
REMARK 927      BINDING AFFINITY PREDICTED BY RF-SCORE:    0.00 PKD
ROOT
HETATM    1  C   UNL     1      -6.470  10.112  67.367  1.00  0.00    -0.067 C  
HETATM    2  C   UNL     1      -7.672  10.091  68.307  1.00  0.00    -0.084 C  
HETATM    3  C   UNL     1      -8.903  11.048  68.098  1.00  0.00    -0.141 C  
HETATM    4  N   UNL     1      -9.591  10.899  66.771  1.00  0.00    -0.180 NA 
HETATM    5  C   UNL     1      -9.968  10.779  69.252  1.00  0.00    -0.182 A  
HETATM    6  C   UNL     1      -8.489  12.543  68.382  1.00  0.00    -0.125 C  
HETATM    7  C   UNL     1      -9.794   9.798  70.248  1.00  0.00    -0.296 A  
HETATM    8  C   UNL     1     -12.142  11.293  70.272  1.00  0.00    -0.459 A  
HETATM    9  C   UNL     1      -8.808  11.130  65.561  1.00  0.00    -0.136 C  
HETATM   10  C   UNL     1     -10.330   9.645  66.609  1.00  0.00    -0.208 C  
HETATM   11  C   UNL     1     -10.776   9.555  71.215  1.00  0.00    -0.386 A  
HETATM   12  C   UNL     1     -11.951  10.296  71.222  1.00  0.00    -0.457 A  
HETATM   13  C   UNL     1     -11.166  11.532  69.298  1.00  0.00    -0.336 A  
ENDROOT
BRANCH   6  14
HETATM   14  O   UNL     1      -7.378  13.078  67.659  1.00  0.00    -0.119 OA 
BRANCH  14  15
HETATM   15  C   UNL     1      -6.584  13.906  68.384  1.00  0.00    -0.103 C  
HETATM   16  O   UNL     1      -5.475  13.653  68.825  1.00  0.00    -0.069 OA 
BRANCH  15  17
HETATM   17  C   UNL     1      -7.182  15.255  68.439  1.00  0.00    -0.114 A  
HETATM   18  C   UNL     1      -6.941  17.575  69.095  1.00  0.00    -0.211 A  
HETATM   19  C   UNL     1      -6.507  16.249  69.151  1.00  0.00    -0.175 A  
HETATM   20  C   UNL     1      -8.314  15.591  67.687  1.00  0.00    -0.167 A  
HETATM   21  C   UNL     1      -8.053  17.923  68.291  1.00  0.00    -0.293 A  
HETATM   22  C   UNL     1      -8.759  16.914  67.601  1.00  0.00    -0.209 A  
BRANCH  18  23
HETATM   23  O   UNL     1      -6.281  18.601  69.731  1.00  0.00    -0.263 OA 
HETATM   24  C   UNL     1      -5.210  18.230  70.594  1.00  0.00    -0.271 C  
ENDBRANCH  18  23
BRANCH  21  25
HETATM   25  O   UNL     1      -8.393  19.256  68.318  1.00  0.00    -0.312 OA 
HETATM   26  C   UNL     1      -7.996  20.058  67.212  1.00  0.00    -0.313 C  
ENDBRANCH  21  25
BRANCH  22  27
HETATM   27  O   UNL     1      -9.862  17.267  66.870  1.00  0.00    -0.265 OA 
HETATM   28  C   UNL     1     -11.035  17.666  67.572  1.00  0.00    -0.077 C  
ENDBRANCH  22  27
ENDBRANCH  15  17
ENDBRANCH  14  15
ENDBRANCH   6  14
TORSDOF 6
ENDMDL
MODEL      179
REMARK 921   NORMALIZED FREE ENERGY PREDICTED BY IDOCK:   -3.95 KCAL/MOL
REMARK 922        TOTAL FREE ENERGY PREDICTED BY IDOCK:   -6.27 KCAL/MOL
REMARK 923 INTER-LIGAND FREE ENERGY PREDICTED BY IDOCK:   -6.19 KCAL/MOL
REMARK 924 INTRA-LIGAND FREE ENERGY PREDICTED BY IDOCK:   -0.08 KCAL/MOL
REMARK 927      BINDING AFFINITY PREDICTED BY RF-SCORE:    0.00 PKD
ROOT
HETATM    1  C   UNL     1     -11.942  15.670  69.710  1.00  0.00    -0.371 C  
HETATM    2  C   UNL     1     -10.452  15.416  69.502  1.00  0.00    -0.264 C  
HETATM    3  C   UNL     1      -9.714  15.853  68.182  1.00  0.00    -0.212 C  
HETATM    4  N   UNL     1      -9.785  17.323  67.885  1.00  0.00    -0.265 NA 
HETATM    5  C   UNL     1      -8.181  15.431  68.284  1.00  0.00    -0.145 A  
HETATM    6  C   UNL     1     -10.208  14.981  66.965  1.00  0.00    -0.257 C  
HETATM    7  C   UNL     1      -7.627  14.806  69.419  1.00  0.00    -0.127 A  
HETATM    8  C   UNL     1      -5.941  15.380  67.280  1.00  0.00     0.185 A  
HETATM    9  C   UNL     1     -11.102  17.929  67.720  1.00  0.00     0.093 C  
HETATM   10  C   UNL     1      -9.002  18.163  68.795  1.00  0.00    -0.216 C  
HETATM   11  C   UNL     1      -6.264  14.498  69.493  1.00  0.00    -0.120 A  
HETATM   12  C   UNL     1      -5.421  14.791  68.428  1.00  0.00    -0.111 A  
HETATM   13  C   UNL     1      -7.300  15.698  67.208  1.00  0.00    -0.255 A  
ENDROOT
BRANCH   6  14
HETATM   14  O   UNL     1     -11.612  14.939  66.700  1.00  0.00    -0.342 OA 
BRANCH  14  15
HETATM   15  C   UNL     1     -11.987  13.978  65.817  1.00  0.00    -0.404 C  
HETATM   16  O   UNL     1     -12.893  14.047  65.003  1.00  0.00    -0.695 OA 
BRANCH  15  17
HETATM   17  C   UNL     1     -11.024  12.859  65.855  1.00  0.00    -0.300 A  
HETATM   18  C   UNL     1      -9.864  11.202  67.190  1.00  0.00    -0.187 A  
HETATM   19  C   UNL     1     -10.639  12.361  67.102  1.00  0.00    -0.247 A  
HETATM   20  C   UNL     1     -10.607  12.204  64.690  1.00  0.00    -0.340 A  
HETATM   21  C   UNL     1      -9.489  10.510  66.014  1.00  0.00    -0.183 A  
HETATM   22  C   UNL     1      -9.845  11.033  64.752  1.00  0.00    -0.276 A  
BRANCH  18  23
HETATM   23  O   UNL     1      -9.505  10.637  68.392  1.00  0.00    -0.153 OA 
HETATM   24  C   UNL     1      -8.282  11.089  68.966  1.00  0.00    -0.098 C  
ENDBRANCH  18  23
BRANCH  21  25
HETATM   25  O   UNL     1      -8.722   9.387  66.222  1.00  0.00    -0.134 OA 
HETATM   26  C   UNL     1      -9.396   8.135  66.291  1.00  0.00    -0.196 C  
ENDBRANCH  21  25
BRANCH  22  27
HETATM   27  O   UNL     1      -9.427  10.374  63.626  1.00  0.00    -0.264 OA 
HETATM   28  C   UNL     1      -9.154  11.143  62.459  1.00  0.00    -0.303 C  
ENDBRANCH  22  27
ENDBRANCH  15  17
ENDBRANCH  14  15
ENDBRANCH   6  14
TORSDOF 6
ENDMDL
MODEL      180
REMARK 921   NORMALIZED FREE ENERGY PREDICTED BY IDOCK:   -3.94 KCAL/MOL
REMARK 922        TOTAL FREE ENERGY PREDICTED BY IDOCK:   -6.26 KCAL/MOL
REMARK 923 INTER-LIGAND FREE ENERGY PREDICTED BY IDOCK:   -6.04 KCAL/MOL
REMARK 924 INTRA-LIGAND FREE ENERGY PREDICTED BY IDOCK:   -0.22 KCAL/MOL
REMARK 927      BINDING AFFINITY PREDICTED BY RF-SCORE:    0.00 PKD
ROOT
HETATM    1  C   UNL     1      -7.258   5.332  67.964  1.00  0.00    -0.071 C  
HETATM    2  C   UNL     1      -7.443   5.936  69.353  1.00  0.00    -0.087 C  
HETATM    3  C   UNL     1      -8.849   6.429  69.861  1.00  0.00    -0.142 C  
HETATM    4  N   UNL     1      -9.913   5.370  69.878  1.00  0.00    -0.202 NA 
HETATM    5  C   UNL     1      -8.690   7.011  71.336  1.00  0.00    -0.125 A  
HETATM    6  C   UNL     1      -9.303   7.707  69.057  1.00  0.00    -0.146 C  
HETATM    7  C   UNL     1      -7.467   7.017  72.035  1.00  0.00    -0.090 A  
HETATM    8  C   UNL     1      -9.722   8.019  73.323  1.00  0.00    -0.308 A  
HETATM    9  C   UNL     1     -10.250   4.712  68.620  1.00  0.00     0.072 C  
HETATM   10  C   UNL     1      -9.724   4.338  70.901  1.00  0.00    -0.196 C  
HETATM   11  C   UNL     1      -7.377   7.488  73.349  1.00  0.00    -0.109 A  
HETATM   12  C   UNL     1      -8.504   7.982  73.995  1.00  0.00    -0.312 A  
HETATM   13  C   UNL     1      -9.815   7.539  72.013  1.00  0.00    -0.200 A  
ENDROOT
BRANCH   6  14
HETATM   14  O   UNL     1      -9.348   7.619  67.630  1.00  0.00    -0.140 OA 
BRANCH  14  15
HETATM   15  C   UNL     1      -8.658   8.594  66.987  1.00  0.00    -0.117 C  
HETATM   16  O   UNL     1      -7.574   8.483  66.439  1.00  0.00    -0.088 OA 
BRANCH  15  17
HETATM   17  C   UNL     1      -9.487   9.813  66.887  1.00  0.00    -0.202 A  
HETATM   18  C   UNL     1     -10.229  11.677  65.528  1.00  0.00    -0.260 A  
HETATM   19  C   UNL     1      -9.354  10.610  65.748  1.00  0.00    -0.223 A  
HETATM   20  C   UNL     1     -10.487  10.104  67.822  1.00  0.00    -0.277 A  
HETATM   21  C   UNL     1     -11.274  11.936  66.447  1.00  0.00    -0.331 A  
HETATM   22  C   UNL     1     -11.386  11.155  67.617  1.00  0.00    -0.284 A  
BRANCH  18  23
HETATM   23  O   UNL     1     -10.179  12.459  64.397  1.00  0.00    -0.315 OA 
HETATM   24  C   UNL     1     -10.528  11.824  63.170  1.00  0.00    -0.305 C  
ENDBRANCH  18  23
BRANCH  21  25
HETATM   25  O   UNL     1     -12.069  13.014  66.131  1.00  0.00    -0.412 OA 
HETATM   26  C   UNL     1     -11.790  14.249  66.780  1.00  0.00    -0.426 C  
ENDBRANCH  21  25
BRANCH  22  27
HETATM   27  O   UNL     1     -12.373  11.457  68.517  1.00  0.00    -0.504 OA 
HETATM   28  C   UNL     1     -12.358  10.798  69.779  1.00  0.00    -0.236 C  
ENDBRANCH  22  27
ENDBRANCH  15  17
ENDBRANCH  14  15
ENDBRANCH   6  14
TORSDOF 6
ENDMDL
MODEL      181
REMARK 921   NORMALIZED FREE ENERGY PREDICTED BY IDOCK:   -3.94 KCAL/MOL
REMARK 922        TOTAL FREE ENERGY PREDICTED BY IDOCK:   -6.25 KCAL/MOL
REMARK 923 INTER-LIGAND FREE ENERGY PREDICTED BY IDOCK:   -5.71 KCAL/MOL
REMARK 924 INTRA-LIGAND FREE ENERGY PREDICTED BY IDOCK:   -0.54 KCAL/MOL
REMARK 927      BINDING AFFINITY PREDICTED BY RF-SCORE:    0.00 PKD
ROOT
HETATM    1  C   UNL     1     -10.548  13.670  67.113  1.00  0.00    -0.272 C  
HETATM    2  C   UNL     1      -9.599  12.612  66.560  1.00  0.00    -0.248 C  
HETATM    3  C   UNL     1     -10.130  11.321  65.832  1.00  0.00    -0.245 C  
HETATM    4  N   UNL     1     -10.976  11.592  64.621  1.00  0.00    -0.310 NA 
HETATM    5  C   UNL     1      -8.887  10.427  65.392  1.00  0.00    -0.197 A  
HETATM    6  C   UNL     1     -10.860  10.375  66.861  1.00  0.00    -0.161 C  
HETATM    7  C   UNL     1      -7.548  10.807  65.612  1.00  0.00    -0.044 A  
HETATM    8  C   UNL     1      -8.033   8.405  64.292  1.00  0.00    -0.149 A  
HETATM    9  C   UNL     1     -12.194  12.376  64.793  1.00  0.00    -0.423 C  
HETATM   10  C   UNL     1     -10.238  12.131  63.476  1.00  0.00    -0.424 C  
HETATM   11  C   UNL     1      -6.482  10.021  65.164  1.00  0.00    -0.115 A  
HETATM   12  C   UNL     1      -6.723   8.825  64.498  1.00  0.00    -0.070 A  
HETATM   13  C   UNL     1      -9.101   9.195  64.730  1.00  0.00    -0.157 A  
ENDROOT
BRANCH   6  14
HETATM   14  O   UNL     1     -11.929  10.926  67.634  1.00  0.00    -0.512 OA 
BRANCH  14  15
HETATM   15  C   UNL     1     -11.741  10.861  68.977  1.00  0.00    -0.320 C  
HETATM   16  O   UNL     1     -12.469  11.323  69.839  1.00  0.00    -0.242 OA 
BRANCH  15  17
HETATM   17  C   UNL     1     -10.587   9.990  69.279  1.00  0.00    -0.249 A  
HETATM   18  C   UNL     1      -8.273   9.831  69.980  1.00  0.00    -0.191 A  
HETATM   19  C   UNL     1      -9.352  10.593  69.527  1.00  0.00    -0.008 A  
HETATM   20  C   UNL     1     -10.732   8.610  69.464  1.00  0.00    -0.189 A  
HETATM   21  C   UNL     1      -8.436   8.445  70.217  1.00  0.00    -0.126 A  
HETATM   22  C   UNL     1      -9.672   7.827  69.933  1.00  0.00    -0.176 A  
BRANCH  18  23
HETATM   23  O   UNL     1      -7.051  10.382  70.292  1.00  0.00    -0.201 OA 
HETATM   24  C   UNL     1      -6.246  10.805  69.195  1.00  0.00    -0.045 C  
ENDBRANCH  18  23
BRANCH  21  25
HETATM   25  O   UNL     1      -7.304   7.796  70.656  1.00  0.00    -0.063 OA 
HETATM   26  C   UNL     1      -7.055   7.783  72.056  1.00  0.00    -0.069 C  
ENDBRANCH  21  25
BRANCH  22  27
HETATM   27  O   UNL     1      -9.791   6.476  70.122  1.00  0.00    -0.166 OA 
HETATM   28  C   UNL     1     -11.093   5.901  70.065  1.00  0.00    -0.341 C  
ENDBRANCH  22  27
ENDBRANCH  15  17
ENDBRANCH  14  15
ENDBRANCH   6  14
TORSDOF 6
ENDMDL
MODEL      182
REMARK 921   NORMALIZED FREE ENERGY PREDICTED BY IDOCK:   -3.92 KCAL/MOL
REMARK 922        TOTAL FREE ENERGY PREDICTED BY IDOCK:   -6.23 KCAL/MOL
REMARK 923 INTER-LIGAND FREE ENERGY PREDICTED BY IDOCK:   -5.45 KCAL/MOL
REMARK 924 INTRA-LIGAND FREE ENERGY PREDICTED BY IDOCK:   -0.79 KCAL/MOL
REMARK 927      BINDING AFFINITY PREDICTED BY RF-SCORE:    0.00 PKD
ROOT
HETATM    1  C   UNL     1     -10.680   5.463  66.461  1.00  0.00    -0.309 C  
HETATM    2  C   UNL     1      -9.440   5.272  67.329  1.00  0.00    -0.134 C  
HETATM    3  C   UNL     1      -9.090   6.261  68.502  1.00  0.00    -0.125 C  
HETATM    4  N   UNL     1     -10.150   6.376  69.559  1.00  0.00    -0.164 NA 
HETATM    5  C   UNL     1      -7.736   5.785  69.193  1.00  0.00    -0.090 A  
HETATM    6  C   UNL     1      -8.679   7.670  67.924  1.00  0.00    -0.124 C  
HETATM    7  C   UNL     1      -7.033   4.629  68.797  1.00  0.00    -0.052 A  
HETATM    8  C   UNL     1      -6.030   6.112  70.929  1.00  0.00    -0.030 A  
HETATM    9  C   UNL     1     -11.478   6.829  69.156  1.00  0.00    -0.050 C  
HETATM   10  C   UNL     1     -10.303   5.183  70.395  1.00  0.00    -0.256 C  
HETATM   11  C   UNL     1      -5.875   4.213  69.463  1.00  0.00    -0.018 A  
HETATM   12  C   UNL     1      -5.378   4.949  70.532  1.00  0.00    -0.004 A  
HETATM   13  C   UNL     1      -7.193   6.525  70.271  1.00  0.00    -0.080 A  
ENDROOT
BRANCH   6  14
HETATM   14  O   UNL     1      -9.596   8.325  67.044  1.00  0.00    -0.163 OA 
BRANCH  14  15
HETATM   15  C   UNL     1      -9.046   8.750  65.878  1.00  0.00    -0.218 C  
HETATM   16  O   UNL     1      -8.535   8.056  65.015  1.00  0.00    -0.143 OA 
BRANCH  15  17
HETATM   17  C   UNL     1      -9.297  10.195  65.702  1.00  0.00    -0.250 A  
HETATM   18  C   UNL     1     -10.435  11.938  64.461  1.00  0.00    -0.296 A  
HETATM   19  C   UNL     1     -10.029  10.607  64.586  1.00  0.00    -0.401 A  
HETATM   20  C   UNL     1      -8.951  11.129  66.686  1.00  0.00    -0.175 A  
HETATM   21  C   UNL     1     -10.131  12.869  65.483  1.00  0.00    -0.257 A  
HETATM   22  C   UNL     1      -9.360  12.463  66.593  1.00  0.00    -0.227 A  
BRANCH  18  23
HETATM   23  O   UNL     1     -11.204  12.386  63.412  1.00  0.00    -0.456 OA 
HETATM   24  C   UNL     1     -12.533  11.878  63.336  1.00  0.00    -0.463 C  
ENDBRANCH  18  23
BRANCH  21  25
HETATM   25  O   UNL     1     -10.576  14.151  65.249  1.00  0.00    -0.327 OA 
HETATM   26  C   UNL     1     -11.684  14.611  66.014  1.00  0.00    -0.306 C  
ENDBRANCH  21  25
BRANCH  22  27
HETATM   27  O   UNL     1      -9.035  13.394  67.543  1.00  0.00    -0.186 OA 
HETATM   28  C   UNL     1      -7.791  13.255  68.223  1.00  0.00    -0.143 C  
ENDBRANCH  22  27
ENDBRANCH  15  17
ENDBRANCH  14  15
ENDBRANCH   6  14
TORSDOF 6
ENDMDL
MODEL      183
REMARK 921   NORMALIZED FREE ENERGY PREDICTED BY IDOCK:   -3.92 KCAL/MOL
REMARK 922        TOTAL FREE ENERGY PREDICTED BY IDOCK:   -6.23 KCAL/MOL
REMARK 923 INTER-LIGAND FREE ENERGY PREDICTED BY IDOCK:   -5.49 KCAL/MOL
REMARK 924 INTRA-LIGAND FREE ENERGY PREDICTED BY IDOCK:   -0.75 KCAL/MOL
REMARK 927      BINDING AFFINITY PREDICTED BY RF-SCORE:    0.00 PKD
ROOT
HETATM    1  C   UNL     1     -12.306  14.111  69.730  1.00  0.00    -0.350 C  
HETATM    2  C   UNL     1     -10.848  14.532  69.566  1.00  0.00    -0.209 C  
HETATM    3  C   UNL     1     -10.110  14.436  68.180  1.00  0.00    -0.226 C  
HETATM    4  N   UNL     1     -10.749  15.228  67.076  1.00  0.00    -0.308 NA 
HETATM    5  C   UNL     1      -8.609  14.939  68.359  1.00  0.00    -0.159 A  
HETATM    6  C   UNL     1      -9.899  12.926  67.776  1.00  0.00    -0.221 C  
HETATM    7  C   UNL     1      -8.097  15.419  69.581  1.00  0.00    -0.134 A  
HETATM    8  C   UNL     1      -6.413  15.406  67.364  1.00  0.00    -0.115 A  
HETATM    9  C   UNL     1     -12.129  14.917  66.715  1.00  0.00     0.022 C  
HETATM   10  C   UNL     1     -10.628  16.680  67.224  1.00  0.00    -0.281 C  
HETATM   11  C   UNL     1      -6.788  15.902  69.686  1.00  0.00    -0.160 A  
HETATM   12  C   UNL     1      -5.949  15.902  68.579  1.00  0.00    -0.102 A  
HETATM   13  C   UNL     1      -7.724  14.933  67.254  1.00  0.00    -0.227 A  
ENDROOT
BRANCH   6  14
HETATM   14  O   UNL     1     -11.050  12.079  67.729  1.00  0.00    -0.221 OA 
BRANCH  14  15
HETATM   15  C   UNL     1     -11.204  11.407  66.560  1.00  0.00    -0.209 C  
HETATM   16  O   UNL     1     -11.779  11.804  65.560  1.00  0.00    -0.277 OA 
BRANCH  15  17
HETATM   17  C   UNL     1     -10.421  10.155  66.594  1.00  0.00    -0.254 A  
HETATM   18  C   UNL     1     -10.041   8.009  67.652  1.00  0.00    -0.209 A  
HETATM   19  C   UNL     1     -10.629   9.275  67.659  1.00  0.00    -0.324 A  
HETATM   20  C   UNL     1      -9.598   9.770  65.530  1.00  0.00    -0.348 A  
HETATM   21  C   UNL     1      -9.253   7.600  66.550  1.00  0.00    -0.176 A  
HETATM   22  C   UNL     1      -9.011   8.501  65.491  1.00  0.00    -0.132 A  
BRANCH  18  23
HETATM   23  O   UNL     1     -10.257   7.083  68.647  1.00  0.00    -0.164 OA 
HETATM   24  C   UNL     1      -9.850   7.454  69.960  1.00  0.00    -0.179 C  
ENDBRANCH  18  23
BRANCH  21  25
HETATM   25  O   UNL     1      -8.720   6.336  66.655  1.00  0.00    -0.119 OA 
HETATM   26  C   UNL     1      -9.392   5.281  65.978  1.00  0.00    -0.158 C  
ENDBRANCH  21  25
BRANCH  22  27
HETATM   27  O   UNL     1      -8.203   8.102  64.459  1.00  0.00    -0.156 OA 
HETATM   28  C   UNL     1      -7.040   8.873  64.179  1.00  0.00    -0.090 C  
ENDBRANCH  22  27
ENDBRANCH  15  17
ENDBRANCH  14  15
ENDBRANCH   6  14
TORSDOF 6
ENDMDL
MODEL      184
REMARK 921   NORMALIZED FREE ENERGY PREDICTED BY IDOCK:   -3.91 KCAL/MOL
REMARK 922        TOTAL FREE ENERGY PREDICTED BY IDOCK:   -6.21 KCAL/MOL
REMARK 923 INTER-LIGAND FREE ENERGY PREDICTED BY IDOCK:   -5.75 KCAL/MOL
REMARK 924 INTRA-LIGAND FREE ENERGY PREDICTED BY IDOCK:   -0.46 KCAL/MOL
REMARK 927      BINDING AFFINITY PREDICTED BY RF-SCORE:    0.00 PKD
ROOT
HETATM    1  C   UNL     1     -11.759  15.782  69.676  1.00  0.00    -0.363 C  
HETATM    2  C   UNL     1     -10.255  15.523  69.656  1.00  0.00    -0.289 C  
HETATM    3  C   UNL     1      -9.364  15.909  68.417  1.00  0.00    -0.201 C  
HETATM    4  N   UNL     1      -9.396  17.366  68.056  1.00  0.00    -0.269 NA 
HETATM    5  C   UNL     1      -7.855  15.495  68.717  1.00  0.00    -0.160 A  
HETATM    6  C   UNL     1      -9.713  14.989  67.185  1.00  0.00    -0.226 C  
HETATM    7  C   UNL     1      -7.442  14.916  69.933  1.00  0.00     0.015 A  
HETATM    8  C   UNL     1      -5.512  15.409  67.989  1.00  0.00    -0.135 A  
HETATM    9  C   UNL     1     -10.683  17.963  67.713  1.00  0.00    -0.326 C  
HETATM   10  C   UNL     1      -8.724  18.243  69.019  1.00  0.00    -0.011 C  
HETATM   11  C   UNL     1      -6.099  14.613  70.180  1.00  0.00    -0.158 A  
HETATM   12  C   UNL     1      -5.134  14.866  69.213  1.00  0.00    -0.090 A  
HETATM   13  C   UNL     1      -6.853  15.721  67.744  1.00  0.00    -0.177 A  
ENDROOT
BRANCH   6  14
HETATM   14  O   UNL     1     -11.076  14.934  66.756  1.00  0.00    -0.325 OA 
BRANCH  14  15
HETATM   15  C   UNL     1     -11.366  13.887  65.943  1.00  0.00    -0.313 C  
HETATM   16  O   UNL     1     -11.864  13.941  64.831  1.00  0.00    -0.352 OA 
BRANCH  15  17
HETATM   17  C   UNL     1     -10.835  12.638  66.526  1.00  0.00    -0.285 A  
HETATM   18  C   UNL     1      -8.908  11.222  66.921  1.00  0.00    -0.165 A  
HETATM   19  C   UNL     1      -9.505  12.299  66.263  1.00  0.00    -0.234 A  
HETATM   20  C   UNL     1     -11.575  11.875  67.436  1.00  0.00    -0.367 A  
HETATM   21  C   UNL     1      -9.641  10.486  67.882  1.00  0.00    -0.150 A  
HETATM   22  C   UNL     1     -10.995  10.802  68.122  1.00  0.00    -0.257 A  
BRANCH  18  23
HETATM   23  O   UNL     1      -7.587  10.880  66.742  1.00  0.00    -0.121 OA 
HETATM   24  C   UNL     1      -7.285  10.093  65.594  1.00  0.00    -0.137 C  
ENDBRANCH  18  23
BRANCH  21  25
HETATM   25  O   UNL     1      -8.953   9.444  68.462  1.00  0.00    -0.128 OA 
HETATM   26  C   UNL     1      -8.347   9.681  69.728  1.00  0.00    -0.174 C  
ENDBRANCH  21  25
BRANCH  22  27
HETATM   27  O   UNL     1     -11.699  10.043  69.018  1.00  0.00    -0.022 OA 
HETATM   28  C   UNL     1     -11.908  10.567  70.326  1.00  0.00    -0.331 C  
ENDBRANCH  22  27
ENDBRANCH  15  17
ENDBRANCH  14  15
ENDBRANCH   6  14
TORSDOF 6
ENDMDL
MODEL      185
REMARK 921   NORMALIZED FREE ENERGY PREDICTED BY IDOCK:   -3.88 KCAL/MOL
REMARK 922        TOTAL FREE ENERGY PREDICTED BY IDOCK:   -6.17 KCAL/MOL
REMARK 923 INTER-LIGAND FREE ENERGY PREDICTED BY IDOCK:   -5.58 KCAL/MOL
REMARK 924 INTRA-LIGAND FREE ENERGY PREDICTED BY IDOCK:   -0.59 KCAL/MOL
REMARK 927      BINDING AFFINITY PREDICTED BY RF-SCORE:    0.00 PKD
ROOT
HETATM    1  C   UNL     1     -10.093   8.105  72.712  1.00  0.00    -0.367 C  
HETATM    2  C   UNL     1      -9.949   9.015  71.495  1.00  0.00    -0.391 C  
HETATM    3  C   UNL     1     -11.046   9.071  70.369  1.00  0.00    -0.244 C  
HETATM    4  N   UNL     1     -12.412   9.469  70.848  1.00  0.00    -0.247 NA 
HETATM    5  C   UNL     1     -10.583  10.103  69.247  1.00  0.00    -0.254 A  
HETATM    6  C   UNL     1     -11.077   7.713  69.566  1.00  0.00    -0.016 C  
HETATM    7  C   UNL     1      -9.388  10.846  69.329  1.00  0.00    -0.027 A  
HETATM    8  C   UNL     1     -11.039  11.250  67.125  1.00  0.00    -0.364 A  
HETATM    9  C   UNL     1     -13.053   8.643  71.866  1.00  0.00    -0.373 C  
HETATM   10  C   UNL     1     -12.526  10.872  71.255  1.00  0.00    -0.388 C  
HETATM   11  C   UNL     1      -9.040  11.782  68.350  1.00  0.00    -0.176 A  
HETATM   12  C   UNL     1      -9.868  11.990  67.253  1.00  0.00    -0.200 A  
HETATM   13  C   UNL     1     -11.394  10.321  68.108  1.00  0.00    -0.233 A  
ENDROOT
BRANCH   6  14
HETATM   14  O   UNL     1     -11.256   6.503  70.306  1.00  0.00    -0.312 OA 
BRANCH  14  15
HETATM   15  C   UNL     1     -10.317   5.553  70.062  1.00  0.00    -0.288 C  
HETATM   16  O   UNL     1     -10.096   4.557  70.729  1.00  0.00    -0.214 OA 
BRANCH  15  17
HETATM   17  C   UNL     1      -9.682   5.801  68.751  1.00  0.00    -0.168 A  
HETATM   18  C   UNL     1      -7.798   6.713  67.531  1.00  0.00    -0.111 A  
HETATM   19  C   UNL     1      -8.528   6.586  68.715  1.00  0.00    -0.122 A  
HETATM   20  C   UNL     1     -10.119   5.160  67.587  1.00  0.00    -0.204 A  
HETATM   21  C   UNL     1      -8.210   6.020  66.368  1.00  0.00    -0.112 A  
HETATM   22  C   UNL     1      -9.397   5.256  66.393  1.00  0.00    -0.148 A  
BRANCH  18  23
HETATM   23  O   UNL     1      -6.625   7.427  67.453  1.00  0.00    -0.057 OA 
HETATM   24  C   UNL     1      -6.571   8.644  68.192  1.00  0.00    -0.061 C  
ENDBRANCH  18  23
BRANCH  21  25
HETATM   25  O   UNL     1      -7.419   6.224  65.261  1.00  0.00    -0.077 OA 
HETATM   26  C   UNL     1      -7.836   7.214  64.328  1.00  0.00    -0.111 C  
ENDBRANCH  21  25
BRANCH  22  27
HETATM   27  O   UNL     1      -9.804   4.636  65.241  1.00  0.00    -0.171 OA 
HETATM   28  C   UNL     1      -9.410   3.284  65.030  1.00  0.00    -0.150 C  
ENDBRANCH  22  27
ENDBRANCH  15  17
ENDBRANCH  14  15
ENDBRANCH   6  14
TORSDOF 6
ENDMDL
MODEL      186
REMARK 921   NORMALIZED FREE ENERGY PREDICTED BY IDOCK:   -3.88 KCAL/MOL
REMARK 922        TOTAL FREE ENERGY PREDICTED BY IDOCK:   -6.17 KCAL/MOL
REMARK 923 INTER-LIGAND FREE ENERGY PREDICTED BY IDOCK:   -5.69 KCAL/MOL
REMARK 924 INTRA-LIGAND FREE ENERGY PREDICTED BY IDOCK:   -0.48 KCAL/MOL
REMARK 927      BINDING AFFINITY PREDICTED BY RF-SCORE:    0.00 PKD
ROOT
HETATM    1  C   UNL     1     -10.760   5.257  66.425  1.00  0.00    -0.290 C  
HETATM    2  C   UNL     1      -9.471   4.929  67.173  1.00  0.00    -0.154 C  
HETATM    3  C   UNL     1      -8.975   5.798  68.388  1.00  0.00    -0.111 C  
HETATM    4  N   UNL     1      -9.943   5.880  69.533  1.00  0.00    -0.173 NA 
HETATM    5  C   UNL     1      -7.603   5.195  68.928  1.00  0.00    -0.081 A  
HETATM    6  C   UNL     1      -8.527   7.227  67.892  1.00  0.00    -0.118 C  
HETATM    7  C   UNL     1      -7.002   4.042  68.386  1.00  0.00    -0.048 A  
HETATM    8  C   UNL     1      -5.754   5.286  70.541  1.00  0.00    -0.016 A  
HETATM    9  C   UNL     1     -11.269   6.433  69.275  1.00  0.00    -0.375 C  
HETATM   10  C   UNL     1     -10.103   4.630  70.281  1.00  0.00    -0.206 C  
HETATM   11  C   UNL     1      -5.823   3.511  68.922  1.00  0.00    -0.023 A  
HETATM   12  C   UNL     1      -5.204   4.128  70.002  1.00  0.00    -0.004 A  
HETATM   13  C   UNL     1      -6.937   5.813  70.014  1.00  0.00    -0.065 A  
ENDROOT
BRANCH   6  14
HETATM   14  O   UNL     1      -9.469   8.000  67.143  1.00  0.00    -0.146 OA 
BRANCH  14  15
HETATM   15  C   UNL     1      -8.914   8.989  66.398  1.00  0.00    -0.155 C  
HETATM   16  O   UNL     1      -7.833   8.959  65.833  1.00  0.00    -0.098 OA 
BRANCH  15  17
HETATM   17  C   UNL     1      -9.887  10.085  66.214  1.00  0.00    -0.297 A  
HETATM   18  C   UNL     1     -11.099  11.932  67.210  1.00  0.00    -0.288 A  
HETATM   19  C   UNL     1     -10.312  10.786  67.345  1.00  0.00    -0.251 A  
HETATM   20  C   UNL     1     -10.274  10.523  64.943  1.00  0.00    -0.371 A  
HETATM   21  C   UNL     1     -11.444  12.405  65.921  1.00  0.00    -0.374 A  
HETATM   22  C   UNL     1     -11.047  11.678  64.779  1.00  0.00    -0.264 A  
BRANCH  18  23
HETATM   23  O   UNL     1     -11.499  12.691  68.285  1.00  0.00    -0.267 OA 
HETATM   24  C   UNL     1     -10.560  13.645  68.773  1.00  0.00    -0.231 C  
ENDBRANCH  18  23
BRANCH  21  25
HETATM   25  O   UNL     1     -12.226  13.538  65.910  1.00  0.00    -0.415 OA 
HETATM   26  C   UNL     1     -11.641  14.735  65.412  1.00  0.00    -0.316 C  
ENDBRANCH  21  25
BRANCH  22  27
HETATM   27  O   UNL     1     -11.436  12.126  63.545  1.00  0.00    -0.426 OA 
HETATM   28  C   UNL     1     -12.781  11.896  63.139  1.00  0.00    -0.127 C  
ENDBRANCH  22  27
ENDBRANCH  15  17
ENDBRANCH  14  15
ENDBRANCH   6  14
TORSDOF 6
ENDMDL
MODEL      187
REMARK 921   NORMALIZED FREE ENERGY PREDICTED BY IDOCK:   -3.85 KCAL/MOL
REMARK 922        TOTAL FREE ENERGY PREDICTED BY IDOCK:   -6.14 KCAL/MOL
REMARK 923 INTER-LIGAND FREE ENERGY PREDICTED BY IDOCK:   -5.41 KCAL/MOL
REMARK 924 INTRA-LIGAND FREE ENERGY PREDICTED BY IDOCK:   -0.73 KCAL/MOL
REMARK 927      BINDING AFFINITY PREDICTED BY RF-SCORE:    0.00 PKD
ROOT
HETATM    1  C   UNL     1      -8.103   6.520  71.087  1.00  0.00    -0.116 C  
HETATM    2  C   UNL     1      -9.428   7.210  71.398  1.00  0.00    -0.162 C  
HETATM    3  C   UNL     1     -10.805   6.460  71.259  1.00  0.00    -0.257 C  
HETATM    4  N   UNL     1     -10.933   5.228  72.107  1.00  0.00    -0.199 NA 
HETATM    5  C   UNL     1     -11.981   7.463  71.645  1.00  0.00    -0.339 A  
HETATM    6  C   UNL     1     -11.117   6.166  69.741  1.00  0.00    -0.416 C  
HETATM    7  C   UNL     1     -11.756   8.787  72.074  1.00  0.00    -0.442 A  
HETATM    8  C   UNL     1     -14.382   7.873  71.954  1.00  0.00    -0.549 A  
HETATM    9  C   UNL     1      -9.969   4.150  71.904  1.00  0.00    -0.183 C  
HETATM   10  C   UNL     1     -11.035   5.490  73.545  1.00  0.00    -0.240 C  
HETATM   11  C   UNL     1     -12.811   9.622  72.455  1.00  0.00    -0.315 A  
HETATM   12  C   UNL     1     -14.122   9.164  72.402  1.00  0.00    -0.434 A  
HETATM   13  C   UNL     1     -13.328   7.033  71.582  1.00  0.00    -0.356 A  
ENDROOT
BRANCH   6  14
HETATM   14  O   UNL     1     -10.138   5.449  68.984  1.00  0.00    -0.179 OA 
BRANCH  14  15
HETATM   15  C   UNL     1     -10.216   5.643  67.643  1.00  0.00    -0.199 C  
HETATM   16  O   UNL     1     -11.152   6.124  67.027  1.00  0.00    -0.335 OA 
BRANCH  15  17
HETATM   17  C   UNL     1      -8.914   5.336  67.017  1.00  0.00    -0.112 A  
HETATM   18  C   UNL     1      -7.154   3.712  66.646  1.00  0.00    -0.059 A  
HETATM   19  C   UNL     1      -8.297   4.123  67.334  1.00  0.00    -0.099 A  
HETATM   20  C   UNL     1      -8.364   6.151  66.020  1.00  0.00    -0.136 A  
HETATM   21  C   UNL     1      -6.630   4.512  65.602  1.00  0.00    -0.041 A  
HETATM   22  C   UNL     1      -7.229   5.754  65.305  1.00  0.00    -0.070 A  
BRANCH  18  23
HETATM   23  O   UNL     1      -6.539   2.503  66.880  1.00  0.00    -0.037 OA 
HETATM   24  C   UNL     1      -7.124   1.677  67.882  1.00  0.00    -0.039 C  
ENDBRANCH  18  23
BRANCH  21  25
HETATM   25  O   UNL     1      -5.498   4.010  65.000  1.00  0.00    -0.012 OA 
HETATM   26  C   UNL     1      -5.614   3.560  63.656  1.00  0.00    -0.013 C  
ENDBRANCH  21  25
BRANCH  22  27
HETATM   27  O   UNL     1      -6.675   6.534  64.325  1.00  0.00    -0.036 OA 
HETATM   28  C   UNL     1      -5.866   7.637  64.721  1.00  0.00    -0.038 C  
ENDBRANCH  22  27
ENDBRANCH  15  17
ENDBRANCH  14  15
ENDBRANCH   6  14
TORSDOF 6
ENDMDL
MODEL      188
REMARK 921   NORMALIZED FREE ENERGY PREDICTED BY IDOCK:   -3.83 KCAL/MOL
REMARK 922        TOTAL FREE ENERGY PREDICTED BY IDOCK:   -6.11 KCAL/MOL
REMARK 923 INTER-LIGAND FREE ENERGY PREDICTED BY IDOCK:   -5.68 KCAL/MOL
REMARK 924 INTRA-LIGAND FREE ENERGY PREDICTED BY IDOCK:   -0.43 KCAL/MOL
REMARK 927      BINDING AFFINITY PREDICTED BY RF-SCORE:    0.00 PKD
ROOT
HETATM    1  C   UNL     1      -8.933   5.627  65.457  1.00  0.00    -0.113 C  
HETATM    2  C   UNL     1      -8.063   5.941  66.671  1.00  0.00    -0.102 C  
HETATM    3  C   UNL     1      -8.557   6.899  67.817  1.00  0.00    -0.122 C  
HETATM    4  N   UNL     1      -9.823   6.461  68.494  1.00  0.00    -0.135 NA 
HETATM    5  C   UNL     1      -7.411   7.020  68.918  1.00  0.00    -0.095 A  
HETATM    6  C   UNL     1      -8.654   8.382  67.288  1.00  0.00    -0.123 C  
HETATM    7  C   UNL     1      -6.189   6.323  68.839  1.00  0.00    -0.036 A  
HETATM    8  C   UNL     1      -6.637   7.943  71.058  1.00  0.00    -0.037 A  
HETATM    9  C   UNL     1     -11.023   6.310  67.677  1.00  0.00    -0.342 C  
HETATM   10  C   UNL     1      -9.682   5.267  69.330  1.00  0.00    -0.174 C  
HETATM   11  C   UNL     1      -5.229   6.413  69.852  1.00  0.00    -0.013 A  
HETATM   12  C   UNL     1      -5.455   7.216  70.963  1.00  0.00    -0.027 A  
HETATM   13  C   UNL     1      -7.604   7.846  70.052  1.00  0.00    -0.084 A  
ENDROOT
BRANCH   6  14
HETATM   14  O   UNL     1      -9.450   8.626  66.126  1.00  0.00    -0.223 OA 
BRANCH  14  15
HETATM   15  C   UNL     1      -9.182   9.799  65.499  1.00  0.00    -0.215 C  
HETATM   16  O   UNL     1      -8.436   9.965  64.548  1.00  0.00    -0.150 OA 
BRANCH  15  17
HETATM   17  C   UNL     1     -10.060  10.863  66.027  1.00  0.00    -0.303 A  
HETATM   18  C   UNL     1     -11.672  11.539  67.706  1.00  0.00    -0.227 A  
HETATM   19  C   UNL     1     -10.942  10.538  67.061  1.00  0.00    -0.247 A  
HETATM   20  C   UNL     1      -9.930  12.196  65.623  1.00  0.00    -0.271 A  
HETATM   21  C   UNL     1     -11.498  12.893  67.333  1.00  0.00    -0.336 A  
HETATM   22  C   UNL     1     -10.636  13.219  66.264  1.00  0.00    -0.289 A  
BRANCH  18  23
HETATM   23  O   UNL     1     -12.511  11.282  68.765  1.00  0.00    -0.444 OA 
HETATM   24  C   UNL     1     -11.889  10.918  69.994  1.00  0.00    -0.347 C  
ENDBRANCH  18  23
BRANCH  21  25
HETATM   25  O   UNL     1     -12.273  13.790  68.032  1.00  0.00    -0.323 OA 
HETATM   26  C   UNL     1     -11.611  14.658  68.944  1.00  0.00    -0.310 C  
ENDBRANCH  21  25
BRANCH  22  27
HETATM   27  O   UNL     1     -10.523  14.531  65.887  1.00  0.00    -0.288 OA 
HETATM   28  C   UNL     1     -11.031  14.911  64.612  1.00  0.00    -0.306 C  
ENDBRANCH  22  27
ENDBRANCH  15  17
ENDBRANCH  14  15
ENDBRANCH   6  14
TORSDOF 6
ENDMDL
MODEL      189
REMARK 921   NORMALIZED FREE ENERGY PREDICTED BY IDOCK:   -3.80 KCAL/MOL
REMARK 922        TOTAL FREE ENERGY PREDICTED BY IDOCK:   -6.07 KCAL/MOL
REMARK 923 INTER-LIGAND FREE ENERGY PREDICTED BY IDOCK:   -5.38 KCAL/MOL
REMARK 924 INTRA-LIGAND FREE ENERGY PREDICTED BY IDOCK:   -0.69 KCAL/MOL
REMARK 927      BINDING AFFINITY PREDICTED BY RF-SCORE:    0.00 PKD
ROOT
HETATM    1  C   UNL     1     -10.893   4.775  65.758  1.00  0.00    -0.123 C  
HETATM    2  C   UNL     1      -9.571   4.428  66.437  1.00  0.00    -0.205 C  
HETATM    3  C   UNL     1      -8.920   5.373  67.513  1.00  0.00    -0.108 C  
HETATM    4  N   UNL     1      -9.783   5.640  68.713  1.00  0.00    -0.130 NA 
HETATM    5  C   UNL     1      -7.551   4.725  68.009  1.00  0.00    -0.082 A  
HETATM    6  C   UNL     1      -8.420   6.708  66.839  1.00  0.00    -0.115 C  
HETATM    7  C   UNL     1      -7.075   3.482  67.548  1.00  0.00    -0.058 A  
HETATM    8  C   UNL     1      -5.573   4.837  69.459  1.00  0.00    -0.012 A  
HETATM    9  C   UNL     1     -11.085   6.263  68.500  1.00  0.00    -0.308 C  
HETATM   10  C   UNL     1      -9.963   4.486  69.598  1.00  0.00    -0.181 C  
HETATM   11  C   UNL     1      -5.895   2.920  68.045  1.00  0.00    -0.023 A  
HETATM   12  C   UNL     1      -5.148   3.593  69.005  1.00  0.00    -0.011 A  
HETATM   13  C   UNL     1      -6.759   5.396  68.971  1.00  0.00    -0.053 A  
ENDROOT
BRANCH   6  14
HETATM   14  O   UNL     1      -9.366   7.471  66.086  1.00  0.00    -0.155 OA 
BRANCH  14  15
HETATM   15  C   UNL     1      -8.942   8.717  65.752  1.00  0.00    -0.197 C  
HETATM   16  O   UNL     1      -8.201   9.013  64.831  1.00  0.00    -0.135 OA 
BRANCH  15  17
HETATM   17  C   UNL     1      -9.645   9.722  66.575  1.00  0.00    -0.249 A  
HETATM   18  C   UNL     1     -11.254  11.533  66.660  1.00  0.00    -0.271 A  
HETATM   19  C   UNL     1     -10.440  10.669  65.924  1.00  0.00    -0.243 A  
HETATM   20  C   UNL     1      -9.649   9.660  67.973  1.00  0.00    -0.161 A  
HETATM   21  C   UNL     1     -11.298  11.433  68.071  1.00  0.00    -0.303 A  
HETATM   22  C   UNL     1     -10.468  10.503  68.732  1.00  0.00    -0.196 A  
BRANCH  18  23
HETATM   23  O   UNL     1     -12.097  12.445  66.068  1.00  0.00    -0.600 OA 
HETATM   24  C   UNL     1     -11.530  13.271  65.056  1.00  0.00    -0.305 C  
ENDBRANCH  18  23
BRANCH  21  25
HETATM   25  O   UNL     1     -12.129  12.338  68.690  1.00  0.00    -0.272 OA 
HETATM   26  C   UNL     1     -11.592  13.619  68.998  1.00  0.00    -0.312 C  
ENDBRANCH  21  25
BRANCH  22  27
HETATM   27  O   UNL     1     -10.489  10.459  70.101  1.00  0.00    -0.252 OA 
HETATM   28  C   UNL     1     -11.337   9.503  70.730  1.00  0.00    -0.321 C  
ENDBRANCH  22  27
ENDBRANCH  15  17
ENDBRANCH  14  15
ENDBRANCH   6  14
TORSDOF 6
ENDMDL
MODEL      190
REMARK 921   NORMALIZED FREE ENERGY PREDICTED BY IDOCK:   -3.75 KCAL/MOL
REMARK 922        TOTAL FREE ENERGY PREDICTED BY IDOCK:   -6.00 KCAL/MOL
REMARK 923 INTER-LIGAND FREE ENERGY PREDICTED BY IDOCK:   -5.21 KCAL/MOL
REMARK 924 INTRA-LIGAND FREE ENERGY PREDICTED BY IDOCK:   -0.79 KCAL/MOL
REMARK 927      BINDING AFFINITY PREDICTED BY RF-SCORE:    0.00 PKD
ROOT
HETATM    1  C   UNL     1      -6.308  10.226  67.423  1.00  0.00    -0.059 C  
HETATM    2  C   UNL     1      -7.199   9.194  68.108  1.00  0.00    -0.079 C  
HETATM    3  C   UNL     1      -8.600   8.787  67.516  1.00  0.00    -0.127 C  
HETATM    4  N   UNL     1      -8.550   8.226  66.124  1.00  0.00    -0.132 NA 
HETATM    5  C   UNL     1      -9.270   7.704  68.474  1.00  0.00    -0.143 A  
HETATM    6  C   UNL     1      -9.612   9.990  67.630  1.00  0.00    -0.148 C  
HETATM    7  C   UNL     1      -8.640   7.203  69.630  1.00  0.00    -0.137 A  
HETATM    8  C   UNL     1     -11.152   6.206  68.965  1.00  0.00    -0.437 A  
HETATM    9  C   UNL     1      -7.996   9.062  65.064  1.00  0.00    -0.123 C  
HETATM   10  C   UNL     1      -7.941   6.897  66.029  1.00  0.00    -0.109 C  
HETATM   11  C   UNL     1      -9.237   6.213  70.418  1.00  0.00    -0.162 A  
HETATM   12  C   UNL     1     -10.488   5.710  70.082  1.00  0.00    -0.366 A  
HETATM   13  C   UNL     1     -10.552   7.188  68.170  1.00  0.00    -0.241 A  
ENDROOT
BRANCH   6  14
HETATM   14  O   UNL     1      -9.230  11.242  67.055  1.00  0.00    -0.162 OA 
BRANCH  14  15
HETATM   15  C   UNL     1     -10.068  12.270  67.345  1.00  0.00    -0.200 C  
HETATM   16  O   UNL     1     -11.278  12.293  67.190  1.00  0.00    -0.271 OA 
BRANCH  15  17
HETATM   17  C   UNL     1      -9.327  13.339  68.046  1.00  0.00    -0.218 A  
HETATM   18  C   UNL     1      -7.219  14.100  68.967  1.00  0.00    -0.110 A  
HETATM   19  C   UNL     1      -8.017  13.076  68.452  1.00  0.00    -0.135 A  
HETATM   20  C   UNL     1      -9.847  14.631  68.181  1.00  0.00    -0.224 A  
HETATM   21  C   UNL     1      -7.728  15.418  69.052  1.00  0.00    -0.186 A  
HETATM   22  C   UNL     1      -9.063  15.678  68.677  1.00  0.00    -0.205 A  
BRANCH  18  23
HETATM   23  O   UNL     1      -5.906  13.910  69.330  1.00  0.00    -0.079 OA 
HETATM   24  C   UNL     1      -5.671  13.031  70.426  1.00  0.00    -0.169 C  
ENDBRANCH  18  23
BRANCH  21  25
HETATM   25  O   UNL     1      -6.856  16.343  69.580  1.00  0.00    -0.214 OA 
HETATM   26  C   UNL     1      -6.164  17.189  68.669  1.00  0.00    -0.159 C  
ENDBRANCH  21  25
BRANCH  22  27
HETATM   27  O   UNL     1      -9.550  16.951  68.817  1.00  0.00    -0.253 OA 
HETATM   28  C   UNL     1     -10.725  17.305  68.095  1.00  0.00    -0.363 C  
ENDBRANCH  22  27
ENDBRANCH  15  17
ENDBRANCH  14  15
ENDBRANCH   6  14
TORSDOF 6
ENDMDL
MODEL      191
REMARK 921   NORMALIZED FREE ENERGY PREDICTED BY IDOCK:   -3.75 KCAL/MOL
REMARK 922        TOTAL FREE ENERGY PREDICTED BY IDOCK:   -6.00 KCAL/MOL
REMARK 923 INTER-LIGAND FREE ENERGY PREDICTED BY IDOCK:   -5.15 KCAL/MOL
REMARK 924 INTRA-LIGAND FREE ENERGY PREDICTED BY IDOCK:   -0.85 KCAL/MOL
REMARK 927      BINDING AFFINITY PREDICTED BY RF-SCORE:    0.00 PKD
ROOT
HETATM    1  C   UNL     1     -10.984   8.875  68.213  1.00  0.00     0.063 C  
HETATM    2  C   UNL     1     -10.130   7.898  67.410  1.00  0.00    -0.292 C  
HETATM    3  C   UNL     1      -8.566   8.041  67.326  1.00  0.00    -0.124 C  
HETATM    4  N   UNL     1      -7.863   7.994  68.652  1.00  0.00    -0.116 NA 
HETATM    5  C   UNL     1      -7.988   6.876  66.406  1.00  0.00    -0.106 A  
HETATM    6  C   UNL     1      -8.177   9.327  66.500  1.00  0.00    -0.107 C  
HETATM    7  C   UNL     1      -8.799   5.882  65.823  1.00  0.00    -0.145 A  
HETATM    8  C   UNL     1      -6.052   5.761  65.388  1.00  0.00    -0.029 A  
HETATM    9  C   UNL     1      -8.214   8.996  69.654  1.00  0.00    -0.116 C  
HETATM   10  C   UNL     1      -7.871   6.677  69.295  1.00  0.00    -0.110 C  
HETATM   11  C   UNL     1      -8.250   4.843  65.063  1.00  0.00    -0.129 A  
HETATM   12  C   UNL     1      -6.878   4.778  64.852  1.00  0.00    -0.049 A  
HETATM   13  C   UNL     1      -6.598   6.795  66.156  1.00  0.00    -0.051 A  
ENDROOT
BRANCH   6  14
HETATM   14  O   UNL     1      -8.720  10.581  66.920  1.00  0.00    -0.127 OA 
BRANCH  14  15
HETATM   15  C   UNL     1      -9.355  11.274  65.940  1.00  0.00    -0.219 C  
HETATM   16  O   UNL     1      -9.510  10.925  64.782  1.00  0.00    -0.213 OA 
BRANCH  15  17
HETATM   17  C   UNL     1      -9.998  12.475  66.512  1.00  0.00    -0.252 A  
HETATM   18  C   UNL     1     -10.944  13.556  68.463  1.00  0.00    -0.267 A  
HETATM   19  C   UNL     1     -10.480  12.406  67.821  1.00  0.00    -0.231 A  
HETATM   20  C   UNL     1     -10.006  13.700  65.835  1.00  0.00    -0.304 A  
HETATM   21  C   UNL     1     -10.901  14.805  67.797  1.00  0.00    -0.278 A  
HETATM   22  C   UNL     1     -10.449  14.870  66.462  1.00  0.00    -0.297 A  
BRANCH  18  23
HETATM   23  O   UNL     1     -11.377  13.556  69.769  1.00  0.00    -0.200 OA 
HETATM   24  C   UNL     1     -11.779  12.299  70.305  1.00  0.00    -0.137 C  
ENDBRANCH  18  23
BRANCH  21  25
HETATM   25  O   UNL     1     -11.389  15.866  68.525  1.00  0.00    -0.343 OA 
HETATM   26  C   UNL     1     -10.447  16.678  69.216  1.00  0.00    -0.333 C  
ENDBRANCH  21  25
BRANCH  22  27
HETATM   27  O   UNL     1     -10.464  16.080  65.821  1.00  0.00    -0.339 OA 
HETATM   28  C   UNL     1     -11.265  16.212  64.651  1.00  0.00    -0.298 C  
ENDBRANCH  22  27
ENDBRANCH  15  17
ENDBRANCH  14  15
ENDBRANCH   6  14
TORSDOF 6
ENDMDL
MODEL      192
REMARK 921   NORMALIZED FREE ENERGY PREDICTED BY IDOCK:   -3.71 KCAL/MOL
REMARK 922        TOTAL FREE ENERGY PREDICTED BY IDOCK:   -5.95 KCAL/MOL
REMARK 923 INTER-LIGAND FREE ENERGY PREDICTED BY IDOCK:   -5.57 KCAL/MOL
REMARK 924 INTRA-LIGAND FREE ENERGY PREDICTED BY IDOCK:   -0.38 KCAL/MOL
REMARK 927      BINDING AFFINITY PREDICTED BY RF-SCORE:    0.00 PKD
ROOT
HETATM    1  C   UNL     1      -9.993   8.053  72.845  1.00  0.00    -0.360 C  
HETATM    2  C   UNL     1      -9.860   8.909  71.589  1.00  0.00    -0.387 C  
HETATM    3  C   UNL     1     -10.981   8.941  70.485  1.00  0.00    -0.241 C  
HETATM    4  N   UNL     1     -12.329   9.384  70.977  1.00  0.00    -0.285 NA 
HETATM    5  C   UNL     1     -10.525   9.918  69.313  1.00  0.00    -0.240 A  
HETATM    6  C   UNL     1     -11.054   7.553  69.739  1.00  0.00    -0.129 C  
HETATM    7  C   UNL     1      -9.315  10.641  69.339  1.00  0.00    -0.082 A  
HETATM    8  C   UNL     1     -11.008  10.988  67.156  1.00  0.00    -0.344 A  
HETATM    9  C   UNL     1     -12.961   8.611  72.042  1.00  0.00    -0.378 C  
HETATM   10  C   UNL     1     -12.408  10.804  71.329  1.00  0.00    -0.365 C  
HETATM   11  C   UNL     1      -8.973  11.530  68.315  1.00  0.00    -0.177 A  
HETATM   12  C   UNL     1      -9.821  11.709  67.229  1.00  0.00    -0.203 A  
HETATM   13  C   UNL     1     -11.357  10.105  68.183  1.00  0.00    -0.171 A  
ENDROOT
BRANCH   6  14
HETATM   14  O   UNL     1     -11.238   6.377  70.531  1.00  0.00    -0.300 OA 
BRANCH  14  15
HETATM   15  C   UNL     1     -10.278   5.433  70.364  1.00  0.00    -0.262 C  
HETATM   16  O   UNL     1     -10.145   4.404  71.005  1.00  0.00    -0.189 OA 
BRANCH  15  17
HETATM   17  C   UNL     1      -9.481   5.737  69.158  1.00  0.00    -0.157 A  
HETATM   18  C   UNL     1      -9.287   5.601  66.746  1.00  0.00    -0.134 A  
HETATM   19  C   UNL     1      -9.906   5.210  67.936  1.00  0.00    -0.199 A  
HETATM   20  C   UNL     1      -8.413   6.641  69.187  1.00  0.00    -0.124 A  
HETATM   21  C   UNL     1      -8.244   6.558  66.772  1.00  0.00    -0.110 A  
HETATM   22  C   UNL     1      -7.789   7.063  68.009  1.00  0.00    -0.114 A  
BRANCH  18  23
HETATM   23  O   UNL     1      -9.701   5.158  65.511  1.00  0.00    -0.120 OA 
HETATM   24  C   UNL     1      -9.619   3.754  65.280  1.00  0.00    -0.174 C  
ENDBRANCH  18  23
BRANCH  21  25
HETATM   25  O   UNL     1      -7.706   6.862  65.542  1.00  0.00    -0.089 OA 
HETATM   26  C   UNL     1      -8.149   8.057  64.909  1.00  0.00    -0.147 C  
ENDBRANCH  21  25
BRANCH  22  27
HETATM   27  O   UNL     1      -6.744   7.948  68.013  1.00  0.00    -0.063 OA 
HETATM   28  C   UNL     1      -5.419   7.426  67.987  1.00  0.00    -0.026 C  
ENDBRANCH  22  27
ENDBRANCH  15  17
ENDBRANCH  14  15
ENDBRANCH   6  14
TORSDOF 6
ENDMDL
MODEL      193
REMARK 921   NORMALIZED FREE ENERGY PREDICTED BY IDOCK:   -3.71 KCAL/MOL
REMARK 922        TOTAL FREE ENERGY PREDICTED BY IDOCK:   -5.94 KCAL/MOL
REMARK 923 INTER-LIGAND FREE ENERGY PREDICTED BY IDOCK:   -5.39 KCAL/MOL
REMARK 924 INTRA-LIGAND FREE ENERGY PREDICTED BY IDOCK:   -0.56 KCAL/MOL
REMARK 927      BINDING AFFINITY PREDICTED BY RF-SCORE:    0.00 PKD
ROOT
HETATM    1  C   UNL     1      -7.920   9.315  68.826  1.00  0.00    -0.099 C  
HETATM    2  C   UNL     1      -8.059   8.162  69.816  1.00  0.00    -0.116 C  
HETATM    3  C   UNL     1      -9.253   7.139  69.734  1.00  0.00    -0.143 C  
HETATM    4  N   UNL     1      -9.350   6.396  68.433  1.00  0.00    -0.122 NA 
HETATM    5  C   UNL     1      -9.105   6.078  70.913  1.00  0.00    -0.161 A  
HETATM    6  C   UNL     1     -10.609   7.851  70.109  1.00  0.00    -0.237 C  
HETATM    7  C   UNL     1      -8.032   6.084  71.826  1.00  0.00    -0.107 A  
HETATM    8  C   UNL     1      -9.951   4.082  72.067  1.00  0.00    -0.246 A  
HETATM    9  C   UNL     1      -9.520   7.172  67.208  1.00  0.00    -0.140 C  
HETATM   10  C   UNL     1      -8.282   5.417  68.214  1.00  0.00    -0.095 C  
HETATM   11  C   UNL     1      -7.908   5.103  72.816  1.00  0.00    -0.098 A  
HETATM   12  C   UNL     1      -8.862   4.100  72.932  1.00  0.00    -0.109 A  
HETATM   13  C   UNL     1     -10.071   5.056  71.070  1.00  0.00    -0.297 A  
ENDROOT
BRANCH   6  14
HETATM   14  O   UNL     1     -10.973   9.024  69.376  1.00  0.00    -0.182 OA 
BRANCH  14  15
HETATM   15  C   UNL     1     -11.341  10.076  70.151  1.00  0.00    -0.291 C  
HETATM   16  O   UNL     1     -11.806  10.027  71.277  1.00  0.00    -0.354 OA 
BRANCH  15  17
HETATM   17  C   UNL     1     -10.943  11.341  69.499  1.00  0.00    -0.249 A  
HETATM   18  C   UNL     1     -10.026  12.432  67.540  1.00  0.00    -0.196 A  
HETATM   19  C   UNL     1     -10.275  11.271  68.274  1.00  0.00    -0.198 A  
HETATM   20  C   UNL     1     -11.340  12.586  70.001  1.00  0.00     0.040 A  
HETATM   21  C   UNL     1     -10.476  13.685  68.022  1.00  0.00    -0.248 A  
HETATM   22  C   UNL     1     -11.117  13.762  69.276  1.00  0.00    -0.208 A  
BRANCH  18  23
HETATM   23  O   UNL     1      -9.423  12.416  66.303  1.00  0.00    -0.233 OA 
HETATM   24  C   UNL     1      -9.911  11.455  65.371  1.00  0.00    -0.245 C  
ENDBRANCH  18  23
BRANCH  21  25
HETATM   25  O   UNL     1     -10.169  14.759  67.218  1.00  0.00    -0.239 OA 
HETATM   26  C   UNL     1      -9.085  15.590  67.618  1.00  0.00    -0.182 C  
ENDBRANCH  21  25
BRANCH  22  27
HETATM   27  O   UNL     1     -11.498  14.991  69.746  1.00  0.00    -0.261 OA 
HETATM   28  C   UNL     1     -12.656  15.067  70.571  1.00  0.00    -0.369 C  
ENDBRANCH  22  27
ENDBRANCH  15  17
ENDBRANCH  14  15
ENDBRANCH   6  14
TORSDOF 6
ENDMDL
MODEL      194
REMARK 921   NORMALIZED FREE ENERGY PREDICTED BY IDOCK:   -3.70 KCAL/MOL
REMARK 922        TOTAL FREE ENERGY PREDICTED BY IDOCK:   -5.93 KCAL/MOL
REMARK 923 INTER-LIGAND FREE ENERGY PREDICTED BY IDOCK:   -5.14 KCAL/MOL
REMARK 924 INTRA-LIGAND FREE ENERGY PREDICTED BY IDOCK:   -0.80 KCAL/MOL
REMARK 927      BINDING AFFINITY PREDICTED BY RF-SCORE:    0.00 PKD
ROOT
HETATM    1  C   UNL     1      -7.590   9.088  68.770  1.00  0.00    -0.087 C  
HETATM    2  C   UNL     1      -8.911   9.434  69.452  1.00  0.00    -0.159 C  
HETATM    3  C   UNL     1      -9.715   8.370  70.287  1.00  0.00    -0.172 C  
HETATM    4  N   UNL     1      -8.957   7.781  71.442  1.00  0.00    -0.131 NA 
HETATM    5  C   UNL     1     -11.042   9.050  70.848  1.00  0.00    -0.343 A  
HETATM    6  C   UNL     1     -10.300   7.256  69.337  1.00  0.00    -0.208 C  
HETATM    7  C   UNL     1     -11.367  10.404  70.629  1.00  0.00    -0.411 A  
HETATM    8  C   UNL     1     -13.106   8.867  72.165  1.00  0.00    -0.475 A  
HETATM    9  C   UNL     1      -7.710   7.077  71.160  1.00  0.00    -0.091 C  
HETATM   10  C   UNL     1      -8.720   8.712  72.549  1.00  0.00    -0.062 C  
HETATM   11  C   UNL     1     -12.516  10.979  71.182  1.00  0.00    -0.502 A  
HETATM   12  C   UNL     1     -13.381  10.214  71.955  1.00  0.00    -0.505 A  
HETATM   13  C   UNL     1     -11.953   8.292  71.622  1.00  0.00    -0.346 A  
ENDROOT
BRANCH   6  14
HETATM   14  O   UNL     1      -9.388   6.559  68.484  1.00  0.00    -0.126 OA 
BRANCH  14  15
HETATM   15  C   UNL     1      -9.728   5.268  68.236  1.00  0.00    -0.140 C  
HETATM   16  O   UNL     1     -10.266   4.835  67.231  1.00  0.00    -0.171 OA 
BRANCH  15  17
HETATM   17  C   UNL     1      -9.199   4.396  69.305  1.00  0.00    -0.203 A  
HETATM   18  C   UNL     1      -9.591   3.295  71.427  1.00  0.00    -0.160 A  
HETATM   19  C   UNL     1      -9.963   4.234  70.463  1.00  0.00    -0.219 A  
HETATM   20  C   UNL     1      -8.042   3.630  69.127  1.00  0.00    -0.066 A  
HETATM   21  C   UNL     1      -8.451   2.482  71.221  1.00  0.00    -0.062 A  
HETATM   22  C   UNL     1      -7.657   2.670  70.069  1.00  0.00    -0.043 A  
BRANCH  18  23
HETATM   23  O   UNL     1     -10.337   3.055  72.558  1.00  0.00    -0.158 OA 
HETATM   24  C   UNL     1     -10.976   4.183  73.149  1.00  0.00    -0.186 C  
ENDBRANCH  18  23
BRANCH  21  25
HETATM   25  O   UNL     1      -8.178   1.598  72.239  1.00  0.00    -0.047 OA 
HETATM   26  C   UNL     1      -7.177   1.969  73.180  1.00  0.00    -0.028 C  
ENDBRANCH  21  25
BRANCH  22  27
HETATM   27  O   UNL     1      -6.530   1.908  69.915  1.00  0.00    -0.027 OA 
HETATM   28  C   UNL     1      -5.264   2.555  69.988  1.00  0.00    -0.008 C  
ENDBRANCH  22  27
ENDBRANCH  15  17
ENDBRANCH  14  15
ENDBRANCH   6  14
TORSDOF 6
ENDMDL
MODEL      195
REMARK 921   NORMALIZED FREE ENERGY PREDICTED BY IDOCK:   -3.64 KCAL/MOL
REMARK 922        TOTAL FREE ENERGY PREDICTED BY IDOCK:   -5.86 KCAL/MOL
REMARK 923 INTER-LIGAND FREE ENERGY PREDICTED BY IDOCK:   -5.28 KCAL/MOL
REMARK 924 INTRA-LIGAND FREE ENERGY PREDICTED BY IDOCK:   -0.58 KCAL/MOL
REMARK 927      BINDING AFFINITY PREDICTED BY RF-SCORE:    0.00 PKD
ROOT
HETATM    1  C   UNL     1     -11.488  12.226  65.422  1.00  0.00    -0.402 C  
HETATM    2  C   UNL     1     -11.742  11.705  66.833  1.00  0.00    -0.133 C  
HETATM    3  C   UNL     1     -10.632  10.943  67.647  1.00  0.00    -0.224 C  
HETATM    4  N   UNL     1      -9.370  11.728  67.867  1.00  0.00    -0.178 NA 
HETATM    5  C   UNL     1     -11.224  10.529  69.067  1.00  0.00    -0.316 A  
HETATM    6  C   UNL     1     -10.344   9.536  66.994  1.00  0.00    -0.250 C  
HETATM    7  C   UNL     1     -12.530  10.858  69.483  1.00  0.00    -0.126 A  
HETATM    8  C   UNL     1     -10.896   9.467  71.256  1.00  0.00    -0.431 A  
HETATM    9  C   UNL     1      -8.634  12.192  66.696  1.00  0.00    -0.122 C  
HETATM   10  C   UNL     1      -9.511  12.851  68.798  1.00  0.00     0.120 C  
HETATM   11  C   UNL     1     -12.997  10.522  70.758  1.00  0.00    -0.413 A  
HETATM   12  C   UNL     1     -12.179   9.835  71.646  1.00  0.00    -0.488 A  
HETATM   13  C   UNL     1     -10.423   9.810  69.985  1.00  0.00    -0.314 A  
ENDROOT
BRANCH   6  14
HETATM   14  O   UNL     1      -9.988   9.502  65.610  1.00  0.00    -0.305 OA 
BRANCH  14  15
HETATM   15  C   UNL     1      -8.769   8.958  65.358  1.00  0.00    -0.191 C  
HETATM   16  O   UNL     1      -7.852   9.475  64.742  1.00  0.00    -0.111 OA 
BRANCH  15  17
HETATM   17  C   UNL     1      -8.630   7.682  66.088  1.00  0.00    -0.160 A  
HETATM   18  C   UNL     1      -7.853   6.537  68.078  1.00  0.00    -0.105 A  
HETATM   19  C   UNL     1      -7.879   7.673  67.265  1.00  0.00    -0.117 A  
HETATM   20  C   UNL     1      -9.339   6.535  65.712  1.00  0.00     0.115 A  
HETATM   21  C   UNL     1      -8.614   5.397  67.724  1.00  0.00    -0.104 A  
HETATM   22  C   UNL     1      -9.344   5.391  66.516  1.00  0.00    -0.145 A  
BRANCH  18  23
HETATM   23  O   UNL     1      -7.176   6.493  69.275  1.00  0.00    -0.084 OA 
HETATM   24  C   UNL     1      -7.713   7.276  70.337  1.00  0.00    -0.094 C  
ENDBRANCH  18  23
BRANCH  21  25
HETATM   25  O   UNL     1      -8.508   4.337  68.595  1.00  0.00    -0.083 OA 
HETATM   26  C   UNL     1      -9.602   4.095  69.472  1.00  0.00    -0.204 C  
ENDBRANCH  21  25
BRANCH  22  27
HETATM   27  O   UNL     1     -10.032   4.258  66.169  1.00  0.00    -0.216 OA 
HETATM   28  C   UNL     1     -10.037   3.867  64.800  1.00  0.00    -0.198 C  
ENDBRANCH  22  27
ENDBRANCH  15  17
ENDBRANCH  14  15
ENDBRANCH   6  14
TORSDOF 6
ENDMDL
MODEL      196
REMARK 921   NORMALIZED FREE ENERGY PREDICTED BY IDOCK:   -3.64 KCAL/MOL
REMARK 922        TOTAL FREE ENERGY PREDICTED BY IDOCK:   -5.86 KCAL/MOL
REMARK 923 INTER-LIGAND FREE ENERGY PREDICTED BY IDOCK:   -5.61 KCAL/MOL
REMARK 924 INTRA-LIGAND FREE ENERGY PREDICTED BY IDOCK:   -0.25 KCAL/MOL
REMARK 927      BINDING AFFINITY PREDICTED BY RF-SCORE:    0.00 PKD
ROOT
HETATM    1  C   UNL     1      -8.740  12.685  67.233  1.00  0.00    -0.198 C  
HETATM    2  C   UNL     1      -8.487  11.183  67.141  1.00  0.00    -0.137 C  
HETATM    3  C   UNL     1      -9.623  10.175  66.731  1.00  0.00    -0.177 C  
HETATM    4  N   UNL     1     -10.230  10.434  65.382  1.00  0.00    -0.285 NA 
HETATM    5  C   UNL     1      -9.031   8.696  66.744  1.00  0.00    -0.167 A  
HETATM    6  C   UNL     1     -10.718  10.095  67.864  1.00  0.00    -0.269 C  
HETATM    7  C   UNL     1      -7.685   8.407  67.044  1.00  0.00    -0.093 A  
HETATM    8  C   UNL     1      -9.369   6.290  66.387  1.00  0.00    -0.176 A  
HETATM    9  C   UNL     1     -10.863  11.728  65.149  1.00  0.00    -0.297 C  
HETATM   10  C   UNL     1      -9.342  10.144  64.253  1.00  0.00    -0.295 C  
HETATM   11  C   UNL     1      -7.189   7.100  66.993  1.00  0.00    -0.091 A  
HETATM   12  C   UNL     1      -8.027   6.044  66.659  1.00  0.00    -0.102 A  
HETATM   13  C   UNL     1      -9.865   7.597  66.427  1.00  0.00    -0.174 A  
ENDROOT
BRANCH   6  14
HETATM   14  O   UNL     1     -11.332  11.314  68.287  1.00  0.00    -0.239 OA 
BRANCH  14  15
HETATM   15  C   UNL     1     -11.342  11.498  69.632  1.00  0.00    -0.256 C  
HETATM   16  O   UNL     1     -11.868  12.416  70.240  1.00  0.00    -0.322 OA 
BRANCH  15  17
HETATM   17  C   UNL     1     -10.754  10.322  70.304  1.00  0.00    -0.310 A  
HETATM   18  C   UNL     1      -8.747   9.138  70.970  1.00  0.00    -0.189 A  
HETATM   19  C   UNL     1      -9.372  10.135  70.219  1.00  0.00     0.144 A  
HETATM   20  C   UNL     1     -11.515   9.486  71.129  1.00  0.00    -0.430 A  
HETATM   21  C   UNL     1      -9.511   8.329  71.846  1.00  0.00    -0.220 A  
HETATM   22  C   UNL     1     -10.911   8.491  71.905  1.00  0.00    -0.324 A  
BRANCH  18  23
HETATM   23  O   UNL     1      -7.385   8.947  70.967  1.00  0.00    -0.085 OA 
HETATM   24  C   UNL     1      -6.594  10.021  70.468  1.00  0.00    -0.122 C  
ENDBRANCH  18  23
BRANCH  21  25
HETATM   25  O   UNL     1      -8.791   7.376  72.530  1.00  0.00    -0.123 OA 
HETATM   26  C   UNL     1      -8.750   6.064  71.982  1.00  0.00    -0.136 C  
ENDBRANCH  21  25
BRANCH  22  27
HETATM   27  O   UNL     1     -11.635   7.662  72.721  1.00  0.00    -0.337 OA 
HETATM   28  C   UNL     1     -12.317   6.561  72.128  1.00  0.00    -0.198 C  
ENDBRANCH  22  27
ENDBRANCH  15  17
ENDBRANCH  14  15
ENDBRANCH   6  14
TORSDOF 6
ENDMDL
MODEL      197
REMARK 921   NORMALIZED FREE ENERGY PREDICTED BY IDOCK:   -3.64 KCAL/MOL
REMARK 922        TOTAL FREE ENERGY PREDICTED BY IDOCK:   -5.85 KCAL/MOL
REMARK 923 INTER-LIGAND FREE ENERGY PREDICTED BY IDOCK:   -5.11 KCAL/MOL
REMARK 924 INTRA-LIGAND FREE ENERGY PREDICTED BY IDOCK:   -0.73 KCAL/MOL
REMARK 927      BINDING AFFINITY PREDICTED BY RF-SCORE:    0.00 PKD
ROOT
HETATM    1  C   UNL     1     -11.162   6.631  69.473  1.00  0.00    -0.383 C  
HETATM    2  C   UNL     1     -10.871   5.999  68.114  1.00  0.00    -0.365 C  
HETATM    3  C   UNL     1      -9.460   6.121  67.430  1.00  0.00    -0.114 C  
HETATM    4  N   UNL     1      -8.324   5.565  68.239  1.00  0.00    -0.099 NA 
HETATM    5  C   UNL     1      -9.499   5.365  66.027  1.00  0.00    -0.161 A  
HETATM    6  C   UNL     1      -9.193   7.611  66.987  1.00  0.00    -0.138 C  
HETATM    7  C   UNL     1     -10.636   4.682  65.552  1.00  0.00    -0.208 A  
HETATM    8  C   UNL     1      -8.335   4.657  63.985  1.00  0.00    -0.120 A  
HETATM    9  C   UNL     1      -8.078   6.132  69.561  1.00  0.00    -0.112 C  
HETATM   10  C   UNL     1      -8.322   4.104  68.356  1.00  0.00    -0.091 C  
HETATM   11  C   UNL     1     -10.616   3.985  64.339  1.00  0.00    -0.206 A  
HETATM   12  C   UNL     1      -9.465   3.966  63.560  1.00  0.00    -0.144 A  
HETATM   13  C   UNL     1      -8.350   5.345  65.202  1.00  0.00    -0.144 A  
ENDROOT
BRANCH   6  14
HETATM   14  O   UNL     1      -9.298   8.633  67.981  1.00  0.00    -0.136 OA 
BRANCH  14  15
HETATM   15  C   UNL     1      -8.223   9.458  68.052  1.00  0.00    -0.114 C  
HETATM   16  O   UNL     1      -7.048   9.129  68.034  1.00  0.00    -0.076 OA 
BRANCH  15  17
HETATM   17  C   UNL     1      -8.665  10.865  67.989  1.00  0.00    -0.132 A  
HETATM   18  C   UNL     1     -10.501  12.422  67.704  1.00  0.00    -0.216 A  
HETATM   19  C   UNL     1      -9.986  11.126  67.618  1.00  0.00    -0.195 A  
HETATM   20  C   UNL     1      -7.849  11.916  68.424  1.00  0.00    -0.141 A  
HETATM   21  C   UNL     1      -9.690  13.473  68.195  1.00  0.00    -0.233 A  
HETATM   22  C   UNL     1      -8.345  13.219  68.535  1.00  0.00    -0.075 A  
BRANCH  18  23
HETATM   23  O   UNL     1     -11.809  12.724  67.405  1.00  0.00    -0.361 OA 
HETATM   24  C   UNL     1     -12.158  12.743  66.024  1.00  0.00    -0.395 C  
ENDBRANCH  18  23
BRANCH  21  25
HETATM   25  O   UNL     1     -10.300  14.707  68.229  1.00  0.00    -0.222 OA 
HETATM   26  C   UNL     1     -10.719  15.198  69.497  1.00  0.00    -0.266 C  
ENDBRANCH  21  25
BRANCH  22  27
HETATM   27  O   UNL     1      -7.565  14.262  68.959  1.00  0.00    -0.126 OA 
HETATM   28  C   UNL     1      -6.763  14.938  67.996  1.00  0.00    -0.141 C  
ENDBRANCH  22  27
ENDBRANCH  15  17
ENDBRANCH  14  15
ENDBRANCH   6  14
TORSDOF 6
ENDMDL
MODEL      198
REMARK 921   NORMALIZED FREE ENERGY PREDICTED BY IDOCK:   -3.63 KCAL/MOL
REMARK 922        TOTAL FREE ENERGY PREDICTED BY IDOCK:   -5.84 KCAL/MOL
REMARK 923 INTER-LIGAND FREE ENERGY PREDICTED BY IDOCK:   -5.14 KCAL/MOL
REMARK 924 INTRA-LIGAND FREE ENERGY PREDICTED BY IDOCK:   -0.70 KCAL/MOL
REMARK 927      BINDING AFFINITY PREDICTED BY RF-SCORE:    0.00 PKD
ROOT
HETATM    1  C   UNL     1     -10.102   8.585  66.233  1.00  0.00    -0.174 C  
HETATM    2  C   UNL     1      -8.989   7.553  66.075  1.00  0.00    -0.164 C  
HETATM    3  C   UNL     1      -8.608   6.562  67.236  1.00  0.00    -0.111 C  
HETATM    4  N   UNL     1      -9.733   5.682  67.700  1.00  0.00    -0.118 NA 
HETATM    5  C   UNL     1      -7.408   5.633  66.749  1.00  0.00    -0.083 A  
HETATM    6  C   UNL     1      -7.943   7.348  68.431  1.00  0.00    -0.124 C  
HETATM    7  C   UNL     1      -6.849   5.710  65.458  1.00  0.00    -0.056 A  
HETATM    8  C   UNL     1      -5.841   3.801  67.216  1.00  0.00    -0.023 A  
HETATM    9  C   UNL     1     -10.937   6.323  68.220  1.00  0.00    -0.321 C  
HETATM   10  C   UNL     1     -10.137   4.656  66.736  1.00  0.00    -0.213 C  
HETATM   11  C   UNL     1      -5.831   4.841  65.049  1.00  0.00    -0.014 A  
HETATM   12  C   UNL     1      -5.333   3.884  65.924  1.00  0.00    -0.009 A  
HETATM   13  C   UNL     1      -6.865   4.662  67.624  1.00  0.00    -0.059 A  
ENDROOT
BRANCH   6  14
HETATM   14  O   UNL     1      -8.669   8.443  68.996  1.00  0.00    -0.139 OA 
BRANCH  14  15
HETATM   15  C   UNL     1      -8.159   9.665  68.700  1.00  0.00    -0.100 C  
HETATM   16  O   UNL     1      -7.060   9.904  68.228  1.00  0.00    -0.075 OA 
BRANCH  15  17
HETATM   17  C   UNL     1      -9.200  10.698  68.876  1.00  0.00    -0.189 A  
HETATM   18  C   UNL     1     -10.035  12.887  68.256  1.00  0.00    -0.234 A  
HETATM   19  C   UNL     1      -9.011  11.938  68.260  1.00  0.00    -0.178 A  
HETATM   20  C   UNL     1     -10.415  10.421  69.512  1.00  0.00    -0.274 A  
HETATM   21  C   UNL     1     -11.283  12.584  68.853  1.00  0.00    -0.281 A  
HETATM   22  C   UNL     1     -11.463  11.347  69.508  1.00  0.00    -0.312 A  
BRANCH  18  23
HETATM   23  O   UNL     1      -9.923  14.100  67.617  1.00  0.00    -0.228 OA 
HETATM   24  C   UNL     1      -9.813  14.063  66.197  1.00  0.00    -0.303 C  
ENDBRANCH  18  23
BRANCH  21  25
HETATM   25  O   UNL     1     -12.213  13.596  68.794  1.00  0.00    -0.339 OA 
HETATM   26  C   UNL     1     -12.233  14.535  69.863  1.00  0.00    -0.328 C  
ENDBRANCH  21  25
BRANCH  22  27
HETATM   27  O   UNL     1     -12.661  11.097  70.122  1.00  0.00    -0.258 OA 
HETATM   28  C   UNL     1     -12.670  10.934  71.537  1.00  0.00    -0.428 C  
ENDBRANCH  22  27
ENDBRANCH  15  17
ENDBRANCH  14  15
ENDBRANCH   6  14
TORSDOF 6
ENDMDL
MODEL      199
REMARK 921   NORMALIZED FREE ENERGY PREDICTED BY IDOCK:   -3.61 KCAL/MOL
REMARK 922        TOTAL FREE ENERGY PREDICTED BY IDOCK:   -5.81 KCAL/MOL
REMARK 923 INTER-LIGAND FREE ENERGY PREDICTED BY IDOCK:   -5.28 KCAL/MOL
REMARK 924 INTRA-LIGAND FREE ENERGY PREDICTED BY IDOCK:   -0.54 KCAL/MOL
REMARK 927      BINDING AFFINITY PREDICTED BY RF-SCORE:    0.00 PKD
ROOT
HETATM    1  C   UNL     1     -11.547  12.502  65.484  1.00  0.00    -0.429 C  
HETATM    2  C   UNL     1     -11.732  11.924  66.884  1.00  0.00    -0.291 C  
HETATM    3  C   UNL     1     -10.598  11.097  67.595  1.00  0.00    -0.211 C  
HETATM    4  N   UNL     1      -9.304  11.837  67.773  1.00  0.00    -0.176 NA 
HETATM    5  C   UNL     1     -11.117  10.634  69.029  1.00  0.00    -0.307 A  
HETATM    6  C   UNL     1     -10.390   9.715  66.865  1.00  0.00    -0.238 C  
HETATM    7  C   UNL     1     -12.385  10.978  69.537  1.00  0.00    -0.266 A  
HETATM    8  C   UNL     1     -10.690   9.466  71.145  1.00  0.00    -0.417 A  
HETATM    9  C   UNL     1      -8.625  12.335  66.580  1.00  0.00    -0.099 C  
HETATM   10  C   UNL     1      -9.356  12.920  68.758  1.00  0.00     0.139 C  
HETATM   11  C   UNL     1     -12.786  10.598  70.822  1.00  0.00    -0.468 A  
HETATM   12  C   UNL     1     -11.937   9.849  71.628  1.00  0.00    -0.427 A  
HETATM   13  C   UNL     1     -10.283   9.854  69.865  1.00  0.00    -0.298 A  
ENDROOT
BRANCH   6  14
HETATM   14  O   UNL     1     -10.118   9.734  65.462  1.00  0.00    -0.301 OA 
BRANCH  14  15
HETATM   15  C   UNL     1      -8.912   9.214  65.118  1.00  0.00    -0.189 C  
HETATM   16  O   UNL     1      -8.188   9.587  64.210  1.00  0.00    -0.136 OA 
BRANCH  15  17
HETATM   17  C   UNL     1      -8.496   8.209  66.117  1.00  0.00    -0.143 A  
HETATM   18  C   UNL     1      -8.373   5.869  66.735  1.00  0.00    -0.109 A  
HETATM   19  C   UNL     1      -8.878   6.880  65.915  1.00  0.00    -0.125 A  
HETATM   20  C   UNL     1      -7.622   8.526  67.163  1.00  0.00    -0.096 A  
HETATM   21  C   UNL     1      -7.447   6.184  67.759  1.00  0.00    -0.089 A  
HETATM   22  C   UNL     1      -7.089   7.530  67.988  1.00  0.00    -0.084 A  
BRANCH  18  23
HETATM   23  O   UNL     1      -8.671   4.539  66.546  1.00  0.00    -0.112 OA 
HETATM   24  C   UNL     1      -9.854   4.253  65.805  1.00  0.00    -0.223 C  
ENDBRANCH  18  23
BRANCH  21  25
HETATM   25  O   UNL     1      -7.023   5.109  68.507  1.00  0.00    -0.054 OA 
HETATM   26  C   UNL     1      -7.712   4.843  69.723  1.00  0.00    -0.056 C  
ENDBRANCH  21  25
BRANCH  22  27
HETATM   27  O   UNL     1      -6.232   7.816  69.017  1.00  0.00    -0.034 OA 
HETATM   28  C   UNL     1      -6.305   9.106  69.615  1.00  0.00    -0.039 C  
ENDBRANCH  22  27
ENDBRANCH  15  17
ENDBRANCH  14  15
ENDBRANCH   6  14
TORSDOF 6
ENDMDL
MODEL      200
REMARK 921   NORMALIZED FREE ENERGY PREDICTED BY IDOCK:   -3.60 KCAL/MOL
REMARK 922        TOTAL FREE ENERGY PREDICTED BY IDOCK:   -5.80 KCAL/MOL
REMARK 923 INTER-LIGAND FREE ENERGY PREDICTED BY IDOCK:   -5.46 KCAL/MOL
REMARK 924 INTRA-LIGAND FREE ENERGY PREDICTED BY IDOCK:   -0.34 KCAL/MOL
REMARK 927      BINDING AFFINITY PREDICTED BY RF-SCORE:    0.00 PKD
ROOT
HETATM    1  C   UNL     1     -10.879   5.670  72.104  1.00  0.00    -0.300 C  
HETATM    2  C   UNL     1     -10.284   4.983  70.879  1.00  0.00    -0.287 C  
HETATM    3  C   UNL     1      -8.941   5.477  70.222  1.00  0.00    -0.137 C  
HETATM    4  N   UNL     1      -7.756   5.468  71.144  1.00  0.00    -0.101 NA 
HETATM    5  C   UNL     1      -8.611   4.556  68.965  1.00  0.00    -0.102 A  
HETATM    6  C   UNL     1      -9.150   6.886  69.544  1.00  0.00    -0.142 C  
HETATM    7  C   UNL     1      -9.412   3.463  68.579  1.00  0.00    -0.209 A  
HETATM    8  C   UNL     1      -7.113   3.994  67.103  1.00  0.00    -0.064 A  
HETATM    9  C   UNL     1      -7.823   6.274  72.359  1.00  0.00    -0.103 C  
HETATM   10  C   UNL     1      -7.278   4.131  71.503  1.00  0.00    -0.050 C  
HETATM   11  C   UNL     1      -9.062   2.644  67.500  1.00  0.00    -0.215 A  
HETATM   12  C   UNL     1      -7.910   2.904  66.768  1.00  0.00    -0.076 A  
HETATM   13  C   UNL     1      -7.457   4.808  68.187  1.00  0.00    -0.074 A  
ENDROOT
BRANCH   6  14
HETATM   14  O   UNL     1      -9.671   7.945  70.351  1.00  0.00    -0.178 OA 
BRANCH  14  15
HETATM   15  C   UNL     1      -9.065   9.145  70.160  1.00  0.00    -0.206 C  
HETATM   16  O   UNL     1      -8.246   9.674  70.892  1.00  0.00    -0.290 OA 
BRANCH  15  17
HETATM   17  C   UNL     1      -9.412   9.674  68.825  1.00  0.00    -0.148 A  
HETATM   18  C   UNL     1      -9.106   9.533  66.425  1.00  0.00    -0.159 A  
HETATM   19  C   UNL     1      -8.708   9.192  67.720  1.00  0.00    -0.121 A  
HETATM   20  C   UNL     1     -10.507  10.524  68.630  1.00  0.00    -0.211 A  
HETATM   21  C   UNL     1     -10.247  10.348  66.228  1.00  0.00    -0.222 A  
HETATM   22  C   UNL     1     -10.937  10.867  67.344  1.00  0.00    -0.293 A  
BRANCH  18  23
HETATM   23  O   UNL     1      -8.484   9.042  65.301  1.00  0.00    -0.146 OA 
HETATM   24  C   UNL     1      -7.243   8.372  65.503  1.00  0.00    -0.079 C  
ENDBRANCH  18  23
BRANCH  21  25
HETATM   25  O   UNL     1     -10.541  10.624  64.912  1.00  0.00    -0.279 OA 
HETATM   26  C   UNL     1     -10.187  11.909  64.415  1.00  0.00    -0.297 C  
ENDBRANCH  21  25
BRANCH  22  27
HETATM   27  O   UNL     1     -12.006  11.695  67.129  1.00  0.00    -0.614 OA 
HETATM   28  C   UNL     1     -11.851  13.082  67.412  1.00  0.00    -0.357 C  
ENDBRANCH  22  27
ENDBRANCH  15  17
ENDBRANCH  14  15
ENDBRANCH   6  14
TORSDOF 6
ENDMDL
MODEL      201
REMARK 921   NORMALIZED FREE ENERGY PREDICTED BY IDOCK:   -3.58 KCAL/MOL
REMARK 922        TOTAL FREE ENERGY PREDICTED BY IDOCK:   -5.77 KCAL/MOL
REMARK 923 INTER-LIGAND FREE ENERGY PREDICTED BY IDOCK:   -5.05 KCAL/MOL
REMARK 924 INTRA-LIGAND FREE ENERGY PREDICTED BY IDOCK:   -0.72 KCAL/MOL
REMARK 927      BINDING AFFINITY PREDICTED BY RF-SCORE:    0.00 PKD
ROOT
HETATM    1  C   UNL     1      -8.081   8.401  71.743  1.00  0.00    -0.192 C  
HETATM    2  C   UNL     1      -8.401   7.416  70.623  1.00  0.00    -0.127 C  
HETATM    3  C   UNL     1      -8.551   7.883  69.127  1.00  0.00    -0.138 C  
HETATM    4  N   UNL     1      -7.336   8.559  68.560  1.00  0.00    -0.091 NA 
HETATM    5  C   UNL     1      -8.894   6.617  68.223  1.00  0.00    -0.124 A  
HETATM    6  C   UNL     1      -9.848   8.763  68.957  1.00  0.00    -0.181 C  
HETATM    7  C   UNL     1      -8.993   5.308  68.735  1.00  0.00    -0.125 A  
HETATM    8  C   UNL     1      -9.358   5.682  66.001  1.00  0.00    -0.150 A  
HETATM    9  C   UNL     1      -6.851   9.769  69.217  1.00  0.00    -0.055 C  
HETATM   10  C   UNL     1      -6.195   7.667  68.338  1.00  0.00    -0.036 C  
HETATM   11  C   UNL     1      -9.244   4.214  67.900  1.00  0.00    -0.191 A  
HETATM   12  C   UNL     1      -9.419   4.399  66.535  1.00  0.00    -0.186 A  
HETATM   13  C   UNL     1      -9.098   6.776  66.831  1.00  0.00    -0.148 A  
ENDROOT
BRANCH   6  14
HETATM   14  O   UNL     1      -9.995   9.908  69.800  1.00  0.00    -0.217 OA 
BRANCH  14  15
HETATM   15  C   UNL     1     -11.060  10.694  69.498  1.00  0.00    -0.274 C  
HETATM   16  O   UNL     1     -12.208  10.548  69.881  1.00  0.00    -0.281 OA 
BRANCH  15  17
HETATM   17  C   UNL     1     -10.607  11.885  68.749  1.00  0.00    -0.234 A  
HETATM   18  C   UNL     1     -11.211  13.801  67.395  1.00  0.00    -0.310 A  
HETATM   19  C   UNL     1     -11.546  12.580  67.985  1.00  0.00    -0.395 A  
HETATM   20  C   UNL     1      -9.317  12.406  68.902  1.00  0.00     0.250 A  
HETATM   21  C   UNL     1      -9.923  14.353  67.595  1.00  0.00    -0.224 A  
HETATM   22  C   UNL     1      -8.962  13.635  68.336  1.00  0.00    -0.160 A  
BRANCH  18  23
HETATM   23  O   UNL     1     -12.113  14.554  66.679  1.00  0.00    -0.393 OA 
HETATM   24  C   UNL     1     -12.357  14.145  65.336  1.00  0.00    -0.463 C  
ENDBRANCH  18  23
BRANCH  21  25
HETATM   25  O   UNL     1      -9.704  15.556  66.962  1.00  0.00    -0.219 OA 
HETATM   26  C   UNL     1      -9.037  15.524  65.706  1.00  0.00    -0.070 C  
ENDBRANCH  21  25
BRANCH  22  27
HETATM   27  O   UNL     1      -7.706  14.165  68.474  1.00  0.00    -0.126 OA 
HETATM   28  C   UNL     1      -7.461  15.037  69.573  1.00  0.00    -0.194 C  
ENDBRANCH  22  27
ENDBRANCH  15  17
ENDBRANCH  14  15
ENDBRANCH   6  14
TORSDOF 6
ENDMDL
MODEL      202
REMARK 921   NORMALIZED FREE ENERGY PREDICTED BY IDOCK:   -3.58 KCAL/MOL
REMARK 922        TOTAL FREE ENERGY PREDICTED BY IDOCK:   -5.76 KCAL/MOL
REMARK 923 INTER-LIGAND FREE ENERGY PREDICTED BY IDOCK:   -5.62 KCAL/MOL
REMARK 924 INTRA-LIGAND FREE ENERGY PREDICTED BY IDOCK:   -0.14 KCAL/MOL
REMARK 927      BINDING AFFINITY PREDICTED BY RF-SCORE:    0.00 PKD
ROOT
HETATM    1  C   UNL     1      -7.917   7.851  73.414  1.00  0.00    -0.218 C  
HETATM    2  C   UNL     1      -9.400   8.026  73.100  1.00  0.00    -0.346 C  
HETATM    3  C   UNL     1     -10.118   7.173  71.990  1.00  0.00    -0.177 C  
HETATM    4  N   UNL     1     -10.057   5.688  72.206  1.00  0.00    -0.183 NA 
HETATM    5  C   UNL     1     -11.648   7.610  71.910  1.00  0.00    -0.321 A  
HETATM    6  C   UNL     1      -9.590   7.582  70.560  1.00  0.00    -0.168 C  
HETATM    7  C   UNL     1     -12.216   8.584  72.756  1.00  0.00    -0.141 A  
HETATM    8  C   UNL     1     -13.867   7.329  70.899  1.00  0.00     0.123 A  
HETATM    9  C   UNL     1      -8.744   5.057  72.284  1.00  0.00    -0.125 C  
HETATM   10  C   UNL     1     -10.867   5.207  73.329  1.00  0.00    -0.295 C  
HETATM   11  C   UNL     1     -13.576   8.904  72.692  1.00  0.00    -0.395 A  
HETATM   12  C   UNL     1     -14.402   8.273  71.771  1.00  0.00    -0.574 A  
HETATM   13  C   UNL     1     -12.510   7.000  70.968  1.00  0.00    -0.373 A  
ENDROOT
BRANCH   6  14
HETATM   14  O   UNL     1      -8.181   7.526  70.327  1.00  0.00    -0.123 OA 
BRANCH  14  15
HETATM   15  C   UNL     1      -7.596   8.737  70.143  1.00  0.00    -0.072 C  
HETATM   16  O   UNL     1      -6.579   9.146  70.678  1.00  0.00    -0.054 OA 
BRANCH  15  17
HETATM   17  C   UNL     1      -8.279   9.463  69.053  1.00  0.00    -0.108 A  
HETATM   18  C   UNL     1      -9.797  11.242  68.417  1.00  0.00    -0.199 A  
HETATM   19  C   UNL     1      -9.244  10.413  69.396  1.00  0.00    -0.177 A  
HETATM   20  C   UNL     1      -7.885   9.329  67.716  1.00  0.00    -0.092 A  
HETATM   21  C   UNL     1      -9.358  11.142  67.074  1.00  0.00    -0.170 A  
HETATM   22  C   UNL     1      -8.411  10.158  66.720  1.00  0.00    -0.122 A  
BRANCH  18  23
HETATM   23  O   UNL     1     -10.708  12.231  68.707  1.00  0.00    -0.228 OA 
HETATM   24  C   UNL     1     -11.899  11.821  69.373  1.00  0.00    -0.334 C  
ENDBRANCH  18  23
BRANCH  21  25
HETATM   25  O   UNL     1      -9.976  12.003  66.197  1.00  0.00    -0.220 OA 
HETATM   26  C   UNL     1      -9.582  13.370  66.231  1.00  0.00    -0.235 C  
ENDBRANCH  21  25
BRANCH  22  27
HETATM   27  O   UNL     1      -8.039  10.045  65.407  1.00  0.00    -0.131 OA 
HETATM   28  C   UNL     1      -8.529   8.935  64.662  1.00  0.00    -0.168 C  
ENDBRANCH  22  27
ENDBRANCH  15  17
ENDBRANCH  14  15
ENDBRANCH   6  14
TORSDOF 6
ENDMDL
MODEL      203
REMARK 921   NORMALIZED FREE ENERGY PREDICTED BY IDOCK:   -3.56 KCAL/MOL
REMARK 922        TOTAL FREE ENERGY PREDICTED BY IDOCK:   -5.75 KCAL/MOL
REMARK 923 INTER-LIGAND FREE ENERGY PREDICTED BY IDOCK:   -4.99 KCAL/MOL
REMARK 924 INTRA-LIGAND FREE ENERGY PREDICTED BY IDOCK:   -0.75 KCAL/MOL
REMARK 927      BINDING AFFINITY PREDICTED BY RF-SCORE:    0.00 PKD
ROOT
HETATM    1  C   UNL     1     -12.204   8.083  72.141  1.00  0.00    -0.377 C  
HETATM    2  C   UNL     1     -11.729   6.650  72.365  1.00  0.00    -0.260 C  
HETATM    3  C   UNL     1     -10.315   6.161  71.878  1.00  0.00    -0.208 C  
HETATM    4  N   UNL     1      -9.158   6.926  72.452  1.00  0.00    -0.134 NA 
HETATM    5  C   UNL     1     -10.142   4.623  72.257  1.00  0.00    -0.250 A  
HETATM    6  C   UNL     1     -10.266   6.113  70.302  1.00  0.00    -0.199 C  
HETATM    7  C   UNL     1     -11.120   3.886  72.954  1.00  0.00    -0.068 A  
HETATM    8  C   UNL     1      -8.750   2.600  72.261  1.00  0.00    -0.089 A  
HETATM    9  C   UNL     1      -9.092   8.363  72.204  1.00  0.00    -0.239 C  
HETATM   10  C   UNL     1      -8.927   6.694  73.880  1.00  0.00    -0.151 C  
HETATM   11  C   UNL     1     -10.910   2.551  73.316  1.00  0.00    -0.280 A  
HETATM   12  C   UNL     1      -9.724   1.911  72.976  1.00  0.00    -0.131 A  
HETATM   13  C   UNL     1      -8.954   3.938  71.907  1.00  0.00    -0.153 A  
ENDROOT
BRANCH   6  14
HETATM   14  O   UNL     1     -10.599   7.305  69.586  1.00  0.00    -0.225 OA 
BRANCH  14  15
HETATM   15  C   UNL     1     -10.408   7.224  68.245  1.00  0.00    -0.193 C  
HETATM   16  O   UNL     1     -10.907   6.413  67.484  1.00  0.00    -0.276 OA 
BRANCH  15  17
HETATM   17  C   UNL     1      -9.618   8.383  67.780  1.00  0.00    -0.185 A  
HETATM   18  C   UNL     1      -7.811   9.936  68.222  1.00  0.00    -0.085 A  
HETATM   19  C   UNL     1      -8.697   8.950  68.663  1.00  0.00    -0.134 A  
HETATM   20  C   UNL     1      -9.667   8.825  66.454  1.00  0.00    -0.335 A  
HETATM   21  C   UNL     1      -7.825  10.344  66.866  1.00  0.00    -0.114 A  
HETATM   22  C   UNL     1      -8.780   9.798  65.982  1.00  0.00    -0.141 A  
BRANCH  18  23
HETATM   23  O   UNL     1      -6.847  10.488  69.033  1.00  0.00    -0.058 OA 
HETATM   24  C   UNL     1      -6.278   9.631  70.018  1.00  0.00    -0.055 C  
ENDBRANCH  18  23
BRANCH  21  25
HETATM   25  O   UNL     1      -6.914  11.324  66.547  1.00  0.00    -0.140 OA 
HETATM   26  C   UNL     1      -5.726  10.923  65.874  1.00  0.00    -0.142 C  
ENDBRANCH  21  25
BRANCH  22  27
HETATM   27  O   UNL     1      -8.809  10.246  64.687  1.00  0.00    -0.173 OA 
HETATM   28  C   UNL     1      -8.554   9.308  63.646  1.00  0.00    -0.196 C  
ENDBRANCH  22  27
ENDBRANCH  15  17
ENDBRANCH  14  15
ENDBRANCH   6  14
TORSDOF 6
ENDMDL
MODEL      204
REMARK 921   NORMALIZED FREE ENERGY PREDICTED BY IDOCK:   -3.45 KCAL/MOL
REMARK 922        TOTAL FREE ENERGY PREDICTED BY IDOCK:   -5.59 KCAL/MOL
REMARK 923 INTER-LIGAND FREE ENERGY PREDICTED BY IDOCK:   -4.94 KCAL/MOL
REMARK 924 INTRA-LIGAND FREE ENERGY PREDICTED BY IDOCK:   -0.65 KCAL/MOL
REMARK 927      BINDING AFFINITY PREDICTED BY RF-SCORE:    0.00 PKD
ROOT
HETATM    1  C   UNL     1     -10.535   4.671  65.856  1.00  0.00    -0.305 C  
HETATM    2  C   UNL     1     -10.412   6.023  66.552  1.00  0.00    -0.227 C  
HETATM    3  C   UNL     1      -9.026   6.569  67.061  1.00  0.00    -0.120 C  
HETATM    4  N   UNL     1      -7.983   6.716  65.991  1.00  0.00    -0.107 NA 
HETATM    5  C   UNL     1      -9.251   7.990  67.746  1.00  0.00    -0.142 A  
HETATM    6  C   UNL     1      -8.509   5.704  68.274  1.00  0.00    -0.105 C  
HETATM    7  C   UNL     1     -10.509   8.621  67.817  1.00  0.00    -0.287 A  
HETATM    8  C   UNL     1      -8.308   9.954  68.877  1.00  0.00    -0.124 A  
HETATM    9  C   UNL     1      -7.592   5.525  65.243  1.00  0.00    -0.080 C  
HETATM   10  C   UNL     1      -8.242   7.796  65.036  1.00  0.00    -0.120 C  
HETATM   11  C   UNL     1     -10.659   9.893  68.380  1.00  0.00    -0.258 A  
HETATM   12  C   UNL     1      -9.559  10.562  68.902  1.00  0.00    -0.199 A  
HETATM   13  C   UNL     1      -8.154   8.687  68.305  1.00  0.00    -0.118 A  
ENDROOT
BRANCH   6  14
HETATM   14  O   UNL     1      -8.392   4.291  68.086  1.00  0.00    -0.092 OA 
BRANCH  14  15
HETATM   15  C   UNL     1      -9.173   3.549  68.911  1.00  0.00    -0.162 C  
HETATM   16  O   UNL     1      -9.599   2.426  68.700  1.00  0.00    -0.169 OA 
BRANCH  15  17
HETATM   17  C   UNL     1      -9.316   4.232  70.214  1.00  0.00    -0.225 A  
HETATM   18  C   UNL     1     -10.725   5.524  71.702  1.00  0.00    -0.231 A  
HETATM   19  C   UNL     1     -10.463   4.997  70.435  1.00  0.00    -0.237 A  
HETATM   20  C   UNL     1      -8.416   4.015  71.263  1.00  0.00    -0.100 A  
HETATM   21  C   UNL     1      -9.841   5.258  72.776  1.00  0.00    -0.158 A  
HETATM   22  C   UNL     1      -8.664   4.516  72.545  1.00  0.00    -0.114 A  
BRANCH  18  23
HETATM   23  O   UNL     1     -11.866   6.238  71.990  1.00  0.00    -0.320 OA 
HETATM   24  C   UNL     1     -12.185   7.308  71.106  1.00  0.00    -0.340 C  
ENDBRANCH  18  23
BRANCH  21  25
HETATM   25  O   UNL     1     -10.198   5.833  73.975  1.00  0.00    -0.219 OA 
HETATM   26  C   UNL     1      -9.608   7.086  74.303  1.00  0.00    -0.229 C  
ENDBRANCH  21  25
BRANCH  22  27
HETATM   27  O   UNL     1      -7.798   4.315  73.587  1.00  0.00    -0.083 OA 
HETATM   28  C   UNL     1      -7.953   3.138  74.373  1.00  0.00    -0.069 C  
ENDBRANCH  22  27
ENDBRANCH  15  17
ENDBRANCH  14  15
ENDBRANCH   6  14
TORSDOF 6
ENDMDL
MODEL      205
REMARK 921   NORMALIZED FREE ENERGY PREDICTED BY IDOCK:   -3.44 KCAL/MOL
REMARK 922        TOTAL FREE ENERGY PREDICTED BY IDOCK:   -5.58 KCAL/MOL
REMARK 923 INTER-LIGAND FREE ENERGY PREDICTED BY IDOCK:   -4.84 KCAL/MOL
REMARK 924 INTRA-LIGAND FREE ENERGY PREDICTED BY IDOCK:   -0.74 KCAL/MOL
REMARK 927      BINDING AFFINITY PREDICTED BY RF-SCORE:    0.00 PKD
ROOT
HETATM    1  C   UNL     1     -11.654   9.449  70.751  1.00  0.00    -0.364 C  
HETATM    2  C   UNL     1     -11.375   8.100  71.405  1.00  0.00    -0.299 C  
HETATM    3  C   UNL     1     -10.141   7.217  70.989  1.00  0.00    -0.192 C  
HETATM    4  N   UNL     1      -8.808   7.886  71.161  1.00  0.00    -0.135 NA 
HETATM    5  C   UNL     1     -10.149   5.877  71.851  1.00  0.00    -0.222 A  
HETATM    6  C   UNL     1     -10.335   6.661  69.526  1.00  0.00    -0.202 C  
HETATM    7  C   UNL     1     -11.113   5.604  72.842  1.00  0.00    -0.337 A  
HETATM    8  C   UNL     1      -9.097   3.732  72.417  1.00  0.00    -0.140 A  
HETATM    9  C   UNL     1      -8.562   9.128  70.435  1.00  0.00    -0.209 C  
HETATM   10  C   UNL     1      -8.404   8.081  72.556  1.00  0.00    -0.157 C  
HETATM   11  C   UNL     1     -11.057   4.440  73.615  1.00  0.00    -0.361 A  
HETATM   12  C   UNL     1     -10.047   3.509  73.409  1.00  0.00    -0.201 A  
HETATM   13  C   UNL     1      -9.145   4.900  71.650  1.00  0.00    -0.169 A  
ENDROOT
BRANCH   6  14
HETATM   14  O   UNL     1     -10.586   7.603  68.480  1.00  0.00    -0.192 OA 
BRANCH  14  15
HETATM   15  C   UNL     1     -10.785   7.045  67.259  1.00  0.00    -0.342 C  
HETATM   16  O   UNL     1     -11.732   6.358  66.915  1.00  0.00     0.267 OA 
BRANCH  15  17
HETATM   17  C   UNL     1      -9.754   7.524  66.315  1.00  0.00    -0.099 A  
HETATM   18  C   UNL     1      -8.687   9.414  65.238  1.00  0.00    -0.175 A  
HETATM   19  C   UNL     1      -9.736   8.882  65.991  1.00  0.00    -0.308 A  
HETATM   20  C   UNL     1      -8.726   6.691  65.860  1.00  0.00    -0.147 A  
HETATM   21  C   UNL     1      -7.619   8.582  64.825  1.00  0.00    -0.100 A  
HETATM   22  C   UNL     1      -7.654   7.202  65.120  1.00  0.00    -0.102 A  
BRANCH  18  23
HETATM   23  O   UNL     1      -8.591  10.754  64.938  1.00  0.00    -0.168 OA 
HETATM   24  C   UNL     1      -9.818  11.465  64.806  1.00  0.00    -0.259 C  
ENDBRANCH  18  23
BRANCH  21  25
HETATM   25  O   UNL     1      -6.646   9.213  64.085  1.00  0.00    -0.086 OA 
HETATM   26  C   UNL     1      -6.703   9.075  62.670  1.00  0.00    -0.093 C  
ENDBRANCH  21  25
BRANCH  22  27
HETATM   27  O   UNL     1      -6.636   6.407  64.666  1.00  0.00    -0.033 OA 
HETATM   28  C   UNL     1      -5.758   5.825  65.624  1.00  0.00    -0.017 C  
ENDBRANCH  22  27
ENDBRANCH  15  17
ENDBRANCH  14  15
ENDBRANCH   6  14
TORSDOF 6
ENDMDL
MODEL      206
REMARK 921   NORMALIZED FREE ENERGY PREDICTED BY IDOCK:   -3.43 KCAL/MOL
REMARK 922        TOTAL FREE ENERGY PREDICTED BY IDOCK:   -5.57 KCAL/MOL
REMARK 923 INTER-LIGAND FREE ENERGY PREDICTED BY IDOCK:   -6.17 KCAL/MOL
REMARK 924 INTRA-LIGAND FREE ENERGY PREDICTED BY IDOCK:    0.60 KCAL/MOL
REMARK 927      BINDING AFFINITY PREDICTED BY RF-SCORE:    0.00 PKD
ROOT
HETATM    1  C   UNL     1      -9.727   8.818  66.390  1.00  0.00    -0.335 C  
HETATM    2  C   UNL     1     -10.406  10.147  66.070  1.00  0.00    -0.234 C  
HETATM    3  C   UNL     1      -9.609  11.358  65.459  1.00  0.00    -0.228 C  
HETATM    4  N   UNL     1      -8.942  11.067  64.145  1.00  0.00    -0.097 NA 
HETATM    5  C   UNL     1     -10.605  12.585  65.259  1.00  0.00    -0.319 A  
HETATM    6  C   UNL     1      -8.594  11.935  66.519  1.00  0.00    -0.126 C  
HETATM    7  C   UNL     1     -11.980  12.519  65.564  1.00  0.00    -0.500 A  
HETATM    8  C   UNL     1     -10.979  14.893  64.510  1.00  0.00    -0.216 A  
HETATM    9  C   UNL     1      -7.958   9.990  64.095  1.00  0.00    -0.152 C  
HETATM   10  C   UNL     1      -9.867  10.899  63.021  1.00  0.00    -0.321 C  
HETATM   11  C   UNL     1     -12.834  13.600  65.326  1.00  0.00    -0.421 A  
HETATM   12  C   UNL     1     -12.337  14.783  64.793  1.00  0.00    -0.303 A  
HETATM   13  C   UNL     1     -10.125  13.810  64.738  1.00  0.00    -0.259 A  
ENDROOT
BRANCH   6  14
HETATM   14  O   UNL     1      -7.654  11.032  67.106  1.00  0.00    -0.105 OA 
BRANCH  14  15
HETATM   15  C   UNL     1      -7.466  11.207  68.439  1.00  0.00    -0.102 C  
HETATM   16  O   UNL     1      -6.518  11.753  68.977  1.00  0.00    -0.070 OA 
BRANCH  15  17
HETATM   17  C   UNL     1      -8.675  10.784  69.176  1.00  0.00    -0.101 A  
HETATM   18  C   UNL     1     -11.065  11.023  69.493  1.00  0.00    -0.263 A  
HETATM   19  C   UNL     1      -9.863  11.484  68.952  1.00  0.00    -0.091 A  
HETATM   20  C   UNL     1      -8.690   9.630  69.967  1.00  0.00    -0.256 A  
HETATM   21  C   UNL     1     -11.089   9.825  70.248  1.00  0.00    -0.292 A  
HETATM   22  C   UNL     1      -9.884   9.138  70.506  1.00  0.00    -0.233 A  
BRANCH  18  23
HETATM   23  O   UNL     1     -12.272  11.640  69.259  1.00  0.00    -0.271 OA 
HETATM   24  C   UNL     1     -12.509  12.858  69.961  1.00  0.00    -0.015 C  
ENDBRANCH  18  23
BRANCH  21  25
HETATM   25  O   UNL     1     -12.326   9.472  70.736  1.00  0.00    -0.258 OA 
HETATM   26  C   UNL     1     -12.447   8.200  71.361  1.00  0.00    -0.292 C  
ENDBRANCH  21  25
BRANCH  22  27
HETATM   27  O   UNL     1      -9.923   8.009  71.281  1.00  0.00    -0.171 OA 
HETATM   28  C   UNL     1      -8.908   7.028  71.094  1.00  0.00    -0.141 C  
ENDBRANCH  22  27
ENDBRANCH  15  17
ENDBRANCH  14  15
ENDBRANCH   6  14
TORSDOF 6
ENDMDL
MODEL      207
REMARK 921   NORMALIZED FREE ENERGY PREDICTED BY IDOCK:   -3.43 KCAL/MOL
REMARK 922        TOTAL FREE ENERGY PREDICTED BY IDOCK:   -5.57 KCAL/MOL
REMARK 923 INTER-LIGAND FREE ENERGY PREDICTED BY IDOCK:   -4.68 KCAL/MOL
REMARK 924 INTRA-LIGAND FREE ENERGY PREDICTED BY IDOCK:   -0.89 KCAL/MOL
REMARK 927      BINDING AFFINITY PREDICTED BY RF-SCORE:    0.00 PKD
ROOT
HETATM    1  C   UNL     1     -11.262  10.466  67.823  1.00  0.00    -0.309 C  
HETATM    2  C   UNL     1     -11.294  11.954  68.159  1.00  0.00    -0.350 C  
HETATM    3  C   UNL     1     -10.624  13.029  67.225  1.00  0.00    -0.242 C  
HETATM    4  N   UNL     1     -11.155  13.053  65.821  1.00  0.00    -0.275 NA 
HETATM    5  C   UNL     1     -10.829  14.472  67.868  1.00  0.00    -0.260 A  
HETATM    6  C   UNL     1      -9.054  12.880  67.258  1.00  0.00    -0.208 C  
HETATM    7  C   UNL     1     -11.541  14.688  69.065  1.00  0.00    -0.328 A  
HETATM    8  C   UNL     1     -10.494  16.901  67.739  1.00  0.00    -0.340 A  
HETATM    9  C   UNL     1     -11.047  11.836  65.022  1.00  0.00    -0.284 C  
HETATM   10  C   UNL     1     -12.523  13.564  65.700  1.00  0.00    -0.479 C  
HETATM   11  C   UNL     1     -11.745  15.976  69.572  1.00  0.00    -0.275 A  
HETATM   12  C   UNL     1     -11.229  17.081  68.906  1.00  0.00     0.097 A  
HETATM   13  C   UNL     1     -10.297  15.615  67.225  1.00  0.00    -0.277 A  
ENDROOT
BRANCH   6  14
HETATM   14  O   UNL     1      -8.497  11.601  66.942  1.00  0.00    -0.158 OA 
BRANCH  14  15
HETATM   15  C   UNL     1      -7.721  11.071  67.921  1.00  0.00    -0.104 C  
HETATM   16  O   UNL     1      -7.455  11.578  68.998  1.00  0.00    -0.115 OA 
BRANCH  15  17
HETATM   17  C   UNL     1      -7.357   9.682  67.574  1.00  0.00    -0.090 A  
HETATM   18  C   UNL     1      -6.599   7.513  68.345  1.00  0.00    -0.050 A  
HETATM   19  C   UNL     1      -6.805   8.875  68.573  1.00  0.00    -0.064 A  
HETATM   20  C   UNL     1      -7.679   9.122  66.333  1.00  0.00    -0.096 A  
HETATM   21  C   UNL     1      -6.976   6.937  67.108  1.00  0.00    -0.074 A  
HETATM   22  C   UNL     1      -7.498   7.758  66.085  1.00  0.00    -0.079 A  
BRANCH  18  23
HETATM   23  O   UNL     1      -6.112   6.662  69.310  1.00  0.00    -0.024 OA 
HETATM   24  C   UNL     1      -6.054   7.175  70.638  1.00  0.00    -0.031 C  
ENDBRANCH  18  23
BRANCH  21  25
HETATM   25  O   UNL     1      -6.720   5.590  66.994  1.00  0.00    -0.058 OA 
HETATM   26  C   UNL     1      -5.521   5.202  66.334  1.00  0.00    -0.013 C  
ENDBRANCH  21  25
BRANCH  22  27
HETATM   27  O   UNL     1      -7.808   7.188  64.879  1.00  0.00    -0.113 OA 
HETATM   28  C   UNL     1      -7.163   7.689  63.713  1.00  0.00    -0.085 C  
ENDBRANCH  22  27
ENDBRANCH  15  17
ENDBRANCH  14  15
ENDBRANCH   6  14
TORSDOF 6
ENDMDL
MODEL      208
REMARK 921   NORMALIZED FREE ENERGY PREDICTED BY IDOCK:   -3.40 KCAL/MOL
REMARK 922        TOTAL FREE ENERGY PREDICTED BY IDOCK:   -5.53 KCAL/MOL
REMARK 923 INTER-LIGAND FREE ENERGY PREDICTED BY IDOCK:   -4.93 KCAL/MOL
REMARK 924 INTRA-LIGAND FREE ENERGY PREDICTED BY IDOCK:   -0.60 KCAL/MOL
REMARK 927      BINDING AFFINITY PREDICTED BY RF-SCORE:    0.00 PKD
ROOT
HETATM    1  C   UNL     1     -12.864  13.328  66.691  1.00  0.00     0.697 C  
HETATM    2  C   UNL     1     -12.036  14.516  67.172  1.00  0.00    -0.373 C  
HETATM    3  C   UNL     1     -10.471  14.554  67.009  1.00  0.00    -0.268 C  
HETATM    4  N   UNL     1      -9.989  14.440  65.592  1.00  0.00    -0.343 NA 
HETATM    5  C   UNL     1      -9.921  15.918  67.622  1.00  0.00    -0.237 A  
HETATM    6  C   UNL     1      -9.796  13.483  67.949  1.00  0.00    -0.235 C  
HETATM    7  C   UNL     1     -10.759  16.909  68.172  1.00  0.00    -0.375 A  
HETATM    8  C   UNL     1      -8.018  17.392  68.106  1.00  0.00    -0.233 A  
HETATM    9  C   UNL     1     -10.351  13.246  64.835  1.00  0.00    -0.351 C  
HETATM   10  C   UNL     1     -10.267  15.614  64.761  1.00  0.00     0.210 C  
HETATM   11  C   UNL     1     -10.244  18.118  68.653  1.00  0.00    -0.382 A  
HETATM   12  C   UNL     1      -8.877  18.362  68.614  1.00  0.00    -0.306 A  
HETATM   13  C   UNL     1      -8.532  16.188  67.615  1.00  0.00    -0.178 A  
ENDROOT
BRANCH   6  14
HETATM   14  O   UNL     1     -10.226  12.124  67.830  1.00  0.00    -0.189 OA 
BRANCH  14  15
HETATM   15  C   UNL     1     -10.726  11.592  68.974  1.00  0.00    -0.179 C  
HETATM   16  O   UNL     1     -11.770  11.898  69.526  1.00  0.00    -0.298 OA 
BRANCH  15  17
HETATM   17  C   UNL     1      -9.900  10.443  69.397  1.00  0.00    -0.235 A  
HETATM   18  C   UNL     1      -7.795   9.257  69.205  1.00  0.00    -0.086 A  
HETATM   19  C   UNL     1      -8.688  10.224  68.737  1.00  0.00    -0.144 A  
HETATM   20  C   UNL     1     -10.227   9.671  70.517  1.00  0.00    -0.351 A  
HETATM   21  C   UNL     1      -8.103   8.514  70.370  1.00  0.00    -0.108 A  
HETATM   22  C   UNL     1      -9.343   8.709  71.016  1.00  0.00    -0.202 A  
BRANCH  18  23
HETATM   23  O   UNL     1      -6.566   9.038  68.627  1.00  0.00    -0.053 OA 
HETATM   24  C   UNL     1      -6.569   8.641  67.259  1.00  0.00    -0.058 C  
ENDBRANCH  18  23
BRANCH  21  25
HETATM   25  O   UNL     1      -7.154   7.587  70.733  1.00  0.00    -0.057 OA 
HETATM   26  C   UNL     1      -6.304   7.911  71.828  1.00  0.00    -0.040 C  
ENDBRANCH  21  25
BRANCH  22  27
HETATM   27  O   UNL     1      -9.640   7.943  72.112  1.00  0.00    -0.170 OA 
HETATM   28  C   UNL     1     -10.946   8.046  72.670  1.00  0.00    -0.382 C  
ENDBRANCH  22  27
ENDBRANCH  15  17
ENDBRANCH  14  15
ENDBRANCH   6  14
TORSDOF 6
ENDMDL
MODEL      209
REMARK 921   NORMALIZED FREE ENERGY PREDICTED BY IDOCK:   -3.36 KCAL/MOL
REMARK 922        TOTAL FREE ENERGY PREDICTED BY IDOCK:   -5.48 KCAL/MOL
REMARK 923 INTER-LIGAND FREE ENERGY PREDICTED BY IDOCK:   -5.15 KCAL/MOL
REMARK 924 INTRA-LIGAND FREE ENERGY PREDICTED BY IDOCK:   -0.33 KCAL/MOL
REMARK 927      BINDING AFFINITY PREDICTED BY RF-SCORE:    0.00 PKD
ROOT
HETATM    1  C   UNL     1      -9.605   4.411  65.478  1.00  0.00    -0.188 C  
HETATM    2  C   UNL     1      -9.744   5.821  66.045  1.00  0.00    -0.051 C  
HETATM    3  C   UNL     1      -8.583   6.503  66.860  1.00  0.00    -0.114 C  
HETATM    4  N   UNL     1      -7.288   6.634  66.112  1.00  0.00    -0.075 NA 
HETATM    5  C   UNL     1      -9.055   7.956  67.313  1.00  0.00    -0.152 A  
HETATM    6  C   UNL     1      -8.391   5.779  68.248  1.00  0.00    -0.107 C  
HETATM    7  C   UNL     1     -10.308   8.501  66.970  1.00  0.00    -0.379 A  
HETATM    8  C   UNL     1      -8.556  10.069  68.460  1.00  0.00    -0.119 A  
HETATM    9  C   UNL     1      -6.650   5.416  65.622  1.00  0.00    -0.041 C  
HETATM   10  C   UNL     1      -7.315   7.611  65.021  1.00  0.00    -0.073 C  
HETATM   11  C   UNL     1     -10.667   9.801  67.341  1.00  0.00    -0.314 A  
HETATM   12  C   UNL     1      -9.790  10.587  68.079  1.00  0.00    -0.166 A  
HETATM   13  C   UNL     1      -8.192   8.772  68.082  1.00  0.00    -0.114 A  
ENDROOT
BRANCH   6  14
HETATM   14  O   UNL     1      -8.163   4.368  68.240  1.00  0.00    -0.088 OA 
BRANCH  14  15
HETATM   15  C   UNL     1      -9.204   3.629  68.703  1.00  0.00    -0.160 C  
HETATM   16  O   UNL     1      -9.566   2.540  68.292  1.00  0.00    -0.201 OA 
BRANCH  15  17
HETATM   17  C   UNL     1      -9.764   4.259  69.916  1.00  0.00    -0.291 A  
HETATM   18  C   UNL     1      -9.658   4.514  72.323  1.00  0.00    -0.153 A  
HETATM   19  C   UNL     1      -9.285   3.839  71.159  1.00  0.00    -0.201 A  
HETATM   20  C   UNL     1     -10.642   5.347  69.845  1.00  0.00    -0.351 A  
HETATM   21  C   UNL     1     -10.502   5.648  72.244  1.00  0.00    -0.213 A  
HETATM   22  C   UNL     1     -11.017   6.050  70.994  1.00  0.00    -0.286 A  
BRANCH  18  23
HETATM   23  O   UNL     1      -9.172   4.179  73.566  1.00  0.00    -0.102 OA 
HETATM   24  C   UNL     1      -9.495   2.876  74.043  1.00  0.00    -0.088 C  
ENDBRANCH  18  23
BRANCH  21  25
HETATM   25  O   UNL     1     -10.807   6.228  73.454  1.00  0.00    -0.258 OA 
HETATM   26  C   UNL     1      -9.992   7.311  73.887  1.00  0.00    -0.278 C  
ENDBRANCH  21  25
BRANCH  22  27
HETATM   27  O   UNL     1     -11.873   7.119  70.948  1.00  0.00    -0.317 OA 
HETATM   28  C   UNL     1     -11.324   8.411  70.711  1.00  0.00    -0.265 C  
ENDBRANCH  22  27
ENDBRANCH  15  17
ENDBRANCH  14  15
ENDBRANCH   6  14
TORSDOF 6
ENDMDL
MODEL      210
REMARK 921   NORMALIZED FREE ENERGY PREDICTED BY IDOCK:   -3.35 KCAL/MOL
REMARK 922        TOTAL FREE ENERGY PREDICTED BY IDOCK:   -5.47 KCAL/MOL
REMARK 923 INTER-LIGAND FREE ENERGY PREDICTED BY IDOCK:   -5.09 KCAL/MOL
REMARK 924 INTRA-LIGAND FREE ENERGY PREDICTED BY IDOCK:   -0.38 KCAL/MOL
REMARK 927      BINDING AFFINITY PREDICTED BY RF-SCORE:    0.00 PKD
ROOT
HETATM    1  C   UNL     1      -7.566   7.019  62.887  1.00  0.00    -0.103 C  
HETATM    2  C   UNL     1      -8.338   8.288  63.237  1.00  0.00    -0.041 C  
HETATM    3  C   UNL     1      -8.164   9.006  64.627  1.00  0.00    -0.160 C  
HETATM    4  N   UNL     1      -6.761   9.446  64.930  1.00  0.00    -0.082 NA 
HETATM    5  C   UNL     1      -9.115  10.283  64.671  1.00  0.00    -0.265 A  
HETATM    6  C   UNL     1      -8.764   8.115  65.782  1.00  0.00    -0.154 C  
HETATM    7  C   UNL     1      -9.928  10.676  63.590  1.00  0.00    -0.364 A  
HETATM    8  C   UNL     1      -9.949  12.245  65.889  1.00  0.00    -0.272 A  
HETATM    9  C   UNL     1      -5.714   8.430  64.972  1.00  0.00    -0.044 C  
HETATM   10  C   UNL     1      -6.286  10.564  64.110  1.00  0.00     0.011 C  
HETATM   11  C   UNL     1     -10.711  11.834  63.647  1.00  0.00    -0.503 A  
HETATM   12  C   UNL     1     -10.716  12.622  64.792  1.00  0.00    -0.335 A  
HETATM   13  C   UNL     1      -9.158  11.094  65.831  1.00  0.00    -0.218 A  
ENDROOT
BRANCH   6  14
HETATM   14  O   UNL     1      -8.287   6.773  65.908  1.00  0.00    -0.125 OA 
BRANCH  14  15
HETATM   15  C   UNL     1      -7.887   6.437  67.160  1.00  0.00    -0.108 C  
HETATM   16  O   UNL     1      -6.982   5.676  67.458  1.00  0.00    -0.062 OA 
BRANCH  15  17
HETATM   17  C   UNL     1      -8.605   7.260  68.154  1.00  0.00    -0.122 A  
HETATM   18  C   UNL     1     -10.375   7.396  69.804  1.00  0.00    -0.222 A  
HETATM   19  C   UNL     1      -9.756   6.732  68.742  1.00  0.00    -0.132 A  
HETATM   20  C   UNL     1      -8.087   8.475  68.618  1.00  0.00    -0.121 A  
HETATM   21  C   UNL     1      -9.819   8.596  70.308  1.00  0.00    -0.178 A  
HETATM   22  C   UNL     1      -8.677   9.151  69.691  1.00  0.00    -0.145 A  
BRANCH  18  23
HETATM   23  O   UNL     1     -11.477   6.893  70.455  1.00  0.00    -0.303 OA 
HETATM   24  C   UNL     1     -11.259   5.758  71.289  1.00  0.00    -0.153 C  
ENDBRANCH  18  23
BRANCH  21  25
HETATM   25  O   UNL     1     -10.516   9.165  71.349  1.00  0.00    -0.295 OA 
HETATM   26  C   UNL     1     -11.608  10.015  71.022  1.00  0.00    -0.393 C  
ENDBRANCH  21  25
BRANCH  22  27
HETATM   27  O   UNL     1      -8.187  10.340  70.163  1.00  0.00    -0.067 OA 
HETATM   28  C   UNL     1      -7.023  10.880  69.546  1.00  0.00    -0.131 C  
ENDBRANCH  22  27
ENDBRANCH  15  17
ENDBRANCH  14  15
ENDBRANCH   6  14
TORSDOF 6
ENDMDL
MODEL      211
REMARK 921   NORMALIZED FREE ENERGY PREDICTED BY IDOCK:   -3.32 KCAL/MOL
REMARK 922        TOTAL FREE ENERGY PREDICTED BY IDOCK:   -5.42 KCAL/MOL
REMARK 923 INTER-LIGAND FREE ENERGY PREDICTED BY IDOCK:   -4.56 KCAL/MOL
REMARK 924 INTRA-LIGAND FREE ENERGY PREDICTED BY IDOCK:   -0.86 KCAL/MOL
REMARK 927      BINDING AFFINITY PREDICTED BY RF-SCORE:    0.00 PKD
ROOT
HETATM    1  C   UNL     1     -11.343  10.228  66.966  1.00  0.00     0.282 C  
HETATM    2  C   UNL     1     -11.355  11.605  67.624  1.00  0.00    -0.362 C  
HETATM    3  C   UNL     1     -10.043  12.458  67.784  1.00  0.00    -0.203 C  
HETATM    4  N   UNL     1      -9.345  12.777  66.493  1.00  0.00    -0.239 NA 
HETATM    5  C   UNL     1     -10.402  13.826  68.516  1.00  0.00    -0.244 A  
HETATM    6  C   UNL     1      -9.073  11.779  68.825  1.00  0.00     0.017 C  
HETATM    7  C   UNL     1     -11.712  14.175  68.898  1.00  0.00    -0.369 A  
HETATM    8  C   UNL     1      -9.668  15.996  69.401  1.00  0.00    -0.248 A  
HETATM    9  C   UNL     1      -8.895  11.666  65.661  1.00  0.00     0.050 C  
HETATM   10  C   UNL     1     -10.056  13.733  65.641  1.00  0.00    -0.298 C  
HETATM   11  C   UNL     1     -11.997  15.409  69.493  1.00  0.00    -0.358 A  
HETATM   12  C   UNL     1     -10.978  16.322  69.737  1.00  0.00    -0.354 A  
HETATM   13  C   UNL     1      -9.383  14.767  68.797  1.00  0.00    -0.198 A  
ENDROOT
BRANCH   6  14
HETATM   14  O   UNL     1      -8.698  10.418  68.601  1.00  0.00    -0.124 OA 
BRANCH  14  15
HETATM   15  C   UNL     1      -9.048   9.568  69.600  1.00  0.00    -0.196 C  
HETATM   16  O   UNL     1      -9.535   9.868  70.677  1.00  0.00    -0.103 OA 
BRANCH  15  17
HETATM   17  C   UNL     1      -8.913   8.171  69.140  1.00  0.00    -0.144 A  
HETATM   18  C   UNL     1      -9.613   5.863  69.375  1.00  0.00    -0.138 A  
HETATM   19  C   UNL     1      -9.572   7.172  69.860  1.00  0.00    -0.163 A  
HETATM   20  C   UNL     1      -8.271   7.848  67.938  1.00  0.00    -0.129 A  
HETATM   21  C   UNL     1      -9.010   5.549  68.133  1.00  0.00    -0.108 A  
HETATM   22  C   UNL     1      -8.313   6.549  67.422  1.00  0.00    -0.120 A  
BRANCH  18  23
HETATM   23  O   UNL     1     -10.294   4.853  70.015  1.00  0.00    -0.268 OA 
HETATM   24  C   UNL     1      -9.693   4.330  71.196  1.00  0.00    -0.189 C  
ENDBRANCH  18  23
BRANCH  21  25
HETATM   25  O   UNL     1      -9.109   4.228  67.759  1.00  0.00    -0.116 OA 
HETATM   26  C   UNL     1      -7.942   3.422  67.880  1.00  0.00    -0.079 C  
ENDBRANCH  21  25
BRANCH  22  27
HETATM   27  O   UNL     1      -7.694   6.210  66.248  1.00  0.00    -0.095 OA 
HETATM   28  C   UNL     1      -7.222   7.259  65.409  1.00  0.00    -0.066 C  
ENDBRANCH  22  27
ENDBRANCH  15  17
ENDBRANCH  14  15
ENDBRANCH   6  14
TORSDOF 6
ENDMDL
MODEL      212
REMARK 921   NORMALIZED FREE ENERGY PREDICTED BY IDOCK:   -3.31 KCAL/MOL
REMARK 922        TOTAL FREE ENERGY PREDICTED BY IDOCK:   -5.41 KCAL/MOL
REMARK 923 INTER-LIGAND FREE ENERGY PREDICTED BY IDOCK:   -5.19 KCAL/MOL
REMARK 924 INTRA-LIGAND FREE ENERGY PREDICTED BY IDOCK:   -0.22 KCAL/MOL
REMARK 927      BINDING AFFINITY PREDICTED BY RF-SCORE:    0.00 PKD
ROOT
HETATM    1  C   UNL     1     -10.842   6.107  71.049  1.00  0.00    -0.338 C  
HETATM    2  C   UNL     1     -10.248   5.286  69.908  1.00  0.00    -0.364 C  
HETATM    3  C   UNL     1      -8.993   5.781  69.097  1.00  0.00    -0.118 C  
HETATM    4  N   UNL     1      -7.767   6.020  69.930  1.00  0.00    -0.090 NA 
HETATM    5  C   UNL     1      -8.643   4.703  67.978  1.00  0.00    -0.107 A  
HETATM    6  C   UNL     1      -9.368   7.041  68.226  1.00  0.00    -0.126 C  
HETATM    7  C   UNL     1      -9.356   3.498  67.818  1.00  0.00    -0.246 A  
HETATM    8  C   UNL     1      -7.196   3.981  66.131  1.00  0.00    -0.068 A  
HETATM    9  C   UNL     1      -7.847   7.000  71.009  1.00  0.00    -0.096 C  
HETATM   10  C   UNL     1      -7.148   4.802  70.459  1.00  0.00    -0.048 C  
HETATM   11  C   UNL     1      -8.986   2.551  66.858  1.00  0.00    -0.155 A  
HETATM   12  C   UNL     1      -7.903   2.788  66.020  1.00  0.00    -0.081 A  
HETATM   13  C   UNL     1      -7.558   4.925  67.097  1.00  0.00    -0.087 A  
ENDROOT
BRANCH   6  14
HETATM   14  O   UNL     1      -9.944   8.167  68.891  1.00  0.00    -0.181 OA 
BRANCH  14  15
HETATM   15  C   UNL     1      -9.426   9.365  68.517  1.00  0.00    -0.145 C  
HETATM   16  O   UNL     1      -8.850  10.167  69.231  1.00  0.00    -0.161 OA 
BRANCH  15  17
HETATM   17  C   UNL     1      -9.508   9.509  67.049  1.00  0.00    -0.197 A  
HETATM   18  C   UNL     1     -10.405  10.733  65.160  1.00  0.00    -0.271 A  
HETATM   19  C   UNL     1     -10.408  10.440  66.526  1.00  0.00    -0.287 A  
HETATM   20  C   UNL     1      -8.618   8.850  66.192  1.00  0.00    -0.155 A  
HETATM   21  C   UNL     1      -9.468  10.107  64.303  1.00  0.00    -0.305 A  
HETATM   22  C   UNL     1      -8.583   9.139  64.824  1.00  0.00    -0.184 A  
BRANCH  18  23
HETATM   23  O   UNL     1     -11.231  11.681  64.601  1.00  0.00    -0.308 OA 
HETATM   24  C   UNL     1     -11.742  12.678  65.482  1.00  0.00    -0.402 C  
ENDBRANCH  18  23
BRANCH  21  25
HETATM   25  O   UNL     1      -9.563  10.468  62.979  1.00  0.00    -0.307 OA 
HETATM   26  C   UNL     1      -8.501  11.240  62.431  1.00  0.00    -0.126 C  
ENDBRANCH  21  25
BRANCH  22  27
HETATM   27  O   UNL     1      -7.720   8.509  63.967  1.00  0.00    -0.121 OA 
HETATM   28  C   UNL     1      -7.815   7.094  63.836  1.00  0.00    -0.109 C  
ENDBRANCH  22  27
ENDBRANCH  15  17
ENDBRANCH  14  15
ENDBRANCH   6  14
TORSDOF 6
ENDMDL
MODEL      213
REMARK 921   NORMALIZED FREE ENERGY PREDICTED BY IDOCK:   -3.29 KCAL/MOL
REMARK 922        TOTAL FREE ENERGY PREDICTED BY IDOCK:   -5.38 KCAL/MOL
REMARK 923 INTER-LIGAND FREE ENERGY PREDICTED BY IDOCK:   -4.74 KCAL/MOL
REMARK 924 INTRA-LIGAND FREE ENERGY PREDICTED BY IDOCK:   -0.64 KCAL/MOL
REMARK 927      BINDING AFFINITY PREDICTED BY RF-SCORE:    0.00 PKD
ROOT
HETATM    1  C   UNL     1      -7.977   9.403  68.458  1.00  0.00    -0.093 C  
HETATM    2  C   UNL     1      -9.251   9.589  69.279  1.00  0.00    -0.169 C  
HETATM    3  C   UNL     1      -9.939   8.387  70.024  1.00  0.00    -0.188 C  
HETATM    4  N   UNL     1      -9.066   7.692  71.028  1.00  0.00    -0.147 NA 
HETATM    5  C   UNL     1     -11.243   8.919  70.769  1.00  0.00    -0.321 A  
HETATM    6  C   UNL     1     -10.554   7.377  68.980  1.00  0.00    -0.192 C  
HETATM    7  C   UNL     1     -11.639  10.271  70.758  1.00  0.00    -0.446 A  
HETATM    8  C   UNL     1     -13.183   8.461  72.203  1.00  0.00    -0.346 A  
HETATM    9  C   UNL     1      -7.819   7.095  70.560  1.00  0.00    -0.100 C  
HETATM   10  C   UNL     1      -8.777   8.482  72.228  1.00  0.00    -0.190 C  
HETATM   11  C   UNL     1     -12.761  10.711  71.469  1.00  0.00    -0.549 A  
HETATM   12  C   UNL     1     -13.528   9.809  72.196  1.00  0.00    -0.491 A  
HETATM   13  C   UNL     1     -12.056   8.021  71.502  1.00  0.00    -0.330 A  
ENDROOT
BRANCH   6  14
HETATM   14  O   UNL     1      -9.688   6.844  67.975  1.00  0.00    -0.129 OA 
BRANCH  14  15
HETATM   15  C   UNL     1      -9.756   5.496  67.834  1.00  0.00    -0.131 C  
HETATM   16  O   UNL     1     -10.449   4.728  68.480  1.00  0.00     0.021 OA 
BRANCH  15  17
HETATM   17  C   UNL     1      -8.979   5.075  66.651  1.00  0.00    -0.114 A  
HETATM   18  C   UNL     1      -6.876   4.253  65.771  1.00  0.00    -0.057 A  
HETATM   19  C   UNL     1      -7.617   4.811  66.815  1.00  0.00    -0.087 A  
HETATM   20  C   UNL     1      -9.593   4.801  65.424  1.00  0.00    -0.152 A  
HETATM   21  C   UNL     1      -7.511   3.926  64.549  1.00  0.00    -0.075 A  
HETATM   22  C   UNL     1      -8.878   4.226  64.368  1.00  0.00    -0.144 A  
BRANCH  18  23
HETATM   23  O   UNL     1      -5.547   3.921  65.896  1.00  0.00    -0.016 OA 
HETATM   24  C   UNL     1      -5.251   2.765  66.674  1.00  0.00    -0.008 C  
ENDBRANCH  18  23
BRANCH  21  25
HETATM   25  O   UNL     1      -6.681   3.387  63.591  1.00  0.00    -0.036 OA 
HETATM   26  C   UNL     1      -5.953   4.292  62.769  1.00  0.00    -0.017 C  
ENDBRANCH  21  25
BRANCH  22  27
HETATM   27  O   UNL     1      -9.458   3.947  63.159  1.00  0.00    -0.119 OA 
HETATM   28  C   UNL     1     -10.120   2.696  63.004  1.00  0.00    -0.114 C  
ENDBRANCH  22  27
ENDBRANCH  15  17
ENDBRANCH  14  15
ENDBRANCH   6  14
TORSDOF 6
ENDMDL
MODEL      214
REMARK 921   NORMALIZED FREE ENERGY PREDICTED BY IDOCK:   -3.23 KCAL/MOL
REMARK 922        TOTAL FREE ENERGY PREDICTED BY IDOCK:   -5.30 KCAL/MOL
REMARK 923 INTER-LIGAND FREE ENERGY PREDICTED BY IDOCK:   -4.41 KCAL/MOL
REMARK 924 INTRA-LIGAND FREE ENERGY PREDICTED BY IDOCK:   -0.89 KCAL/MOL
REMARK 927      BINDING AFFINITY PREDICTED BY RF-SCORE:    0.00 PKD
ROOT
HETATM    1  C   UNL     1     -10.685   7.143  66.715  1.00  0.00    -0.259 C  
HETATM    2  C   UNL     1      -9.620   7.772  67.609  1.00  0.00    -0.177 C  
HETATM    3  C   UNL     1      -8.140   7.236  67.637  1.00  0.00    -0.114 C  
HETATM    4  N   UNL     1      -7.439   7.272  66.309  1.00  0.00    -0.082 NA 
HETATM    5  C   UNL     1      -7.297   8.100  68.677  1.00  0.00    -0.089 A  
HETATM    6  C   UNL     1      -8.089   5.803  68.292  1.00  0.00    -0.108 C  
HETATM    7  C   UNL     1      -7.839   9.184  69.396  1.00  0.00    -0.095 A  
HETATM    8  C   UNL     1      -5.151   8.567  69.774  1.00  0.00    -0.030 A  
HETATM    9  C   UNL     1      -8.022   6.519  65.203  1.00  0.00    -0.123 C  
HETATM   10  C   UNL     1      -7.116   8.618  65.831  1.00  0.00    -0.076 C  
HETATM   11  C   UNL     1      -7.053   9.953  70.262  1.00  0.00    -0.155 A  
HETATM   12  C   UNL     1      -5.710   9.650  70.445  1.00  0.00    -0.048 A  
HETATM   13  C   UNL     1      -5.932   7.803  68.901  1.00  0.00    -0.038 A  
ENDROOT
BRANCH   6  14
HETATM   14  O   UNL     1      -8.924   4.784  67.736  1.00  0.00    -0.107 OA 
BRANCH  14  15
HETATM   15  C   UNL     1      -9.166   3.740  68.570  1.00  0.00    -0.156 C  
HETATM   16  O   UNL     1      -8.821   2.582  68.410  1.00  0.00    -0.083 OA 
BRANCH  15  17
HETATM   17  C   UNL     1      -9.781   4.231  69.821  1.00  0.00    -0.290 A  
HETATM   18  C   UNL     1      -9.734   4.274  72.243  1.00  0.00    -0.152 A  
HETATM   19  C   UNL     1      -9.305   3.725  71.033  1.00  0.00    -0.218 A  
HETATM   20  C   UNL     1     -10.710   5.277  69.825  1.00  0.00    -0.179 A  
HETATM   21  C   UNL     1     -10.632   5.368  72.245  1.00  0.00    -0.225 A  
HETATM   22  C   UNL     1     -11.142   5.856  71.023  1.00  0.00    -0.245 A  
BRANCH  18  23
HETATM   23  O   UNL     1      -9.256   3.852  73.462  1.00  0.00    -0.101 OA 
HETATM   24  C   UNL     1      -7.853   3.976  73.673  1.00  0.00    -0.084 C  
ENDBRANCH  18  23
BRANCH  21  25
HETATM   25  O   UNL     1     -10.989   5.822  73.494  1.00  0.00    -0.262 OA 
HETATM   26  C   UNL     1     -10.303   6.962  73.999  1.00  0.00    -0.320 C  
ENDBRANCH  21  25
BRANCH  22  27
HETATM   27  O   UNL     1     -12.049   6.882  71.052  1.00  0.00    -0.354 OA 
HETATM   28  C   UNL     1     -11.576   8.205  70.820  1.00  0.00    -0.238 C  
ENDBRANCH  22  27
ENDBRANCH  15  17
ENDBRANCH  14  15
ENDBRANCH   6  14
TORSDOF 6
ENDMDL
MODEL      215
REMARK 921   NORMALIZED FREE ENERGY PREDICTED BY IDOCK:   -3.23 KCAL/MOL
REMARK 922        TOTAL FREE ENERGY PREDICTED BY IDOCK:   -5.30 KCAL/MOL
REMARK 923 INTER-LIGAND FREE ENERGY PREDICTED BY IDOCK:   -6.03 KCAL/MOL
REMARK 924 INTRA-LIGAND FREE ENERGY PREDICTED BY IDOCK:    0.74 KCAL/MOL
REMARK 927      BINDING AFFINITY PREDICTED BY RF-SCORE:    0.00 PKD
ROOT
HETATM    1  C   UNL     1      -9.923   9.278  66.316  1.00  0.00    -0.357 C  
HETATM    2  C   UNL     1     -10.626   9.929  67.503  1.00  0.00    -0.333 C  
HETATM    3  C   UNL     1     -10.427  11.451  67.850  1.00  0.00    -0.184 C  
HETATM    4  N   UNL     1     -10.814  12.397  66.749  1.00  0.00    -0.241 NA 
HETATM    5  C   UNL     1     -11.288  11.803  69.144  1.00  0.00    -0.340 A  
HETATM    6  C   UNL     1      -8.957  11.709  68.359  1.00  0.00    -0.176 C  
HETATM    7  C   UNL     1     -12.107  10.865  69.803  1.00  0.00    -0.409 A  
HETATM    8  C   UNL     1     -12.039  13.470  70.783  1.00  0.00    -0.351 A  
HETATM    9  C   UNL     1     -10.128  12.278  65.467  1.00  0.00    -0.256 C  
HETATM   10  C   UNL     1     -12.255  12.475  66.496  1.00  0.00     0.019 C  
HETATM   11  C   UNL     1     -12.889  11.224  70.906  1.00  0.00    -0.343 A  
HETATM   12  C   UNL     1     -12.861  12.526  71.391  1.00  0.00    -0.359 A  
HETATM   13  C   UNL     1     -11.264  13.115  69.674  1.00  0.00    -0.088 A  
ENDROOT
BRANCH   6  14
HETATM   14  O   UNL     1      -7.877  11.296  67.519  1.00  0.00    -0.115 OA 
BRANCH  14  15
HETATM   15  C   UNL     1      -7.012  12.290  67.189  1.00  0.00    -0.102 C  
HETATM   16  O   UNL     1      -6.015  12.190  66.495  1.00  0.00    -0.171 OA 
BRANCH  15  17
HETATM   17  C   UNL     1      -7.538  13.588  67.659  1.00  0.00    -0.181 A  
HETATM   18  C   UNL     1      -7.225  15.531  69.073  1.00  0.00    -0.156 A  
HETATM   19  C   UNL     1      -6.871  14.231  68.704  1.00  0.00    -0.098 A  
HETATM   20  C   UNL     1      -8.582  14.245  66.997  1.00  0.00    -0.213 A  
HETATM   21  C   UNL     1      -8.244  16.214  68.367  1.00  0.00    -0.172 A  
HETATM   22  C   UNL     1      -8.944  15.553  67.335  1.00  0.00    -0.192 A  
BRANCH  18  23
HETATM   23  O   UNL     1      -6.566  16.230  70.057  1.00  0.00    -0.119 OA 
HETATM   24  C   UNL     1      -5.272  16.726  69.726  1.00  0.00    -0.166 C  
ENDBRANCH  18  23
BRANCH  21  25
HETATM   25  O   UNL     1      -8.511  17.485  68.821  1.00  0.00    -0.274 OA 
HETATM   26  C   UNL     1      -7.932  18.572  68.110  1.00  0.00    -0.289 C  
ENDBRANCH  21  25
BRANCH  22  27
HETATM   27  O   UNL     1      -9.960  16.216  66.700  1.00  0.00    -0.241 OA 
HETATM   28  C   UNL     1     -10.076  16.076  65.288  1.00  0.00    -0.123 C  
ENDBRANCH  22  27
ENDBRANCH  15  17
ENDBRANCH  14  15
ENDBRANCH   6  14
TORSDOF 6
ENDMDL
MODEL      216
REMARK 921   NORMALIZED FREE ENERGY PREDICTED BY IDOCK:   -3.21 KCAL/MOL
REMARK 922        TOTAL FREE ENERGY PREDICTED BY IDOCK:   -5.27 KCAL/MOL
REMARK 923 INTER-LIGAND FREE ENERGY PREDICTED BY IDOCK:   -4.52 KCAL/MOL
REMARK 924 INTRA-LIGAND FREE ENERGY PREDICTED BY IDOCK:   -0.75 KCAL/MOL
REMARK 927      BINDING AFFINITY PREDICTED BY RF-SCORE:    0.00 PKD
ROOT
HETATM    1  C   UNL     1      -6.675   8.354  66.737  1.00  0.00    -0.061 C  
HETATM    2  C   UNL     1      -7.602   9.565  66.739  1.00  0.00    -0.098 C  
HETATM    3  C   UNL     1      -9.057   9.494  67.334  1.00  0.00    -0.130 C  
HETATM    4  N   UNL     1      -9.121   9.098  68.781  1.00  0.00    -0.136 NA 
HETATM    5  C   UNL     1      -9.754  10.917  67.168  1.00  0.00    -0.199 A  
HETATM    6  C   UNL     1      -9.973   8.579  66.432  1.00  0.00    -0.244 C  
HETATM    7  C   UNL     1      -9.102  12.033  66.606  1.00  0.00    -0.205 A  
HETATM    8  C   UNL     1     -11.712  12.356  67.520  1.00  0.00    -0.425 A  
HETATM    9  C   UNL     1      -8.563   7.805  69.166  1.00  0.00    -0.138 C  
HETATM   10  C   UNL     1      -8.616  10.113  69.709  1.00  0.00    -0.128 C  
HETATM   11  C   UNL     1      -9.729  13.282  66.526  1.00  0.00    -0.273 A  
HETATM   12  C   UNL     1     -11.029  13.445  66.988  1.00  0.00    -0.298 A  
HETATM   13  C   UNL     1     -11.084  11.110  67.611  1.00  0.00    -0.348 A  
ENDROOT
BRANCH   6  14
HETATM   14  O   UNL     1      -9.531   7.246  66.167  1.00  0.00    -0.118 OA 
BRANCH  14  15
HETATM   15  C   UNL     1     -10.291   6.279  66.742  1.00  0.00    -0.221 C  
HETATM   16  O   UNL     1     -11.407   6.412  67.215  1.00  0.00    -0.295 OA 
BRANCH  15  17
HETATM   17  C   UNL     1      -9.641   4.963  66.574  1.00  0.00    -0.176 A  
HETATM   18  C   UNL     1      -9.205   3.068  65.128  1.00  0.00    -0.149 A  
HETATM   19  C   UNL     1      -9.917   4.234  65.415  1.00  0.00    -0.233 A  
HETATM   20  C   UNL     1      -8.661   4.505  67.462  1.00  0.00    -0.109 A  
HETATM   21  C   UNL     1      -8.177   2.634  66.000  1.00  0.00    -0.087 A  
HETATM   22  C   UNL     1      -7.922   3.349  67.190  1.00  0.00    -0.079 A  
BRANCH  18  23
HETATM   23  O   UNL     1      -9.398   2.342  63.975  1.00  0.00    -0.110 OA 
HETATM   24  C   UNL     1      -9.683   3.088  62.796  1.00  0.00    -0.092 C  
ENDBRANCH  18  23
BRANCH  21  25
HETATM   25  O   UNL     1      -7.548   1.470  65.620  1.00  0.00    -0.063 OA 
HETATM   26  C   UNL     1      -6.263   1.583  65.021  1.00  0.00    -0.018 C  
ENDBRANCH  21  25
BRANCH  22  27
HETATM   27  O   UNL     1      -6.958   2.882  68.043  1.00  0.00    -0.047 OA 
HETATM   28  C   UNL     1      -7.363   2.052  69.127  1.00  0.00    -0.043 C  
ENDBRANCH  22  27
ENDBRANCH  15  17
ENDBRANCH  14  15
ENDBRANCH   6  14
TORSDOF 6
ENDMDL
MODEL      217
REMARK 921   NORMALIZED FREE ENERGY PREDICTED BY IDOCK:   -3.15 KCAL/MOL
REMARK 922        TOTAL FREE ENERGY PREDICTED BY IDOCK:   -5.19 KCAL/MOL
REMARK 923 INTER-LIGAND FREE ENERGY PREDICTED BY IDOCK:   -4.77 KCAL/MOL
REMARK 924 INTRA-LIGAND FREE ENERGY PREDICTED BY IDOCK:   -0.42 KCAL/MOL
REMARK 927      BINDING AFFINITY PREDICTED BY RF-SCORE:    0.00 PKD
ROOT
HETATM    1  C   UNL     1      -7.886  17.258  65.979  1.00  0.00    -0.210 C  
HETATM    2  C   UNL     1      -9.043  16.732  66.823  1.00  0.00    -0.263 C  
HETATM    3  C   UNL     1      -9.051  16.863  68.391  1.00  0.00    -0.243 C  
HETATM    4  N   UNL     1      -8.958  18.273  68.901  1.00  0.00    -0.195 NA 
HETATM    5  C   UNL     1     -10.388  16.207  68.958  1.00  0.00    -0.258 A  
HETATM    6  C   UNL     1      -7.943  15.935  69.023  1.00  0.00    -0.222 C  
HETATM    7  C   UNL     1     -11.384  15.651  68.131  1.00  0.00    -0.340 A  
HETATM    8  C   UNL     1     -11.807  15.650  70.883  1.00  0.00    -0.428 A  
HETATM    9  C   UNL     1      -7.790  19.064  68.528  1.00  0.00    -0.340 C  
HETATM   10  C   UNL     1     -10.157  19.081  68.665  1.00  0.00    -0.382 C  
HETATM   11  C   UNL     1     -12.569  15.132  68.663  1.00  0.00     0.470 A  
HETATM   12  C   UNL     1     -12.784  15.138  70.035  1.00  0.00    -0.200 A  
HETATM   13  C   UNL     1     -10.626  16.180  70.353  1.00  0.00    -0.058 A  
ENDROOT
BRANCH   6  14
HETATM   14  O   UNL     1      -6.597  16.094  68.567  1.00  0.00    -0.117 OA 
BRANCH  14  15
HETATM   15  C   UNL     1      -6.097  15.017  67.909  1.00  0.00    -0.155 C  
HETATM   16  O   UNL     1      -5.139  15.002  67.155  1.00  0.00    -0.197 OA 
BRANCH  15  17
HETATM   17  C   UNL     1      -6.783  13.790  68.363  1.00  0.00    -0.100 A  
HETATM   18  C   UNL     1      -8.520  12.149  67.960  1.00  0.00    -0.170 A  
HETATM   19  C   UNL     1      -7.932  13.385  67.679  1.00  0.00    -0.174 A  
HETATM   20  C   UNL     1      -6.237  12.962  69.350  1.00  0.00    -0.114 A  
HETATM   21  C   UNL     1      -7.936  11.289  68.920  1.00  0.00    -0.104 A  
HETATM   22  C   UNL     1      -6.797  11.713  69.638  1.00  0.00    -0.006 A  
BRANCH  18  23
HETATM   23  O   UNL     1      -9.618  11.676  67.278  1.00  0.00    -0.173 OA 
HETATM   24  C   UNL     1      -9.563  11.748  65.857  1.00  0.00    -0.230 C  
ENDBRANCH  18  23
BRANCH  21  25
HETATM   25  O   UNL     1      -8.604  10.102  69.117  1.00  0.00    -0.142 OA 
HETATM   26  C   UNL     1      -8.232   8.996  68.304  1.00  0.00    -0.116 C  
ENDBRANCH  21  25
BRANCH  22  27
HETATM   27  O   UNL     1      -6.280  10.885  70.598  1.00  0.00    -0.289 OA 
HETATM   28  C   UNL     1      -5.192  11.362  71.383  1.00  0.00    -0.015 C  
ENDBRANCH  22  27
ENDBRANCH  15  17
ENDBRANCH  14  15
ENDBRANCH   6  14
TORSDOF 6
ENDMDL
MODEL      218
REMARK 921   NORMALIZED FREE ENERGY PREDICTED BY IDOCK:   -3.06 KCAL/MOL
REMARK 922        TOTAL FREE ENERGY PREDICTED BY IDOCK:   -5.08 KCAL/MOL
REMARK 923 INTER-LIGAND FREE ENERGY PREDICTED BY IDOCK:   -4.25 KCAL/MOL
REMARK 924 INTRA-LIGAND FREE ENERGY PREDICTED BY IDOCK:   -0.82 KCAL/MOL
REMARK 927      BINDING AFFINITY PREDICTED BY RF-SCORE:    0.00 PKD
ROOT
HETATM    1  C   UNL     1     -10.828  10.809  65.496  1.00  0.00    -0.061 C  
HETATM    2  C   UNL     1      -9.535  10.713  66.301  1.00  0.00    -0.213 C  
HETATM    3  C   UNL     1      -9.421   9.801  67.578  1.00  0.00    -0.147 C  
HETATM    4  N   UNL     1      -9.701   8.346  67.334  1.00  0.00    -0.159 NA 
HETATM    5  C   UNL     1      -7.954   9.940  68.183  1.00  0.00    -0.100 A  
HETATM    6  C   UNL     1     -10.307  10.383  68.746  1.00  0.00    -0.196 C  
HETATM    7  C   UNL     1      -6.951  10.737  67.596  1.00  0.00    -0.082 A  
HETATM    8  C   UNL     1      -6.310   9.294  69.888  1.00  0.00    -0.043 A  
HETATM    9  C   UNL     1     -11.009   7.976  66.803  1.00  0.00     0.463 C  
HETATM   10  C   UNL     1      -8.673   7.656  66.550  1.00  0.00    -0.149 C  
HETATM   11  C   UNL     1      -5.657  10.792  68.125  1.00  0.00    -0.035 A  
HETATM   12  C   UNL     1      -5.335  10.067  69.265  1.00  0.00    -0.035 A  
HETATM   13  C   UNL     1      -7.601   9.229  69.354  1.00  0.00    -0.080 A  
ENDROOT
BRANCH   6  14
HETATM   14  O   UNL     1     -11.694  10.613  68.483  1.00  0.00    -0.364 OA 
BRANCH  14  15
HETATM   15  C   UNL     1     -12.378  11.161  69.519  1.00  0.00    -0.194 C  
HETATM   16  O   UNL     1     -12.973  10.562  70.399  1.00  0.00    -0.314 OA 
BRANCH  15  17
HETATM   17  C   UNL     1     -12.168  12.623  69.542  1.00  0.00    -0.149 A  
HETATM   18  C   UNL     1     -11.809  14.657  68.275  1.00  0.00    -0.298 A  
HETATM   19  C   UNL     1     -11.853  13.263  68.341  1.00  0.00    -0.395 A  
HETATM   20  C   UNL     1     -12.416  13.387  70.688  1.00  0.00    -0.385 A  
HETATM   21  C   UNL     1     -12.113  15.430  69.422  1.00  0.00    -0.280 A  
HETATM   22  C   UNL     1     -12.395  14.785  70.645  1.00  0.00    -0.337 A  
BRANCH  18  23
HETATM   23  O   UNL     1     -11.559  15.340  67.107  1.00  0.00    -0.265 OA 
HETATM   24  C   UNL     1     -10.759  14.669  66.138  1.00  0.00    -0.314 C  
ENDBRANCH  18  23
BRANCH  21  25
HETATM   25  O   UNL     1     -12.032  16.792  69.241  1.00  0.00     0.410 OA 
HETATM   26  C   UNL     1     -10.776  17.413  69.484  1.00  0.00     0.218 C  
ENDBRANCH  21  25
BRANCH  22  27
HETATM   27  O   UNL     1     -12.636  15.552  71.753  1.00  0.00    -0.348 OA 
HETATM   28  C   UNL     1     -11.783  15.391  72.881  1.00  0.00    -0.401 C  
ENDBRANCH  22  27
ENDBRANCH  15  17
ENDBRANCH  14  15
ENDBRANCH   6  14
TORSDOF 6
ENDMDL
MODEL      219
REMARK 921   NORMALIZED FREE ENERGY PREDICTED BY IDOCK:   -3.06 KCAL/MOL
REMARK 922        TOTAL FREE ENERGY PREDICTED BY IDOCK:   -5.07 KCAL/MOL
REMARK 923 INTER-LIGAND FREE ENERGY PREDICTED BY IDOCK:   -5.48 KCAL/MOL
REMARK 924 INTRA-LIGAND FREE ENERGY PREDICTED BY IDOCK:    0.40 KCAL/MOL
REMARK 927      BINDING AFFINITY PREDICTED BY RF-SCORE:    0.00 PKD
ROOT
HETATM    1  C   UNL     1      -5.612   8.839  70.290  1.00  0.00    -0.027 C  
HETATM    2  C   UNL     1      -6.986   8.599  70.911  1.00  0.00    -0.064 C  
HETATM    3  C   UNL     1      -8.185   8.024  70.069  1.00  0.00    -0.118 C  
HETATM    4  N   UNL     1      -7.925   6.681  69.450  1.00  0.00    -0.113 NA 
HETATM    5  C   UNL     1      -9.466   7.907  71.009  1.00  0.00    -0.172 A  
HETATM    6  C   UNL     1      -8.662   9.082  69.002  1.00  0.00    -0.138 C  
HETATM    7  C   UNL     1      -9.452   8.244  72.377  1.00  0.00    -0.357 A  
HETATM    8  C   UNL     1     -11.823   7.276  71.287  1.00  0.00    -0.340 A  
HETATM    9  C   UNL     1      -6.806   6.556  68.521  1.00  0.00    -0.071 C  
HETATM   10  C   UNL     1      -7.855   5.575  70.408  1.00  0.00    -0.101 C  
HETATM   11  C   UNL     1     -10.583   8.079  73.183  1.00  0.00    -0.226 A  
HETATM   12  C   UNL     1     -11.765   7.589  72.641  1.00  0.00    -0.279 A  
HETATM   13  C   UNL     1     -10.690   7.431  70.481  1.00  0.00    -0.247 A  
ENDROOT
BRANCH   6  14
HETATM   14  O   UNL     1      -7.687   9.603  68.095  1.00  0.00    -0.085 OA 
BRANCH  14  15
HETATM   15  C   UNL     1      -7.366  10.905  68.304  1.00  0.00    -0.087 C  
HETATM   16  O   UNL     1      -6.260  11.353  68.555  1.00  0.00    -0.046 OA 
BRANCH  15  17
HETATM   17  C   UNL     1      -8.535  11.762  68.020  1.00  0.00    -0.157 A  
HETATM   18  C   UNL     1     -10.846  12.299  68.515  1.00  0.00    -0.237 A  
HETATM   19  C   UNL     1      -9.755  11.433  68.616  1.00  0.00    -0.182 A  
HETATM   20  C   UNL     1      -8.418  12.954  67.297  1.00  0.00    -0.197 A  
HETATM   21  C   UNL     1     -10.710  13.531  67.830  1.00  0.00    -0.252 A  
HETATM   22  C   UNL     1      -9.490  13.847  67.195  1.00  0.00    -0.246 A  
BRANCH  18  23
HETATM   23  O   UNL     1     -12.052  12.052  69.129  1.00  0.00    -0.274 OA 
HETATM   24  C   UNL     1     -12.116  10.898  69.962  1.00  0.00    -0.355 C  
ENDBRANCH  18  23
BRANCH  21  25
HETATM   25  O   UNL     1     -11.851  14.299  67.789  1.00  0.00    -0.359 OA 
HETATM   26  C   UNL     1     -11.863  15.498  68.555  1.00  0.00    -0.258 C  
ENDBRANCH  21  25
BRANCH  22  27
HETATM   27  O   UNL     1      -9.398  15.021  66.495  1.00  0.00    -0.246 OA 
HETATM   28  C   UNL     1      -8.481  16.008  66.955  1.00  0.00    -0.241 C  
ENDBRANCH  22  27
ENDBRANCH  15  17
ENDBRANCH  14  15
ENDBRANCH   6  14
TORSDOF 6
ENDMDL
MODEL      220
REMARK 921   NORMALIZED FREE ENERGY PREDICTED BY IDOCK:   -3.00 KCAL/MOL
REMARK 922        TOTAL FREE ENERGY PREDICTED BY IDOCK:   -4.99 KCAL/MOL
REMARK 923 INTER-LIGAND FREE ENERGY PREDICTED BY IDOCK:   -4.33 KCAL/MOL
REMARK 924 INTRA-LIGAND FREE ENERGY PREDICTED BY IDOCK:   -0.66 KCAL/MOL
REMARK 927      BINDING AFFINITY PREDICTED BY RF-SCORE:    0.00 PKD
ROOT
HETATM    1  C   UNL     1      -7.230  10.497  65.796  1.00  0.00    -0.135 C  
HETATM    2  C   UNL     1      -7.407   9.451  66.894  1.00  0.00    -0.090 C  
HETATM    3  C   UNL     1      -8.215   9.760  68.209  1.00  0.00    -0.105 C  
HETATM    4  N   UNL     1      -9.644  10.165  67.983  1.00  0.00    -0.144 NA 
HETATM    5  C   UNL     1      -8.197   8.468  69.141  1.00  0.00    -0.119 A  
HETATM    6  C   UNL     1      -7.439  10.809  69.094  1.00  0.00    -0.123 C  
HETATM    7  C   UNL     1      -7.574   7.260  68.772  1.00  0.00    -0.104 A  
HETATM    8  C   UNL     1      -8.883   7.367  71.226  1.00  0.00    -0.138 A  
HETATM    9  C   UNL     1      -9.903  11.351  67.173  1.00  0.00    -0.190 C  
HETATM   10  C   UNL     1     -10.512   9.084  67.509  1.00  0.00    -0.272 C  
HETATM   11  C   UNL     1      -7.624   6.130  69.595  1.00  0.00    -0.093 A  
HETATM   12  C   UNL     1      -8.284   6.181  70.817  1.00  0.00    -0.125 A  
HETATM   13  C   UNL     1      -8.843   8.495  70.400  1.00  0.00    -0.157 A  
ENDROOT
BRANCH   6  14
HETATM   14  O   UNL     1      -7.073  12.052  68.491  1.00  0.00    -0.084 OA 
BRANCH  14  15
HETATM   15  C   UNL     1      -6.542  12.958  69.352  1.00  0.00    -0.062 C  
HETATM   16  O   UNL     1      -5.842  12.720  70.322  1.00  0.00    -0.150 OA 
BRANCH  15  17
HETATM   17  C   UNL     1      -6.794  14.327  68.858  1.00  0.00    -0.104 A  
HETATM   18  C   UNL     1      -8.405  15.945  68.048  1.00  0.00    -0.160 A  
HETATM   19  C   UNL     1      -8.067  14.629  68.371  1.00  0.00    -0.147 A  
HETATM   20  C   UNL     1      -5.847  15.348  68.999  1.00  0.00    -0.099 A  
HETATM   21  C   UNL     1      -7.464  16.985  68.242  1.00  0.00    -0.207 A  
HETATM   22  C   UNL     1      -6.165  16.676  68.699  1.00  0.00    -0.142 A  
BRANCH  18  23
HETATM   23  O   UNL     1      -9.661  16.307  67.618  1.00  0.00    -0.224 OA 
HETATM   24  C   UNL     1     -10.537  15.246  67.251  1.00  0.00    -0.290 C  
ENDBRANCH  18  23
BRANCH  21  25
HETATM   25  O   UNL     1      -7.905  18.239  67.885  1.00  0.00    -0.239 OA 
HETATM   26  C   UNL     1      -7.563  18.710  66.586  1.00  0.00    -0.241 C  
ENDBRANCH  21  25
BRANCH  22  27
HETATM   27  O   UNL     1      -5.256  17.692  68.830  1.00  0.00    -0.154 OA 
HETATM   28  C   UNL     1      -5.369  18.556  69.957  1.00  0.00    -0.226 C  
ENDBRANCH  22  27
ENDBRANCH  15  17
ENDBRANCH  14  15
ENDBRANCH   6  14
TORSDOF 6
ENDMDL
MODEL      221
REMARK 921   NORMALIZED FREE ENERGY PREDICTED BY IDOCK:   -2.97 KCAL/MOL
REMARK 922        TOTAL FREE ENERGY PREDICTED BY IDOCK:   -4.95 KCAL/MOL
REMARK 923 INTER-LIGAND FREE ENERGY PREDICTED BY IDOCK:   -4.14 KCAL/MOL
REMARK 924 INTRA-LIGAND FREE ENERGY PREDICTED BY IDOCK:   -0.81 KCAL/MOL
REMARK 927      BINDING AFFINITY PREDICTED BY RF-SCORE:    0.00 PKD
ROOT
HETATM    1  C   UNL     1     -11.316  10.180  66.979  1.00  0.00     0.379 C  
HETATM    2  C   UNL     1     -11.326  11.581  67.585  1.00  0.00    -0.358 C  
HETATM    3  C   UNL     1     -10.004  12.416  67.759  1.00  0.00    -0.205 C  
HETATM    4  N   UNL     1      -9.255  12.675  66.483  1.00  0.00    -0.226 NA 
HETATM    5  C   UNL     1     -10.362  13.817  68.428  1.00  0.00    -0.247 A  
HETATM    6  C   UNL     1      -9.083  11.760  68.859  1.00  0.00     0.117 C  
HETATM    7  C   UNL     1     -11.679  14.203  68.750  1.00  0.00    -0.380 A  
HETATM    8  C   UNL     1      -9.620  16.005  69.257  1.00  0.00    -0.255 A  
HETATM    9  C   UNL     1      -8.797  11.525  65.709  1.00  0.00    -0.058 C  
HETATM   10  C   UNL     1      -9.919  13.610  65.571  1.00  0.00    -0.224 C  
HETATM   11  C   UNL     1     -11.961  15.463  69.288  1.00  0.00    -0.335 A  
HETATM   12  C   UNL     1     -10.934  16.366  69.534  1.00  0.00    -0.317 A  
HETATM   13  C   UNL     1      -9.336  14.750  68.710  1.00  0.00    -0.198 A  
ENDROOT
BRANCH   6  14
HETATM   14  O   UNL     1      -8.726  10.385  68.699  1.00  0.00    -0.124 OA 
BRANCH  14  15
HETATM   15  C   UNL     1      -9.171   9.571  69.690  1.00  0.00    -0.200 C  
HETATM   16  O   UNL     1      -9.871   9.888  70.637  1.00  0.00    -0.186 OA 
BRANCH  15  17
HETATM   17  C   UNL     1      -8.824   8.169  69.381  1.00  0.00    -0.143 A  
HETATM   18  C   UNL     1      -7.968   6.583  67.761  1.00  0.00    -0.115 A  
HETATM   19  C   UNL     1      -8.464   7.851  68.069  1.00  0.00    -0.123 A  
HETATM   20  C   UNL     1      -8.708   7.199  70.384  1.00  0.00    -0.150 A  
HETATM   21  C   UNL     1      -7.801   5.620  68.786  1.00  0.00    -0.096 A  
HETATM   22  C   UNL     1      -8.198   5.927  70.105  1.00  0.00    -0.118 A  
BRANCH  18  23
HETATM   23  O   UNL     1      -7.547   6.235  66.498  1.00  0.00    -0.091 OA 
HETATM   24  C   UNL     1      -8.567   5.979  65.537  1.00  0.00    -0.143 C  
ENDBRANCH  18  23
BRANCH  21  25
HETATM   25  O   UNL     1      -7.311   4.405  68.365  1.00  0.00    -0.063 OA 
HETATM   26  C   UNL     1      -8.231   3.324  68.267  1.00  0.00    -0.077 C  
ENDBRANCH  21  25
BRANCH  22  27
HETATM   27  O   UNL     1      -8.075   4.963  71.069  1.00  0.00    -0.088 OA 
HETATM   28  C   UNL     1      -8.225   5.351  72.431  1.00  0.00    -0.114 C  
ENDBRANCH  22  27
ENDBRANCH  15  17
ENDBRANCH  14  15
ENDBRANCH   6  14
TORSDOF 6
ENDMDL
MODEL      222
REMARK 921   NORMALIZED FREE ENERGY PREDICTED BY IDOCK:   -2.96 KCAL/MOL
REMARK 922        TOTAL FREE ENERGY PREDICTED BY IDOCK:   -4.93 KCAL/MOL
REMARK 923 INTER-LIGAND FREE ENERGY PREDICTED BY IDOCK:   -4.92 KCAL/MOL
REMARK 924 INTRA-LIGAND FREE ENERGY PREDICTED BY IDOCK:   -0.01 KCAL/MOL
REMARK 927      BINDING AFFINITY PREDICTED BY RF-SCORE:    0.00 PKD
ROOT
HETATM    1  C   UNL     1      -5.351  12.033  68.420  1.00  0.00    -0.050 C  
HETATM    2  C   UNL     1      -6.498  11.181  68.955  1.00  0.00    -0.066 C  
HETATM    3  C   UNL     1      -7.784  10.889  68.096  1.00  0.00    -0.103 C  
HETATM    4  N   UNL     1      -7.518  10.199  66.789  1.00  0.00    -0.102 NA 
HETATM    5  C   UNL     1      -8.782   9.987  68.950  1.00  0.00    -0.146 A  
HETATM    6  C   UNL     1      -8.626  12.209  67.905  1.00  0.00    -0.167 C  
HETATM    7  C   UNL     1      -8.484   9.523  70.247  1.00  0.00    -0.237 A  
HETATM    8  C   UNL     1     -10.910   8.773  69.108  1.00  0.00    -0.074 A  
HETATM    9  C   UNL     1      -6.644  10.863  65.826  1.00  0.00    -0.005 C  
HETATM   10  C   UNL     1      -7.088   8.805  66.917  1.00  0.00    -0.078 C  
HETATM   11  C   UNL     1      -9.363   8.689  70.945  1.00  0.00    -0.235 A  
HETATM   12  C   UNL     1     -10.571   8.308  70.374  1.00  0.00    -0.231 A  
HETATM   13  C   UNL     1     -10.029   9.599  68.404  1.00  0.00    -0.178 A  
ENDROOT
BRANCH   6  14
HETATM   14  O   UNL     1      -7.965  13.348  67.349  1.00  0.00    -0.167 OA 
BRANCH  14  15
HETATM   15  C   UNL     1      -8.755  14.445  67.217  1.00  0.00    -0.215 C  
HETATM   16  O   UNL     1      -9.855  14.493  66.693  1.00  0.00    -0.254 OA 
BRANCH  15  17
HETATM   17  C   UNL     1      -8.165  15.579  67.956  1.00  0.00    -0.146 A  
HETATM   18  C   UNL     1      -6.537  16.335  69.585  1.00  0.00    -0.175 A  
HETATM   19  C   UNL     1      -7.246  15.300  68.970  1.00  0.00    -0.151 A  
HETATM   20  C   UNL     1      -8.392  16.907  67.575  1.00  0.00    -0.201 A  
HETATM   21  C   UNL     1      -6.728  17.672  69.161  1.00  0.00    -0.243 A  
HETATM   22  C   UNL     1      -7.683  17.960  68.162  1.00  0.00    -0.256 A  
BRANCH  18  23
HETATM   23  O   UNL     1      -5.581  16.112  70.549  1.00  0.00    -0.169 OA 
HETATM   24  C   UNL     1      -5.580  14.824  71.157  1.00  0.00    -0.095 C  
ENDBRANCH  18  23
BRANCH  21  25
HETATM   25  O   UNL     1      -5.982  18.607  69.841  1.00  0.00    -0.245 OA 
HETATM   26  C   UNL     1      -6.434  19.956  69.812  1.00  0.00    -0.356 C  
ENDBRANCH  21  25
BRANCH  22  27
HETATM   27  O   UNL     1      -7.887  19.266  67.804  1.00  0.00    -0.264 OA 
HETATM   28  C   UNL     1      -9.029  19.576  67.012  1.00  0.00    -0.308 C  
ENDBRANCH  22  27
ENDBRANCH  15  17
ENDBRANCH  14  15
ENDBRANCH   6  14
TORSDOF 6
ENDMDL
MODEL      223
REMARK 921   NORMALIZED FREE ENERGY PREDICTED BY IDOCK:   -2.90 KCAL/MOL
REMARK 922        TOTAL FREE ENERGY PREDICTED BY IDOCK:   -4.85 KCAL/MOL
REMARK 923 INTER-LIGAND FREE ENERGY PREDICTED BY IDOCK:   -4.31 KCAL/MOL
REMARK 924 INTRA-LIGAND FREE ENERGY PREDICTED BY IDOCK:   -0.54 KCAL/MOL
REMARK 927      BINDING AFFINITY PREDICTED BY RF-SCORE:    0.00 PKD
ROOT
HETATM    1  C   UNL     1     -10.404   7.954  73.378  1.00  0.00    -0.174 C  
HETATM    2  C   UNL     1      -9.907   8.631  72.104  1.00  0.00    -0.387 C  
HETATM    3  C   UNL     1     -10.654   8.461  70.730  1.00  0.00    -0.207 C  
HETATM    4  N   UNL     1     -12.087   8.912  70.738  1.00  0.00    -0.178 NA 
HETATM    5  C   UNL     1      -9.872   9.284  69.611  1.00  0.00    -0.196 A  
HETATM    6  C   UNL     1     -10.505   6.981  70.206  1.00  0.00    -0.208 C  
HETATM    7  C   UNL     1      -8.724  10.054  69.883  1.00  0.00    -0.169 A  
HETATM    8  C   UNL     1      -9.699  10.021  67.276  1.00  0.00    -0.206 A  
HETATM    9  C   UNL     1     -13.005   8.269  71.674  1.00  0.00    -0.337 C  
HETATM   10  C   UNL     1     -12.265  10.362  70.842  1.00  0.00    -0.383 C  
HETATM   11  C   UNL     1      -8.095  10.805  68.884  1.00  0.00    -0.145 A  
HETATM   12  C   UNL     1      -8.585  10.795  67.585  1.00  0.00    -0.123 A  
HETATM   13  C   UNL     1     -10.336   9.277  68.274  1.00  0.00    -0.257 A  
ENDROOT
BRANCH   6  14
HETATM   14  O   UNL     1     -10.915   5.921  71.072  1.00  0.00    -0.277 OA 
BRANCH  14  15
HETATM   15  C   UNL     1      -9.894   5.172  71.562  1.00  0.00    -0.176 C  
HETATM   16  O   UNL     1      -9.795   4.722  72.691  1.00  0.00    -0.142 OA 
BRANCH  15  17
HETATM   17  C   UNL     1      -8.963   4.820  70.471  1.00  0.00    -0.159 A  
HETATM   18  C   UNL     1      -6.701   4.905  69.605  1.00  0.00    -0.051 A  
HETATM   19  C   UNL     1      -7.666   5.338  70.517  1.00  0.00    -0.079 A  
HETATM   20  C   UNL     1      -9.297   3.880  69.489  1.00  0.00    -0.246 A  
HETATM   21  C   UNL     1      -7.026   3.915  68.647  1.00  0.00    -0.047 A  
HETATM   22  C   UNL     1      -8.345   3.418  68.575  1.00  0.00    -0.077 A  
BRANCH  18  23
HETATM   23  O   UNL     1      -5.396   5.340  69.640  1.00  0.00    -0.003 OA 
HETATM   24  C   UNL     1      -5.197   6.751  69.662  1.00  0.00    -0.014 C  
ENDBRANCH  18  23
BRANCH  21  25
HETATM   25  O   UNL     1      -5.999   3.571  67.798  1.00  0.00    -0.026 OA 
HETATM   26  C   UNL     1      -6.023   4.115  66.484  1.00  0.00    -0.027 C  
ENDBRANCH  21  25
BRANCH  22  27
HETATM   27  O   UNL     1      -8.649   2.498  67.607  1.00  0.00    -0.086 OA 
HETATM   28  C   UNL     1      -9.712   1.585  67.856  1.00  0.00     0.069 C  
ENDBRANCH  22  27
ENDBRANCH  15  17
ENDBRANCH  14  15
ENDBRANCH   6  14
TORSDOF 6
ENDMDL
MODEL      224
REMARK 921   NORMALIZED FREE ENERGY PREDICTED BY IDOCK:   -2.85 KCAL/MOL
REMARK 922        TOTAL FREE ENERGY PREDICTED BY IDOCK:   -4.78 KCAL/MOL
REMARK 923 INTER-LIGAND FREE ENERGY PREDICTED BY IDOCK:   -3.85 KCAL/MOL
REMARK 924 INTRA-LIGAND FREE ENERGY PREDICTED BY IDOCK:   -0.94 KCAL/MOL
REMARK 927      BINDING AFFINITY PREDICTED BY RF-SCORE:    0.00 PKD
ROOT
HETATM    1  C   UNL     1     -11.466   6.359  69.170  1.00  0.00    -0.265 C  
HETATM    2  C   UNL     1     -10.061   6.949  69.252  1.00  0.00    -0.178 C  
HETATM    3  C   UNL     1      -8.844   6.299  68.496  1.00  0.00    -0.114 C  
HETATM    4  N   UNL     1      -9.014   6.203  67.007  1.00  0.00    -0.113 NA 
HETATM    5  C   UNL     1      -7.532   7.150  68.801  1.00  0.00    -0.102 A  
HETATM    6  C   UNL     1      -8.482   4.905  69.139  1.00  0.00    -0.081 C  
HETATM    7  C   UNL     1      -7.535   8.313  69.596  1.00  0.00    -0.081 A  
HETATM    8  C   UNL     1      -5.126   7.503  68.460  1.00  0.00    -0.025 A  
HETATM    9  C   UNL     1     -10.146   5.438  66.491  1.00  0.00    -0.216 C  
HETATM   10  C   UNL     1      -8.971   7.489  66.308  1.00  0.00    -0.167 C  
HETATM   11  C   UNL     1      -6.372   9.063  69.799  1.00  0.00    -0.038 A  
HETATM   12  C   UNL     1      -5.171   8.664  69.226  1.00  0.00    -0.035 A  
HETATM   13  C   UNL     1      -6.290   6.757  68.248  1.00  0.00    -0.031 A  
ENDROOT
BRANCH   6  14
HETATM   14  O   UNL     1      -9.520   3.927  69.242  1.00  0.00    -0.166 OA 
BRANCH  14  15
HETATM   15  C   UNL     1      -9.517   3.229  70.406  1.00  0.00    -0.165 C  
HETATM   16  O   UNL     1      -9.628   2.021  70.533  1.00  0.00    -0.119 OA 
BRANCH  15  17
HETATM   17  C   UNL     1      -9.188   4.129  71.530  1.00  0.00    -0.194 A  
HETATM   18  C   UNL     1      -7.467   5.224  72.838  1.00  0.00    -0.096 A  
HETATM   19  C   UNL     1      -7.847   4.264  71.897  1.00  0.00    -0.084 A  
HETATM   20  C   UNL     1     -10.155   4.944  72.130  1.00  0.00    -0.250 A  
HETATM   21  C   UNL     1      -8.438   6.085  73.403  1.00  0.00    -0.116 A  
HETATM   22  C   UNL     1      -9.798   5.924  73.061  1.00  0.00    -0.167 A  
BRANCH  18  23
HETATM   23  O   UNL     1      -6.155   5.438  73.194  1.00  0.00    -0.039 OA 
HETATM   24  C   UNL     1      -5.295   5.944  72.177  1.00  0.00    -0.022 C  
ENDBRANCH  18  23
BRANCH  21  25
HETATM   25  O   UNL     1      -7.949   6.985  74.322  1.00  0.00    -0.115 OA 
HETATM   26  C   UNL     1      -7.763   8.328  73.890  1.00  0.00    -0.172 C  
ENDBRANCH  21  25
BRANCH  22  27
HETATM   27  O   UNL     1     -10.726   6.735  73.660  1.00  0.00    -0.316 OA 
HETATM   28  C   UNL     1     -11.275   7.805  72.898  1.00  0.00    -0.376 C  
ENDBRANCH  22  27
ENDBRANCH  15  17
ENDBRANCH  14  15
ENDBRANCH   6  14
TORSDOF 6
ENDMDL
MODEL      225
REMARK 921   NORMALIZED FREE ENERGY PREDICTED BY IDOCK:   -2.83 KCAL/MOL
REMARK 922        TOTAL FREE ENERGY PREDICTED BY IDOCK:   -4.76 KCAL/MOL
REMARK 923 INTER-LIGAND FREE ENERGY PREDICTED BY IDOCK:   -5.28 KCAL/MOL
REMARK 924 INTRA-LIGAND FREE ENERGY PREDICTED BY IDOCK:    0.52 KCAL/MOL
REMARK 927      BINDING AFFINITY PREDICTED BY RF-SCORE:    0.00 PKD
ROOT
HETATM    1  C   UNL     1     -10.422   7.956  73.377  1.00  0.00    -0.137 C  
HETATM    2  C   UNL     1      -9.980   8.608  72.070  1.00  0.00    -0.399 C  
HETATM    3  C   UNL     1     -10.868   8.544  70.772  1.00  0.00    -0.231 C  
HETATM    4  N   UNL     1     -12.240   9.135  70.924  1.00  0.00    -0.236 NA 
HETATM    5  C   UNL     1     -10.115   9.308  69.594  1.00  0.00    -0.208 A  
HETATM    6  C   UNL     1     -10.921   7.068  70.218  1.00  0.00    -0.271 C  
HETATM    7  C   UNL     1      -8.874   9.953  69.763  1.00  0.00    -0.229 A  
HETATM    8  C   UNL     1     -10.089  10.075  67.261  1.00  0.00    -0.259 A  
HETATM    9  C   UNL     1     -13.126   8.568  71.935  1.00  0.00    -0.362 C  
HETATM   10  C   UNL     1     -12.258  10.594  71.061  1.00  0.00    -0.393 C  
HETATM   11  C   UNL     1      -8.268  10.659  68.718  1.00  0.00    -0.142 A  
HETATM   12  C   UNL     1      -8.878  10.726  67.471  1.00  0.00    -0.128 A  
HETATM   13  C   UNL     1     -10.701   9.377  68.307  1.00  0.00    -0.220 A  
ENDROOT
BRANCH   6  14
HETATM   14  O   UNL     1     -11.352   6.035  71.107  1.00  0.00    -0.292 OA 
BRANCH  14  15
HETATM   15  C   UNL     1     -10.399   5.116  71.404  1.00  0.00    -0.203 C  
HETATM   16  O   UNL     1     -10.170   4.627  72.497  1.00  0.00    -0.173 OA 
BRANCH  15  17
HETATM   17  C   UNL     1      -9.754   4.644  70.161  1.00  0.00    -0.285 A  
HETATM   18  C   UNL     1      -8.566   2.866  69.022  1.00  0.00    -0.074 A  
HETATM   19  C   UNL     1      -9.050   3.438  70.200  1.00  0.00    -0.203 A  
HETATM   20  C   UNL     1      -9.952   5.290  68.936  1.00  0.00    -0.250 A  
HETATM   21  C   UNL     1      -8.813   3.493  67.777  1.00  0.00    -0.121 A  
HETATM   22  C   UNL     1      -9.493   4.729  67.739  1.00  0.00    -0.146 A  
BRANCH  18  23
HETATM   23  O   UNL     1      -7.914   1.654  68.996  1.00  0.00    -0.045 OA 
HETATM   24  C   UNL     1      -6.817   1.504  69.892  1.00  0.00    -0.033 C  
ENDBRANCH  18  23
BRANCH  21  25
HETATM   25  O   UNL     1      -8.284   2.842  66.686  1.00  0.00    -0.083 OA 
HETATM   26  C   UNL     1      -7.087   3.367  66.125  1.00  0.00    -0.063 C  
ENDBRANCH  21  25
BRANCH  22  27
HETATM   27  O   UNL     1      -9.676   5.342  66.529  1.00  0.00    -0.143 OA 
HETATM   28  C   UNL     1     -10.796   6.208  66.376  1.00  0.00     0.054 C  
ENDBRANCH  22  27
ENDBRANCH  15  17
ENDBRANCH  14  15
ENDBRANCH   6  14
TORSDOF 6
ENDMDL
MODEL      226
REMARK 921   NORMALIZED FREE ENERGY PREDICTED BY IDOCK:   -2.80 KCAL/MOL
REMARK 922        TOTAL FREE ENERGY PREDICTED BY IDOCK:   -4.71 KCAL/MOL
REMARK 923 INTER-LIGAND FREE ENERGY PREDICTED BY IDOCK:   -6.67 KCAL/MOL
REMARK 924 INTRA-LIGAND FREE ENERGY PREDICTED BY IDOCK:    1.96 KCAL/MOL
REMARK 927      BINDING AFFINITY PREDICTED BY RF-SCORE:    0.00 PKD
ROOT
HETATM    1  C   UNL     1      -9.861  11.181  65.749  1.00  0.00    -0.279 C  
HETATM    2  C   UNL     1     -10.586  11.571  67.034  1.00  0.00    -0.277 C  
HETATM    3  C   UNL     1     -10.701  13.071  67.497  1.00  0.00    -0.238 C  
HETATM    4  N   UNL     1     -11.382  13.978  66.512  1.00  0.00    -0.325 NA 
HETATM    5  C   UNL     1     -11.503  13.127  68.873  1.00  0.00    -0.343 A  
HETATM    6  C   UNL     1      -9.287  13.622  67.924  1.00  0.00    -0.206 C  
HETATM    7  C   UNL     1     -12.033  11.984  69.503  1.00  0.00    -0.346 A  
HETATM    8  C   UNL     1     -12.461  14.462  70.697  1.00  0.00    -0.419 A  
HETATM    9  C   UNL     1     -10.801  14.106  65.179  1.00  0.00    -0.372 C  
HETATM   10  C   UNL     1     -12.821  13.742  66.366  1.00  0.00     0.085 C  
HETATM   11  C   UNL     1     -12.777  12.079  70.684  1.00  0.00    -0.163 A  
HETATM   12  C   UNL     1     -12.996  13.316  71.277  1.00  0.00    -0.353 A  
HETATM   13  C   UNL     1     -11.725  14.370  69.511  1.00  0.00    -0.362 A  
ENDROOT
BRANCH   6  14
HETATM   14  O   UNL     1      -8.218  13.525  66.979  1.00  0.00    -0.142 OA 
BRANCH  14  15
HETATM   15  C   UNL     1      -7.168  14.346  67.235  1.00  0.00     0.000 C  
HETATM   16  O   UNL     1      -5.986  14.045  67.226  1.00  0.00    -0.310 OA 
BRANCH  15  17
HETATM   17  C   UNL     1      -7.641  15.739  67.371  1.00  0.00    -0.220 A  
HETATM   18  C   UNL     1      -7.792  17.952  66.396  1.00  0.00    -0.272 A  
HETATM   19  C   UNL     1      -7.242  16.669  66.408  1.00  0.00    -0.168 A  
HETATM   20  C   UNL     1      -8.580  16.108  68.341  1.00  0.00    -0.189 A  
HETATM   21  C   UNL     1      -8.782  18.307  67.345  1.00  0.00    -0.256 A  
HETATM   22  C   UNL     1      -9.160  17.381  68.340  1.00  0.00    -0.274 A  
BRANCH  18  23
HETATM   23  O   UNL     1      -7.477  18.889  65.439  1.00  0.00    -0.452 OA 
HETATM   24  C   UNL     1      -6.106  19.267  65.348  1.00  0.00    -0.237 C  
ENDBRANCH  18  23
BRANCH  21  25
HETATM   25  O   UNL     1      -9.247  19.598  67.241  1.00  0.00    -0.307 OA 
HETATM   26  C   UNL     1      -9.936  20.139  68.362  1.00  0.00    -0.282 C  
ENDBRANCH  21  25
BRANCH  22  27
HETATM   27  O   UNL     1     -10.081  17.763  69.278  1.00  0.00    -0.281 OA 
HETATM   28  C   UNL     1     -10.485  16.807  70.253  1.00  0.00     0.319 C  
ENDBRANCH  22  27
ENDBRANCH  15  17
ENDBRANCH  14  15
ENDBRANCH   6  14
TORSDOF 6
ENDMDL
MODEL      227
REMARK 921   NORMALIZED FREE ENERGY PREDICTED BY IDOCK:   -2.79 KCAL/MOL
REMARK 922        TOTAL FREE ENERGY PREDICTED BY IDOCK:   -4.71 KCAL/MOL
REMARK 923 INTER-LIGAND FREE ENERGY PREDICTED BY IDOCK:   -4.16 KCAL/MOL
REMARK 924 INTRA-LIGAND FREE ENERGY PREDICTED BY IDOCK:   -0.55 KCAL/MOL
REMARK 927      BINDING AFFINITY PREDICTED BY RF-SCORE:    0.00 PKD
ROOT
HETATM    1  C   UNL     1     -10.814   7.600  73.096  1.00  0.00    -0.440 C  
HETATM    2  C   UNL     1     -10.283   6.446  72.251  1.00  0.00    -0.205 C  
HETATM    3  C   UNL     1      -8.770   6.360  71.825  1.00  0.00    -0.132 C  
HETATM    4  N   UNL     1      -7.800   6.331  72.970  1.00  0.00    -0.103 NA 
HETATM    5  C   UNL     1      -8.555   5.049  70.946  1.00  0.00    -0.129 A  
HETATM    6  C   UNL     1      -8.427   7.501  70.791  1.00  0.00    -0.126 C  
HETATM    7  C   UNL     1      -9.587   4.131  70.665  1.00  0.00    -0.264 A  
HETATM    8  C   UNL     1      -7.040   3.588  69.681  1.00  0.00    -0.042 A  
HETATM    9  C   UNL     1      -7.798   7.456  73.900  1.00  0.00    -0.119 C  
HETATM   10  C   UNL     1      -7.819   5.090  73.749  1.00  0.00    -0.099 C  
HETATM   11  C   UNL     1      -9.347   2.963  69.933  1.00  0.00    -0.213 A  
HETATM   12  C   UNL     1      -8.075   2.688  69.448  1.00  0.00    -0.063 A  
HETATM   13  C   UNL     1      -7.275   4.751  70.420  1.00  0.00    -0.050 A  
ENDROOT
BRANCH   6  14
HETATM   14  O   UNL     1      -8.711   8.851  71.168  1.00  0.00    -0.189 OA 
BRANCH  14  15
HETATM   15  C   UNL     1      -9.506   9.521  70.295  1.00  0.00    -0.259 C  
HETATM   16  O   UNL     1     -10.611   9.983  70.521  1.00  0.00    -0.292 OA 
BRANCH  15  17
HETATM   17  C   UNL     1      -8.771   9.771  69.038  1.00  0.00    -0.148 A  
HETATM   18  C   UNL     1      -8.865  10.021  66.629  1.00  0.00    -0.132 A  
HETATM   19  C   UNL     1      -9.463   9.637  67.831  1.00  0.00    -0.148 A  
HETATM   20  C   UNL     1      -7.464  10.269  69.033  1.00  0.00    -0.097 A  
HETATM   21  C   UNL     1      -7.563  10.577  66.632  1.00  0.00    -0.120 A  
HETATM   22  C   UNL     1      -6.849  10.678  67.845  1.00  0.00    -0.073 A  
BRANCH  18  23
HETATM   23  O   UNL     1      -9.520   9.964  65.421  1.00  0.00    -0.216 OA 
HETATM   24  C   UNL     1     -10.201  11.146  65.010  1.00  0.00    -0.296 C  
ENDBRANCH  18  23
BRANCH  21  25
HETATM   25  O   UNL     1      -7.074  10.913  65.391  1.00  0.00     0.007 OA 
HETATM   26  C   UNL     1      -6.349   9.917  64.678  1.00  0.00    -0.117 C  
ENDBRANCH  21  25
BRANCH  22  27
HETATM   27  O   UNL     1      -5.571  11.170  67.817  1.00  0.00    -0.043 OA 
HETATM   28  C   UNL     1      -5.337  12.464  68.363  1.00  0.00    -0.054 C  
ENDBRANCH  22  27
ENDBRANCH  15  17
ENDBRANCH  14  15
ENDBRANCH   6  14
TORSDOF 6
ENDMDL
MODEL      228
REMARK 921   NORMALIZED FREE ENERGY PREDICTED BY IDOCK:   -2.79 KCAL/MOL
REMARK 922        TOTAL FREE ENERGY PREDICTED BY IDOCK:   -4.70 KCAL/MOL
REMARK 923 INTER-LIGAND FREE ENERGY PREDICTED BY IDOCK:   -3.99 KCAL/MOL
REMARK 924 INTRA-LIGAND FREE ENERGY PREDICTED BY IDOCK:   -0.72 KCAL/MOL
REMARK 927      BINDING AFFINITY PREDICTED BY RF-SCORE:    0.00 PKD
ROOT
HETATM    1  C   UNL     1     -10.423  10.228  67.919  1.00  0.00    -0.253 C  
HETATM    2  C   UNL     1     -10.111   9.571  69.260  1.00  0.00    -0.203 C  
HETATM    3  C   UNL     1      -8.871   8.620  69.448  1.00  0.00    -0.144 C  
HETATM    4  N   UNL     1      -7.546   9.254  69.138  1.00  0.00    -0.072 NA 
HETATM    5  C   UNL     1      -8.843   8.099  70.953  1.00  0.00    -0.156 A  
HETATM    6  C   UNL     1      -9.084   7.279  68.646  1.00  0.00    -0.133 C  
HETATM    7  C   UNL     1      -9.783   8.496  71.924  1.00  0.00    -0.358 A  
HETATM    8  C   UNL     1      -7.747   6.763  72.698  1.00  0.00    -0.099 A  
HETATM    9  C   UNL     1      -7.333   9.782  67.794  1.00  0.00    -0.089 C  
HETATM   10  C   UNL     1      -7.119  10.269  70.104  1.00  0.00    -0.148 C  
HETATM   11  C   UNL     1      -9.695   8.059  73.250  1.00  0.00    -0.308 A  
HETATM   12  C   UNL     1      -8.675   7.200  73.638  1.00  0.00    -0.192 A  
HETATM   13  C   UNL     1      -7.828   7.207  71.374  1.00  0.00    -0.097 A  
ENDROOT
BRANCH   6  14
HETATM   14  O   UNL     1      -9.369   7.374  67.248  1.00  0.00    -0.127 OA 
BRANCH  14  15
HETATM   15  C   UNL     1     -10.117   6.353  66.758  1.00  0.00    -0.179 C  
HETATM   16  O   UNL     1     -11.284   6.111  67.020  1.00  0.00    -0.290 OA 
BRANCH  15  17
HETATM   17  C   UNL     1      -9.365   5.640  65.705  1.00  0.00    -0.078 A  
HETATM   18  C   UNL     1      -9.282   3.780  64.154  1.00  0.00    -0.140 A  
HETATM   19  C   UNL     1      -9.859   4.412  65.258  1.00  0.00    -0.209 A  
HETATM   20  C   UNL     1      -8.271   6.223  65.057  1.00  0.00    -0.132 A  
HETATM   21  C   UNL     1      -8.210   4.397  63.466  1.00  0.00    -0.099 A  
HETATM   22  C   UNL     1      -7.686   5.619  63.939  1.00  0.00    -0.095 A  
BRANCH  18  23
HETATM   23  O   UNL     1      -9.763   2.599  63.638  1.00  0.00    -0.110 OA 
HETATM   24  C   UNL     1     -11.093   2.624  63.128  1.00  0.00    -0.140 C  
ENDBRANCH  18  23
BRANCH  21  25
HETATM   25  O   UNL     1      -7.718   3.680  62.399  1.00  0.00    -0.058 OA 
HETATM   26  C   UNL     1      -6.622   2.807  62.643  1.00  0.00    -0.022 C  
ENDBRANCH  21  25
BRANCH  22  27
HETATM   27  O   UNL     1      -6.616   6.171  63.287  1.00  0.00    -0.037 OA 
HETATM   28  C   UNL     1      -5.421   6.398  64.028  1.00  0.00    -0.018 C  
ENDBRANCH  22  27
ENDBRANCH  15  17
ENDBRANCH  14  15
ENDBRANCH   6  14
TORSDOF 6
ENDMDL
MODEL      229
REMARK 921   NORMALIZED FREE ENERGY PREDICTED BY IDOCK:   -2.78 KCAL/MOL
REMARK 922        TOTAL FREE ENERGY PREDICTED BY IDOCK:   -4.69 KCAL/MOL
REMARK 923 INTER-LIGAND FREE ENERGY PREDICTED BY IDOCK:   -4.14 KCAL/MOL
REMARK 924 INTRA-LIGAND FREE ENERGY PREDICTED BY IDOCK:   -0.55 KCAL/MOL
REMARK 927      BINDING AFFINITY PREDICTED BY RF-SCORE:    0.00 PKD
ROOT
HETATM    1  C   UNL     1     -10.512   9.531  70.425  1.00  0.00    -0.336 C  
HETATM    2  C   UNL     1     -10.503   8.216  71.199  1.00  0.00    -0.238 C  
HETATM    3  C   UNL     1      -9.306   7.201  71.092  1.00  0.00    -0.157 C  
HETATM    4  N   UNL     1      -7.972   7.764  71.492  1.00  0.00    -0.089 NA 
HETATM    5  C   UNL     1      -9.617   5.937  72.010  1.00  0.00    -0.167 A  
HETATM    6  C   UNL     1      -9.265   6.553  69.654  1.00  0.00    -0.143 C  
HETATM    7  C   UNL     1     -10.778   5.825  72.800  1.00  0.00    -0.278 A  
HETATM    8  C   UNL     1      -8.916   3.758  72.901  1.00  0.00    -0.109 A  
HETATM    9  C   UNL     1      -7.466   8.920  70.760  1.00  0.00    -0.099 C  
HETATM   10  C   UNL     1      -7.832   8.029  72.926  1.00  0.00    -0.142 C  
HETATM   11  C   UNL     1     -10.992   4.723  73.635  1.00  0.00    -0.391 A  
HETATM   12  C   UNL     1     -10.059   3.695  73.691  1.00  0.00    -0.188 A  
HETATM   13  C   UNL     1      -8.696   4.864  72.073  1.00  0.00    -0.135 A  
ENDROOT
BRANCH   6  14
HETATM   14  O   UNL     1      -9.210   7.431  68.527  1.00  0.00    -0.143 OA 
BRANCH  14  15
HETATM   15  C   UNL     1     -10.019   7.072  67.498  1.00  0.00    -0.156 C  
HETATM   16  O   UNL     1     -11.090   7.575  67.201  1.00  0.00    -0.216 OA 
BRANCH  15  17
HETATM   17  C   UNL     1      -9.340   6.069  66.653  1.00  0.00    -0.156 A  
HETATM   18  C   UNL     1      -7.831   5.632  64.808  1.00  0.00    -0.112 A  
HETATM   19  C   UNL     1      -8.625   6.517  65.541  1.00  0.00    -0.109 A  
HETATM   20  C   UNL     1      -9.277   4.719  67.017  1.00  0.00    -0.133 A  
HETATM   21  C   UNL     1      -7.725   4.278  65.210  1.00  0.00    -0.085 A  
HETATM   22  C   UNL     1      -8.476   3.815  66.311  1.00  0.00    -0.110 A  
BRANCH  18  23
HETATM   23  O   UNL     1      -7.063   6.031  63.739  1.00  0.00    -0.050 OA 
HETATM   24  C   UNL     1      -6.473   7.324  63.828  1.00  0.00    -0.048 C  
ENDBRANCH  18  23
BRANCH  21  25
HETATM   25  O   UNL     1      -6.921   3.498  64.411  1.00  0.00    -0.050 OA 
HETATM   26  C   UNL     1      -7.558   2.675  63.441  1.00  0.00    -0.063 C  
ENDBRANCH  21  25
BRANCH  22  27
HETATM   27  O   UNL     1      -8.398   2.490  66.650  1.00  0.00    -0.083 OA 
HETATM   28  C   UNL     1      -9.249   2.009  67.685  1.00  0.00    -0.153 C  
ENDBRANCH  22  27
ENDBRANCH  15  17
ENDBRANCH  14  15
ENDBRANCH   6  14
TORSDOF 6
ENDMDL
MODEL      230
REMARK 921   NORMALIZED FREE ENERGY PREDICTED BY IDOCK:   -2.64 KCAL/MOL
REMARK 922        TOTAL FREE ENERGY PREDICTED BY IDOCK:   -4.50 KCAL/MOL
REMARK 923 INTER-LIGAND FREE ENERGY PREDICTED BY IDOCK:   -4.03 KCAL/MOL
REMARK 924 INTRA-LIGAND FREE ENERGY PREDICTED BY IDOCK:   -0.47 KCAL/MOL
REMARK 927      BINDING AFFINITY PREDICTED BY RF-SCORE:    0.00 PKD
ROOT
HETATM    1  C   UNL     1      -7.568   7.085  64.146  1.00  0.00    -0.112 C  
HETATM    2  C   UNL     1      -8.308   8.275  64.749  1.00  0.00    -0.129 C  
HETATM    3  C   UNL     1      -7.806   8.984  66.061  1.00  0.00    -0.102 C  
HETATM    4  N   UNL     1      -6.415   9.543  65.975  1.00  0.00    -0.072 NA 
HETATM    5  C   UNL     1      -8.806  10.171  66.422  1.00  0.00    -0.158 A  
HETATM    6  C   UNL     1      -7.980   8.026  67.302  1.00  0.00    -0.121 C  
HETATM    7  C   UNL     1      -9.921  10.507  65.630  1.00  0.00    -0.332 A  
HETATM    8  C   UNL     1      -9.416  12.033  67.902  1.00  0.00    -0.196 A  
HETATM    9  C   UNL     1      -5.321   8.623  65.680  1.00  0.00    -0.034 C  
HETATM   10  C   UNL     1      -6.284  10.710  65.099  1.00  0.00    -0.023 C  
HETATM   11  C   UNL     1     -10.747  11.590  65.950  1.00  0.00    -0.325 A  
HETATM   12  C   UNL     1     -10.491  12.356  67.080  1.00  0.00    -0.236 A  
HETATM   13  C   UNL     1      -8.583  10.957  67.577  1.00  0.00    -0.127 A  
ENDROOT
BRANCH   6  14
HETATM   14  O   UNL     1      -7.380   6.731  67.236  1.00  0.00    -0.086 OA 
BRANCH  14  15
HETATM   15  C   UNL     1      -6.589   6.425  68.295  1.00  0.00    -0.066 C  
HETATM   16  O   UNL     1      -5.382   6.247  68.279  1.00  0.00    -0.007 OA 
BRANCH  15  17
HETATM   17  C   UNL     1      -7.374   6.496  69.545  1.00  0.00    -0.091 A  
HETATM   18  C   UNL     1      -9.464   6.027  70.676  1.00  0.00    -0.168 A  
HETATM   19  C   UNL     1      -8.722   6.136  69.498  1.00  0.00    -0.130 A  
HETATM   20  C   UNL     1      -6.774   6.772  70.779  1.00  0.00    -0.054 A  
HETATM   21  C   UNL     1      -8.842   6.253  71.928  1.00  0.00    -0.139 A  
HETATM   22  C   UNL     1      -7.490   6.653  71.974  1.00  0.00    -0.094 A  
BRANCH  18  23
HETATM   23  O   UNL     1     -10.779   5.622  70.693  1.00  0.00    -0.270 OA 
HETATM   24  C   UNL     1     -11.707   6.447  69.994  1.00  0.00    -0.275 C  
ENDBRANCH  18  23
BRANCH  21  25
HETATM   25  O   UNL     1      -9.671   6.122  73.019  1.00  0.00    -0.157 OA 
HETATM   26  C   UNL     1     -10.285   7.303  73.522  1.00  0.00    -0.358 C  
ENDBRANCH  21  25
BRANCH  22  27
HETATM   27  O   UNL     1      -6.923   6.915  73.193  1.00  0.00    -0.074 OA 
HETATM   28  C   UNL     1      -6.393   8.217  73.422  1.00  0.00    -0.095 C  
ENDBRANCH  22  27
ENDBRANCH  15  17
ENDBRANCH  14  15
ENDBRANCH   6  14
TORSDOF 6
ENDMDL
MODEL      231
REMARK 921   NORMALIZED FREE ENERGY PREDICTED BY IDOCK:   -2.57 KCAL/MOL
REMARK 922        TOTAL FREE ENERGY PREDICTED BY IDOCK:   -4.40 KCAL/MOL
REMARK 923 INTER-LIGAND FREE ENERGY PREDICTED BY IDOCK:   -3.92 KCAL/MOL
REMARK 924 INTRA-LIGAND FREE ENERGY PREDICTED BY IDOCK:   -0.49 KCAL/MOL
REMARK 927      BINDING AFFINITY PREDICTED BY RF-SCORE:    0.00 PKD
ROOT
HETATM    1  C   UNL     1      -9.570   5.731  66.004  1.00  0.00    -0.079 C  
HETATM    2  C   UNL     1      -8.511   5.978  67.075  1.00  0.00    -0.108 C  
HETATM    3  C   UNL     1      -8.476   7.310  67.913  1.00  0.00    -0.118 C  
HETATM    4  N   UNL     1      -9.727   7.588  68.695  1.00  0.00    -0.152 NA 
HETATM    5  C   UNL     1      -7.249   7.250  68.927  1.00  0.00    -0.090 A  
HETATM    6  C   UNL     1      -8.075   8.525  66.992  1.00  0.00    -0.103 C  
HETATM    7  C   UNL     1      -6.392   6.136  69.036  1.00  0.00    -0.041 A  
HETATM    8  C   UNL     1      -5.944   8.308  70.718  1.00  0.00    -0.032 A  
HETATM    9  C   UNL     1     -10.983   7.715  67.963  1.00  0.00     0.107 C  
HETATM   10  C   UNL     1      -9.944   6.688  69.831  1.00  0.00    -0.171 C  
HETATM   11  C   UNL     1      -5.356   6.099  69.975  1.00  0.00    -0.013 A  
HETATM   12  C   UNL     1      -5.137   7.180  70.820  1.00  0.00    -0.023 A  
HETATM   13  C   UNL     1      -6.987   8.343  69.786  1.00  0.00    -0.047 A  
ENDROOT
BRANCH   6  14
HETATM   14  O   UNL     1      -8.852   8.757  65.815  1.00  0.00    -0.172 OA 
BRANCH  14  15
HETATM   15  C   UNL     1      -8.398   9.770  65.033  1.00  0.00    -0.145 C  
HETATM   16  O   UNL     1      -7.820   9.666  63.965  1.00  0.00    -0.123 OA 
BRANCH  15  17
HETATM   17  C   UNL     1      -8.850  11.066  65.580  1.00  0.00    -0.179 A  
HETATM   18  C   UNL     1      -8.343  12.993  66.959  1.00  0.00    -0.095 A  
HETATM   19  C   UNL     1      -8.049  11.695  66.535  1.00  0.00    -0.075 A  
HETATM   20  C   UNL     1      -9.967  11.734  65.066  1.00  0.00    -0.287 A  
HETATM   21  C   UNL     1      -9.442  13.688  66.399  1.00  0.00    -0.234 A  
HETATM   22  C   UNL     1     -10.274  13.041  65.461  1.00  0.00    -0.285 A  
BRANCH  18  23
HETATM   23  O   UNL     1      -7.557  13.680  67.855  1.00  0.00    -0.123 OA 
HETATM   24  C   UNL     1      -7.031  12.928  68.945  1.00  0.00    -0.084 C  
ENDBRANCH  18  23
BRANCH  21  25
HETATM   25  O   UNL     1      -9.639  14.956  66.896  1.00  0.00    -0.228 OA 
HETATM   26  C   UNL     1     -10.513  15.096  68.011  1.00  0.00    -0.247 C  
ENDBRANCH  21  25
BRANCH  22  27
HETATM   27  O   UNL     1     -11.361  13.715  64.971  1.00  0.00    -0.313 OA 
HETATM   28  C   UNL     1     -12.616  13.527  65.616  1.00  0.00    -0.459 C  
ENDBRANCH  22  27
ENDBRANCH  15  17
ENDBRANCH  14  15
ENDBRANCH   6  14
TORSDOF 6
ENDMDL
MODEL      232
REMARK 921   NORMALIZED FREE ENERGY PREDICTED BY IDOCK:   -2.57 KCAL/MOL
REMARK 922        TOTAL FREE ENERGY PREDICTED BY IDOCK:   -4.40 KCAL/MOL
REMARK 923 INTER-LIGAND FREE ENERGY PREDICTED BY IDOCK:   -4.06 KCAL/MOL
REMARK 924 INTRA-LIGAND FREE ENERGY PREDICTED BY IDOCK:   -0.34 KCAL/MOL
REMARK 927      BINDING AFFINITY PREDICTED BY RF-SCORE:    0.00 PKD
ROOT
HETATM    1  C   UNL     1      -9.070   1.535  67.544  1.00  0.00    -0.162 C  
HETATM    2  C   UNL     1      -9.171   3.055  67.465  1.00  0.00    -0.233 C  
HETATM    3  C   UNL     1      -8.655   3.981  68.629  1.00  0.00    -0.093 C  
HETATM    4  N   UNL     1      -7.199   3.820  68.955  1.00  0.00    -0.050 NA 
HETATM    5  C   UNL     1      -8.920   5.502  68.235  1.00  0.00    -0.109 A  
HETATM    6  C   UNL     1      -9.567   3.815  69.905  1.00  0.00    -0.184 C  
HETATM    7  C   UNL     1      -9.491   5.892  67.007  1.00  0.00    -0.134 A  
HETATM    8  C   UNL     1      -8.740   7.884  68.799  1.00  0.00    -0.128 A  
HETATM    9  C   UNL     1      -6.728   2.503  69.374  1.00  0.00    -0.033 C  
HETATM   10  C   UNL     1      -6.288   4.329  67.927  1.00  0.00    -0.037 C  
HETATM   11  C   UNL     1      -9.660   7.240  66.674  1.00  0.00    -0.236 A  
HETATM   12  C   UNL     1      -9.278   8.235  67.565  1.00  0.00    -0.155 A  
HETATM   13  C   UNL     1      -8.561   6.537  69.130  1.00  0.00    -0.129 A  
ENDROOT
BRANCH   6  14
HETATM   14  O   UNL     1      -9.750   2.497  70.428  1.00  0.00    -0.092 OA 
BRANCH  14  15
HETATM   15  C   UNL     1      -9.967   2.451  71.768  1.00  0.00    -0.127 C  
HETATM   16  O   UNL     1     -10.316   1.481  72.418  1.00  0.00    -0.135 OA 
BRANCH  15  17
HETATM   17  C   UNL     1      -9.556   3.729  72.386  1.00  0.00    -0.198 A  
HETATM   18  C   UNL     1     -10.201   5.946  73.120  1.00  0.00    -0.195 A  
HETATM   19  C   UNL     1     -10.477   4.779  72.404  1.00  0.00    -0.258 A  
HETATM   20  C   UNL     1      -8.342   3.861  73.069  1.00  0.00    -0.092 A  
HETATM   21  C   UNL     1      -8.996   6.057  73.855  1.00  0.00    -0.127 A  
HETATM   22  C   UNL     1      -8.049   5.013  73.807  1.00  0.00    -0.106 A  
BRANCH  18  23
HETATM   23  O   UNL     1     -11.094   6.988  73.217  1.00  0.00    -0.276 OA 
HETATM   24  C   UNL     1     -12.034   7.120  72.155  1.00  0.00    -0.266 C  
ENDBRANCH  18  23
BRANCH  21  25
HETATM   25  O   UNL     1      -8.829   7.253  74.515  1.00  0.00    -0.202 OA 
HETATM   26  C   UNL     1      -8.058   8.259  73.869  1.00  0.00    -0.204 C  
ENDBRANCH  21  25
BRANCH  22  27
HETATM   27  O   UNL     1      -6.868   5.164  74.485  1.00  0.00    -0.074 OA 
HETATM   28  C   UNL     1      -5.684   5.394  73.729  1.00  0.00    -0.024 C  
ENDBRANCH  22  27
ENDBRANCH  15  17
ENDBRANCH  14  15
ENDBRANCH   6  14
TORSDOF 6
ENDMDL
MODEL      233
REMARK 921   NORMALIZED FREE ENERGY PREDICTED BY IDOCK:   -2.56 KCAL/MOL
REMARK 922        TOTAL FREE ENERGY PREDICTED BY IDOCK:   -4.40 KCAL/MOL
REMARK 923 INTER-LIGAND FREE ENERGY PREDICTED BY IDOCK:   -3.70 KCAL/MOL
REMARK 924 INTRA-LIGAND FREE ENERGY PREDICTED BY IDOCK:   -0.69 KCAL/MOL
REMARK 927      BINDING AFFINITY PREDICTED BY RF-SCORE:    0.00 PKD
ROOT
HETATM    1  C   UNL     1      -9.711   8.098  65.721  1.00  0.00     0.232 C  
HETATM    2  C   UNL     1      -9.671   9.605  65.952  1.00  0.00    -0.343 C  
HETATM    3  C   UNL     1      -8.715  10.254  67.021  1.00  0.00    -0.129 C  
HETATM    4  N   UNL     1      -7.256   9.971  66.808  1.00  0.00    -0.090 NA 
HETATM    5  C   UNL     1      -8.930  11.833  67.015  1.00  0.00    -0.186 A  
HETATM    6  C   UNL     1      -9.183   9.870  68.478  1.00  0.00    -0.136 C  
HETATM    7  C   UNL     1      -9.819  12.487  66.140  1.00  0.00    -0.266 A  
HETATM    8  C   UNL     1      -8.327  14.042  67.901  1.00  0.00    -0.168 A  
HETATM    9  C   UNL     1      -6.819   8.578  66.804  1.00  0.00    -0.069 C  
HETATM   10  C   UNL     1      -6.673  10.640  65.642  1.00  0.00    -0.072 C  
HETATM   11  C   UNL     1      -9.942  13.880  66.128  1.00  0.00    -0.322 A  
HETATM   12  C   UNL     1      -9.192  14.657  67.001  1.00  0.00    -0.252 A  
HETATM   13  C   UNL     1      -8.195  12.650  67.908  1.00  0.00    -0.170 A  
ENDROOT
BRANCH   6  14
HETATM   14  O   UNL     1      -9.327   8.482  68.789  1.00  0.00    -0.143 OA 
BRANCH  14  15
HETATM   15  C   UNL     1      -8.679   8.091  69.916  1.00  0.00    -0.139 C  
HETATM   16  O   UNL     1      -8.364   8.796  70.860  1.00  0.00    -0.131 OA 
BRANCH  15  17
HETATM   17  C   UNL     1      -8.540   6.620  69.929  1.00  0.00    -0.140 A  
HETATM   18  C   UNL     1      -9.359   4.495  70.757  1.00  0.00    -0.151 A  
HETATM   19  C   UNL     1      -9.330   5.890  70.820  1.00  0.00    -0.180 A  
HETATM   20  C   UNL     1      -7.756   5.944  68.986  1.00  0.00    -0.091 A  
HETATM   21  C   UNL     1      -8.608   3.816  69.768  1.00  0.00    -0.065 A  
HETATM   22  C   UNL     1      -7.781   4.549  68.891  1.00  0.00    -0.070 A  
BRANCH  18  23
HETATM   23  O   UNL     1     -10.161   3.731  71.573  1.00  0.00    -0.157 OA 
HETATM   24  C   UNL     1     -10.349   4.204  72.903  1.00  0.00    -0.173 C  
ENDBRANCH  18  23
BRANCH  21  25
HETATM   25  O   UNL     1      -8.709   2.444  69.805  1.00  0.00    -0.059 OA 
HETATM   26  C   UNL     1      -9.352   1.802  68.710  1.00  0.00    -0.162 C  
ENDBRANCH  21  25
BRANCH  22  27
HETATM   27  O   UNL     1      -7.025   3.867  67.976  1.00  0.00    -0.050 OA 
HETATM   28  C   UNL     1      -5.968   4.563  67.323  1.00  0.00    -0.023 C  
ENDBRANCH  22  27
ENDBRANCH  15  17
ENDBRANCH  14  15
ENDBRANCH   6  14
TORSDOF 6
ENDMDL
MODEL      234
REMARK 921   NORMALIZED FREE ENERGY PREDICTED BY IDOCK:   -2.48 KCAL/MOL
REMARK 922        TOTAL FREE ENERGY PREDICTED BY IDOCK:   -4.29 KCAL/MOL
REMARK 923 INTER-LIGAND FREE ENERGY PREDICTED BY IDOCK:   -3.65 KCAL/MOL
REMARK 924 INTRA-LIGAND FREE ENERGY PREDICTED BY IDOCK:   -0.64 KCAL/MOL
REMARK 927      BINDING AFFINITY PREDICTED BY RF-SCORE:    0.00 PKD
ROOT
HETATM    1  C   UNL     1     -13.470   7.017  70.863  1.00  0.00     0.121 C  
HETATM    2  C   UNL     1     -12.187   7.229  71.663  1.00  0.00    -0.377 C  
HETATM    3  C   UNL     1     -10.916   7.903  71.025  1.00  0.00    -0.244 C  
HETATM    4  N   UNL     1     -11.144   9.291  70.500  1.00  0.00    -0.252 NA 
HETATM    5  C   UNL     1      -9.759   7.959  72.118  1.00  0.00    -0.257 A  
HETATM    6  C   UNL     1     -10.284   6.956  69.934  1.00  0.00    -0.199 C  
HETATM    7  C   UNL     1      -9.923   7.499  73.440  1.00  0.00    -0.378 A  
HETATM    8  C   UNL     1      -7.472   8.612  72.731  1.00  0.00     0.025 A  
HETATM    9  C   UNL     1     -12.150   9.477  69.459  1.00  0.00     0.748 C  
HETATM   10  C   UNL     1     -11.361  10.303  71.537  1.00  0.00     0.287 C  
HETATM   11  C   UNL     1      -8.900   7.613  74.387  1.00  0.00    -0.163 A  
HETATM   12  C   UNL     1      -7.679   8.175  74.036  1.00  0.00    -0.258 A  
HETATM   13  C   UNL     1      -8.497   8.507  71.785  1.00  0.00    -0.236 A  
ENDROOT
BRANCH   6  14
HETATM   14  O   UNL     1     -11.128   6.501  68.874  1.00  0.00    -0.304 OA 
BRANCH  14  15
HETATM   15  C   UNL     1     -10.471   6.191  67.727  1.00  0.00    -0.231 C  
HETATM   16  O   UNL     1     -10.588   5.170  67.071  1.00  0.00    -0.223 OA 
BRANCH  15  17
HETATM   17  C   UNL     1      -9.687   7.356  67.269  1.00  0.00    -0.205 A  
HETATM   18  C   UNL     1      -7.551   8.216  66.514  1.00  0.00    -0.092 A  
HETATM   19  C   UNL     1      -8.309   7.200  67.102  1.00  0.00    -0.118 A  
HETATM   20  C   UNL     1     -10.302   8.547  66.867  1.00  0.00    -0.367 A  
HETATM   21  C   UNL     1      -8.183   9.397  66.058  1.00  0.00    -0.111 A  
HETATM   22  C   UNL     1      -9.568   9.572  66.260  1.00  0.00    -0.226 A  
BRANCH  18  23
HETATM   23  O   UNL     1      -6.201   8.093  66.275  1.00  0.00    -0.044 OA 
HETATM   24  C   UNL     1      -5.810   7.085  65.347  1.00  0.00    -0.036 C  
ENDBRANCH  18  23
BRANCH  21  25
HETATM   25  O   UNL     1      -7.336  10.329  65.502  1.00  0.00    -0.140 OA 
HETATM   26  C   UNL     1      -7.131  10.274  64.096  1.00  0.00    -0.053 C  
ENDBRANCH  21  25
BRANCH  22  27
HETATM   27  O   UNL     1     -10.149  10.745  65.857  1.00  0.00    -0.237 OA 
HETATM   28  C   UNL     1     -10.678  10.815  64.537  1.00  0.00    -0.077 C  
ENDBRANCH  22  27
ENDBRANCH  15  17
ENDBRANCH  14  15
ENDBRANCH   6  14
TORSDOF 6
ENDMDL
MODEL      235
REMARK 921   NORMALIZED FREE ENERGY PREDICTED BY IDOCK:   -2.47 KCAL/MOL
REMARK 922        TOTAL FREE ENERGY PREDICTED BY IDOCK:   -4.27 KCAL/MOL
REMARK 923 INTER-LIGAND FREE ENERGY PREDICTED BY IDOCK:   -3.97 KCAL/MOL
REMARK 924 INTRA-LIGAND FREE ENERGY PREDICTED BY IDOCK:   -0.30 KCAL/MOL
REMARK 927      BINDING AFFINITY PREDICTED BY RF-SCORE:    0.00 PKD
ROOT
HETATM    1  C   UNL     1     -11.188   4.786  65.324  1.00  0.00     0.286 C  
HETATM    2  C   UNL     1      -9.829   4.096  65.391  1.00  0.00    -0.212 C  
HETATM    3  C   UNL     1      -8.765   4.469  66.488  1.00  0.00    -0.112 C  
HETATM    4  N   UNL     1      -9.235   4.286  67.902  1.00  0.00    -0.132 NA 
HETATM    5  C   UNL     1      -7.463   3.577  66.270  1.00  0.00    -0.077 A  
HETATM    6  C   UNL     1      -8.206   5.922  66.237  1.00  0.00    -0.114 C  
HETATM    7  C   UNL     1      -7.360   2.598  65.261  1.00  0.00    -0.063 A  
HETATM    8  C   UNL     1      -5.202   2.941  66.985  1.00  0.00    -0.008 A  
HETATM    9  C   UNL     1     -10.409   5.036  68.340  1.00  0.00    -0.021 C  
HETATM   10  C   UNL     1      -9.404   2.889  68.309  1.00  0.00    -0.195 C  
HETATM   11  C   UNL     1      -6.220   1.797  65.133  1.00  0.00    -0.018 A  
HETATM   12  C   UNL     1      -5.146   1.963  65.998  1.00  0.00    -0.005 A  
HETATM   13  C   UNL     1      -6.344   3.736  67.122  1.00  0.00    -0.037 A  
ENDROOT
BRANCH   6  14
HETATM   14  O   UNL     1      -9.148   6.994  66.144  1.00  0.00    -0.162 OA 
BRANCH  14  15
HETATM   15  C   UNL     1      -8.608   8.229  66.299  1.00  0.00    -0.138 C  
HETATM   16  O   UNL     1      -7.818   8.781  65.551  1.00  0.00    -0.092 OA 
BRANCH  15  17
HETATM   17  C   UNL     1      -9.242   8.913  67.445  1.00  0.00    -0.157 A  
HETATM   18  C   UNL     1     -10.564  10.785  68.234  1.00  0.00    -0.200 A  
HETATM   19  C   UNL     1      -9.809  10.171  67.231  1.00  0.00    -0.226 A  
HETATM   20  C   UNL     1      -9.413   8.278  68.681  1.00  0.00    -0.147 A  
HETATM   21  C   UNL     1     -10.781  10.118  69.464  1.00  0.00    -0.249 A  
HETATM   22  C   UNL     1     -10.178   8.863  69.695  1.00  0.00    -0.206 A  
BRANCH  18  23
HETATM   23  O   UNL     1     -11.190  11.997  68.057  1.00  0.00    -0.222 OA 
HETATM   24  C   UNL     1     -11.694  12.267  66.753  1.00  0.00    -0.342 C  
ENDBRANCH  18  23
BRANCH  21  25
HETATM   25  O   UNL     1     -11.533  10.820  70.378  1.00  0.00    -0.303 OA 
HETATM   26  C   UNL     1     -12.542  10.107  71.084  1.00  0.00    -0.386 C  
ENDBRANCH  21  25
BRANCH  22  27
HETATM   27  O   UNL     1     -10.361   8.261  70.911  1.00  0.00    -0.189 OA 
HETATM   28  C   UNL     1      -9.348   8.419  71.899  1.00  0.00    -0.244 C  
ENDBRANCH  22  27
ENDBRANCH  15  17
ENDBRANCH  14  15
ENDBRANCH   6  14
TORSDOF 6
ENDMDL
MODEL      236
REMARK 921   NORMALIZED FREE ENERGY PREDICTED BY IDOCK:   -2.45 KCAL/MOL
REMARK 922        TOTAL FREE ENERGY PREDICTED BY IDOCK:   -4.24 KCAL/MOL
REMARK 923 INTER-LIGAND FREE ENERGY PREDICTED BY IDOCK:   -4.06 KCAL/MOL
REMARK 924 INTRA-LIGAND FREE ENERGY PREDICTED BY IDOCK:   -0.18 KCAL/MOL
REMARK 927      BINDING AFFINITY PREDICTED BY RF-SCORE:    0.00 PKD
ROOT
HETATM    1  C   UNL     1     -10.719   9.367  66.370  1.00  0.00     0.078 C  
HETATM    2  C   UNL     1      -9.551   9.643  67.312  1.00  0.00    -0.203 C  
HETATM    3  C   UNL     1      -8.294   8.699  67.370  1.00  0.00    -0.116 C  
HETATM    4  N   UNL     1      -7.565   8.549  66.066  1.00  0.00    -0.088 NA 
HETATM    5  C   UNL     1      -7.274   9.263  68.457  1.00  0.00    -0.072 A  
HETATM    6  C   UNL     1      -8.686   7.303  67.989  1.00  0.00    -0.127 C  
HETATM    7  C   UNL     1      -7.502  10.446  69.187  1.00  0.00    -0.112 A  
HETATM    8  C   UNL     1      -5.127   9.065  69.630  1.00  0.00    -0.034 A  
HETATM    9  C   UNL     1      -8.301   8.017  64.923  1.00  0.00    -0.099 C  
HETATM   10  C   UNL     1      -6.846   9.749  65.632  1.00  0.00    -0.096 C  
HETATM   11  C   UNL     1      -6.559  10.939  70.095  1.00  0.00    -0.122 A  
HETATM   12  C   UNL     1      -5.370  10.253  70.312  1.00  0.00    -0.049 A  
HETATM   13  C   UNL     1      -6.063   8.577  68.714  1.00  0.00    -0.045 A  
ENDROOT
BRANCH   6  14
HETATM   14  O   UNL     1      -9.761   6.581  67.383  1.00  0.00    -0.121 OA 
BRANCH  14  15
HETATM   15  C   UNL     1      -9.982   5.352  67.916  1.00  0.00    -0.160 C  
HETATM   16  O   UNL     1      -9.909   4.281  67.338  1.00  0.00    -0.185 OA 
BRANCH  15  17
HETATM   17  C   UNL     1     -10.172   5.467  69.376  1.00  0.00    -0.329 A  
HETATM   18  C   UNL     1     -11.069   6.748  71.228  1.00  0.00    -0.262 A  
HETATM   19  C   UNL     1     -10.715   6.652  69.881  1.00  0.00    -0.297 A  
HETATM   20  C   UNL     1      -9.961   4.383  70.236  1.00  0.00    -0.248 A  
HETATM   21  C   UNL     1     -10.905   5.632  72.084  1.00  0.00    -0.245 A  
HETATM   22  C   UNL     1     -10.323   4.448  71.585  1.00  0.00    -0.048 A  
BRANCH  18  23
HETATM   23  O   UNL     1     -11.657   7.870  71.765  1.00  0.00    -0.258 OA 
HETATM   24  C   UNL     1     -12.167   8.824  70.838  1.00  0.00    -0.116 C  
ENDBRANCH  18  23
BRANCH  21  25
HETATM   25  O   UNL     1     -11.281   5.845  73.391  1.00  0.00    -0.190 OA 
HETATM   26  C   UNL     1     -10.258   5.834  74.379  1.00  0.00    -0.281 C  
ENDBRANCH  21  25
BRANCH  22  27
HETATM   27  O   UNL     1     -10.127   3.399  72.444  1.00  0.00    -0.157 OA 
HETATM   28  C   UNL     1      -8.792   3.080  72.824  1.00  0.00    -0.083 C  
ENDBRANCH  22  27
ENDBRANCH  15  17
ENDBRANCH  14  15
ENDBRANCH   6  14
TORSDOF 6
ENDMDL
MODEL      237
REMARK 921   NORMALIZED FREE ENERGY PREDICTED BY IDOCK:   -2.39 KCAL/MOL
REMARK 922        TOTAL FREE ENERGY PREDICTED BY IDOCK:   -4.17 KCAL/MOL
REMARK 923 INTER-LIGAND FREE ENERGY PREDICTED BY IDOCK:   -4.15 KCAL/MOL
REMARK 924 INTRA-LIGAND FREE ENERGY PREDICTED BY IDOCK:   -0.02 KCAL/MOL
REMARK 927      BINDING AFFINITY PREDICTED BY RF-SCORE:    0.00 PKD
ROOT
HETATM    1  C   UNL     1      -8.678   4.308  65.355  1.00  0.00    -0.123 C  
HETATM    2  C   UNL     1      -8.626   5.813  65.111  1.00  0.00    -0.110 C  
HETATM    3  C   UNL     1      -7.655   6.750  65.920  1.00  0.00    -0.087 C  
HETATM    4  N   UNL     1      -6.200   6.401  65.792  1.00  0.00    -0.036 NA 
HETATM    5  C   UNL     1      -7.860   8.253  65.431  1.00  0.00    -0.113 A  
HETATM    6  C   UNL     1      -8.109   6.837  67.428  1.00  0.00    -0.118 C  
HETATM    7  C   UNL     1      -8.755   8.614  64.405  1.00  0.00    -0.006 A  
HETATM    8  C   UNL     1      -7.234  10.622  65.589  1.00  0.00    -0.084 A  
HETATM    9  C   UNL     1      -5.771   5.071  66.212  1.00  0.00    -0.018 C  
HETATM   10  C   UNL     1      -5.626   6.675  64.472  1.00  0.00    -0.030 C  
HETATM   11  C   UNL     1      -8.869   9.937  63.966  1.00  0.00    -0.253 A  
HETATM   12  C   UNL     1      -8.104  10.939  64.551  1.00  0.00     0.254 A  
HETATM   13  C   UNL     1      -7.110   9.298  66.022  1.00  0.00    -0.090 A  
ENDROOT
BRANCH   6  14
HETATM   14  O   UNL     1      -8.258   5.614  68.153  1.00  0.00    -0.097 OA 
BRANCH  14  15
HETATM   15  C   UNL     1      -9.525   5.359  68.567  1.00  0.00    -0.123 C  
HETATM   16  O   UNL     1     -10.171   4.345  68.361  1.00  0.00     0.019 OA 
BRANCH  15  17
HETATM   17  C   UNL     1      -9.983   6.435  69.470  1.00  0.00    -0.190 A  
HETATM   18  C   UNL     1     -10.865   8.681  69.692  1.00  0.00    -0.157 A  
HETATM   19  C   UNL     1     -10.272   7.684  68.914  1.00  0.00    -0.217 A  
HETATM   20  C   UNL     1     -10.268   6.195  70.819  1.00  0.00    -0.249 A  
HETATM   21  C   UNL     1     -11.202   8.420  71.042  1.00  0.00    -0.266 A  
HETATM   22  C   UNL     1     -10.877   7.171  71.614  1.00  0.00    -0.224 A  
BRANCH  18  23
HETATM   23  O   UNL     1     -11.222   9.908  69.183  1.00  0.00    -0.197 OA 
HETATM   24  C   UNL     1     -10.159  10.820  68.920  1.00  0.00    -0.205 C  
ENDBRANCH  18  23
BRANCH  21  25
HETATM   25  O   UNL     1     -11.775   9.477  71.711  1.00  0.00    -0.383 OA 
HETATM   26  C   UNL     1     -13.182   9.438  71.920  1.00  0.00    -0.429 C  
ENDBRANCH  21  25
BRANCH  22  27
HETATM   27  O   UNL     1     -11.166   6.959  72.936  1.00  0.00    -0.267 OA 
HETATM   28  C   UNL     1     -10.101   7.030  73.878  1.00  0.00    -0.348 C  
ENDBRANCH  22  27
ENDBRANCH  15  17
ENDBRANCH  14  15
ENDBRANCH   6  14
TORSDOF 6
ENDMDL
MODEL      238
REMARK 921   NORMALIZED FREE ENERGY PREDICTED BY IDOCK:   -2.38 KCAL/MOL
REMARK 922        TOTAL FREE ENERGY PREDICTED BY IDOCK:   -4.14 KCAL/MOL
REMARK 923 INTER-LIGAND FREE ENERGY PREDICTED BY IDOCK:   -3.35 KCAL/MOL
REMARK 924 INTRA-LIGAND FREE ENERGY PREDICTED BY IDOCK:   -0.79 KCAL/MOL
REMARK 927      BINDING AFFINITY PREDICTED BY RF-SCORE:    0.00 PKD
ROOT
HETATM    1  C   UNL     1     -13.725   7.078  70.839  1.00  0.00     0.230 C  
HETATM    2  C   UNL     1     -12.458   7.123  71.688  1.00  0.00    -0.405 C  
HETATM    3  C   UNL     1     -11.106   7.699  71.127  1.00  0.00    -0.251 C  
HETATM    4  N   UNL     1     -11.178   9.127  70.667  1.00  0.00    -0.260 NA 
HETATM    5  C   UNL     1      -9.988   7.588  72.257  1.00  0.00    -0.226 A  
HETATM    6  C   UNL     1     -10.529   6.749  70.008  1.00  0.00    -0.210 C  
HETATM    7  C   UNL     1     -10.244   7.082  73.547  1.00  0.00    -0.371 A  
HETATM    8  C   UNL     1      -7.673   7.982  72.974  1.00  0.00    -0.189 A  
HETATM    9  C   UNL     1     -12.124   9.461  69.607  1.00  0.00     0.729 C  
HETATM   10  C   UNL     1     -11.335  10.104  71.748  1.00  0.00     0.582 C  
HETATM   11  C   UNL     1      -9.249   7.050  74.530  1.00  0.00    -0.204 A  
HETATM   12  C   UNL     1      -7.968   7.505  74.247  1.00  0.00    -0.210 A  
HETATM   13  C   UNL     1      -8.668   8.025  71.992  1.00  0.00    -0.197 A  
ENDROOT
BRANCH   6  14
HETATM   14  O   UNL     1     -11.374   6.431  68.900  1.00  0.00    -0.341 OA 
BRANCH  14  15
HETATM   15  C   UNL     1     -10.713   5.990  67.799  1.00  0.00    -0.289 C  
HETATM   16  O   UNL     1     -10.882   4.929  67.222  1.00  0.00     0.066 OA 
BRANCH  15  17
HETATM   17  C   UNL     1      -9.846   7.064  67.272  1.00  0.00    -0.214 A  
HETATM   18  C   UNL     1      -9.695   9.271  66.284  1.00  0.00    -0.271 A  
HETATM   19  C   UNL     1     -10.453   8.157  66.649  1.00  0.00    -0.204 A  
HETATM   20  C   UNL     1      -8.466   7.080  67.506  1.00  0.00    -0.122 A  
HETATM   21  C   UNL     1      -8.309   9.309  66.571  1.00  0.00    -0.126 A  
HETATM   22  C   UNL     1      -7.687   8.191  67.166  1.00  0.00    -0.097 A  
BRANCH  18  23
HETATM   23  O   UNL     1     -10.249  10.396  65.719  1.00  0.00    -0.260 OA 
HETATM   24  C   UNL     1     -10.994  11.243  66.590  1.00  0.00    -0.268 C  
ENDBRANCH  18  23
BRANCH  21  25
HETATM   25  O   UNL     1      -7.663  10.453  66.160  1.00  0.00    -0.118 OA 
HETATM   26  C   UNL     1      -7.003  10.419  64.900  1.00  0.00    -0.045 C  
ENDBRANCH  21  25
BRANCH  22  27
HETATM   27  O   UNL     1      -6.336   8.230  67.387  1.00  0.00    -0.054 OA 
HETATM   28  C   UNL     1      -5.490   7.486  66.516  1.00  0.00    -0.024 C  
ENDBRANCH  22  27
ENDBRANCH  15  17
ENDBRANCH  14  15
ENDBRANCH   6  14
TORSDOF 6
ENDMDL
MODEL      239
REMARK 921   NORMALIZED FREE ENERGY PREDICTED BY IDOCK:   -2.07 KCAL/MOL
REMARK 922        TOTAL FREE ENERGY PREDICTED BY IDOCK:   -3.73 KCAL/MOL
REMARK 923 INTER-LIGAND FREE ENERGY PREDICTED BY IDOCK:   -2.98 KCAL/MOL
REMARK 924 INTRA-LIGAND FREE ENERGY PREDICTED BY IDOCK:   -0.75 KCAL/MOL
REMARK 927      BINDING AFFINITY PREDICTED BY RF-SCORE:    0.00 PKD
ROOT
HETATM    1  C   UNL     1     -11.237   6.178  69.749  1.00  0.00    -0.494 C  
HETATM    2  C   UNL     1      -9.938   6.848  70.187  1.00  0.00    -0.188 C  
HETATM    3  C   UNL     1      -8.920   7.442  69.144  1.00  0.00    -0.135 C  
HETATM    4  N   UNL     1      -9.490   8.506  68.251  1.00  0.00    -0.134 NA 
HETATM    5  C   UNL     1      -7.674   8.053  69.927  1.00  0.00    -0.099 A  
HETATM    6  C   UNL     1      -8.244   6.281  68.318  1.00  0.00    -0.115 C  
HETATM    7  C   UNL     1      -7.579   8.065  71.333  1.00  0.00    -0.081 A  
HETATM    8  C   UNL     1      -5.514   9.218  69.865  1.00  0.00    -0.032 A  
HETATM    9  C   UNL     1     -10.632   8.160  67.410  1.00  0.00    -0.255 C  
HETATM   10  C   UNL     1      -9.784   9.771  68.929  1.00  0.00    -0.171 C  
HETATM   11  C   UNL     1      -6.494   8.658  71.988  1.00  0.00    -0.074 A  
HETATM   12  C   UNL     1      -5.467   9.240  71.255  1.00  0.00    -0.055 A  
HETATM   13  C   UNL     1      -6.603   8.635  69.209  1.00  0.00    -0.049 A  
ENDROOT
BRANCH   6  14
HETATM   14  O   UNL     1      -9.098   5.360  67.635  1.00  0.00    -0.109 OA 
BRANCH  14  15
HETATM   15  C   UNL     1      -8.642   4.082  67.614  1.00  0.00    -0.100 C  
HETATM   16  O   UNL     1      -8.378   3.417  66.626  1.00  0.00    -0.098 OA 
BRANCH  15  17
HETATM   17  C   UNL     1      -8.339   3.635  68.989  1.00  0.00    -0.087 A  
HETATM   18  C   UNL     1      -6.846   3.749  70.894  1.00  0.00    -0.033 A  
HETATM   19  C   UNL     1      -7.112   4.002  69.547  1.00  0.00    -0.046 A  
HETATM   20  C   UNL     1      -9.294   2.988  69.782  1.00  0.00    -0.215 A  
HETATM   21  C   UNL     1      -7.833   3.144  71.709  1.00  0.00    -0.057 A  
HETATM   22  C   UNL     1      -9.059   2.739  71.138  1.00  0.00    -0.112 A  
BRANCH  18  23
HETATM   23  O   UNL     1      -5.678   4.138  71.508  1.00  0.00    -0.008 OA 
HETATM   24  C   UNL     1      -5.145   5.400  71.117  1.00  0.00    -0.005 C  
ENDBRANCH  18  23
BRANCH  21  25
HETATM   25  O   UNL     1      -7.458   2.938  73.017  1.00  0.00    -0.044 OA 
HETATM   26  C   UNL     1      -7.572   4.037  73.913  1.00  0.00    -0.079 C  
ENDBRANCH  21  25
BRANCH  22  27
HETATM   27  O   UNL     1      -9.979   2.110  71.934  1.00  0.00    -0.145 OA 
HETATM   28  C   UNL     1     -10.830   2.914  72.744  1.00  0.00     0.040 C  
ENDBRANCH  22  27
ENDBRANCH  15  17
ENDBRANCH  14  15
ENDBRANCH   6  14
TORSDOF 6
ENDMDL
MODEL      240
REMARK 921   NORMALIZED FREE ENERGY PREDICTED BY IDOCK:   -1.98 KCAL/MOL
REMARK 922        TOTAL FREE ENERGY PREDICTED BY IDOCK:   -3.61 KCAL/MOL
REMARK 923 INTER-LIGAND FREE ENERGY PREDICTED BY IDOCK:   -4.25 KCAL/MOL
REMARK 924 INTRA-LIGAND FREE ENERGY PREDICTED BY IDOCK:    0.64 KCAL/MOL
REMARK 927      BINDING AFFINITY PREDICTED BY RF-SCORE:    0.00 PKD
ROOT
HETATM    1  C   UNL     1     -11.092   5.803  68.692  1.00  0.00    -0.061 C  
HETATM    2  C   UNL     1      -9.751   6.338  68.199  1.00  0.00    -0.123 C  
HETATM    3  C   UNL     1      -8.905   7.361  69.045  1.00  0.00    -0.132 C  
HETATM    4  N   UNL     1      -8.519   6.871  70.411  1.00  0.00    -0.133 NA 
HETATM    5  C   UNL     1      -7.576   7.721  68.244  1.00  0.00    -0.109 A  
HETATM    6  C   UNL     1      -9.635   8.757  69.105  1.00  0.00    -0.162 C  
HETATM    7  C   UNL     1      -7.249   7.150  66.998  1.00  0.00    -0.091 A  
HETATM    8  C   UNL     1      -5.454   8.950  68.131  1.00  0.00    -0.035 A  
HETATM    9  C   UNL     1      -9.586   6.506  71.339  1.00  0.00    -0.165 C  
HETATM   10  C   UNL     1      -7.522   5.797  70.410  1.00  0.00    -0.088 C  
HETATM   11  C   UNL     1      -6.048   7.452  66.348  1.00  0.00    -0.040 A  
HETATM   12  C   UNL     1      -5.148   8.344  66.917  1.00  0.00    -0.028 A  
HETATM   13  C   UNL     1      -6.650   8.642  68.787  1.00  0.00    -0.054 A  
ENDROOT
BRANCH   6  14
HETATM   14  O   UNL     1     -10.983   8.787  69.582  1.00  0.00    -0.206 OA 
BRANCH  14  15
HETATM   15  C   UNL     1     -11.340   9.953  70.178  1.00  0.00    -0.275 C  
HETATM   16  O   UNL     1     -11.823  10.088  71.290  1.00  0.00    -0.354 OA 
BRANCH  15  17
HETATM   17  C   UNL     1     -10.907  11.095  69.346  1.00  0.00    -0.264 A  
HETATM   18  C   UNL     1      -9.148  12.113  68.027  1.00  0.00    -0.190 A  
HETATM   19  C   UNL     1      -9.570  11.150  68.947  1.00  0.00    -0.154 A  
HETATM   20  C   UNL     1     -11.820  12.026  68.838  1.00  0.00    -0.356 A  
HETATM   21  C   UNL     1     -10.083  13.020  67.472  1.00  0.00    -0.218 A  
HETATM   22  C   UNL     1     -11.427  12.989  67.902  1.00  0.00    -0.311 A  
BRANCH  18  23
HETATM   23  O   UNL     1      -7.856  12.178  67.558  1.00  0.00    -0.141 OA 
HETATM   24  C   UNL     1      -6.856  12.554  68.500  1.00  0.00    -0.083 C  
ENDBRANCH  18  23
BRANCH  21  25
HETATM   25  O   UNL     1      -9.553  13.926  66.583  1.00  0.00    -0.270 OA 
HETATM   26  C   UNL     1     -10.132  13.988  65.285  1.00  0.00    -0.318 C  
ENDBRANCH  21  25
BRANCH  22  27
HETATM   27  O   UNL     1     -12.302  13.909  67.390  1.00  0.00    -0.316 OA 
HETATM   28  C   UNL     1     -12.399  15.176  68.033  1.00  0.00     0.427 C  
ENDBRANCH  22  27
ENDBRANCH  15  17
ENDBRANCH  14  15
ENDBRANCH   6  14
TORSDOF 6
ENDMDL
MODEL      241
REMARK 921   NORMALIZED FREE ENERGY PREDICTED BY IDOCK:   -1.98 KCAL/MOL
REMARK 922        TOTAL FREE ENERGY PREDICTED BY IDOCK:   -3.61 KCAL/MOL
REMARK 923 INTER-LIGAND FREE ENERGY PREDICTED BY IDOCK:   -3.51 KCAL/MOL
REMARK 924 INTRA-LIGAND FREE ENERGY PREDICTED BY IDOCK:   -0.10 KCAL/MOL
REMARK 927      BINDING AFFINITY PREDICTED BY RF-SCORE:    0.00 PKD
ROOT
HETATM    1  C   UNL     1     -10.994   6.029  69.724  1.00  0.00    -0.471 C  
HETATM    2  C   UNL     1      -9.913   7.101  69.627  1.00  0.00    -0.176 C  
HETATM    3  C   UNL     1      -8.969   7.214  68.372  1.00  0.00    -0.125 C  
HETATM    4  N   UNL     1      -9.685   7.427  67.070  1.00  0.00    -0.177 NA 
HETATM    5  C   UNL     1      -7.955   8.422  68.596  1.00  0.00    -0.121 A  
HETATM    6  C   UNL     1      -7.990   5.978  68.312  1.00  0.00    -0.106 C  
HETATM    7  C   UNL     1      -7.978   9.247  69.738  1.00  0.00    -0.103 A  
HETATM    8  C   UNL     1      -6.105   9.800  67.756  1.00  0.00    -0.051 A  
HETATM    9  C   UNL     1     -10.651   6.420  66.642  1.00  0.00    -0.183 C  
HETATM   10  C   UNL     1     -10.302   8.748  66.927  1.00  0.00    -0.274 C  
HETATM   11  C   UNL     1      -7.106  10.332  69.875  1.00  0.00    -0.152 A  
HETATM   12  C   UNL     1      -6.175  10.613  68.882  1.00  0.00    -0.044 A  
HETATM   13  C   UNL     1      -6.982   8.721  67.612  1.00  0.00    -0.075 A  
ENDROOT
BRANCH   6  14
HETATM   14  O   UNL     1      -8.565   4.669  68.323  1.00  0.00    -0.097 OA 
BRANCH  14  15
HETATM   15  C   UNL     1      -7.852   3.751  69.024  1.00  0.00    -0.052 C  
HETATM   16  O   UNL     1      -6.847   3.168  68.652  1.00  0.00    -0.043 OA 
BRANCH  15  17
HETATM   17  C   UNL     1      -8.369   3.661  70.404  1.00  0.00    -0.082 A  
HETATM   18  C   UNL     1      -8.456   4.631  72.623  1.00  0.00    -0.115 A  
HETATM   19  C   UNL     1      -7.882   4.564  71.352  1.00  0.00    -0.086 A  
HETATM   20  C   UNL     1      -9.422   2.804  70.744  1.00  0.00    -0.219 A  
HETATM   21  C   UNL     1      -9.556   3.802  72.947  1.00  0.00    -0.126 A  
HETATM   22  C   UNL     1     -10.026   2.863  72.004  1.00  0.00    -0.156 A  
BRANCH  18  23
HETATM   23  O   UNL     1      -8.053   5.539  73.575  1.00  0.00    -0.112 OA 
HETATM   24  C   UNL     1      -7.353   6.687  73.102  1.00  0.00    -0.084 C  
ENDBRANCH  18  23
BRANCH  21  25
HETATM   25  O   UNL     1     -10.036   3.950  74.229  1.00  0.00    -0.121 OA 
HETATM   26  C   UNL     1     -10.646   5.191  74.563  1.00  0.00    -0.107 C  
ENDBRANCH  21  25
BRANCH  22  27
HETATM   27  O   UNL     1     -11.058   2.035  72.358  1.00  0.00     0.099 OA 
HETATM   28  C   UNL     1     -11.066   1.495  73.675  1.00  0.00    -0.154 C  
ENDBRANCH  22  27
ENDBRANCH  15  17
ENDBRANCH  14  15
ENDBRANCH   6  14
TORSDOF 6
ENDMDL
MODEL      242
REMARK 921   NORMALIZED FREE ENERGY PREDICTED BY IDOCK:   -1.80 KCAL/MOL
REMARK 922        TOTAL FREE ENERGY PREDICTED BY IDOCK:   -3.37 KCAL/MOL
REMARK 923 INTER-LIGAND FREE ENERGY PREDICTED BY IDOCK:   -4.25 KCAL/MOL
REMARK 924 INTRA-LIGAND FREE ENERGY PREDICTED BY IDOCK:    0.88 KCAL/MOL
REMARK 927      BINDING AFFINITY PREDICTED BY RF-SCORE:    0.00 PKD
ROOT
HETATM    1  C   UNL     1     -11.039   6.223  66.703  1.00  0.00    -0.115 C  
HETATM    2  C   UNL     1      -9.658   6.096  67.339  1.00  0.00    -0.122 C  
HETATM    3  C   UNL     1      -9.332   6.726  68.744  1.00  0.00    -0.132 C  
HETATM    4  N   UNL     1     -10.198   6.231  69.866  1.00  0.00    -0.176 NA 
HETATM    5  C   UNL     1      -7.811   6.422  69.106  1.00  0.00    -0.109 A  
HETATM    6  C   UNL     1      -9.333   8.301  68.650  1.00  0.00    -0.143 C  
HETATM    7  C   UNL     1      -6.957   5.668  68.277  1.00  0.00    -0.068 A  
HETATM    8  C   UNL     1      -5.944   6.619  70.688  1.00  0.00    -0.027 A  
HETATM    9  C   UNL     1     -11.640   6.430  69.763  1.00  0.00    -0.327 C  
HETATM   10  C   UNL     1      -9.951   4.840  70.253  1.00  0.00    -0.250 C  
HETATM   11  C   UNL     1      -5.642   5.376  68.653  1.00  0.00    -0.011 A  
HETATM   12  C   UNL     1      -5.138   5.845  69.860  1.00  0.00    -0.005 A  
HETATM   13  C   UNL     1      -7.263   6.903  70.319  1.00  0.00    -0.076 A  
ENDROOT
BRANCH   6  14
HETATM   14  O   UNL     1     -10.503   8.939  68.133  1.00  0.00    -0.219 OA 
BRANCH  14  15
HETATM   15  C   UNL     1     -10.920  10.012  68.852  1.00  0.00    -0.207 C  
HETATM   16  O   UNL     1     -11.472   9.992  69.939  1.00  0.00    -0.244 OA 
BRANCH  15  17
HETATM   17  C   UNL     1     -10.461  11.258  68.206  1.00  0.00    -0.220 A  
HETATM   18  C   UNL     1     -10.745  13.650  67.941  1.00  0.00    -0.247 A  
HETATM   19  C   UNL     1     -11.221  12.416  68.388  1.00  0.00    -0.316 A  
HETATM   20  C   UNL     1      -9.227  11.337  67.549  1.00  0.00    -0.159 A  
HETATM   21  C   UNL     1      -9.473  13.737  67.325  1.00  0.00    -0.236 A  
HETATM   22  C   UNL     1      -8.720  12.563  67.107  1.00  0.00    -0.200 A  
BRANCH  18  23
HETATM   23  O   UNL     1     -11.426  14.828  68.143  1.00  0.00    -0.295 OA 
HETATM   24  C   UNL     1     -10.761  15.822  68.917  1.00  0.00    -0.248 C  
ENDBRANCH  18  23
BRANCH  21  25
HETATM   25  O   UNL     1      -9.111  15.001  66.919  1.00  0.00    -0.217 OA 
HETATM   26  C   UNL     1      -8.154  15.696  67.710  1.00  0.00    -0.146 C  
ENDBRANCH  21  25
BRANCH  22  27
HETATM   27  O   UNL     1      -7.516  12.665  66.463  1.00  0.00     0.356 OA 
HETATM   28  C   UNL     1      -6.439  11.851  66.917  1.00  0.00    -0.095 C  
ENDBRANCH  22  27
ENDBRANCH  15  17
ENDBRANCH  14  15
ENDBRANCH   6  14
TORSDOF 6
ENDMDL
MODEL      243
REMARK 921   NORMALIZED FREE ENERGY PREDICTED BY IDOCK:   -1.73 KCAL/MOL
REMARK 922        TOTAL FREE ENERGY PREDICTED BY IDOCK:   -3.28 KCAL/MOL
REMARK 923 INTER-LIGAND FREE ENERGY PREDICTED BY IDOCK:   -2.54 KCAL/MOL
REMARK 924 INTRA-LIGAND FREE ENERGY PREDICTED BY IDOCK:   -0.73 KCAL/MOL
REMARK 927      BINDING AFFINITY PREDICTED BY RF-SCORE:    0.00 PKD
ROOT
HETATM    1  C   UNL     1      -8.989   6.528  70.556  1.00  0.00    -0.152 C  
HETATM    2  C   UNL     1      -8.603   7.956  70.181  1.00  0.00    -0.134 C  
HETATM    3  C   UNL     1      -9.517   8.845  69.258  1.00  0.00    -0.161 C  
HETATM    4  N   UNL     1     -10.907   9.065  69.781  1.00  0.00    -0.227 NA 
HETATM    5  C   UNL     1      -8.822  10.265  69.056  1.00  0.00    -0.170 A  
HETATM    6  C   UNL     1      -9.524   8.278  67.786  1.00  0.00    -0.149 C  
HETATM    7  C   UNL     1      -7.603  10.620  69.668  1.00  0.00    -0.100 A  
HETATM    8  C   UNL     1      -8.879  12.517  68.080  1.00  0.00    -0.187 A  
HETATM    9  C   UNL     1     -11.747   7.895  70.016  1.00  0.00     0.265 C  
HETATM   10  C   UNL     1     -10.980   9.929  70.962  1.00  0.00    -0.290 C  
HETATM   11  C   UNL     1      -7.050  11.895  69.510  1.00  0.00     0.127 A  
HETATM   12  C   UNL     1      -7.690  12.845  68.723  1.00  0.00     0.007 A  
HETATM   13  C   UNL     1      -9.439  11.246  68.245  1.00  0.00    -0.190 A  
ENDROOT
BRANCH   6  14
HETATM   14  O   UNL     1      -9.895   6.909  67.599  1.00  0.00    -0.127 OA 
BRANCH  14  15
HETATM   15  C   UNL     1      -9.314   6.313  66.527  1.00  0.00    -0.151 C  
HETATM   16  O   UNL     1      -9.094   6.820  65.440  1.00  0.00     0.093 OA 
BRANCH  15  17
HETATM   17  C   UNL     1      -8.817   4.975  66.906  1.00  0.00    -0.106 A  
HETATM   18  C   UNL     1      -6.992   3.381  66.855  1.00  0.00    -0.054 A  
HETATM   19  C   UNL     1      -7.583   4.561  66.399  1.00  0.00    -0.090 A  
HETATM   20  C   UNL     1      -9.472   4.186  67.859  1.00  0.00    -0.219 A  
HETATM   21  C   UNL     1      -7.630   2.613  67.859  1.00  0.00    -0.056 A  
HETATM   22  C   UNL     1      -8.894   3.009  68.345  1.00  0.00    -0.122 A  
BRANCH  18  23
HETATM   23  O   UNL     1      -5.754   2.956  66.431  1.00  0.00    -0.020 OA 
HETATM   24  C   UNL     1      -5.336   3.401  65.145  1.00  0.00    -0.009 C  
ENDBRANCH  18  23
BRANCH  21  25
HETATM   25  O   UNL     1      -6.959   1.468  68.226  1.00  0.00    -0.032 OA 
HETATM   26  C   UNL     1      -5.835   1.613  69.086  1.00  0.00    -0.023 C  
ENDBRANCH  21  25
BRANCH  22  27
HETATM   27  O   UNL     1      -9.516   2.223  69.279  1.00  0.00    -0.122 OA 
HETATM   28  C   UNL     1      -9.374   2.570  70.652  1.00  0.00    -0.142 C  
ENDBRANCH  22  27
ENDBRANCH  15  17
ENDBRANCH  14  15
ENDBRANCH   6  14
TORSDOF 6
ENDMDL
MODEL      244
REMARK 921   NORMALIZED FREE ENERGY PREDICTED BY IDOCK:   -1.70 KCAL/MOL
REMARK 922        TOTAL FREE ENERGY PREDICTED BY IDOCK:   -3.23 KCAL/MOL
REMARK 923 INTER-LIGAND FREE ENERGY PREDICTED BY IDOCK:   -4.03 KCAL/MOL
REMARK 924 INTRA-LIGAND FREE ENERGY PREDICTED BY IDOCK:    0.80 KCAL/MOL
REMARK 927      BINDING AFFINITY PREDICTED BY RF-SCORE:    0.00 PKD
ROOT
HETATM    1  C   UNL     1     -10.422  16.830  69.308  1.00  0.00    -0.331 C  
HETATM    2  C   UNL     1      -9.255  15.859  69.465  1.00  0.00    -0.175 C  
HETATM    3  C   UNL     1      -8.239  15.590  68.295  1.00  0.00    -0.142 C  
HETATM    4  N   UNL     1      -7.515  16.811  67.804  1.00  0.00    -0.159 NA 
HETATM    5  C   UNL     1      -7.160  14.524  68.782  1.00  0.00    -0.112 A  
HETATM    6  C   UNL     1      -8.950  14.815  67.119  1.00  0.00    -0.224 C  
HETATM    7  C   UNL     1      -7.149  13.977  70.081  1.00  0.00     0.402 A  
HETATM    8  C   UNL     1      -5.151  13.194  68.307  1.00  0.00    -0.086 A  
HETATM    9  C   UNL     1      -8.308  17.917  67.279  1.00  0.00    -0.225 C  
HETATM   10  C   UNL     1      -6.535  17.354  68.748  1.00  0.00    -0.201 C  
HETATM   11  C   UNL     1      -6.154  13.083  70.489  1.00  0.00     0.000 A  
HETATM   12  C   UNL     1      -5.152  12.697  69.607  1.00  0.00    -0.073 A  
HETATM   13  C   UNL     1      -6.139  14.096  67.900  1.00  0.00    -0.154 A  
ENDROOT
BRANCH   6  14
HETATM   14  O   UNL     1     -10.134  15.389  66.561  1.00  0.00    -0.254 OA 
BRANCH  14  15
HETATM   15  C   UNL     1     -11.240  14.610  66.671  1.00  0.00    -0.349 C  
HETATM   16  O   UNL     1     -12.331  14.945  67.102  1.00  0.00    -0.026 OA 
BRANCH  15  17
HETATM   17  C   UNL     1     -10.997  13.301  66.030  1.00  0.00    -0.292 A  
HETATM   18  C   UNL     1     -10.276  12.092  64.057  1.00  0.00    -0.370 A  
HETATM   19  C   UNL     1     -10.677  13.281  64.670  1.00  0.00    -0.415 A  
HETATM   20  C   UNL     1     -10.937  12.116  66.771  1.00  0.00    -0.325 A  
HETATM   21  C   UNL     1     -10.164  10.905  64.820  1.00  0.00    -0.333 A  
HETATM   22  C   UNL     1     -10.522  10.915  66.185  1.00  0.00    -0.229 A  
BRANCH  18  23
HETATM   23  O   UNL     1      -9.896  12.027  62.736  1.00  0.00    -0.187 OA 
HETATM   24  C   UNL     1      -8.568  11.580  62.478  1.00  0.00     0.206 C  
ENDBRANCH  18  23
BRANCH  21  25
HETATM   25  O   UNL     1      -9.766   9.795  64.110  1.00  0.00    -0.152 OA 
HETATM   26  C   UNL     1      -9.331   8.662  64.852  1.00  0.00     0.465 C  
ENDBRANCH  21  25
BRANCH  22  27
HETATM   27  O   UNL     1     -10.455   9.744  66.891  1.00  0.00    -0.238 OA 
HETATM   28  C   UNL     1     -11.135   9.671  68.140  1.00  0.00    -0.050 C  
ENDBRANCH  22  27
ENDBRANCH  15  17
ENDBRANCH  14  15
ENDBRANCH   6  14
TORSDOF 6
ENDMDL
MODEL      245
REMARK 921   NORMALIZED FREE ENERGY PREDICTED BY IDOCK:   -1.54 KCAL/MOL
REMARK 922        TOTAL FREE ENERGY PREDICTED BY IDOCK:   -3.01 KCAL/MOL
REMARK 923 INTER-LIGAND FREE ENERGY PREDICTED BY IDOCK:   -3.90 KCAL/MOL
REMARK 924 INTRA-LIGAND FREE ENERGY PREDICTED BY IDOCK:    0.89 KCAL/MOL
REMARK 927      BINDING AFFINITY PREDICTED BY RF-SCORE:    0.00 PKD
ROOT
HETATM    1  C   UNL     1     -11.574  11.528  66.034  1.00  0.00     0.024 C  
HETATM    2  C   UNL     1     -11.758  11.082  67.482  1.00  0.00    -0.023 C  
HETATM    3  C   UNL     1     -10.648  10.268  68.244  1.00  0.00    -0.221 C  
HETATM    4  N   UNL     1      -9.319  10.961  68.338  1.00  0.00    -0.165 NA 
HETATM    5  C   UNL     1     -11.160   9.954  69.720  1.00  0.00    -0.294 A  
HETATM    6  C   UNL     1     -10.515   8.820  67.634  1.00  0.00    -0.244 C  
HETATM    7  C   UNL     1     -12.402  10.398  70.216  1.00  0.00    -0.327 A  
HETATM    8  C   UNL     1     -10.745   8.954  71.924  1.00  0.00    -0.426 A  
HETATM    9  C   UNL     1      -8.642  11.323  67.096  1.00  0.00    -0.147 C  
HETATM   10  C   UNL     1      -9.305  12.126  69.226  1.00  0.00     0.778 C  
HETATM   11  C   UNL     1     -12.794  10.148  71.535  1.00  0.00    -0.548 A  
HETATM   12  C   UNL     1     -11.964   9.434  72.390  1.00  0.00     0.069 A  
HETATM   13  C   UNL     1     -10.346   9.211  70.608  1.00  0.00    -0.306 A  
ENDROOT
BRANCH   6  14
HETATM   14  O   UNL     1     -10.269   8.706  66.230  1.00  0.00    -0.264 OA 
BRANCH  14  15
HETATM   15  C   UNL     1      -9.139   8.023  65.913  1.00  0.00    -0.106 C  
HETATM   16  O   UNL     1      -8.114   8.485  65.441  1.00  0.00    -0.112 OA 
BRANCH  15  17
HETATM   17  C   UNL     1      -9.251   6.625  66.379  1.00  0.00    -0.180 A  
HETATM   18  C   UNL     1      -9.189   4.270  65.813  1.00  0.00    -0.146 A  
HETATM   19  C   UNL     1      -9.253   5.609  65.421  1.00  0.00     0.030 A  
HETATM   20  C   UNL     1      -9.209   6.294  67.738  1.00  0.00    -0.115 A  
HETATM   21  C   UNL     1      -9.092   3.938  67.186  1.00  0.00    -0.156 A  
HETATM   22  C   UNL     1      -9.127   4.962  68.156  1.00  0.00    -0.114 A  
BRANCH  18  23
HETATM   23  O   UNL     1      -9.132   3.232  64.911  1.00  0.00    -0.129 OA 
HETATM   24  C   UNL     1     -10.259   3.072  64.055  1.00  0.00    -0.148 C  
ENDBRANCH  18  23
BRANCH  21  25
HETATM   25  O   UNL     1      -9.041   2.589  67.454  1.00  0.00    -0.151 OA 
HETATM   26  C   UNL     1      -8.942   2.194  68.817  1.00  0.00    -0.120 C  
ENDBRANCH  21  25
BRANCH  22  27
HETATM   27  O   UNL     1      -9.083   4.615  69.480  1.00  0.00    -0.097 OA 
HETATM   28  C   UNL     1     -10.120   5.087  70.334  1.00  0.00    -0.260 C  
ENDBRANCH  22  27
ENDBRANCH  15  17
ENDBRANCH  14  15
ENDBRANCH   6  14
TORSDOF 6
ENDMDL
MODEL      246
REMARK 921   NORMALIZED FREE ENERGY PREDICTED BY IDOCK:   -1.43 KCAL/MOL
REMARK 922        TOTAL FREE ENERGY PREDICTED BY IDOCK:   -2.87 KCAL/MOL
REMARK 923 INTER-LIGAND FREE ENERGY PREDICTED BY IDOCK:   -2.30 KCAL/MOL
REMARK 924 INTRA-LIGAND FREE ENERGY PREDICTED BY IDOCK:   -0.57 KCAL/MOL
REMARK 927      BINDING AFFINITY PREDICTED BY RF-SCORE:    0.00 PKD
ROOT
HETATM    1  C   UNL     1      -7.543   6.671  64.631  1.00  0.00    -0.105 C  
HETATM    2  C   UNL     1      -7.062   6.726  66.078  1.00  0.00    -0.069 C  
HETATM    3  C   UNL     1      -7.247   5.510  67.059  1.00  0.00    -0.078 C  
HETATM    4  N   UNL     1      -6.598   4.235  66.603  1.00  0.00    -0.048 NA 
HETATM    5  C   UNL     1      -6.649   5.899  68.484  1.00  0.00    -0.055 A  
HETATM    6  C   UNL     1      -8.775   5.305  67.395  1.00  0.00    -0.106 C  
HETATM    7  C   UNL     1      -6.030   7.137  68.747  1.00  0.00    -0.023 A  
HETATM    8  C   UNL     1      -6.159   5.267  70.805  1.00  0.00    -0.022 A  
HETATM    9  C   UNL     1      -7.016   3.669  65.324  1.00  0.00    -0.061 C  
HETATM   10  C   UNL     1      -5.134   4.253  66.642  1.00  0.00    -0.008 C  
HETATM   11  C   UNL     1      -5.469   7.423  69.997  1.00  0.00    -0.023 A  
HETATM   12  C   UNL     1      -5.527   6.487  71.022  1.00  0.00    -0.023 A  
HETATM   13  C   UNL     1      -6.711   4.975  69.554  1.00  0.00    -0.051 A  
ENDROOT
BRANCH   6  14
HETATM   14  O   UNL     1      -9.683   5.143  66.303  1.00  0.00    -0.152 OA 
BRANCH  14  15
HETATM   15  C   UNL     1     -10.824   5.870  66.410  1.00  0.00    -0.037 C  
HETATM   16  O   UNL     1     -11.847   5.724  65.762  1.00  0.00     1.601 OA 
BRANCH  15  17
HETATM   17  C   UNL     1     -10.726   6.789  67.562  1.00  0.00    -0.381 A  
HETATM   18  C   UNL     1     -10.366   9.053  68.348  1.00  0.00    -0.205 A  
HETATM   19  C   UNL     1     -10.315   8.103  67.326  1.00  0.00    -0.373 A  
HETATM   20  C   UNL     1     -11.166   6.422  68.839  1.00  0.00    -0.385 A  
HETATM   21  C   UNL     1     -10.862   8.693  69.624  1.00  0.00    -0.157 A  
HETATM   22  C   UNL     1     -11.243   7.358  69.875  1.00  0.00    -0.135 A  
BRANCH  18  23
HETATM   23  O   UNL     1     -10.026  10.372  68.156  1.00  0.00    -0.145 OA 
HETATM   24  C   UNL     1      -8.650  10.645  67.912  1.00  0.00    -0.124 C  
ENDBRANCH  18  23
BRANCH  21  25
HETATM   25  O   UNL     1     -10.860   9.708  70.554  1.00  0.00    -0.260 OA 
HETATM   26  C   UNL     1     -12.024  10.522  70.641  1.00  0.00    -0.357 C  
ENDBRANCH  21  25
BRANCH  22  27
HETATM   27  O   UNL     1     -11.672   7.022  71.132  1.00  0.00    -0.290 OA 
HETATM   28  C   UNL     1     -10.712   6.530  72.062  1.00  0.00    -0.223 C  
ENDBRANCH  22  27
ENDBRANCH  15  17
ENDBRANCH  14  15
ENDBRANCH   6  14
TORSDOF 6
ENDMDL
MODEL      247
REMARK 921   NORMALIZED FREE ENERGY PREDICTED BY IDOCK:   -1.12 KCAL/MOL
REMARK 922        TOTAL FREE ENERGY PREDICTED BY IDOCK:   -2.44 KCAL/MOL
REMARK 923 INTER-LIGAND FREE ENERGY PREDICTED BY IDOCK:   -3.56 KCAL/MOL
REMARK 924 INTRA-LIGAND FREE ENERGY PREDICTED BY IDOCK:    1.11 KCAL/MOL
REMARK 927      BINDING AFFINITY PREDICTED BY RF-SCORE:    0.00 PKD
ROOT
HETATM    1  C   UNL     1      -9.936   4.720  67.080  1.00  0.00    -0.224 C  
HETATM    2  C   UNL     1      -8.803   4.491  68.077  1.00  0.00    -0.122 C  
HETATM    3  C   UNL     1      -8.622   5.401  69.348  1.00  0.00    -0.099 C  
HETATM    4  N   UNL     1      -9.803   5.419  70.276  1.00  0.00    -0.190 NA 
HETATM    5  C   UNL     1      -7.347   4.902  70.163  1.00  0.00    -0.054 A  
HETATM    6  C   UNL     1      -8.185   6.855  68.923  1.00  0.00    -0.121 C  
HETATM    7  C   UNL     1      -6.571   3.792  69.775  1.00  0.00    -0.033 A  
HETATM    8  C   UNL     1      -5.869   5.136  72.109  1.00  0.00    -0.021 A  
HETATM    9  C   UNL     1     -11.086   5.873  69.748  1.00  0.00    -0.352 C  
HETATM   10  C   UNL     1     -10.021   4.166  71.002  1.00  0.00    -0.136 C  
HETATM   11  C   UNL     1      -5.489   3.351  70.545  1.00  0.00    -0.012 A  
HETATM   12  C   UNL     1      -5.143   4.018  71.714  1.00  0.00     0.000 A  
HETATM   13  C   UNL     1      -6.957   5.572  71.346  1.00  0.00    -0.067 A  
ENDROOT
BRANCH   6  14
HETATM   14  O   UNL     1      -9.009   7.554  67.986  1.00  0.00    -0.130 OA 
BRANCH  14  15
HETATM   15  C   UNL     1      -9.841   8.468  68.545  1.00  0.00    -0.173 C  
HETATM   16  O   UNL     1     -10.845   8.239  69.198  1.00  0.00    -0.151 OA 
BRANCH  15  17
HETATM   17  C   UNL     1      -9.271   9.823  68.397  1.00  0.00    -0.130 A  
HETATM   18  C   UNL     1      -9.648  12.216  68.433  1.00  0.00    -0.186 A  
HETATM   19  C   UNL     1     -10.146  10.912  68.402  1.00  0.00    -0.196 A  
HETATM   20  C   UNL     1      -7.889  10.046  68.396  1.00  0.00    -0.089 A  
HETATM   21  C   UNL     1      -8.251  12.439  68.487  1.00  0.00    -0.086 A  
HETATM   22  C   UNL     1      -7.365  11.342  68.444  1.00  0.00    -0.097 A  
BRANCH  18  23
HETATM   23  O   UNL     1     -10.463  13.323  68.496  1.00  0.00    -0.247 OA 
HETATM   24  C   UNL     1     -11.860  13.076  68.628  1.00  0.00    -0.318 C  
ENDBRANCH  18  23
BRANCH  21  25
HETATM   25  O   UNL     1      -7.877  13.764  68.508  1.00  0.00    -0.132 OA 
HETATM   26  C   UNL     1      -7.564  14.377  67.263  1.00  0.00    -0.108 C  
ENDBRANCH  21  25
BRANCH  22  27
HETATM   27  O   UNL     1      -6.017  11.584  68.446  1.00  0.00    -0.046 OA 
HETATM   28  C   UNL     1      -5.228  10.985  69.469  1.00  0.00    -0.041 C  
ENDBRANCH  22  27
ENDBRANCH  15  17
ENDBRANCH  14  15
ENDBRANCH   6  14
TORSDOF 6
ENDMDL
MODEL      248
REMARK 921   NORMALIZED FREE ENERGY PREDICTED BY IDOCK:   -1.11 KCAL/MOL
REMARK 922        TOTAL FREE ENERGY PREDICTED BY IDOCK:   -2.44 KCAL/MOL
REMARK 923 INTER-LIGAND FREE ENERGY PREDICTED BY IDOCK:   -3.64 KCAL/MOL
REMARK 924 INTRA-LIGAND FREE ENERGY PREDICTED BY IDOCK:    1.20 KCAL/MOL
REMARK 927      BINDING AFFINITY PREDICTED BY RF-SCORE:    0.00 PKD
ROOT
HETATM    1  C   UNL     1      -9.936   4.720  67.082  1.00  0.00    -0.224 C  
HETATM    2  C   UNL     1      -8.806   4.477  68.078  1.00  0.00    -0.122 C  
HETATM    3  C   UNL     1      -8.626   5.371  69.360  1.00  0.00    -0.099 C  
HETATM    4  N   UNL     1      -9.809   5.381  70.285  1.00  0.00    -0.190 NA 
HETATM    5  C   UNL     1      -7.354   4.861  70.172  1.00  0.00    -0.054 A  
HETATM    6  C   UNL     1      -8.185   6.830  68.953  1.00  0.00    -0.121 C  
HETATM    7  C   UNL     1      -6.579   3.754  69.773  1.00  0.00    -0.033 A  
HETATM    8  C   UNL     1      -5.880   5.070  72.124  1.00  0.00    -0.020 A  
HETATM    9  C   UNL     1     -11.090   5.844  69.760  1.00  0.00    -0.352 C  
HETATM   10  C   UNL     1     -10.032   4.120  70.997  1.00  0.00    -0.136 C  
HETATM   11  C   UNL     1      -5.500   3.302  70.541  1.00  0.00    -0.012 A  
HETATM   12  C   UNL     1      -5.155   3.954  71.718  1.00  0.00     0.000 A  
HETATM   13  C   UNL     1      -6.965   5.517  71.364  1.00  0.00    -0.067 A  
ENDROOT
BRANCH   6  14
HETATM   14  O   UNL     1      -9.006   7.541  68.022  1.00  0.00    -0.130 OA 
BRANCH  14  15
HETATM   15  C   UNL     1      -9.845   8.443  68.591  1.00  0.00    -0.170 C  
HETATM   16  O   UNL     1     -10.855   8.199  69.229  1.00  0.00    -0.172 OA 
BRANCH  15  17
HETATM   17  C   UNL     1      -9.275   9.801  68.474  1.00  0.00    -0.134 A  
HETATM   18  C   UNL     1      -7.336  11.233  68.719  1.00  0.00    -0.109 A  
HETATM   19  C   UNL     1      -7.982  10.017  68.954  1.00  0.00    -0.101 A  
HETATM   20  C   UNL     1      -9.934  10.820  67.777  1.00  0.00    -0.195 A  
HETATM   21  C   UNL     1      -7.982  12.243  67.967  1.00  0.00    -0.150 A  
HETATM   22  C   UNL     1      -9.303  12.041  67.513  1.00  0.00    -0.179 A  
BRANCH  18  23
HETATM   23  O   UNL     1      -6.043  11.479  69.120  1.00  0.00    -0.055 OA 
HETATM   24  C   UNL     1      -5.343  10.389  69.711  1.00  0.00    -0.038 C  
ENDBRANCH  18  23
BRANCH  21  25
HETATM   25  O   UNL     1      -7.254  13.400  67.804  1.00  0.00    -0.121 OA 
HETATM   26  C   UNL     1      -7.476  14.452  68.735  1.00  0.00    -0.133 C  
ENDBRANCH  21  25
BRANCH  22  27
HETATM   27  O   UNL     1      -9.927  13.052  66.831  1.00  0.00    -0.234 OA 
HETATM   28  C   UNL     1     -10.431  12.774  65.529  1.00  0.00    -0.287 C  
ENDBRANCH  22  27
ENDBRANCH  15  17
ENDBRANCH  14  15
ENDBRANCH   6  14
TORSDOF 6
ENDMDL
MODEL      249
REMARK 921   NORMALIZED FREE ENERGY PREDICTED BY IDOCK:   -0.42 KCAL/MOL
REMARK 922        TOTAL FREE ENERGY PREDICTED BY IDOCK:   -1.51 KCAL/MOL
REMARK 923 INTER-LIGAND FREE ENERGY PREDICTED BY IDOCK:   -2.50 KCAL/MOL
REMARK 924 INTRA-LIGAND FREE ENERGY PREDICTED BY IDOCK:    1.00 KCAL/MOL
REMARK 927      BINDING AFFINITY PREDICTED BY RF-SCORE:    0.00 PKD
ROOT
HETATM    1  C   UNL     1     -10.359   6.061  69.634  1.00  0.00    -0.294 C  
HETATM    2  C   UNL     1      -9.412   7.200  69.268  1.00  0.00    -0.152 C  
HETATM    3  C   UNL     1      -8.902   7.411  67.794  1.00  0.00    -0.128 C  
HETATM    4  N   UNL     1      -9.990   7.623  66.782  1.00  0.00    -0.243 NA 
HETATM    5  C   UNL     1      -7.928   8.671  67.760  1.00  0.00    -0.107 A  
HETATM    6  C   UNL     1      -7.930   6.240  67.379  1.00  0.00    -0.109 C  
HETATM    7  C   UNL     1      -7.641   9.455  68.896  1.00  0.00    -0.075 A  
HETATM    8  C   UNL     1      -6.490  10.187  66.470  1.00  0.00    -0.076 A  
HETATM    9  C   UNL     1     -10.991   6.574  66.617  1.00  0.00    -0.093 C  
HETATM   10  C   UNL     1     -10.684   8.908  66.899  1.00  0.00    -0.083 C  
HETATM   11  C   UNL     1      -6.822  10.586  68.817  1.00  0.00    -0.060 A  
HETATM   12  C   UNL     1      -6.253  10.956  67.604  1.00  0.00    -0.051 A  
HETATM   13  C   UNL     1      -7.317   9.061  66.545  1.00  0.00    -0.085 A  
ENDROOT
BRANCH   6  14
HETATM   14  O   UNL     1      -8.410   4.899  67.499  1.00  0.00    -0.105 OA 
BRANCH  14  15
HETATM   15  C   UNL     1      -7.538   4.043  68.089  1.00  0.00    -0.067 C  
HETATM   16  O   UNL     1      -6.784   3.266  67.528  1.00  0.00    -0.043 OA 
BRANCH  15  17
HETATM   17  C   UNL     1      -7.498   4.293  69.545  1.00  0.00    -0.054 A  
HETATM   18  C   UNL     1      -8.311   3.691  71.747  1.00  0.00    -0.074 A  
HETATM   19  C   UNL     1      -8.414   3.619  70.356  1.00  0.00    -0.091 A  
HETATM   20  C   UNL     1      -6.489   5.063  70.134  1.00  0.00    -0.034 A  
HETATM   21  C   UNL     1      -7.257   4.426  72.341  1.00  0.00    -0.067 A  
HETATM   22  C   UNL     1      -6.353   5.138  71.524  1.00  0.00    -0.031 A  
BRANCH  18  23
HETATM   23  O   UNL     1      -9.151   3.003  72.592  1.00  0.00    -0.085 OA 
HETATM   24  C   UNL     1      -8.545   2.027  73.434  1.00  0.00    -0.065 C  
ENDBRANCH  18  23
BRANCH  21  25
HETATM   25  O   UNL     1      -7.259   4.432  73.717  1.00  0.00    -0.065 OA 
HETATM   26  C   UNL     1      -8.244   5.225  74.370  1.00  0.00    -0.101 C  
ENDBRANCH  21  25
BRANCH  22  27
HETATM   27  O   UNL     1      -5.373   5.884  72.122  1.00  0.00    -0.020 OA 
HETATM   28  C   UNL     1      -5.764   6.880  73.062  1.00  0.00    -0.042 C  
ENDBRANCH  22  27
ENDBRANCH  15  17
ENDBRANCH  14  15
ENDBRANCH   6  14
TORSDOF 6
ENDMDL
MODEL      250
REMARK 921   NORMALIZED FREE ENERGY PREDICTED BY IDOCK:   -0.11 KCAL/MOL
REMARK 922        TOTAL FREE ENERGY PREDICTED BY IDOCK:   -1.08 KCAL/MOL
REMARK 923 INTER-LIGAND FREE ENERGY PREDICTED BY IDOCK:   -0.39 KCAL/MOL
REMARK 924 INTRA-LIGAND FREE ENERGY PREDICTED BY IDOCK:   -0.69 KCAL/MOL
REMARK 927      BINDING AFFINITY PREDICTED BY RF-SCORE:    0.00 PKD
ROOT
HETATM    1  C   UNL     1      -9.982   4.440  66.958  1.00  0.00    -0.197 C  
HETATM    2  C   UNL     1      -8.935   3.793  67.860  1.00  0.00    -0.158 C  
HETATM    3  C   UNL     1      -8.583   4.384  69.276  1.00  0.00    -0.082 C  
HETATM    4  N   UNL     1      -9.746   4.469  70.222  1.00  0.00    -0.200 NA 
HETATM    5  C   UNL     1      -7.452   3.483  69.945  1.00  0.00    -0.045 A  
HETATM    6  C   UNL     1      -7.845   5.769  69.122  1.00  0.00    -0.090 C  
HETATM    7  C   UNL     1      -6.921   2.331  69.331  1.00  0.00    -0.033 A  
HETATM    8  C   UNL     1      -5.982   3.027  71.858  1.00  0.00    -0.013 A  
HETATM    9  C   UNL     1     -10.898   5.273  69.827  1.00  0.00     0.048 C  
HETATM   10  C   UNL     1     -10.231   3.173  70.704  1.00  0.00     0.742 C  
HETATM   11  C   UNL     1      -5.965   1.536  69.973  1.00  0.00    -0.022 A  
HETATM   12  C   UNL     1      -5.502   1.879  71.237  1.00  0.00    -0.008 A  
HETATM   13  C   UNL     1      -6.944   3.818  71.223  1.00  0.00    -0.032 A  
ENDROOT
BRANCH   6  14
HETATM   14  O   UNL     1      -8.492   6.790  68.359  1.00  0.00    -0.121 OA 
BRANCH  14  15
HETATM   15  C   UNL     1      -8.086   8.052  68.653  1.00  0.00    -0.125 C  
HETATM   16  O   UNL     1      -7.896   8.518  69.763  1.00  0.00    -0.090 OA 
BRANCH  15  17
HETATM   17  C   UNL     1      -7.732   8.767  67.409  1.00  0.00    -0.097 A  
HETATM   18  C   UNL     1      -6.899   8.631  65.138  1.00  0.00    -0.068 A  
HETATM   19  C   UNL     1      -7.103   8.048  66.390  1.00  0.00    -0.074 A  
HETATM   20  C   UNL     1      -8.137  10.086  67.176  1.00  0.00    -0.117 A  
HETATM   21  C   UNL     1      -7.357   9.947  64.887  1.00  0.00    -0.136 A  
HETATM   22  C   UNL     1      -7.960  10.687  65.926  1.00  0.00    -0.157 A  
BRANCH  18  23
HETATM   23  O   UNL     1      -6.336   7.950  64.083  1.00  0.00    -0.056 OA 
HETATM   24  C   UNL     1      -6.125   6.554  64.268  1.00  0.00    -0.034 C  
ENDBRANCH  18  23
BRANCH  21  25
HETATM   25  O   UNL     1      -7.097  10.419  63.621  1.00  0.00    -0.100 OA 
HETATM   26  C   UNL     1      -5.927  11.209  63.443  1.00  0.00     0.697 C  
ENDBRANCH  21  25
BRANCH  22  27
HETATM   27  O   UNL     1      -8.349  11.976  65.674  1.00  0.00     0.420 OA 
HETATM   28  C   UNL     1      -9.689  12.347  65.983  1.00  0.00    -0.244 C  
ENDBRANCH  22  27
ENDBRANCH  15  17
ENDBRANCH  14  15
ENDBRANCH   6  14
TORSDOF 6
ENDMDL
MODEL      251
REMARK 921   NORMALIZED FREE ENERGY PREDICTED BY IDOCK:    1.61 KCAL/MOL
REMARK 922        TOTAL FREE ENERGY PREDICTED BY IDOCK:    1.24 KCAL/MOL
REMARK 923 INTER-LIGAND FREE ENERGY PREDICTED BY IDOCK:   -0.64 KCAL/MOL
REMARK 924 INTRA-LIGAND FREE ENERGY PREDICTED BY IDOCK:    1.88 KCAL/MOL
REMARK 927      BINDING AFFINITY PREDICTED BY RF-SCORE:    0.00 PKD
ROOT
HETATM    1  C   UNL     1     -10.831  12.235  66.171  1.00  0.00    -0.314 C  
HETATM    2  C   UNL     1     -11.445  11.572  67.401  1.00  0.00    -0.349 C  
HETATM    3  C   UNL     1     -10.600  11.292  68.699  1.00  0.00    -0.202 C  
HETATM    4  N   UNL     1      -9.990  12.514  69.322  1.00  0.00     0.411 NA 
HETATM    5  C   UNL     1     -11.532  10.584  69.780  1.00  0.00    -0.365 A  
HETATM    6  C   UNL     1      -9.523  10.174  68.420  1.00  0.00    -0.143 C  
HETATM    7  C   UNL     1     -12.898  10.316  69.562  1.00  0.00     0.766 A  
HETATM    8  C   UNL     1     -11.799   9.625  72.024  1.00  0.00    -0.128 A  
HETATM    9  C   UNL     1      -9.070  13.311  68.518  1.00  0.00    -0.064 C  
HETATM   10  C   UNL     1     -10.956  13.419  69.950  1.00  0.00     0.357 C  
HETATM   11  C   UNL     1     -13.698   9.741  70.555  1.00  0.00     0.401 A  
HETATM   12  C   UNL     1     -13.152   9.403  71.787  1.00  0.00    -0.488 A  
HETATM   13  C   UNL     1     -11.000  10.209  71.036  1.00  0.00    -0.146 A  
ENDROOT
BRANCH   6  14
HETATM   14  O   UNL     1      -8.618  10.373  67.331  1.00  0.00    -0.125 OA 
BRANCH  14  15
HETATM   15  C   UNL     1      -7.629   9.448  67.247  1.00  0.00    -0.091 C  
HETATM   16  O   UNL     1      -6.528   9.598  66.744  1.00  0.00    -0.065 OA 
BRANCH  15  17
HETATM   17  C   UNL     1      -8.005   8.242  68.013  1.00  0.00    -0.123 A  
HETATM   18  C   UNL     1      -7.295   6.436  69.465  1.00  0.00    -0.088 A  
HETATM   19  C   UNL     1      -6.986   7.485  68.596  1.00  0.00    -0.079 A  
HETATM   20  C   UNL     1      -9.342   7.927  68.284  1.00  0.00    -0.145 A  
HETATM   21  C   UNL     1      -8.645   6.153  69.781  1.00  0.00    -0.132 A  
HETATM   22  C   UNL     1      -9.677   6.892  69.164  1.00  0.00    -0.155 A  
BRANCH  18  23
HETATM   23  O   UNL     1      -6.331   5.696  70.109  1.00  0.00    -0.028 OA 
HETATM   24  C   UNL     1      -6.345   5.737  71.533  1.00  0.00    -0.044 C  
ENDBRANCH  18  23
BRANCH  21  25
HETATM   25  O   UNL     1      -8.829   5.095  70.641  1.00  0.00    -0.123 OA 
HETATM   26  C   UNL     1      -9.553   5.343  71.841  1.00  0.00    -0.154 C  
ENDBRANCH  21  25
BRANCH  22  27
HETATM   27  O   UNL     1     -10.977   6.567  69.445  1.00  0.00    -0.275 OA 
HETATM   28  C   UNL     1     -11.900   6.486  68.364  1.00  0.00     1.247 C  
ENDBRANCH  22  27
ENDBRANCH  15  17
ENDBRANCH  14  15
ENDBRANCH   6  14
TORSDOF 6
ENDMDL
MODEL      252
REMARK 921   NORMALIZED FREE ENERGY PREDICTED BY IDOCK:    2.52 KCAL/MOL
REMARK 922        TOTAL FREE ENERGY PREDICTED BY IDOCK:    2.47 KCAL/MOL
REMARK 923 INTER-LIGAND FREE ENERGY PREDICTED BY IDOCK:    2.98 KCAL/MOL
REMARK 924 INTRA-LIGAND FREE ENERGY PREDICTED BY IDOCK:   -0.51 KCAL/MOL
REMARK 927      BINDING AFFINITY PREDICTED BY RF-SCORE:    0.00 PKD
ROOT
HETATM    1  C   UNL     1     -10.421  13.698  70.950  1.00  0.00     3.413 C  
HETATM    2  C   UNL     1     -10.588  12.964  69.623  1.00  0.00     0.564 C  
HETATM    3  C   UNL     1      -9.910  13.481  68.300  1.00  0.00    -0.233 C  
HETATM    4  N   UNL     1      -8.413  13.590  68.367  1.00  0.00    -0.163 NA 
HETATM    5  C   UNL     1     -10.292  12.498  67.105  1.00  0.00    -0.230 A  
HETATM    6  C   UNL     1     -10.578  14.831  67.834  1.00  0.00    -0.248 C  
HETATM    7  C   UNL     1     -11.082  11.345  67.279  1.00  0.00    -0.363 A  
HETATM    8  C   UNL     1     -10.099  11.894  64.734  1.00  0.00    -0.295 A  
HETATM    9  C   UNL     1      -7.832  14.467  69.379  1.00  0.00     0.104 C  
HETATM   10  C   UNL     1      -7.714  12.303  68.416  1.00  0.00    -0.141 C  
HETATM   11  C   UNL     1     -11.353  10.477  66.216  1.00  0.00     0.579 A  
HETATM   12  C   UNL     1     -10.857  10.747  64.947  1.00  0.00    -0.055 A  
HETATM   13  C   UNL     1      -9.818  12.757  65.797  1.00  0.00    -0.222 A  
ENDROOT
BRANCH   6  14
HETATM   14  O   UNL     1     -10.621  15.913  68.768  1.00  0.00    -0.225 OA 
BRANCH  14  15
HETATM   15  C   UNL     1     -10.806  17.133  68.203  1.00  0.00    -0.316 C  
HETATM   16  O   UNL     1     -11.866  17.720  68.063  1.00  0.00     1.066 OA 
BRANCH  15  17
HETATM   17  C   UNL     1      -9.498  17.756  67.915  1.00  0.00    -0.270 A  
HETATM   18  C   UNL     1      -8.218  19.279  66.531  1.00  0.00    -0.309 A  
HETATM   19  C   UNL     1      -9.377  18.536  66.763  1.00  0.00    -0.297 A  
HETATM   20  C   UNL     1      -8.438  17.703  68.828  1.00  0.00    -0.213 A  
HETATM   21  C   UNL     1      -7.168  19.267  67.482  1.00  0.00    -0.221 A  
HETATM   22  C   UNL     1      -7.273  18.451  68.628  1.00  0.00    -0.286 A  
BRANCH  18  23
HETATM   23  O   UNL     1      -8.068  20.106  65.442  1.00  0.00    -0.162 OA 
HETATM   24  C   UNL     1      -8.959  21.215  65.360  1.00  0.00     2.280 C  
ENDBRANCH  18  23
BRANCH  21  25
HETATM   25  O   UNL     1      -6.074  20.031  67.146  1.00  0.00    -0.178 OA 
HETATM   26  C   UNL     1      -5.226  19.545  66.113  1.00  0.00    -0.156 C  
ENDBRANCH  21  25
BRANCH  22  27
HETATM   27  O   UNL     1      -6.224  18.416  69.508  1.00  0.00    -0.257 OA 
HETATM   28  C   UNL     1      -5.476  17.209  69.617  1.00  0.00    -0.189 C  
ENDBRANCH  22  27
ENDBRANCH  15  17
ENDBRANCH  14  15
ENDBRANCH   6  14
TORSDOF 6
ENDMDL
MODEL      253
REMARK 921   NORMALIZED FREE ENERGY PREDICTED BY IDOCK:    2.87 KCAL/MOL
REMARK 922        TOTAL FREE ENERGY PREDICTED BY IDOCK:    2.94 KCAL/MOL
REMARK 923 INTER-LIGAND FREE ENERGY PREDICTED BY IDOCK:    0.98 KCAL/MOL
REMARK 924 INTRA-LIGAND FREE ENERGY PREDICTED BY IDOCK:    1.96 KCAL/MOL
REMARK 927      BINDING AFFINITY PREDICTED BY RF-SCORE:    0.00 PKD
ROOT
HETATM    1  C   UNL     1      -9.971  17.304  70.893  1.00  0.00     3.170 C  
HETATM    2  C   UNL     1      -8.880  16.415  70.301  1.00  0.00     1.893 C  
HETATM    3  C   UNL     1      -8.334  16.635  68.842  1.00  0.00    -0.230 C  
HETATM    4  N   UNL     1      -7.745  17.993  68.594  1.00  0.00    -0.300 NA 
HETATM    5  C   UNL     1      -7.220  15.537  68.536  1.00  0.00    -0.119 A  
HETATM    6  C   UNL     1      -9.444  16.272  67.782  1.00  0.00    -0.221 C  
HETATM    7  C   UNL     1      -6.807  14.576  69.479  1.00  0.00    -0.152 A  
HETATM    8  C   UNL     1      -5.572  14.586  66.985  1.00  0.00     1.237 A  
HETATM    9  C   UNL     1      -8.600  19.160  68.785  1.00  0.00    -0.335 C  
HETATM   10  C   UNL     1      -6.474  18.237  69.281  1.00  0.00    -0.254 C  
HETATM   11  C   UNL     1      -5.788  13.661  69.192  1.00  0.00    -0.084 A  
HETATM   12  C   UNL     1      -5.166  13.670  67.950  1.00  0.00    -0.083 A  
HETATM   13  C   UNL     1      -6.583  15.508  67.273  1.00  0.00    -0.090 A  
ENDROOT
BRANCH   6  14
HETATM   14  O   UNL     1     -10.711  16.927  67.890  1.00  0.00    -0.347 OA 
BRANCH  14  15
HETATM   15  C   UNL     1     -11.681  16.177  68.471  1.00  0.00    -0.170 C  
HETATM   16  O   UNL     1     -12.420  16.516  69.380  1.00  0.00     0.391 OA 
BRANCH  15  17
HETATM   17  C   UNL     1     -11.847  14.910  67.730  1.00  0.00    -0.277 A  
HETATM   18  C   UNL     1     -12.401  13.821  65.637  1.00  0.00    -0.482 A  
HETATM   19  C   UNL     1     -12.379  14.964  66.440  1.00  0.00     0.237 A  
HETATM   20  C   UNL     1     -11.357  13.696  68.226  1.00  0.00    -0.322 A  
HETATM   21  C   UNL     1     -11.856  12.607  66.120  1.00  0.00    -0.418 A  
HETATM   22  C   UNL     1     -11.352  12.541  67.437  1.00  0.00    -0.313 A  
BRANCH  18  23
HETATM   23  O   UNL     1     -12.862  13.830  64.341  1.00  0.00    -0.635 OA 
HETATM   24  C   UNL     1     -11.964  13.351  63.344  1.00  0.00    -0.344 C  
ENDBRANCH  18  23
BRANCH  21  25
HETATM   25  O   UNL     1     -11.938  11.547  65.246  1.00  0.00    -0.079 OA 
HETATM   26  C   UNL     1     -10.805  11.282  64.427  1.00  0.00    -0.303 C  
ENDBRANCH  21  25
BRANCH  22  27
HETATM   27  O   UNL     1     -10.876  11.343  67.900  1.00  0.00    -0.199 OA 
HETATM   28  C   UNL     1      -9.512  11.271  68.300  1.00  0.00    -0.190 C  
ENDBRANCH  22  27
ENDBRANCH  15  17
ENDBRANCH  14  15
ENDBRANCH   6  14
TORSDOF 6
ENDMDL
MODEL      254
REMARK 921   NORMALIZED FREE ENERGY PREDICTED BY IDOCK:    3.30 KCAL/MOL
REMARK 922        TOTAL FREE ENERGY PREDICTED BY IDOCK:    3.53 KCAL/MOL
REMARK 923 INTER-LIGAND FREE ENERGY PREDICTED BY IDOCK:    0.00 KCAL/MOL
REMARK 924 INTRA-LIGAND FREE ENERGY PREDICTED BY IDOCK:    3.53 KCAL/MOL
REMARK 927      BINDING AFFINITY PREDICTED BY RF-SCORE:    0.00 PKD
ROOT
HETATM    1  C   UNL     1      -5.143  13.143  67.895  1.00  0.00    -0.103 C  
HETATM    2  C   UNL     1      -5.956  12.131  68.697  1.00  0.00    -0.055 C  
HETATM    3  C   UNL     1      -7.160  11.345  68.059  1.00  0.00    -0.074 C  
HETATM    4  N   UNL     1      -6.799  10.516  66.860  1.00  0.00    -0.086 NA 
HETATM    5  C   UNL     1      -7.794  10.387  69.163  1.00  0.00    -0.134 A  
HETATM    6  C   UNL     1      -8.357  12.327  67.758  1.00  0.00    -0.162 C  
HETATM    7  C   UNL     1      -7.286  10.277  70.472  1.00  0.00     0.153 A  
HETATM    8  C   UNL     1      -9.468   8.697  69.773  1.00  0.00    -0.166 A  
HETATM    9  C   UNL     1      -6.223  11.194  65.703  1.00  0.00     0.175 C  
HETATM   10  C   UNL     1      -5.979   9.340  67.161  1.00  0.00    -0.049 C  
HETATM   11  C   UNL     1      -7.837   9.385  71.399  1.00  0.00     0.281 A  
HETATM   12  C   UNL     1      -8.921   8.591  71.048  1.00  0.00    -0.219 A  
HETATM   13  C   UNL     1      -8.912   9.580  68.842  1.00  0.00    -0.141 A  
ENDROOT
BRANCH   6  14
HETATM   14  O   UNL     1      -8.092  13.474  66.948  1.00  0.00    -0.058 OA 
BRANCH  14  15
HETATM   15  C   UNL     1      -9.138  14.332  66.833  1.00  0.00    -0.252 C  
HETATM   16  O   UNL     1     -10.220  14.100  66.321  1.00  0.00    -0.279 OA 
BRANCH  15  17
HETATM   17  C   UNL     1      -8.850  15.576  67.576  1.00  0.00    -0.191 A  
HETATM   18  C   UNL     1      -7.311  17.402  67.990  1.00  0.00    -0.195 A  
HETATM   19  C   UNL     1      -7.581  16.144  67.445  1.00  0.00    -0.191 A  
HETATM   20  C   UNL     1      -9.846  16.263  68.279  1.00  0.00    -0.227 A  
HETATM   21  C   UNL     1      -8.335  18.119  68.654  1.00  0.00    -0.275 A  
HETATM   22  C   UNL     1      -9.607  17.531  68.819  1.00  0.00    -0.277 A  
BRANCH  18  23
HETATM   23  O   UNL     1      -6.097  18.032  67.843  1.00  0.00    -0.159 OA 
HETATM   24  C   UNL     1      -5.738  18.965  68.858  1.00  0.00    -0.206 C  
ENDBRANCH  18  23
BRANCH  21  25
HETATM   25  O   UNL     1      -7.953  19.343  69.155  1.00  0.00    -0.329 OA 
HETATM   26  C   UNL     1      -7.403  20.284  68.241  1.00  0.00    -0.172 C  
ENDBRANCH  21  25
BRANCH  22  27
HETATM   27  O   UNL     1     -10.567  18.223  69.509  1.00  0.00     0.240 OA 
HETATM   28  C   UNL     1     -11.752  17.531  69.889  1.00  0.00     3.154 C  
ENDBRANCH  22  27
ENDBRANCH  15  17
ENDBRANCH  14  15
ENDBRANCH   6  14
TORSDOF 6
ENDMDL
MODEL      255
REMARK 921   NORMALIZED FREE ENERGY PREDICTED BY IDOCK:    3.46 KCAL/MOL
REMARK 922        TOTAL FREE ENERGY PREDICTED BY IDOCK:    3.74 KCAL/MOL
REMARK 923 INTER-LIGAND FREE ENERGY PREDICTED BY IDOCK:   -2.91 KCAL/MOL
REMARK 924 INTRA-LIGAND FREE ENERGY PREDICTED BY IDOCK:    6.65 KCAL/MOL
REMARK 927      BINDING AFFINITY PREDICTED BY RF-SCORE:    0.00 PKD
ROOT
HETATM    1  C   UNL     1      -6.418   8.410  67.585  1.00  0.00    -0.057 C  
HETATM    2  C   UNL     1      -7.758   8.533  68.304  1.00  0.00    -0.102 C  
HETATM    3  C   UNL     1      -8.389   7.326  69.091  1.00  0.00    -0.132 C  
HETATM    4  N   UNL     1      -7.532   6.787  70.200  1.00  0.00    -0.091 NA 
HETATM    5  C   UNL     1      -9.785   7.784  69.708  1.00  0.00    -0.176 A  
HETATM    6  C   UNL     1      -8.836   6.193  68.089  1.00  0.00    -0.112 C  
HETATM    7  C   UNL     1     -10.297   9.089  69.569  1.00  0.00    -0.211 A  
HETATM    8  C   UNL     1     -11.774   7.247  71.042  1.00  0.00    -0.340 A  
HETATM    9  C   UNL     1      -6.206   6.279  69.861  1.00  0.00    -0.031 C  
HETATM   10  C   UNL     1      -7.401   7.682  71.353  1.00  0.00    -0.074 C  
HETATM   11  C   UNL     1     -11.502   9.470  70.170  1.00  0.00    -0.205 A  
HETATM   12  C   UNL     1     -12.236   8.552  70.911  1.00  0.00    -0.110 A  
HETATM   13  C   UNL     1     -10.565   6.867  70.451  1.00  0.00    -0.247 A  
ENDROOT
BRANCH   6  14
HETATM   14  O   UNL     1      -7.856   5.675  67.185  1.00  0.00    -0.100 OA 
BRANCH  14  15
HETATM   15  C   UNL     1      -7.738   4.323  67.201  1.00  0.00    -0.092 C  
HETATM   16  O   UNL     1      -7.553   3.595  66.241  1.00  0.00    -0.082 OA 
BRANCH  15  17
HETATM   17  C   UNL     1      -7.699   3.840  68.596  1.00  0.00    -0.056 A  
HETATM   18  C   UNL     1      -6.346   3.147  70.484  1.00  0.00    -0.027 A  
HETATM   19  C   UNL     1      -6.466   3.452  69.126  1.00  0.00    -0.033 A  
HETATM   20  C   UNL     1      -8.822   3.897  69.429  1.00  0.00    -0.148 A  
HETATM   21  C   UNL     1      -7.471   3.258  71.336  1.00  0.00    -0.040 A  
HETATM   22  C   UNL     1      -8.725   3.614  70.796  1.00  0.00    -0.074 A  
BRANCH  18  23
HETATM   23  O   UNL     1      -5.146   2.814  71.068  1.00  0.00    -0.003 OA 
HETATM   24  C   UNL     1      -5.165   1.718  71.978  1.00  0.00     0.000 C  
ENDBRANCH  18  23
BRANCH  21  25
HETATM   25  O   UNL     1      -7.236   2.927  72.651  1.00  0.00    -0.037 OA 
HETATM   26  C   UNL     1      -8.043   1.907  73.226  1.00  0.00    -0.046 C  
ENDBRANCH  21  25
BRANCH  22  27
HETATM   27  O   UNL     1      -9.810   3.665  71.630  1.00  0.00    -0.166 OA 
HETATM   28  C   UNL     1      -9.773   2.897  72.829  1.00  0.00    -0.122 C  
ENDBRANCH  22  27
ENDBRANCH  15  17
ENDBRANCH  14  15
ENDBRANCH   6  14
TORSDOF 6
ENDMDL
MODEL      256
REMARK 921   NORMALIZED FREE ENERGY PREDICTED BY IDOCK:    7.45 KCAL/MOL
REMARK 922        TOTAL FREE ENERGY PREDICTED BY IDOCK:    9.12 KCAL/MOL
REMARK 923 INTER-LIGAND FREE ENERGY PREDICTED BY IDOCK:    7.15 KCAL/MOL
REMARK 924 INTRA-LIGAND FREE ENERGY PREDICTED BY IDOCK:    1.98 KCAL/MOL
REMARK 927      BINDING AFFINITY PREDICTED BY RF-SCORE:    0.00 PKD
ROOT
HETATM    1  C   UNL     1     -10.304  13.550  71.255  1.00  0.00     5.639 C  
HETATM    2  C   UNL     1     -10.357  12.667  70.012  1.00  0.00     1.836 C  
HETATM    3  C   UNL     1      -9.741  13.131  68.640  1.00  0.00    -0.057 C  
HETATM    4  N   UNL     1      -8.274  13.447  68.689  1.00  0.00    -0.081 NA 
HETATM    5  C   UNL     1      -9.976  11.988  67.555  1.00  0.00    -0.199 A  
HETATM    6  C   UNL     1     -10.581  14.323  68.039  1.00  0.00    -0.238 C  
HETATM    7  C   UNL     1     -10.605  10.762  67.851  1.00  0.00    -0.258 A  
HETATM    8  C   UNL     1      -9.679  11.172  65.258  1.00  0.00    -0.285 A  
HETATM    9  C   UNL     1      -7.826  14.495  69.602  1.00  0.00     0.186 C  
HETATM   10  C   UNL     1      -7.409  12.279  68.868  1.00  0.00    -0.041 C  
HETATM   11  C   UNL     1     -10.746   9.760  66.885  1.00  0.00    -0.192 A  
HETATM   12  C   UNL     1     -10.277   9.962  65.593  1.00  0.00    -0.229 A  
HETATM   13  C   UNL     1      -9.528  12.171  66.225  1.00  0.00    -0.238 A  
ENDROOT
BRANCH   6  14
HETATM   14  O   UNL     1     -10.778  15.480  68.855  1.00  0.00    -0.224 OA 
BRANCH  14  15
HETATM   15  C   UNL     1     -11.176  16.585  68.174  1.00  0.00    -0.241 C  
HETATM   16  O   UNL     1     -12.321  16.975  68.020  1.00  0.00     1.407 OA 
BRANCH  15  17
HETATM   17  C   UNL     1      -9.996  17.374  67.765  1.00  0.00    -0.301 A  
HETATM   18  C   UNL     1      -7.590  17.651  67.854  1.00  0.00    -0.210 A  
HETATM   19  C   UNL     1      -8.759  17.051  68.327  1.00  0.00    -0.241 A  
HETATM   20  C   UNL     1     -10.063  18.323  66.739  1.00  0.00    -0.375 A  
HETATM   21  C   UNL     1      -7.653  18.571  66.779  1.00  0.00    -0.229 A  
HETATM   22  C   UNL     1      -8.906  18.926  66.235  1.00  0.00    -0.252 A  
BRANCH  18  23
HETATM   23  O   UNL     1      -6.341  17.329  68.332  1.00  0.00    -0.154 OA 
HETATM   24  C   UNL     1      -5.307  17.185  67.363  1.00  0.00    -0.136 C  
ENDBRANCH  18  23
BRANCH  21  25
HETATM   25  O   UNL     1      -6.441  19.103  66.401  1.00  0.00    -0.183 OA 
HETATM   26  C   UNL     1      -5.820  20.021  67.293  1.00  0.00    -0.171 C  
ENDBRANCH  21  25
BRANCH  22  27
HETATM   27  O   UNL     1      -8.946  19.857  65.231  1.00  0.00     0.036 OA 
HETATM   28  C   UNL     1      -9.081  21.228  65.589  1.00  0.00     2.581 C  
ENDBRANCH  22  27
ENDBRANCH  15  17
ENDBRANCH  14  15
ENDBRANCH   6  14
TORSDOF 6
ENDMDL
MODEL      257
REMARK 921   NORMALIZED FREE ENERGY PREDICTED BY IDOCK:    9.08 KCAL/MOL
REMARK 922        TOTAL FREE ENERGY PREDICTED BY IDOCK:   11.32 KCAL/MOL
REMARK 923 INTER-LIGAND FREE ENERGY PREDICTED BY IDOCK:   11.24 KCAL/MOL
REMARK 924 INTRA-LIGAND FREE ENERGY PREDICTED BY IDOCK:    0.08 KCAL/MOL
REMARK 927      BINDING AFFINITY PREDICTED BY RF-SCORE:    0.00 PKD
ROOT
HETATM    1  C   UNL     1      -7.017  13.524  65.853  1.00  0.00     5.526 C  
HETATM    2  C   UNL     1      -6.938  12.452  66.936  1.00  0.00     0.104 C  
HETATM    3  C   UNL     1      -7.512  11.004  66.710  1.00  0.00    -0.139 C  
HETATM    4  N   UNL     1      -6.909  10.267  65.550  1.00  0.00    -0.130 NA 
HETATM    5  C   UNL     1      -7.278  10.144  68.031  1.00  0.00    -0.085 A  
HETATM    6  C   UNL     1      -9.086  11.047  66.627  1.00  0.00    -0.166 C  
HETATM    7  C   UNL     1      -6.620  10.647  69.171  1.00  0.00    -0.061 A  
HETATM    8  C   UNL     1      -7.501   8.007  69.218  1.00  0.00    -0.094 A  
HETATM    9  C   UNL     1      -7.028  10.859  64.221  1.00  0.00     0.598 C  
HETATM   10  C   UNL     1      -5.515   9.860  65.749  1.00  0.00    -0.047 C  
HETATM   11  C   UNL     1      -6.387   9.845  70.294  1.00  0.00    -0.094 A  
HETATM   12  C   UNL     1      -6.820   8.525  70.315  1.00  0.00    -0.039 A  
HETATM   13  C   UNL     1      -7.726   8.803  68.091  1.00  0.00    -0.101 A  
ENDROOT
BRANCH   6  14
HETATM   14  O   UNL     1      -9.681  11.919  65.663  1.00  0.00    -0.232 OA 
BRANCH  14  15
HETATM   15  C   UNL     1     -10.903  12.393  66.016  1.00  0.00    -0.273 C  
HETATM   16  O   UNL     1     -11.750  12.855  65.270  1.00  0.00    -0.329 OA 
BRANCH  15  17
HETATM   17  C   UNL     1     -11.153  12.122  67.446  1.00  0.00    -0.330 A  
HETATM   18  C   UNL     1     -11.068  12.935  69.728  1.00  0.00     0.189 A  
HETATM   19  C   UNL     1     -10.713  13.060  68.383  1.00  0.00    -0.273 A  
HETATM   20  C   UNL     1     -11.932  11.038  67.867  1.00  0.00     0.104 A  
HETATM   21  C   UNL     1     -11.902  11.868  70.142  1.00  0.00    -0.308 A  
HETATM   22  C   UNL     1     -12.316  10.899  69.204  1.00  0.00     0.042 A  
BRANCH  18  23
HETATM   23  O   UNL     1     -10.710  13.859  70.681  1.00  0.00     0.888 OA 
HETATM   24  C   UNL     1     -11.519  15.028  70.768  1.00  0.00    -0.292 C  
ENDBRANCH  18  23
BRANCH  21  25
HETATM   25  O   UNL     1     -12.181  11.842  71.490  1.00  0.00    -0.055 OA 
HETATM   26  C   UNL     1     -12.186  10.574  72.135  1.00  0.00     0.605 C  
ENDBRANCH  21  25
BRANCH  22  27
HETATM   27  O   UNL     1     -13.080   9.848  69.638  1.00  0.00     0.578 OA 
HETATM   28  C   UNL     1     -12.870   8.572  69.042  1.00  0.00     5.651 C  
ENDBRANCH  22  27
ENDBRANCH  15  17
ENDBRANCH  14  15
ENDBRANCH   6  14
TORSDOF 6
ENDMDL
MODEL      258
REMARK 921   NORMALIZED FREE ENERGY PREDICTED BY IDOCK:   11.12 KCAL/MOL
REMARK 922        TOTAL FREE ENERGY PREDICTED BY IDOCK:   14.08 KCAL/MOL
REMARK 923 INTER-LIGAND FREE ENERGY PREDICTED BY IDOCK:    2.97 KCAL/MOL
REMARK 924 INTRA-LIGAND FREE ENERGY PREDICTED BY IDOCK:   11.11 KCAL/MOL
REMARK 927      BINDING AFFINITY PREDICTED BY RF-SCORE:    0.00 PKD
ROOT
HETATM    1  C   UNL     1      -9.738   8.212  67.252  1.00  0.00    -0.233 C  
HETATM    2  C   UNL     1      -8.864   8.733  66.115  1.00  0.00    -0.201 C  
HETATM    3  C   UNL     1      -8.733  10.271  65.809  1.00  0.00    -0.156 C  
HETATM    4  N   UNL     1      -8.215  11.094  66.954  1.00  0.00    -0.143 NA 
HETATM    5  C   UNL     1      -7.761  10.470  64.563  1.00  0.00     0.031 A  
HETATM    6  C   UNL     1     -10.096  10.835  65.249  1.00  0.00    -0.290 C  
HETATM    7  C   UNL     1      -7.119   9.400  63.908  1.00  0.00    -0.099 A  
HETATM    8  C   UNL     1      -6.613  11.985  63.010  1.00  0.00     3.574 A  
HETATM    9  C   UNL     1      -8.969  11.088  68.203  1.00  0.00    -0.152 C  
HETATM   10  C   UNL     1      -6.801  10.871  67.268  1.00  0.00    -0.084 C  
HETATM   11  C   UNL     1      -6.230   9.617  62.850  1.00  0.00    -0.103 A  
HETATM   12  C   UNL     1      -5.972  10.908  62.406  1.00  0.00    -0.117 A  
HETATM   13  C   UNL     1      -7.494  11.771  64.074  1.00  0.00     2.948 A  
ENDROOT
BRANCH   6  14
HETATM   14  O   UNL     1     -11.275  10.632  66.031  1.00  0.00     0.128 OA 
BRANCH  14  15
HETATM   15  C   UNL     1     -11.109  10.847  67.361  1.00  0.00    -0.307 C  
HETATM   16  O   UNL     1     -10.998   9.998  68.230  1.00  0.00    -0.248 OA 
BRANCH  15  17
HETATM   17  C   UNL     1     -10.911  12.288  67.615  1.00  0.00    -0.287 A  
HETATM   18  C   UNL     1     -10.500  14.490  66.691  1.00  0.00    -0.274 A  
HETATM   19  C   UNL     1     -10.538  13.102  66.543  1.00  0.00    -0.290 A  
HETATM   20  C   UNL     1     -11.225  12.870  68.849  1.00  0.00    -0.327 A  
HETATM   21  C   UNL     1     -10.870  15.081  67.924  1.00  0.00    -0.280 A  
HETATM   22  C   UNL     1     -11.212  14.258  69.018  1.00  0.00    -0.266 A  
BRANCH  18  23
HETATM   23  O   UNL     1     -10.193  15.341  65.655  1.00  0.00    -0.315 OA 
HETATM   24  C   UNL     1     -11.291  15.993  65.022  1.00  0.00    -0.156 C  
ENDBRANCH  18  23
BRANCH  21  25
HETATM   25  O   UNL     1     -10.789  16.454  67.955  1.00  0.00    -0.330 OA 
HETATM   26  C   UNL     1     -11.846  17.189  67.350  1.00  0.00     1.547 C  
ENDBRANCH  21  25
BRANCH  22  27
HETATM   27  O   UNL     1     -11.516  14.850  70.215  1.00  0.00    -0.252 OA 
HETATM   28  C   UNL     1     -12.737  14.489  70.853  1.00  0.00    -0.344 C  
ENDBRANCH  22  27
ENDBRANCH  15  17
ENDBRANCH  14  15
ENDBRANCH   6  14
TORSDOF 6
ENDMDL
MODEL      259
REMARK 921   NORMALIZED FREE ENERGY PREDICTED BY IDOCK:   12.04 KCAL/MOL
REMARK 922        TOTAL FREE ENERGY PREDICTED BY IDOCK:   15.33 KCAL/MOL
REMARK 923 INTER-LIGAND FREE ENERGY PREDICTED BY IDOCK:    9.12 KCAL/MOL
REMARK 924 INTRA-LIGAND FREE ENERGY PREDICTED BY IDOCK:    6.21 KCAL/MOL
REMARK 927      BINDING AFFINITY PREDICTED BY RF-SCORE:    0.00 PKD
ROOT
HETATM    1  C   UNL     1      -9.999  11.139  67.341  1.00  0.00    -0.204 C  
HETATM    2  C   UNL     1     -10.566  12.298  66.526  1.00  0.00    -0.263 C  
HETATM    3  C   UNL     1     -10.035  13.769  66.698  1.00  0.00    -0.279 C  
HETATM    4  N   UNL     1      -8.567  13.937  66.430  1.00  0.00     0.207 NA 
HETATM    5  C   UNL     1     -10.841  14.728  65.714  1.00  0.00    -0.334 A  
HETATM    6  C   UNL     1     -10.445  14.337  68.110  1.00  0.00    -0.246 C  
HETATM    7  C   UNL     1     -11.833  14.263  64.826  1.00  0.00    -0.436 A  
HETATM    8  C   UNL     1     -11.221  16.979  64.811  1.00  0.00     0.320 A  
HETATM    9  C   UNL     1      -7.627  13.170  67.241  1.00  0.00    -0.080 C  
HETATM   10  C   UNL     1      -8.187  13.791  65.023  1.00  0.00     5.887 C  
HETATM   11  C   UNL     1     -12.483  15.128  63.939  1.00  0.00     0.277 A  
HETATM   12  C   UNL     1     -12.173  16.482  63.926  1.00  0.00     2.071 A  
HETATM   13  C   UNL     1     -10.563  16.115  65.691  1.00  0.00    -0.377 A  
ENDROOT
BRANCH   6  14
HETATM   14  O   UNL     1     -10.068  13.587  69.268  1.00  0.00     0.116 OA 
BRANCH  14  15
HETATM   15  C   UNL     1      -8.728  13.479  69.454  1.00  0.00     0.974 C  
HETATM   16  O   UNL     1      -7.941  14.392  69.641  1.00  0.00     0.126 OA 
BRANCH  15  17
HETATM   17  C   UNL     1      -8.350  12.056  69.568  1.00  0.00     1.153 A  
HETATM   18  C   UNL     1      -9.072   9.770  69.922  1.00  0.00    -0.229 A  
HETATM   19  C   UNL     1      -9.331  11.142  69.960  1.00  0.00     1.449 A  
HETATM   20  C   UNL     1      -7.095  11.591  69.160  1.00  0.00    -0.105 A  
HETATM   21  C   UNL     1      -7.821   9.299  69.458  1.00  0.00    -0.086 A  
HETATM   22  C   UNL     1      -6.816  10.221  69.097  1.00  0.00    -0.062 A  
BRANCH  18  23
HETATM   23  O   UNL     1     -10.019   8.825  70.243  1.00  0.00    -0.177 OA 
HETATM   24  C   UNL     1     -11.213   9.304  70.856  1.00  0.00    -0.306 C  
ENDBRANCH  18  23
BRANCH  21  25
HETATM   25  O   UNL     1      -7.676   7.930  69.471  1.00  0.00    -0.099 OA 
HETATM   26  C   UNL     1      -7.436   7.283  68.226  1.00  0.00    -0.102 C  
ENDBRANCH  21  25
BRANCH  22  27
HETATM   27  O   UNL     1      -5.596   9.743  68.700  1.00  0.00    -0.037 OA 
HETATM   28  C   UNL     1      -5.333   9.645  67.304  1.00  0.00    -0.036 C  
ENDBRANCH  22  27
ENDBRANCH  15  17
ENDBRANCH  14  15
ENDBRANCH   6  14
TORSDOF 6
ENDMDL
MODEL      260
REMARK 921   NORMALIZED FREE ENERGY PREDICTED BY IDOCK:   12.21 KCAL/MOL
REMARK 922        TOTAL FREE ENERGY PREDICTED BY IDOCK:   15.56 KCAL/MOL
REMARK 923 INTER-LIGAND FREE ENERGY PREDICTED BY IDOCK:    6.80 KCAL/MOL
REMARK 924 INTRA-LIGAND FREE ENERGY PREDICTED BY IDOCK:    8.76 KCAL/MOL
REMARK 927      BINDING AFFINITY PREDICTED BY RF-SCORE:    0.00 PKD
ROOT
HETATM    1  C   UNL     1     -12.068  14.967  69.551  1.00  0.00    -0.315 C  
HETATM    2  C   UNL     1     -11.694  16.442  69.437  1.00  0.00     0.035 C  
HETATM    3  C   UNL     1     -10.470  16.922  68.574  1.00  0.00    -0.361 C  
HETATM    4  N   UNL     1     -10.544  16.546  67.122  1.00  0.00    -0.301 NA 
HETATM    5  C   UNL     1     -10.352  18.507  68.680  1.00  0.00    -0.271 A  
HETATM    6  C   UNL     1      -9.117  16.453  69.235  1.00  0.00    -0.144 C  
HETATM    7  C   UNL     1     -11.258  19.299  69.414  1.00  0.00     2.740 A  
HETATM    8  C   UNL     1      -9.203  20.581  68.040  1.00  0.00    -0.108 A  
HETATM    9  C   UNL     1     -10.629  15.129  66.781  1.00  0.00    -0.298 C  
HETATM   10  C   UNL     1     -11.570  17.265  66.362  1.00  0.00     1.690 C  
HETATM   11  C   UNL     1     -11.153  20.694  69.441  1.00  0.00     1.433 A  
HETATM   12  C   UNL     1     -10.133  21.335  68.749  1.00  0.00     1.187 A  
HETATM   13  C   UNL     1      -9.312  19.187  68.004  1.00  0.00    -0.378 A  
ENDROOT
BRANCH   6  14
HETATM   14  O   UNL     1      -8.954  15.059  69.508  1.00  0.00    -0.162 OA 
BRANCH  14  15
HETATM   15  C   UNL     1      -8.781  14.289  68.403  1.00  0.00    -0.181 C  
HETATM   16  O   UNL     1      -7.862  14.354  67.604  1.00  0.00    -0.150 OA 
BRANCH  15  17
HETATM   17  C   UNL     1      -9.794  13.215  68.377  1.00  0.00    -0.206 A  
HETATM   18  C   UNL     1     -10.945  11.458  69.587  1.00  0.00    -0.110 A  
HETATM   19  C   UNL     1      -9.898  12.378  69.491  1.00  0.00     1.129 A  
HETATM   20  C   UNL     1     -10.732  13.110  67.344  1.00  0.00    -0.262 A  
HETATM   21  C   UNL     1     -11.923  11.391  68.567  1.00  0.00    -0.225 A  
HETATM   22  C   UNL     1     -11.800  12.209  67.424  1.00  0.00    -0.227 A  
BRANCH  18  23
HETATM   23  O   UNL     1     -11.126  10.650  70.685  1.00  0.00    -0.243 OA 
HETATM   24  C   UNL     1     -11.938  11.173  71.732  1.00  0.00     0.856 C  
ENDBRANCH  18  23
BRANCH  21  25
HETATM   25  O   UNL     1     -12.903  10.445  68.765  1.00  0.00     0.703 OA 
HETATM   26  C   UNL     1     -13.356  10.238  70.098  1.00  0.00     0.454 C  
ENDBRANCH  21  25
BRANCH  22  27
HETATM   27  O   UNL     1     -12.730  12.091  66.426  1.00  0.00     0.655 OA 
HETATM   28  C   UNL     1     -12.880  13.173  65.513  1.00  0.00    -0.141 C  
ENDBRANCH  22  27
ENDBRANCH  15  17
ENDBRANCH  14  15
ENDBRANCH   6  14
TORSDOF 6
ENDMDL
MODEL      261
REMARK 921   NORMALIZED FREE ENERGY PREDICTED BY IDOCK:   14.72 KCAL/MOL
REMARK 922        TOTAL FREE ENERGY PREDICTED BY IDOCK:   18.94 KCAL/MOL
REMARK 923 INTER-LIGAND FREE ENERGY PREDICTED BY IDOCK:   17.50 KCAL/MOL
REMARK 924 INTRA-LIGAND FREE ENERGY PREDICTED BY IDOCK:    1.44 KCAL/MOL
REMARK 927      BINDING AFFINITY PREDICTED BY RF-SCORE:    0.00 PKD
ROOT
HETATM    1  C   UNL     1      -9.315  14.393  71.975  1.00  0.00     6.739 C  
HETATM    2  C   UNL     1      -8.693  13.580  70.843  1.00  0.00     7.121 C  
HETATM    3  C   UNL     1      -7.994  14.271  69.615  1.00  0.00     0.441 C  
HETATM    4  N   UNL     1      -6.842  15.165  69.974  1.00  0.00    -0.152 NA 
HETATM    5  C   UNL     1      -7.467  13.144  68.619  1.00  0.00    -0.092 A  
HETATM    6  C   UNL     1      -9.062  15.015  68.724  1.00  0.00    -0.197 C  
HETATM    7  C   UNL     1      -7.601  11.765  68.876  1.00  0.00    -0.063 A  
HETATM    8  C   UNL     1      -6.300  12.548  66.543  1.00  0.00     1.151 A  
HETATM    9  C   UNL     1      -7.099  16.295  70.862  1.00  0.00     2.633 C  
HETATM   10  C   UNL     1      -5.655  14.458  70.460  1.00  0.00    -0.145 C  
HETATM   11  C   UNL     1      -7.079  10.804  68.003  1.00  0.00    -0.081 A  
HETATM   12  C   UNL     1      -6.423  11.195  66.842  1.00  0.00    -0.117 A  
HETATM   13  C   UNL     1      -6.812  13.510  67.419  1.00  0.00    -0.067 A  
ENDROOT
BRANCH   6  14
HETATM   14  O   UNL     1      -9.907  15.978  69.358  1.00  0.00    -0.242 OA 
BRANCH  14  15
HETATM   15  C   UNL     1     -10.710  16.665  68.507  1.00  0.00    -0.351 C  
HETATM   16  O   UNL     1     -11.919  16.549  68.389  1.00  0.00     0.101 OA 
BRANCH  15  17
HETATM   17  C   UNL     1      -9.934  17.724  67.830  1.00  0.00    -0.322 A  
HETATM   18  C   UNL     1      -7.830  18.910  67.635  1.00  0.00    -0.243 A  
HETATM   19  C   UNL     1      -8.670  18.039  68.333  1.00  0.00    -0.301 A  
HETATM   20  C   UNL     1     -10.367  18.306  66.633  1.00  0.00    -0.400 A  
HETATM   21  C   UNL     1      -8.248  19.456  66.397  1.00  0.00    -0.325 A  
HETATM   22  C   UNL     1      -9.540  19.168  65.906  1.00  0.00    -0.010 A  
BRANCH  18  23
HETATM   23  O   UNL     1      -6.555  19.212  68.055  1.00  0.00    -0.230 OA 
HETATM   24  C   UNL     1      -6.407  19.571  69.425  1.00  0.00    -0.320 C  
ENDBRANCH  18  23
BRANCH  21  25
HETATM   25  O   UNL     1      -7.342  20.305  65.803  1.00  0.00    -0.280 OA 
HETATM   26  C   UNL     1      -5.984  20.209  66.215  1.00  0.00    -0.174 C  
ENDBRANCH  21  25
BRANCH  22  27
HETATM   27  O   UNL     1      -9.941  19.747  64.732  1.00  0.00     0.978 OA 
HETATM   28  C   UNL     1     -10.564  21.027  64.792  1.00  0.00     2.455 C  
ENDBRANCH  22  27
ENDBRANCH  15  17
ENDBRANCH  14  15
ENDBRANCH   6  14
TORSDOF 6
ENDMDL
MODEL      262
REMARK 921   NORMALIZED FREE ENERGY PREDICTED BY IDOCK:   19.97 KCAL/MOL
REMARK 922        TOTAL FREE ENERGY PREDICTED BY IDOCK:   26.04 KCAL/MOL
REMARK 923 INTER-LIGAND FREE ENERGY PREDICTED BY IDOCK:   11.38 KCAL/MOL
REMARK 924 INTRA-LIGAND FREE ENERGY PREDICTED BY IDOCK:   14.66 KCAL/MOL
REMARK 927      BINDING AFFINITY PREDICTED BY RF-SCORE:    0.00 PKD
ROOT
HETATM    1  C   UNL     1     -10.140  15.860  68.726  1.00  0.00    -0.221 C  
HETATM    2  C   UNL     1      -9.239  14.676  68.385  1.00  0.00    -0.197 C  
HETATM    3  C   UNL     1      -7.908  14.858  67.567  1.00  0.00    -0.185 C  
HETATM    4  N   UNL     1      -6.911  15.789  68.195  1.00  0.00    -0.112 NA 
HETATM    5  C   UNL     1      -7.219  13.434  67.377  1.00  0.00    -0.116 A  
HETATM    6  C   UNL     1      -8.232  15.260  66.077  1.00  0.00     0.974 C  
HETATM    7  C   UNL     1      -7.749  12.244  67.917  1.00  0.00    -0.133 A  
HETATM    8  C   UNL     1      -5.355  12.096  66.504  1.00  0.00     0.394 A  
HETATM    9  C   UNL     1      -7.317  17.170  68.438  1.00  0.00    -0.220 C  
HETATM   10  C   UNL     1      -6.283  15.272  69.413  1.00  0.00    -0.122 C  
HETATM   11  C   UNL     1      -7.088  11.019  67.775  1.00  0.00    -0.086 A  
HETATM   12  C   UNL     1      -5.889  10.946  67.076  1.00  0.00    -0.064 A  
HETATM   13  C   UNL     1      -6.009  13.324  66.653  1.00  0.00     2.031 A  
ENDROOT
BRANCH   6  14
HETATM   14  O   UNL     1      -9.053  16.411  65.858  1.00  0.00    -0.429 OA 
BRANCH  14  15
HETATM   15  C   UNL     1     -10.046  16.571  66.769  1.00  0.00    -0.288 C  
HETATM   16  O   UNL     1     -10.210  17.525  67.512  1.00  0.00    -0.314 OA 
BRANCH  15  17
HETATM   17  C   UNL     1     -11.034  15.481  66.631  1.00  0.00    -0.248 A  
HETATM   18  C   UNL     1     -12.153  13.909  65.165  1.00  0.00    -0.403 A  
HETATM   19  C   UNL     1     -11.356  15.042  65.345  1.00  0.00    -0.328 A  
HETATM   20  C   UNL     1     -11.535  14.794  67.742  1.00  0.00    -0.363 A  
HETATM   21  C   UNL     1     -12.614  13.183  66.290  1.00  0.00     0.041 A  
HETATM   22  C   UNL     1     -12.320  13.646  67.590  1.00  0.00    -0.017 A  
BRANCH  18  23
HETATM   23  O   UNL     1     -12.455  13.400  63.923  1.00  0.00    -0.658 OA 
HETATM   24  C   UNL     1     -13.837  13.233  63.624  1.00  0.00     4.389 C  
ENDBRANCH  18  23
BRANCH  21  25
HETATM   25  O   UNL     1     -13.395  12.089  65.993  1.00  0.00     2.850 OA 
HETATM   26  C   UNL     1     -12.761  10.980  65.365  1.00  0.00     4.649 C  
ENDBRANCH  21  25
BRANCH  22  27
HETATM   27  O   UNL     1     -12.820  12.957  68.662  1.00  0.00     0.864 OA 
HETATM   28  C   UNL     1     -11.897  12.389  69.586  1.00  0.00    -0.311 C  
ENDBRANCH  22  27
ENDBRANCH  15  17
ENDBRANCH  14  15
ENDBRANCH   6  14
TORSDOF 6
ENDMDL
MODEL      263
REMARK 921   NORMALIZED FREE ENERGY PREDICTED BY IDOCK:   21.18 KCAL/MOL
REMARK 922        TOTAL FREE ENERGY PREDICTED BY IDOCK:   27.68 KCAL/MOL
REMARK 923 INTER-LIGAND FREE ENERGY PREDICTED BY IDOCK:   22.58 KCAL/MOL
REMARK 924 INTRA-LIGAND FREE ENERGY PREDICTED BY IDOCK:    5.09 KCAL/MOL
REMARK 927      BINDING AFFINITY PREDICTED BY RF-SCORE:    0.00 PKD
ROOT
HETATM    1  C   UNL     1      -7.726   6.841  69.519  1.00  0.00    -0.104 C  
HETATM    2  C   UNL     1      -7.476   6.730  68.017  1.00  0.00    -0.099 C  
HETATM    3  C   UNL     1      -7.533   7.989  67.074  1.00  0.00    -0.092 C  
HETATM    4  N   UNL     1      -6.569   9.082  67.433  1.00  0.00    -0.064 NA 
HETATM    5  C   UNL     1      -7.239   7.527  65.578  1.00  0.00    -0.069 A  
HETATM    6  C   UNL     1      -9.013   8.522  66.963  1.00  0.00    -0.137 C  
HETATM    7  C   UNL     1      -6.942   6.195  65.227  1.00  0.00    -0.056 A  
HETATM    8  C   UNL     1      -6.957   8.113  63.210  1.00  0.00    -0.085 A  
HETATM    9  C   UNL     1      -6.671   9.683  68.759  1.00  0.00    -0.051 C  
HETATM   10  C   UNL     1      -5.163   8.756  67.182  1.00  0.00    -0.033 C  
HETATM   11  C   UNL     1      -6.638   5.836  63.909  1.00  0.00    -0.037 A  
HETATM   12  C   UNL     1      -6.638   6.794  62.904  1.00  0.00    -0.043 A  
HETATM   13  C   UNL     1      -7.252   8.476  64.528  1.00  0.00    -0.086 A  
ENDROOT
BRANCH   6  14
HETATM   14  O   UNL     1      -9.703   8.839  68.174  1.00  0.00    -0.150 OA 
BRANCH  14  15
HETATM   15  C   UNL     1     -10.620   9.832  68.054  1.00  0.00    -0.243 C  
HETATM   16  O   UNL     1     -11.642   9.966  68.705  1.00  0.00     0.003 OA 
BRANCH  15  17
HETATM   17  C   UNL     1     -10.127  10.858  67.112  1.00  0.00    -0.235 A  
HETATM   18  C   UNL     1      -8.224  12.038  66.185  1.00  0.00     0.317 A  
HETATM   19  C   UNL     1      -8.774  11.201  67.158  1.00  0.00    -0.141 A  
HETATM   20  C   UNL     1     -10.937  11.377  66.096  1.00  0.00    -0.294 A  
HETATM   21  C   UNL     1      -9.033  12.519  65.127  1.00  0.00     0.920 A  
HETATM   22  C   UNL     1     -10.408  12.203  65.099  1.00  0.00    -0.279 A  
BRANCH  18  23
HETATM   23  O   UNL     1      -6.888  12.364  66.151  1.00  0.00     0.821 OA 
HETATM   24  C   UNL     1      -6.562  13.659  65.656  1.00  0.00     8.502 C  
ENDBRANCH  18  23
BRANCH  21  25
HETATM   25  O   UNL     1      -8.387  13.339  64.230  1.00  0.00     4.530 OA 
HETATM   26  C   UNL     1      -8.901  13.398  62.905  1.00  0.00     9.030 C  
ENDBRANCH  21  25
BRANCH  22  27
HETATM   27  O   UNL     1     -11.182  12.722  64.094  1.00  0.00    -0.341 OA 
HETATM   28  C   UNL     1     -10.835  12.409  62.749  1.00  0.00     1.102 C  
ENDBRANCH  22  27
ENDBRANCH  15  17
ENDBRANCH  14  15
ENDBRANCH   6  14
TORSDOF 6
ENDMDL
MODEL      264
REMARK 921   NORMALIZED FREE ENERGY PREDICTED BY IDOCK:   21.36 KCAL/MOL
REMARK 922        TOTAL FREE ENERGY PREDICTED BY IDOCK:   27.92 KCAL/MOL
REMARK 923 INTER-LIGAND FREE ENERGY PREDICTED BY IDOCK:   26.62 KCAL/MOL
REMARK 924 INTRA-LIGAND FREE ENERGY PREDICTED BY IDOCK:    1.30 KCAL/MOL
REMARK 927      BINDING AFFINITY PREDICTED BY RF-SCORE:    0.00 PKD
ROOT
HETATM    1  C   UNL     1      -8.259  17.673  67.635  1.00  0.00    -0.225 C  
HETATM    2  C   UNL     1      -7.521  18.297  68.815  1.00  0.00    -0.297 C  
HETATM    3  C   UNL     1      -7.590  17.674  70.258  1.00  0.00     2.398 C  
HETATM    4  N   UNL     1      -7.104  16.256  70.350  1.00  0.00     0.970 NA 
HETATM    5  C   UNL     1      -6.724  18.570  71.250  1.00  0.00     2.582 A  
HETATM    6  C   UNL     1      -9.040  17.839  70.856  1.00  0.00     5.849 C  
HETATM    7  C   UNL     1      -6.002  19.705  70.831  1.00  0.00    -0.200 A  
HETATM    8  C   UNL     1      -5.855  18.969  73.512  1.00  0.00     7.323 A  
HETATM    9  C   UNL     1      -7.776  15.244  69.541  1.00  0.00    -0.212 C  
HETATM   10  C   UNL     1      -5.658  16.099  70.175  1.00  0.00    -0.170 C  
HETATM   11  C   UNL     1      -5.209  20.438  71.722  1.00  0.00    -0.370 A  
HETATM   12  C   UNL     1      -5.130  20.066  73.058  1.00  0.00     3.615 A  
HETATM   13  C   UNL     1      -6.640  18.230  72.621  1.00  0.00     4.568 A  
ENDROOT
BRANCH   6  14
HETATM   14  O   UNL     1     -10.139  17.330  70.096  1.00  0.00     0.467 OA 
BRANCH  14  15
HETATM   15  C   UNL     1     -11.041  16.620  70.821  1.00  0.00     0.157 C  
HETATM   16  O   UNL     1     -11.783  17.051  71.687  1.00  0.00     0.219 OA 
BRANCH  15  17
HETATM   17  C   UNL     1     -11.130  15.242  70.298  1.00  0.00    -0.316 A  
HETATM   18  C   UNL     1     -10.589  13.691  68.516  1.00  0.00    -0.250 A  
HETATM   19  C   UNL     1     -10.682  14.999  68.997  1.00  0.00    -0.239 A  
HETATM   20  C   UNL     1     -11.510  14.167  71.110  1.00  0.00     0.297 A  
HETATM   21  C   UNL     1     -10.922  12.602  69.357  1.00  0.00     0.019 A  
HETATM   22  C   UNL     1     -11.410  12.847  70.658  1.00  0.00     1.084 A  
BRANCH  18  23
HETATM   23  O   UNL     1     -10.103  13.391  67.264  1.00  0.00    -0.234 OA 
HETATM   24  C   UNL     1     -10.801  13.957  66.159  1.00  0.00    -0.290 C  
ENDBRANCH  18  23
BRANCH  21  25
HETATM   25  O   UNL     1     -10.799  11.361  68.774  1.00  0.00    -0.187 OA 
HETATM   26  C   UNL     1     -11.258  10.238  69.517  1.00  0.00    -0.261 C  
ENDBRANCH  21  25
BRANCH  22  27
HETATM   27  O   UNL     1     -11.775  11.780  71.435  1.00  0.00     0.660 OA 
HETATM   28  C   UNL     1     -13.150  11.413  71.472  1.00  0.00    -0.335 C  
ENDBRANCH  22  27
ENDBRANCH  15  17
ENDBRANCH  14  15
ENDBRANCH   6  14
TORSDOF 6
ENDMDL
MODEL      265
REMARK 921   NORMALIZED FREE ENERGY PREDICTED BY IDOCK:   21.71 KCAL/MOL
REMARK 922        TOTAL FREE ENERGY PREDICTED BY IDOCK:   28.39 KCAL/MOL
REMARK 923 INTER-LIGAND FREE ENERGY PREDICTED BY IDOCK:   23.60 KCAL/MOL
REMARK 924 INTRA-LIGAND FREE ENERGY PREDICTED BY IDOCK:    4.79 KCAL/MOL
REMARK 927      BINDING AFFINITY PREDICTED BY RF-SCORE:    0.00 PKD
ROOT
HETATM    1  C   UNL     1      -8.259  17.673  67.635  1.00  0.00    -0.225 C  
HETATM    2  C   UNL     1      -7.526  18.308  68.812  1.00  0.00    -0.297 C  
HETATM    3  C   UNL     1      -7.600  17.698  70.261  1.00  0.00     2.398 C  
HETATM    4  N   UNL     1      -7.112  16.282  70.367  1.00  0.00     0.970 NA 
HETATM    5  C   UNL     1      -6.739  18.604  71.248  1.00  0.00     2.374 A  
HETATM    6  C   UNL     1      -9.052  17.866  70.852  1.00  0.00     5.814 C  
HETATM    7  C   UNL     1      -6.017  19.737  70.822  1.00  0.00    -0.265 A  
HETATM    8  C   UNL     1      -5.879  19.025  73.509  1.00  0.00     7.323 A  
HETATM    9  C   UNL     1      -7.780  15.262  69.564  1.00  0.00    -0.212 C  
HETATM   10  C   UNL     1      -5.665  16.126  70.198  1.00  0.00    -0.176 C  
HETATM   11  C   UNL     1      -5.228  20.478  71.709  1.00  0.00    -0.312 A  
HETATM   12  C   UNL     1      -5.154  20.119  73.049  1.00  0.00     3.564 A  
HETATM   13  C   UNL     1      -6.660  18.276  72.622  1.00  0.00     4.568 A  
ENDROOT
BRANCH   6  14
HETATM   14  O   UNL     1     -10.148  17.349  70.092  1.00  0.00     0.512 OA 
BRANCH  14  15
HETATM   15  C   UNL     1     -10.450  16.052  70.355  1.00  0.00    -0.009 C  
HETATM   16  O   UNL     1     -10.903  15.604  71.395  1.00  0.00    -0.198 OA 
BRANCH  15  17
HETATM   17  C   UNL     1     -10.308  15.246  69.126  1.00  0.00    -0.248 A  
HETATM   18  C   UNL     1     -10.038  15.217  66.717  1.00  0.00    -0.258 A  
HETATM   19  C   UNL     1     -10.333  15.907  67.895  1.00  0.00    -0.269 A  
HETATM   20  C   UNL     1     -10.010  13.879  69.170  1.00  0.00     0.111 A  
HETATM   21  C   UNL     1      -9.684  13.847  66.769  1.00  0.00    -0.279 A  
HETATM   22  C   UNL     1      -9.695  13.169  68.007  1.00  0.00    -0.224 A  
BRANCH  18  23
HETATM   23  O   UNL     1      -9.994  15.831  65.487  1.00  0.00    -0.333 OA 
HETATM   24  C   UNL     1     -11.193  16.462  65.048  1.00  0.00    -0.134 C  
ENDBRANCH  18  23
BRANCH  21  25
HETATM   25  O   UNL     1      -9.421  13.271  65.548  1.00  0.00    -0.011 OA 
HETATM   26  C   UNL     1      -9.796  11.910  65.369  1.00  0.00    -0.233 C  
ENDBRANCH  21  25
BRANCH  22  27
HETATM   27  O   UNL     1      -9.398  11.832  68.026  1.00  0.00    -0.171 OA 
HETATM   28  C   UNL     1     -10.427  10.920  68.399  1.00  0.00    -0.183 C  
ENDBRANCH  22  27
ENDBRANCH  15  17
ENDBRANCH  14  15
ENDBRANCH   6  14
TORSDOF 6
ENDMDL
MODEL      266
REMARK 921   NORMALIZED FREE ENERGY PREDICTED BY IDOCK:   25.23 KCAL/MOL
REMARK 922        TOTAL FREE ENERGY PREDICTED BY IDOCK:   33.15 KCAL/MOL
REMARK 923 INTER-LIGAND FREE ENERGY PREDICTED BY IDOCK:   31.70 KCAL/MOL
REMARK 924 INTRA-LIGAND FREE ENERGY PREDICTED BY IDOCK:    1.45 KCAL/MOL
REMARK 927      BINDING AFFINITY PREDICTED BY RF-SCORE:    0.00 PKD
ROOT
HETATM    1  C   UNL     1      -8.694  13.827  73.226  1.00  0.00    12.393 C  
HETATM    2  C   UNL     1      -7.910  13.214  72.070  1.00  0.00    11.379 C  
HETATM    3  C   UNL     1      -7.384  14.087  70.871  1.00  0.00     2.142 C  
HETATM    4  N   UNL     1      -6.459  15.201  71.269  1.00  0.00     0.605 NA 
HETATM    5  C   UNL     1      -6.622  13.142  69.839  1.00  0.00     0.116 A  
HETATM    6  C   UNL     1      -8.593  14.607  70.001  1.00  0.00     0.781 C  
HETATM    7  C   UNL     1      -6.446  11.759  70.045  1.00  0.00    -0.022 A  
HETATM    8  C   UNL     1      -5.357  12.895  67.749  1.00  0.00    -0.114 A  
HETATM    9  C   UNL     1      -6.959  16.213  72.195  1.00  0.00     5.996 C  
HETATM   10  C   UNL     1      -5.143  14.758  71.736  1.00  0.00    -0.157 C  
HETATM   11  C   UNL     1      -5.726  10.971  69.142  1.00  0.00    -0.040 A  
HETATM   12  C   UNL     1      -5.176  11.539  67.999  1.00  0.00    -0.044 A  
HETATM   13  C   UNL     1      -6.068  13.687  68.656  1.00  0.00    -0.087 A  
ENDROOT
BRANCH   6  14
HETATM   14  O   UNL     1      -9.629  15.335  70.665  1.00  0.00     0.437 OA 
BRANCH  14  15
HETATM   15  C   UNL     1     -10.490  15.971  69.830  1.00  0.00    -0.300 C  
HETATM   16  O   UNL     1     -11.708  15.929  69.866  1.00  0.00    -0.333 OA 
BRANCH  15  17
HETATM   17  C   UNL     1      -9.743  16.881  68.938  1.00  0.00    -0.256 A  
HETATM   18  C   UNL     1      -9.601  19.066  67.899  1.00  0.00    -0.318 A  
HETATM   19  C   UNL     1     -10.330  18.102  68.599  1.00  0.00    -0.315 A  
HETATM   20  C   UNL     1      -8.424  16.617  68.551  1.00  0.00    -0.233 A  
HETATM   21  C   UNL     1      -8.250  18.819  67.555  1.00  0.00    -0.260 A  
HETATM   22  C   UNL     1      -7.666  17.572  67.864  1.00  0.00    -0.213 A  
BRANCH  18  23
HETATM   23  O   UNL     1     -10.111  20.305  67.589  1.00  0.00    -0.404 OA 
HETATM   24  C   UNL     1     -10.403  21.165  68.686  1.00  0.00     1.105 C  
ENDBRANCH  18  23
BRANCH  21  25
HETATM   25  O   UNL     1      -7.634  19.836  66.863  1.00  0.00    -0.243 OA 
HETATM   26  C   UNL     1      -6.214  19.907  66.924  1.00  0.00    -0.182 C  
ENDBRANCH  21  25
BRANCH  22  27
HETATM   27  O   UNL     1      -6.374  17.337  67.477  1.00  0.00    -0.138 OA 
HETATM   28  C   UNL     1      -6.140  16.916  66.136  1.00  0.00     0.407 C  
ENDBRANCH  22  27
ENDBRANCH  15  17
ENDBRANCH  14  15
ENDBRANCH   6  14
TORSDOF 6
ENDMDL
MODEL      267
REMARK 921   NORMALIZED FREE ENERGY PREDICTED BY IDOCK:   28.77 KCAL/MOL
REMARK 922        TOTAL FREE ENERGY PREDICTED BY IDOCK:   37.93 KCAL/MOL
REMARK 923 INTER-LIGAND FREE ENERGY PREDICTED BY IDOCK:   37.75 KCAL/MOL
REMARK 924 INTRA-LIGAND FREE ENERGY PREDICTED BY IDOCK:    0.17 KCAL/MOL
REMARK 927      BINDING AFFINITY PREDICTED BY RF-SCORE:    0.00 PKD
ROOT
HETATM    1  C   UNL     1      -5.772  14.973  64.875  1.00  0.00    15.939 C  
HETATM    2  C   UNL     1      -6.032  14.400  66.265  1.00  0.00     4.957 C  
HETATM    3  C   UNL     1      -6.899  13.104  66.477  1.00  0.00     1.955 C  
HETATM    4  N   UNL     1      -6.382  11.884  65.770  1.00  0.00     0.858 NA 
HETATM    5  C   UNL     1      -6.982  12.787  68.037  1.00  0.00    -0.107 A  
HETATM    6  C   UNL     1      -8.409  13.392  66.126  1.00  0.00     1.142 C  
HETATM    7  C   UNL     1      -6.327  13.560  69.016  1.00  0.00    -0.099 A  
HETATM    8  C   UNL     1      -7.786  11.342  69.851  1.00  0.00     0.747 A  
HETATM    9  C   UNL     1      -6.249  11.935  64.318  1.00  0.00     4.426 C  
HETATM   10  C   UNL     1      -5.140  11.342  66.328  1.00  0.00    -0.090 C  
HETATM   11  C   UNL     1      -6.379  13.220  70.372  1.00  0.00     0.125 A  
HETATM   12  C   UNL     1      -7.102  12.108  70.788  1.00  0.00     3.074 A  
HETATM   13  C   UNL     1      -7.726  11.674  68.494  1.00  0.00    -0.134 A  
ENDROOT
BRANCH   6  14
HETATM   14  O   UNL     1      -8.705  13.922  64.831  1.00  0.00     2.447 OA 
BRANCH  14  15
HETATM   15  C   UNL     1      -9.777  14.753  64.798  1.00  0.00     0.593 C  
HETATM   16  O   UNL     1     -10.361  15.154  63.804  1.00  0.00     1.568 OA 
BRANCH  15  17
HETATM   17  C   UNL     1     -10.269  14.994  66.170  1.00  0.00    -0.311 A  
HETATM   18  C   UNL     1     -10.369  16.489  68.074  1.00  0.00    -0.294 A  
HETATM   19  C   UNL     1      -9.811  16.127  66.846  1.00  0.00    -0.247 A  
HETATM   20  C   UNL     1     -11.273  14.205  66.743  1.00  0.00    -0.330 A  
HETATM   21  C   UNL     1     -11.423  15.721  68.626  1.00  0.00    -0.386 A  
HETATM   22  C   UNL     1     -11.860  14.555  67.963  1.00  0.00    -0.315 A  
BRANCH  18  23
HETATM   23  O   UNL     1      -9.996  17.625  68.755  1.00  0.00    -0.334 OA 
HETATM   24  C   UNL     1     -10.728  18.811  68.462  1.00  0.00     0.202 C  
ENDBRANCH  18  23
BRANCH  21  25
HETATM   25  O   UNL     1     -11.889  16.168  69.842  1.00  0.00    -0.274 OA 
HETATM   26  C   UNL     1     -12.153  15.192  70.843  1.00  0.00    -0.334 C  
ENDBRANCH  21  25
BRANCH  22  27
HETATM   27  O   UNL     1     -12.846  13.800  68.542  1.00  0.00     0.659 OA 
HETATM   28  C   UNL     1     -12.848  12.397  68.300  1.00  0.00     2.319 C  
ENDBRANCH  22  27
ENDBRANCH  15  17
ENDBRANCH  14  15
ENDBRANCH   6  14
TORSDOF 6
ENDMDL
MODEL      268
REMARK 921   NORMALIZED FREE ENERGY PREDICTED BY IDOCK:   55.83 KCAL/MOL
REMARK 922        TOTAL FREE ENERGY PREDICTED BY IDOCK:   74.47 KCAL/MOL
REMARK 923 INTER-LIGAND FREE ENERGY PREDICTED BY IDOCK:   47.72 KCAL/MOL
REMARK 924 INTRA-LIGAND FREE ENERGY PREDICTED BY IDOCK:   26.75 KCAL/MOL
REMARK 927      BINDING AFFINITY PREDICTED BY RF-SCORE:    0.00 PKD
ROOT
HETATM    1  C   UNL     1     -10.162  15.860  68.864  1.00  0.00    -0.226 C  
HETATM    2  C   UNL     1      -9.277  14.630  69.045  1.00  0.00    -0.108 C  
HETATM    3  C   UNL     1      -7.922  14.696  69.842  1.00  0.00     0.367 C  
HETATM    4  N   UNL     1      -8.057  15.148  71.268  1.00  0.00     2.767 NA 
HETATM    5  C   UNL     1      -7.246  13.253  69.832  1.00  0.00     0.750 A  
HETATM    6  C   UNL     1      -6.862  15.554  69.050  1.00  0.00    -0.139 C  
HETATM    7  C   UNL     1      -7.838  12.129  69.223  1.00  0.00     0.426 A  
HETATM    8  C   UNL     1      -5.397  11.789  70.517  1.00  0.00    -0.137 A  
HETATM    9  C   UNL     1      -8.631  16.466  71.520  1.00  0.00     7.767 C  
HETATM   10  C   UNL     1      -8.717  14.182  72.150  1.00  0.00     9.001 C  
HETATM   11  C   UNL     1      -7.240  10.865  69.280  1.00  0.00    -0.128 A  
HETATM   12  C   UNL     1      -6.025  10.694  69.932  1.00  0.00    -0.076 A  
HETATM   13  C   UNL     1      -5.999  13.051  70.470  1.00  0.00    -0.084 A  
ENDROOT
BRANCH   6  14
HETATM   14  O   UNL     1      -7.226  16.885  68.675  1.00  0.00    -0.191 OA 
BRANCH  14  15
HETATM   15  C   UNL     1      -8.564  17.096  68.586  1.00  0.00    -0.260 C  
HETATM   16  O   UNL     1      -9.204  17.973  69.142  1.00  0.00    -0.105 OA 
BRANCH  15  17
HETATM   17  C   UNL     1      -9.147  16.198  67.568  1.00  0.00    -0.207 A  
HETATM   18  C   UNL     1      -8.867  15.052  65.451  1.00  0.00     1.543 A  
HETATM   19  C   UNL     1      -8.447  16.014  66.373  1.00  0.00    -0.363 A  
HETATM   20  C   UNL     1     -10.288  15.431  67.826  1.00  0.00    -0.253 A  
HETATM   21  C   UNL     1      -9.990  14.239  65.738  1.00  0.00    -0.323 A  
HETATM   22  C   UNL     1     -10.719  14.450  66.927  1.00  0.00    -0.292 A  
BRANCH  18  23
HETATM   23  O   UNL     1      -8.184  14.791  64.285  1.00  0.00     7.978 OA 
HETATM   24  C   UNL     1      -7.154  15.709  63.933  1.00  0.00    20.579 C  
ENDBRANCH  18  23
BRANCH  21  25
HETATM   25  O   UNL     1     -10.314  13.332  64.755  1.00  0.00    -0.358 OA 
HETATM   26  C   UNL     1      -9.387  12.284  64.497  1.00  0.00     0.407 C  
ENDBRANCH  21  25
BRANCH  22  27
HETATM   27  O   UNL     1     -11.832  13.685  67.160  1.00  0.00    -0.357 OA 
HETATM   28  C   UNL     1     -12.506  13.120  66.040  1.00  0.00    -0.260 C  
ENDBRANCH  22  27
ENDBRANCH  15  17
ENDBRANCH  14  15
ENDBRANCH   6  14
TORSDOF 6
ENDMDL
