MODEL        1
REMARK 921   NORMALIZED FREE ENERGY PREDICTED BY IDOCK:   -7.00 KCAL/MOL
REMARK 922        TOTAL FREE ENERGY PREDICTED BY IDOCK:  -10.31 KCAL/MOL
REMARK 923 INTER-LIGAND FREE ENERGY PREDICTED BY IDOCK:   -9.46 KCAL/MOL
REMARK 924 INTRA-LIGAND FREE ENERGY PREDICTED BY IDOCK:   -0.85 KCAL/MOL
REMARK 927      BINDING AFFINITY PREDICTED BY RF-SCORE:    0.00 PKD
ROOT
HETATM    1  C   UNL     1      -6.222  14.809  67.954  1.00  0.00    -0.157 C  
HETATM    2  O   UNL     1      -6.493  16.196  67.761  1.00  0.00    -0.122 OA 
ENDROOT
BRANCH   2   3
HETATM    3  C   UNL     1      -7.816  16.567  67.745  1.00  0.00    -0.152 A  
HETATM    4  C   UNL     1      -8.666  16.216  68.808  1.00  0.00    -0.240 A  
HETATM    5  C   UNL     1     -10.007  16.596  68.845  1.00  0.00    -0.271 A  
HETATM    6  C   UNL     1     -10.494  17.312  67.756  1.00  0.00    -0.371 A  
HETATM    7  C   UNL     1      -8.309  17.344  66.673  1.00  0.00    -0.263 A  
HETATM    8  C   UNL     1      -9.670  17.713  66.690  1.00  0.00    -0.301 A  
BRANCH   5   9
HETATM    9  N   UNL     1     -10.813  16.116  69.885  1.00  0.00    -0.338 NA 
HETATM   10  H   UNL     1     -10.491  16.142  70.854  1.00  0.00     0.000 HD 
BRANCH   9  11
HETATM   11  C   UNL     1     -12.126  15.576  69.548  1.00  0.00    -0.302 C  
BRANCH  11  12
HETATM   12  C   UNL     1     -12.428  14.264  70.254  1.00  0.00    -0.422 A  
HETATM   13  C   UNL     1     -11.940  13.040  69.726  1.00  0.00    -0.377 A  
HETATM   14  H2  UNL     1      -9.903  10.871  69.337  1.00  0.00     0.000 HD 
HETATM   15  C   UNL     1     -12.157  11.798  70.440  1.00  0.00    -0.440 A  
HETATM   16  H1  UNL     1     -10.329   9.331  68.957  1.00  0.00     0.000 HD 
HETATM   17  C   UNL     1     -11.199  13.035  68.407  1.00  0.00    -0.304 C  
HETATM   18  C   UNL     1     -12.952  11.811  71.595  1.00  0.00    -0.362 A  
HETATM   19  N   UNL     1     -13.279  10.717  72.289  1.00  0.00    -0.295 NA 
HETATM   20  C   UNL     1     -13.428  13.016  72.078  1.00  0.00    -0.584 A  
HETATM   21  C   UNL     1     -13.157  14.228  71.446  1.00  0.00    -0.421 A  
HETATM   22  C   UNL     1     -12.797   9.555  71.866  1.00  0.00    -0.420 A  
HETATM   23  N   UNL     1     -11.953   9.405  70.853  1.00  0.00    -0.291 NA 
HETATM   24  N   UNL     1     -13.168   8.419  72.556  1.00  0.00    -0.598 NA 
HETATM   25  C   UNL     1     -11.644  10.510  70.159  1.00  0.00    -0.326 A  
HETATM   26  H2  UNL     1     -13.790   8.470  73.363  1.00  0.00     0.000 HD 
HETATM   27  H1  UNL     1     -12.799   7.526  72.231  1.00  0.00     0.000 HD 
HETATM   28  N   UNL     1     -10.699  10.260  69.160  1.00  0.00    -0.214 NA 
ENDBRANCH  11  12
ENDBRANCH   9  11
ENDBRANCH   5   9
BRANCH   8  29
HETATM   29  O   UNL     1     -10.384  18.440  65.768  1.00  0.00    -0.588 OA 
HETATM   30  C   UNL     1     -10.524  19.842  65.925  1.00  0.00    -0.486 C  
ENDBRANCH   8  29
BRANCH   7  31
HETATM   31  O   UNL     1      -7.589  17.767  65.588  1.00  0.00    -0.541 OA 
HETATM   32  C   UNL     1      -6.840  18.968  65.638  1.00  0.00    -0.270 C  
ENDBRANCH   7  31
ENDBRANCH   2   3
TORSDOF 6
ENDMDL
MODEL        2
REMARK 921   NORMALIZED FREE ENERGY PREDICTED BY IDOCK:   -6.92 KCAL/MOL
REMARK 922        TOTAL FREE ENERGY PREDICTED BY IDOCK:  -10.19 KCAL/MOL
REMARK 923 INTER-LIGAND FREE ENERGY PREDICTED BY IDOCK:   -9.41 KCAL/MOL
REMARK 924 INTRA-LIGAND FREE ENERGY PREDICTED BY IDOCK:   -0.78 KCAL/MOL
REMARK 927      BINDING AFFINITY PREDICTED BY RF-SCORE:    0.00 PKD
ROOT
HETATM    1  C   UNL     1     -10.752  19.707  65.945  1.00  0.00    -0.413 C  
HETATM    2  O   UNL     1     -10.396  18.351  65.685  1.00  0.00    -0.605 OA 
ENDROOT
BRANCH   2   3
HETATM    3  C   UNL     1      -9.800  17.663  66.714  1.00  0.00    -0.304 A  
HETATM    4  C   UNL     1     -10.567  17.199  67.797  1.00  0.00    -0.360 A  
HETATM    5  C   UNL     1     -10.008  16.473  68.847  1.00  0.00    -0.262 A  
HETATM    6  C   UNL     1      -8.634  16.254  68.807  1.00  0.00    -0.240 A  
HETATM    7  C   UNL     1      -8.416  17.384  66.657  1.00  0.00    -0.261 A  
HETATM    8  C   UNL     1      -7.837  16.671  67.727  1.00  0.00    -0.164 A  
BRANCH   5   9
HETATM    9  N   UNL     1     -10.818  16.139  69.940  1.00  0.00    -0.338 NA 
HETATM   10  H   UNL     1     -10.478  16.246  70.897  1.00  0.00     0.000 HD 
BRANCH   9  11
HETATM   11  C   UNL     1     -12.161  15.635  69.675  1.00  0.00    -0.308 C  
BRANCH  11  12
HETATM   12  C   UNL     1     -12.436  14.299  70.344  1.00  0.00    -0.426 A  
HETATM   13  C   UNL     1     -11.903  13.102  69.798  1.00  0.00    -0.386 A  
HETATM   14  H2  UNL     1      -9.795  11.004  69.396  1.00  0.00     0.000 HD 
HETATM   15  C   UNL     1     -12.096  11.837  70.479  1.00  0.00    -0.439 A  
HETATM   16  H1  UNL     1     -10.168   9.462  68.973  1.00  0.00     0.000 HD 
HETATM   17  C   UNL     1     -11.138  13.150  68.493  1.00  0.00    -0.296 C  
HETATM   18  C   UNL     1     -12.912  11.800  71.619  1.00  0.00    -0.362 A  
HETATM   19  N   UNL     1     -13.218  10.680  72.281  1.00  0.00    -0.295 NA 
HETATM   20  C   UNL     1     -13.431  12.978  72.121  1.00  0.00    -0.638 A  
HETATM   21  C   UNL     1     -13.185  14.212  71.522  1.00  0.00    -0.423 A  
HETATM   22  C   UNL     1     -12.694   9.543  71.840  1.00  0.00    -0.411 A  
HETATM   23  N   UNL     1     -11.828   9.443  70.840  1.00  0.00    -0.290 NA 
HETATM   24  N   UNL     1     -13.043   8.381  72.496  1.00  0.00    -0.600 NA 
HETATM   25  C   UNL     1     -11.539  10.572  70.177  1.00  0.00    -0.326 A  
HETATM   26  H2  UNL     1     -13.681   8.395  73.292  1.00  0.00     0.000 HD 
HETATM   27  H1  UNL     1     -12.642   7.508  72.158  1.00  0.00     0.000 HD 
HETATM   28  N   UNL     1     -10.570  10.373  69.190  1.00  0.00    -0.213 NA 
ENDBRANCH  11  12
ENDBRANCH   9  11
ENDBRANCH   5   9
BRANCH   8  29
HETATM   29  O   UNL     1      -6.528  16.298  67.913  1.00  0.00    -0.122 OA 
HETATM   30  C   UNL     1      -5.665  17.108  68.693  1.00  0.00    -0.143 C  
ENDBRANCH   8  29
BRANCH   7  31
HETATM   31  O   UNL     1      -7.560  17.761  65.657  1.00  0.00    -0.541 OA 
HETATM   32  C   UNL     1      -6.934  19.031  65.680  1.00  0.00    -0.246 C  
ENDBRANCH   7  31
ENDBRANCH   2   3
TORSDOF 6
ENDMDL
MODEL        3
REMARK 921   NORMALIZED FREE ENERGY PREDICTED BY IDOCK:   -6.90 KCAL/MOL
REMARK 922        TOTAL FREE ENERGY PREDICTED BY IDOCK:  -10.17 KCAL/MOL
REMARK 923 INTER-LIGAND FREE ENERGY PREDICTED BY IDOCK:   -9.35 KCAL/MOL
REMARK 924 INTRA-LIGAND FREE ENERGY PREDICTED BY IDOCK:   -0.81 KCAL/MOL
REMARK 927      BINDING AFFINITY PREDICTED BY RF-SCORE:    0.00 PKD
ROOT
HETATM    1  C   UNL     1      -8.346   8.254  69.584  1.00  0.00    -0.123 C  
HETATM    2  O   UNL     1      -8.813   9.034  70.683  1.00  0.00    -0.178 OA 
ENDROOT
BRANCH   2   3
HETATM    3  C   UNL     1     -10.087   9.537  70.582  1.00  0.00    -0.286 A  
HETATM    4  C   UNL     1     -10.470  10.282  69.453  1.00  0.00    -0.259 A  
HETATM    5  C   UNL     1     -11.760  10.787  69.298  1.00  0.00    -0.303 A  
HETATM    6  C   UNL     1     -12.661  10.559  70.334  1.00  0.00    -0.325 A  
HETATM    7  C   UNL     1     -11.028   9.263  71.600  1.00  0.00    -0.363 A  
HETATM    8  C   UNL     1     -12.329   9.789  71.463  1.00  0.00    -0.405 A  
BRANCH   5   9
HETATM    9  N   UNL     1     -12.032  11.610  68.197  1.00  0.00    -0.590 NA 
HETATM   10  H   UNL     1     -12.987  11.895  67.978  1.00  0.00     0.000 HD 
BRANCH   9  11
HETATM   11  C   UNL     1     -10.913  12.048  67.370  1.00  0.00    -0.261 C  
BRANCH  11  12
HETATM   12  C   UNL     1     -10.741  13.558  67.356  1.00  0.00    -0.269 A  
HETATM   13  C   UNL     1     -10.893  14.283  66.145  1.00  0.00    -0.310 A  
HETATM   14  H2  UNL     1     -12.445  15.733  64.025  1.00  0.00     0.000 HD 
HETATM   15  C   UNL     1     -10.811  15.730  66.143  1.00  0.00    -0.240 A  
HETATM   16  H1  UNL     1     -11.763  16.891  63.082  1.00  0.00     0.000 HD 
HETATM   17  C   UNL     1     -11.133  13.537  64.850  1.00  0.00    -0.356 C  
HETATM   18  C   UNL     1     -10.465  16.389  67.331  1.00  0.00    -0.309 A  
HETATM   19  N   UNL     1     -10.288  17.710  67.427  1.00  0.00    -0.349 NA 
HETATM   20  C   UNL     1     -10.308  15.657  68.493  1.00  0.00    -0.219 A  
HETATM   21  C   UNL     1     -10.466  14.273  68.525  1.00  0.00    -0.253 A  
HETATM   22  C   UNL     1     -10.477  18.437  66.332  1.00  0.00    -0.383 A  
HETATM   23  N   UNL     1     -10.903  17.961  65.169  1.00  0.00    -0.638 NA 
HETATM   24  N   UNL     1     -10.253  19.795  66.419  1.00  0.00    -0.464 NA 
HETATM   25  C   UNL     1     -11.065  16.633  65.084  1.00  0.00    -0.081 A  
HETATM   26  H2  UNL     1      -9.953  20.226  67.294  1.00  0.00     0.000 HD 
HETATM   27  H1  UNL     1     -10.397  20.353  65.578  1.00  0.00     0.000 HD 
HETATM   28  N   UNL     1     -11.579  16.241  63.845  1.00  0.00    -0.988 NA 
ENDBRANCH  11  12
ENDBRANCH   9  11
ENDBRANCH   5   9
BRANCH   8  29
HETATM   29  O   UNL     1     -13.403   9.682  72.313  1.00  0.00    -0.438 OA 
HETATM   30  C   UNL     1     -14.408   8.713  72.067  1.00  0.00    -0.422 C  
ENDBRANCH   8  29
BRANCH   7  31
HETATM   31  O   UNL     1     -10.793   8.540  72.739  1.00  0.00    -0.244 OA 
HETATM   32  C   UNL     1     -11.037   7.145  72.776  1.00  0.00    -0.300 C  
ENDBRANCH   7  31
ENDBRANCH   2   3
TORSDOF 6
ENDMDL
MODEL        4
REMARK 921   NORMALIZED FREE ENERGY PREDICTED BY IDOCK:   -6.88 KCAL/MOL
REMARK 922        TOTAL FREE ENERGY PREDICTED BY IDOCK:  -10.15 KCAL/MOL
REMARK 923 INTER-LIGAND FREE ENERGY PREDICTED BY IDOCK:   -9.41 KCAL/MOL
REMARK 924 INTRA-LIGAND FREE ENERGY PREDICTED BY IDOCK:   -0.75 KCAL/MOL
REMARK 927      BINDING AFFINITY PREDICTED BY RF-SCORE:    0.00 PKD
ROOT
HETATM    1  C   UNL     1     -14.196   8.692  72.279  1.00  0.00    -0.417 C  
HETATM    2  O   UNL     1     -13.302   9.796  72.398  1.00  0.00    -0.412 OA 
ENDROOT
BRANCH   2   3
HETATM    3  C   UNL     1     -12.364   9.938  71.404  1.00  0.00    -0.404 A  
HETATM    4  C   UNL     1     -12.643  10.720  70.269  1.00  0.00    -0.350 A  
HETATM    5  C   UNL     1     -11.711  10.913  69.251  1.00  0.00    -0.324 A  
HETATM    6  C   UNL     1     -10.487  10.261  69.378  1.00  0.00    -0.259 A  
HETATM    7  C   UNL     1     -11.097   9.328  71.548  1.00  0.00    -0.373 A  
HETATM    8  C   UNL     1     -10.156   9.498  70.512  1.00  0.00    -0.285 A  
BRANCH   5   9
HETATM    9  N   UNL     1     -12.103  11.617  68.105  1.00  0.00    -0.558 NA 
HETATM   10  H   UNL     1     -13.083  11.844  67.939  1.00  0.00     0.000 HD 
BRANCH   9  11
HETATM   11  C   UNL     1     -11.071  12.017  67.155  1.00  0.00    -0.290 C  
BRANCH  11  12
HETATM   12  C   UNL     1     -10.770  13.506  67.196  1.00  0.00    -0.282 A  
HETATM   13  C   UNL     1     -10.960  14.306  66.039  1.00  0.00    -0.312 A  
HETATM   14  H2  UNL     1     -12.553  15.993  64.135  1.00  0.00     0.000 HD 
HETATM   15  C   UNL     1     -10.753  15.739  66.098  1.00  0.00    -0.293 A  
HETATM   16  H1  UNL     1     -11.855  17.141  63.192  1.00  0.00     0.000 HD 
HETATM   17  C   UNL     1     -11.372  13.654  64.737  1.00  0.00    -0.365 C  
HETATM   18  C   UNL     1     -10.253  16.303  67.281  1.00  0.00    -0.279 A  
HETATM   19  N   UNL     1      -9.954  17.597  67.423  1.00  0.00    -0.309 NA 
HETATM   20  C   UNL     1     -10.062  15.498  68.389  1.00  0.00    -0.214 A  
HETATM   21  C   UNL     1     -10.336  14.131  68.369  1.00  0.00    -0.249 A  
HETATM   22  C   UNL     1     -10.170  18.395  66.385  1.00  0.00    -0.410 A  
HETATM   23  N   UNL     1     -10.733  18.020  65.243  1.00  0.00    -0.557 NA 
HETATM   24  N   UNL     1      -9.823  19.724  66.515  1.00  0.00    -0.401 NA 
HETATM   25  C   UNL     1     -11.016  16.717  65.110  1.00  0.00    -0.151 A  
HETATM   26  H2  UNL     1      -9.415  20.081  67.379  1.00  0.00     0.000 HD 
HETATM   27  H1  UNL     1      -9.989  20.337  65.718  1.00  0.00     0.000 HD 
HETATM   28  N   UNL     1     -11.665  16.436  63.904  1.00  0.00    -1.024 NA 
ENDBRANCH  11  12
ENDBRANCH   9  11
ENDBRANCH   5   9
BRANCH   8  29
HETATM   29  O   UNL     1      -8.880   8.998  70.407  1.00  0.00    -0.162 OA 
HETATM   30  C   UNL     1      -7.922   9.663  69.601  1.00  0.00    -0.137 C  
ENDBRANCH   8  29
BRANCH   7  31
HETATM   31  O   UNL     1     -10.691   8.558  72.604  1.00  0.00    -0.302 OA 
HETATM   32  C   UNL     1     -10.949   7.165  72.627  1.00  0.00    -0.288 C  
ENDBRANCH   7  31
ENDBRANCH   2   3
TORSDOF 6
ENDMDL
MODEL        5
REMARK 921   NORMALIZED FREE ENERGY PREDICTED BY IDOCK:   -6.86 KCAL/MOL
REMARK 922        TOTAL FREE ENERGY PREDICTED BY IDOCK:  -10.11 KCAL/MOL
REMARK 923 INTER-LIGAND FREE ENERGY PREDICTED BY IDOCK:   -8.95 KCAL/MOL
REMARK 924 INTRA-LIGAND FREE ENERGY PREDICTED BY IDOCK:   -1.16 KCAL/MOL
REMARK 927      BINDING AFFINITY PREDICTED BY RF-SCORE:    0.00 PKD
ROOT
HETATM    1  C   UNL     1      -7.194  14.423  68.155  1.00  0.00    -0.128 C  
HETATM    2  O   UNL     1      -7.010  15.635  67.427  1.00  0.00    -0.173 OA 
ENDROOT
BRANCH   2   3
HETATM    3  C   UNL     1      -8.149  16.299  67.039  1.00  0.00    -0.209 A  
HETATM    4  C   UNL     1      -8.941  15.799  65.990  1.00  0.00    -0.322 A  
HETATM    5  C   UNL     1     -10.119  16.424  65.584  1.00  0.00    -0.286 A  
HETATM    6  C   UNL     1     -10.469  17.603  66.236  1.00  0.00    -0.292 A  
HETATM    7  C   UNL     1      -8.547  17.465  67.731  1.00  0.00    -0.227 A  
HETATM    8  C   UNL     1      -9.724  18.118  67.312  1.00  0.00    -0.297 A  
BRANCH   5   9
HETATM    9  N   UNL     1     -10.793  15.925  64.463  1.00  0.00    -0.855 NA 
HETATM   10  H   UNL     1     -10.538  16.223  63.521  1.00  0.00     0.000 HD 
BRANCH   9  11
HETATM   11  C   UNL     1     -11.871  14.965  64.678  1.00  0.00    -0.407 C  
BRANCH  11  12
HETATM   12  C   UNL     1     -11.368  13.552  64.922  1.00  0.00    -0.347 A  
HETATM   13  C   UNL     1     -11.489  12.964  66.208  1.00  0.00    -0.395 A  
HETATM   14  H2  UNL     1     -12.904  11.453  68.382  1.00  0.00     0.000 HD 
HETATM   15  C   UNL     1     -11.085  11.588  66.425  1.00  0.00    -0.328 A  
HETATM   16  H1  UNL     1     -12.089  10.612  69.533  1.00  0.00     0.000 HD 
HETATM   17  C   UNL     1     -12.033  13.782  67.359  1.00  0.00    -0.423 C  
HETATM   18  C   UNL     1     -10.469  10.891  65.375  1.00  0.00    -0.223 A  
HETATM   19  N   UNL     1      -9.991   9.648  65.484  1.00  0.00    -0.289 NA 
HETATM   20  C   UNL     1     -10.350  11.494  64.137  1.00  0.00    -0.386 A  
HETATM   21  C   UNL     1     -10.810  12.787  63.894  1.00  0.00    -0.447 A  
HETATM   22  C   UNL     1     -10.133   9.036  66.653  1.00  0.00    -0.285 A  
HETATM   23  N   UNL     1     -10.783   9.534  67.698  1.00  0.00    -0.278 NA 
HETATM   24  N   UNL     1      -9.602   7.769  66.781  1.00  0.00    -0.197 NA 
HETATM   25  C   UNL     1     -11.247  10.785  67.578  1.00  0.00    -0.274 A  
HETATM   26  H2  UNL     1      -9.118   7.318  66.004  1.00  0.00     0.000 HD 
HETATM   27  H1  UNL     1      -9.711   7.298  67.678  1.00  0.00     0.000 HD 
HETATM   28  N   UNL     1     -11.972  11.191  68.702  1.00  0.00    -0.546 NA 
ENDBRANCH  11  12
ENDBRANCH   9  11
ENDBRANCH   5   9
BRANCH   8  29
HETATM   29  O   UNL     1     -10.303  19.263  67.803  1.00  0.00    -0.381 OA 
HETATM   30  C   UNL     1     -10.002  20.517  67.215  1.00  0.00    -0.387 C  
ENDBRANCH   8  29
BRANCH   7  31
HETATM   31  O   UNL     1      -7.880  18.046  68.776  1.00  0.00    -0.301 OA 
HETATM   32  C   UNL     1      -6.843  18.983  68.543  1.00  0.00    -0.268 C  
ENDBRANCH   7  31
ENDBRANCH   2   3
TORSDOF 6
ENDMDL
MODEL        6
REMARK 921   NORMALIZED FREE ENERGY PREDICTED BY IDOCK:   -6.85 KCAL/MOL
REMARK 922        TOTAL FREE ENERGY PREDICTED BY IDOCK:  -10.11 KCAL/MOL
REMARK 923 INTER-LIGAND FREE ENERGY PREDICTED BY IDOCK:   -9.39 KCAL/MOL
REMARK 924 INTRA-LIGAND FREE ENERGY PREDICTED BY IDOCK:   -0.71 KCAL/MOL
REMARK 927      BINDING AFFINITY PREDICTED BY RF-SCORE:    0.00 PKD
ROOT
HETATM    1  C   UNL     1     -11.806  15.447  64.446  1.00  0.00    -0.256 C  
HETATM    2  O   UNL     1     -10.863  16.491  64.677  1.00  0.00    -0.741 OA 
ENDROOT
BRANCH   2   3
HETATM    3  C   UNL     1     -10.192  16.459  65.875  1.00  0.00    -0.359 A  
HETATM    4  C   UNL     1     -10.013  15.243  66.558  1.00  0.00    -0.278 A  
HETATM    5  C   UNL     1      -9.315  15.161  67.762  1.00  0.00    -0.189 A  
HETATM    6  C   UNL     1      -8.827  16.351  68.295  1.00  0.00    -0.202 A  
HETATM    7  C   UNL     1      -9.641  17.651  66.399  1.00  0.00    -0.274 A  
HETATM    8  C   UNL     1      -8.954  17.582  67.628  1.00  0.00    -0.231 A  
BRANCH   5   9
HETATM    9  N   UNL     1      -9.274  13.932  68.433  1.00  0.00    -0.205 NA 
HETATM   10  H   UNL     1      -8.679  13.801  69.252  1.00  0.00     0.000 HD 
BRANCH   9  11
HETATM   11  C   UNL     1     -10.103  12.843  67.929  1.00  0.00    -0.232 C  
BRANCH  11  12
HETATM   12  C   UNL     1     -10.980  12.220  69.002  1.00  0.00    -0.250 A  
HETATM   13  C   UNL     1     -10.982  10.814  69.196  1.00  0.00    -0.293 A  
HETATM   14  H2  UNL     1      -9.973   8.229  70.341  1.00  0.00     0.000 HD 
HETATM   15  C   UNL     1     -11.755  10.224  70.272  1.00  0.00    -0.388 A  
HETATM   16  H1  UNL     1     -10.948   6.922  70.538  1.00  0.00     0.000 HD 
HETATM   17  C   UNL     1     -10.180   9.928  68.268  1.00  0.00    -0.204 C  
HETATM   18  C   UNL     1     -12.587  11.052  71.039  1.00  0.00    -0.411 A  
HETATM   19  N   UNL     1     -13.397  10.607  72.004  1.00  0.00    -0.400 NA 
HETATM   20  C   UNL     1     -12.578  12.417  70.819  1.00  0.00    -0.298 A  
HETATM   21  C   UNL     1     -11.776  13.005  69.842  1.00  0.00    -0.326 A  
HETATM   22  C   UNL     1     -13.390   9.305  72.261  1.00  0.00    -0.477 A  
HETATM   23  N   UNL     1     -12.582   8.422  71.686  1.00  0.00    -0.321 NA 
HETATM   24  N   UNL     1     -14.256   8.838  73.227  1.00  0.00    -1.147 NA 
HETATM   25  C   UNL     1     -11.783   8.880  70.713  1.00  0.00    -0.230 A  
HETATM   26  H2  UNL     1     -14.881   9.471  73.727  1.00  0.00     0.000 HD 
HETATM   27  H1  UNL     1     -14.251   7.838  73.424  1.00  0.00     0.000 HD 
HETATM   28  N   UNL     1     -10.928   7.891  70.220  1.00  0.00    -0.253 NA 
ENDBRANCH  11  12
ENDBRANCH   9  11
ENDBRANCH   5   9
BRANCH   8  29
HETATM   29  O   UNL     1      -8.353  18.589  68.344  1.00  0.00    -0.314 OA 
HETATM   30  C   UNL     1      -6.943  18.733  68.319  1.00  0.00    -0.246 C  
ENDBRANCH   8  29
BRANCH   7  31
HETATM   31  O   UNL     1      -9.727  18.893  65.830  1.00  0.00    -0.474 OA 
HETATM   32  C   UNL     1     -10.716  19.816  66.250  1.00  0.00    -0.394 C  
ENDBRANCH   7  31
ENDBRANCH   2   3
TORSDOF 6
ENDMDL
MODEL        7
REMARK 921   NORMALIZED FREE ENERGY PREDICTED BY IDOCK:   -6.83 KCAL/MOL
REMARK 922        TOTAL FREE ENERGY PREDICTED BY IDOCK:  -10.08 KCAL/MOL
REMARK 923 INTER-LIGAND FREE ENERGY PREDICTED BY IDOCK:   -9.43 KCAL/MOL
REMARK 924 INTRA-LIGAND FREE ENERGY PREDICTED BY IDOCK:   -0.65 KCAL/MOL
REMARK 927      BINDING AFFINITY PREDICTED BY RF-SCORE:    0.00 PKD
ROOT
HETATM    1  C   UNL     1     -14.352   8.475  71.871  1.00  0.00    -0.448 C  
HETATM    2  O   UNL     1     -12.983   8.672  72.219  1.00  0.00    -0.363 OA 
ENDROOT
BRANCH   2   3
HETATM    3  C   UNL     1     -12.195   9.301  71.285  1.00  0.00    -0.334 A  
HETATM    4  C   UNL     1     -12.351  10.676  71.034  1.00  0.00    -0.507 A  
HETATM    5  C   UNL     1     -11.555  11.359  70.117  1.00  0.00    -0.280 A  
HETATM    6  C   UNL     1     -10.611  10.614  69.416  1.00  0.00    -0.270 A  
HETATM    7  C   UNL     1     -11.194   8.568  70.609  1.00  0.00    -0.252 A  
HETATM    8  C   UNL     1     -10.400   9.246  69.662  1.00  0.00    -0.217 A  
BRANCH   5   9
HETATM    9  N   UNL     1     -11.844  12.703  69.846  1.00  0.00    -0.427 NA 
HETATM   10  H   UNL     1     -12.012  13.366  70.603  1.00  0.00     0.000 HD 
BRANCH   9  11
HETATM   11  C   UNL     1     -11.898  13.129  68.452  1.00  0.00    -0.351 C  
BRANCH  11  12
HETATM   12  C   UNL     1     -11.451  14.568  68.253  1.00  0.00    -0.336 A  
HETATM   13  C   UNL     1     -11.257  15.082  66.944  1.00  0.00    -0.323 A  
HETATM   14  H2  UNL     1     -12.129  16.355  64.369  1.00  0.00     0.000 HD 
HETATM   15  C   UNL     1     -10.910  16.475  66.748  1.00  0.00    -0.070 A  
HETATM   16  H1  UNL     1     -11.093  17.209  63.424  1.00  0.00     0.000 HD 
HETATM   17  C   UNL     1     -11.405  14.164  65.749  1.00  0.00    -0.317 C  
HETATM   18  C   UNL     1     -10.657  17.274  67.873  1.00  0.00    -0.384 A  
HETATM   19  N   UNL     1     -10.259  18.547  67.810  1.00  0.00    -0.363 NA 
HETATM   20  C   UNL     1     -10.839  16.743  69.137  1.00  0.00    -0.287 A  
HETATM   21  C   UNL     1     -11.252  15.428  69.337  1.00  0.00    -0.300 A  
HETATM   22  C   UNL     1     -10.120  19.089  66.606  1.00  0.00    -0.392 A  
HETATM   23  N   UNL     1     -10.421  18.486  65.463  1.00  0.00    -0.554 NA 
HETATM   24  N   UNL     1      -9.667  20.390  66.537  1.00  0.00    -0.630 NA 
HETATM   25  C   UNL     1     -10.808  17.205  65.540  1.00  0.00    -0.055 A  
HETATM   26  H2  UNL     1      -9.448  20.918  67.382  1.00  0.00     0.000 HD 
HETATM   27  H1  UNL     1      -9.560  20.806  65.613  1.00  0.00     0.000 HD 
HETATM   28  N   UNL     1     -11.166  16.683  64.294  1.00  0.00    -1.080 NA 
ENDBRANCH  11  12
ENDBRANCH   9  11
ENDBRANCH   5   9
BRANCH   8  29
HETATM   29  O   UNL     1      -9.388   8.759  68.869  1.00  0.00    -0.144 OA 
HETATM   30  C   UNL     1      -9.043   9.429  67.669  1.00  0.00    -0.121 C  
ENDBRANCH   8  29
BRANCH   7  31
HETATM   31  O   UNL     1     -10.926   7.235  70.770  1.00  0.00    -0.240 OA 
HETATM   32  C   UNL     1     -11.530   6.268  69.930  1.00  0.00    -0.389 C  
ENDBRANCH   7  31
ENDBRANCH   2   3
TORSDOF 6
ENDMDL
MODEL        8
REMARK 921   NORMALIZED FREE ENERGY PREDICTED BY IDOCK:   -6.79 KCAL/MOL
REMARK 922        TOTAL FREE ENERGY PREDICTED BY IDOCK:  -10.02 KCAL/MOL
REMARK 923 INTER-LIGAND FREE ENERGY PREDICTED BY IDOCK:   -8.83 KCAL/MOL
REMARK 924 INTRA-LIGAND FREE ENERGY PREDICTED BY IDOCK:   -1.19 KCAL/MOL
REMARK 927      BINDING AFFINITY PREDICTED BY RF-SCORE:    0.00 PKD
ROOT
HETATM    1  C   UNL     1     -12.850  10.710  70.819  1.00  0.00    -0.352 C  
HETATM    2  O   UNL     1     -11.619  11.175  70.269  1.00  0.00    -0.307 OA 
ENDROOT
BRANCH   2   3
HETATM    3  C   UNL     1     -11.707  12.106  69.263  1.00  0.00    -0.328 A  
HETATM    4  C   UNL     1     -11.828  13.473  69.568  1.00  0.00    -0.392 A  
HETATM    5  C   UNL     1     -11.893  14.453  68.579  1.00  0.00    -0.334 A  
HETATM    6  C   UNL     1     -11.874  14.022  67.255  1.00  0.00    -0.445 A  
HETATM    7  C   UNL     1     -11.631  11.687  67.915  1.00  0.00    -0.298 A  
HETATM    8  C   UNL     1     -11.719  12.668  66.908  1.00  0.00    -0.383 A  
BRANCH   5   9
HETATM    9  N   UNL     1     -12.121  15.781  68.962  1.00  0.00    -0.563 NA 
HETATM   10  H   UNL     1     -13.026  16.225  68.804  1.00  0.00     0.000 HD 
BRANCH   9  11
HETATM   11  C   UNL     1     -11.028  16.514  69.592  1.00  0.00    -0.287 C  
BRANCH  11  12
HETATM   12  C   UNL     1     -10.165  17.267  68.593  1.00  0.00    -0.351 A  
HETATM   13  C   UNL     1      -8.845  16.825  68.314  1.00  0.00    -0.228 A  
HETATM   14  H2  UNL     1      -6.776  15.172  66.900  1.00  0.00     0.000 HD 
HETATM   15  C   UNL     1      -8.048  17.491  67.302  1.00  0.00    -0.219 A  
HETATM   16  H1  UNL     1      -5.220  15.671  66.740  1.00  0.00     0.000 HD 
HETATM   17  C   UNL     1      -8.266  15.658  69.084  1.00  0.00    -0.248 C  
HETATM   18  C   UNL     1      -8.559  18.645  66.691  1.00  0.00    -0.297 A  
HETATM   19  N   UNL     1      -7.884  19.380  65.803  1.00  0.00    -0.442 NA 
HETATM   20  C   UNL     1      -9.842  19.063  66.993  1.00  0.00    -0.379 A  
HETATM   21  C   UNL     1     -10.649  18.382  67.903  1.00  0.00    -0.379 A  
HETATM   22  C   UNL     1      -6.666  18.972  65.467  1.00  0.00    -0.260 A  
HETATM   23  N   UNL     1      -6.099  17.849  65.887  1.00  0.00    -0.222 NA 
HETATM   24  N   UNL     1      -5.951  19.753  64.582  1.00  0.00    -0.245 NA 
HETATM   25  C   UNL     1      -6.782  17.128  66.786  1.00  0.00    -0.221 A  
HETATM   26  H2  UNL     1      -6.344  20.613  64.199  1.00  0.00     0.000 HD 
HETATM   27  H1  UNL     1      -5.016  19.440  64.325  1.00  0.00     0.000 HD 
HETATM   28  N   UNL     1      -6.133  15.934  67.112  1.00  0.00    -0.332 NA 
ENDBRANCH  11  12
ENDBRANCH   9  11
ENDBRANCH   5   9
BRANCH   8  29
HETATM   29  O   UNL     1     -11.691  12.516  65.542  1.00  0.00    -0.369 OA 
HETATM   30  C   UNL     1     -10.486  12.738  64.829  1.00  0.00    -0.335 C  
ENDBRANCH   8  29
BRANCH   7  31
HETATM   31  O   UNL     1     -11.497  10.395  67.482  1.00  0.00    -0.386 OA 
HETATM   32  C   UNL     1     -10.217   9.803  67.350  1.00  0.00    -0.230 C  
ENDBRANCH   7  31
ENDBRANCH   2   3
TORSDOF 6
ENDMDL
MODEL        9
REMARK 921   NORMALIZED FREE ENERGY PREDICTED BY IDOCK:   -6.78 KCAL/MOL
REMARK 922        TOTAL FREE ENERGY PREDICTED BY IDOCK:  -10.01 KCAL/MOL
REMARK 923 INTER-LIGAND FREE ENERGY PREDICTED BY IDOCK:   -9.54 KCAL/MOL
REMARK 924 INTRA-LIGAND FREE ENERGY PREDICTED BY IDOCK:   -0.48 KCAL/MOL
REMARK 927      BINDING AFFINITY PREDICTED BY RF-SCORE:    0.00 PKD
ROOT
HETATM    1  C   UNL     1     -10.922  15.826  64.793  1.00  0.00    -0.393 C  
HETATM    2  O   UNL     1     -10.458  17.143  65.085  1.00  0.00    -0.666 OA 
ENDROOT
BRANCH   2   3
HETATM    3  C   UNL     1     -10.126  17.402  66.392  1.00  0.00    -0.327 A  
HETATM    4  C   UNL     1     -10.576  16.556  67.421  1.00  0.00    -0.300 A  
HETATM    5  C   UNL     1     -10.239  16.766  68.757  1.00  0.00    -0.299 A  
HETATM    6  C   UNL     1      -9.461  17.883  69.048  1.00  0.00    -0.099 A  
HETATM    7  C   UNL     1      -9.289  18.499  66.695  1.00  0.00    -0.310 A  
HETATM    8  C   UNL     1      -8.962  18.733  68.046  1.00  0.00    -0.299 A  
BRANCH   5   9
HETATM    9  N   UNL     1     -10.815  15.942  69.733  1.00  0.00    -0.298 NA 
HETATM   10  H   UNL     1     -10.304  15.700  70.583  1.00  0.00     0.000 HD 
BRANCH   9  11
HETATM   11  C   UNL     1     -12.164  15.439  69.503  1.00  0.00    -0.246 C  
BRANCH  11  12
HETATM   12  C   UNL     1     -12.442  14.131  70.225  1.00  0.00    -0.416 A  
HETATM   13  C   UNL     1     -11.950  12.907  69.701  1.00  0.00    -0.358 A  
HETATM   14  H2  UNL     1      -9.898  10.755  69.299  1.00  0.00     0.000 HD 
HETATM   15  C   UNL     1     -12.144  11.669  70.430  1.00  0.00    -0.462 A  
HETATM   16  H1  UNL     1     -10.314   9.208  68.940  1.00  0.00     0.000 HD 
HETATM   17  C   UNL     1     -11.230  12.897  68.370  1.00  0.00    -0.305 C  
HETATM   18  C   UNL     1     -12.921  11.685  71.597  1.00  0.00    -0.378 A  
HETATM   19  N   UNL     1     -13.226  10.594  72.305  1.00  0.00    -0.295 NA 
HETATM   20  C   UNL     1     -13.401  12.890  72.076  1.00  0.00    -0.579 A  
HETATM   21  C   UNL     1     -13.152  14.099  71.429  1.00  0.00    -0.428 A  
HETATM   22  C   UNL     1     -12.739   9.433  71.886  1.00  0.00    -0.401 A  
HETATM   23  N   UNL     1     -11.909   9.283  70.861  1.00  0.00    -0.288 NA 
HETATM   24  N   UNL     1     -13.087   8.300  72.591  1.00  0.00    -0.600 NA 
HETATM   25  C   UNL     1     -11.622  10.384  70.152  1.00  0.00    -0.312 A  
HETATM   26  H2  UNL     1     -13.697   8.353  73.407  1.00  0.00     0.000 HD 
HETATM   27  H1  UNL     1     -12.714   7.408  72.269  1.00  0.00     0.000 HD 
HETATM   28  N   UNL     1     -10.690  10.134  69.140  1.00  0.00    -0.214 NA 
ENDBRANCH  11  12
ENDBRANCH   9  11
ENDBRANCH   5   9
BRANCH   8  29
HETATM   29  O   UNL     1      -8.192  19.732  68.593  1.00  0.00    -0.299 OA 
HETATM   30  C   UNL     1      -6.991  19.409  69.272  1.00  0.00    -0.336 C  
ENDBRANCH   8  29
BRANCH   7  31
HETATM   31  O   UNL     1      -8.770  19.388  65.791  1.00  0.00    -0.403 OA 
HETATM   32  C   UNL     1      -7.371  19.483  65.590  1.00  0.00    -0.225 C  
ENDBRANCH   7  31
ENDBRANCH   2   3
TORSDOF 6
ENDMDL
MODEL       10
REMARK 921   NORMALIZED FREE ENERGY PREDICTED BY IDOCK:   -6.72 KCAL/MOL
REMARK 922        TOTAL FREE ENERGY PREDICTED BY IDOCK:   -9.94 KCAL/MOL
REMARK 923 INTER-LIGAND FREE ENERGY PREDICTED BY IDOCK:   -9.24 KCAL/MOL
REMARK 924 INTRA-LIGAND FREE ENERGY PREDICTED BY IDOCK:   -0.70 KCAL/MOL
REMARK 927      BINDING AFFINITY PREDICTED BY RF-SCORE:    0.00 PKD
ROOT
HETATM    1  C   UNL     1     -11.024  14.610  64.927  1.00  0.00    -0.407 C  
HETATM    2  O   UNL     1     -10.777  15.989  65.193  1.00  0.00    -0.444 OA 
ENDROOT
BRANCH   2   3
HETATM    3  C   UNL     1     -10.555  16.332  66.504  1.00  0.00    -0.256 A  
HETATM    4  C   UNL     1     -10.786  15.401  67.532  1.00  0.00    -0.295 A  
HETATM    5  C   UNL     1     -10.547  15.698  68.873  1.00  0.00    -0.228 A  
HETATM    6  C   UNL     1     -10.101  16.984  69.169  1.00  0.00    -0.259 A  
HETATM    7  C   UNL     1     -10.047  17.615  66.814  1.00  0.00    -0.334 A  
HETATM    8  C   UNL     1      -9.824  17.932  68.169  1.00  0.00    -0.334 A  
BRANCH   5   9
HETATM    9  N   UNL     1     -10.904  14.755  69.845  1.00  0.00    -0.411 NA 
HETATM   10  H   UNL     1     -10.364  14.658  70.706  1.00  0.00     0.000 HD 
BRANCH   9  11
HETATM   11  C   UNL     1     -12.068  13.913  69.593  1.00  0.00    -0.349 C  
BRANCH  11  12
HETATM   12  C   UNL     1     -11.755  12.428  69.672  1.00  0.00    -0.377 A  
HETATM   13  C   UNL     1     -12.297  11.638  70.719  1.00  0.00    -0.454 A  
HETATM   14  H2  UNL     1     -14.398   9.948  72.038  1.00  0.00     0.000 HD 
HETATM   15  C   UNL     1     -12.067  10.207  70.751  1.00  0.00    -0.438 A  
HETATM   16  H1  UNL     1     -14.026   8.821  73.173  1.00  0.00     0.000 HD 
HETATM   17  C   UNL     1     -13.110  12.297  71.812  1.00  0.00    -0.449 C  
HETATM   18  C   UNL     1     -11.208   9.638  69.799  1.00  0.00    -0.174 A  
HETATM   19  N   UNL     1     -10.867   8.347  69.778  1.00  0.00    -0.219 NA 
HETATM   20  C   UNL     1     -10.682  10.434  68.799  1.00  0.00    -0.255 A  
HETATM   21  C   UNL     1     -10.962  11.797  68.709  1.00  0.00    -0.281 A  
HETATM   22  C   UNL     1     -11.395   7.557  70.705  1.00  0.00    -0.281 A  
HETATM   23  N   UNL     1     -12.297   7.936  71.602  1.00  0.00    -0.306 NA 
HETATM   24  N   UNL     1     -11.011   6.232  70.712  1.00  0.00    -0.279 NA 
HETATM   25  C   UNL     1     -12.622   9.236  71.618  1.00  0.00    -0.365 A  
HETATM   26  H2  UNL     1     -10.344   5.872  70.029  1.00  0.00     0.000 HD 
HETATM   27  H1  UNL     1     -11.416   5.626  71.423  1.00  0.00     0.000 HD 
HETATM   28  N   UNL     1     -13.626   9.520  72.548  1.00  0.00    -0.390 NA 
ENDBRANCH  11  12
ENDBRANCH   9  11
ENDBRANCH   5   9
BRANCH   8  29
HETATM   29  O   UNL     1      -9.361  19.102  68.722  1.00  0.00    -0.361 OA 
HETATM   30  C   UNL     1      -7.967  19.351  68.788  1.00  0.00    -0.356 C  
ENDBRANCH   8  29
BRANCH   7  31
HETATM   31  O   UNL     1      -9.763  18.605  65.913  1.00  0.00    -0.498 OA 
HETATM   32  C   UNL     1     -10.661  19.683  65.714  1.00  0.00    -0.438 C  
ENDBRANCH   7  31
ENDBRANCH   2   3
TORSDOF 6
ENDMDL
MODEL       11
REMARK 921   NORMALIZED FREE ENERGY PREDICTED BY IDOCK:   -6.71 KCAL/MOL
REMARK 922        TOTAL FREE ENERGY PREDICTED BY IDOCK:   -9.92 KCAL/MOL
REMARK 923 INTER-LIGAND FREE ENERGY PREDICTED BY IDOCK:   -9.29 KCAL/MOL
REMARK 924 INTRA-LIGAND FREE ENERGY PREDICTED BY IDOCK:   -0.64 KCAL/MOL
REMARK 927      BINDING AFFINITY PREDICTED BY RF-SCORE:    0.00 PKD
ROOT
HETATM    1  C   UNL     1     -10.040   8.876  66.560  1.00  0.00    -0.286 C  
HETATM    2  O   UNL     1      -9.622   8.546  67.883  1.00  0.00    -0.147 OA 
ENDROOT
BRANCH   2   3
HETATM    3  C   UNL     1     -10.296   9.159  68.911  1.00  0.00    -0.214 A  
HETATM    4  C   UNL     1     -10.600  10.530  68.845  1.00  0.00    -0.243 A  
HETATM    5  C   UNL     1     -11.307  11.184  69.853  1.00  0.00    -0.268 A  
HETATM    6  C   UNL     1     -11.674  10.430  70.964  1.00  0.00    -0.430 A  
HETATM    7  C   UNL     1     -10.725   8.392  70.018  1.00  0.00    -0.236 A  
HETATM    8  C   UNL     1     -11.420   9.050  71.053  1.00  0.00    -0.295 A  
BRANCH   5   9
HETATM    9  N   UNL     1     -11.475  12.572  69.763  1.00  0.00    -0.492 NA 
HETATM   10  H   UNL     1     -11.453  13.158  70.599  1.00  0.00     0.000 HD 
BRANCH   9  11
HETATM   11  C   UNL     1     -11.683  13.158  68.444  1.00  0.00    -0.351 C  
BRANCH  11  12
HETATM   12  C   UNL     1     -11.285  14.623  68.375  1.00  0.00    -0.290 A  
HETATM   13  C   UNL     1     -11.069  15.247  67.119  1.00  0.00    -0.323 A  
HETATM   14  H2  UNL     1     -11.904  16.691  64.624  1.00  0.00     0.000 HD 
HETATM   15  C   UNL     1     -10.770  16.663  67.047  1.00  0.00    -0.174 A  
HETATM   16  H1  UNL     1     -10.871  17.655  63.786  1.00  0.00     0.000 HD 
HETATM   17  C   UNL     1     -11.142  14.424  65.851  1.00  0.00    -0.319 C  
HETATM   18  C   UNL     1     -10.585  17.377  68.240  1.00  0.00    -0.366 A  
HETATM   19  N   UNL     1     -10.234  18.665  68.292  1.00  0.00    -0.381 NA 
HETATM   20  C   UNL     1     -10.787  16.741  69.450  1.00  0.00    -0.250 A  
HETATM   21  C   UNL     1     -11.156  15.399  69.531  1.00  0.00    -0.284 A  
HETATM   22  C   UNL     1     -10.076  19.306  67.140  1.00  0.00    -0.377 A  
HETATM   23  N   UNL     1     -10.316  18.787  65.942  1.00  0.00    -0.582 NA 
HETATM   24  N   UNL     1      -9.673  20.624  67.191  1.00  0.00    -0.601 NA 
HETATM   25  C   UNL     1     -10.656  17.491  65.905  1.00  0.00    -0.203 A  
HETATM   26  H2  UNL     1      -9.501  21.091  68.082  1.00  0.00     0.000 HD 
HETATM   27  H1  UNL     1      -9.551  21.116  66.306  1.00  0.00     0.000 HD 
HETATM   28  N   UNL     1     -10.953  17.058  64.609  1.00  0.00    -0.964 NA 
ENDBRANCH  11  12
ENDBRANCH   9  11
ENDBRANCH   5   9
BRANCH   8  29
HETATM   29  O   UNL     1     -11.918   8.538  72.228  1.00  0.00    -0.359 OA 
HETATM   30  C   UNL     1     -13.255   8.812  72.609  1.00  0.00    -0.275 C  
ENDBRANCH   8  29
BRANCH   7  31
HETATM   31  O   UNL     1     -10.512   7.052  70.199  1.00  0.00    -0.204 OA 
HETATM   32  C   UNL     1     -11.360   6.094  69.592  1.00  0.00    -0.372 C  
ENDBRANCH   7  31
ENDBRANCH   2   3
TORSDOF 6
ENDMDL
MODEL       12
REMARK 921   NORMALIZED FREE ENERGY PREDICTED BY IDOCK:   -6.71 KCAL/MOL
REMARK 922        TOTAL FREE ENERGY PREDICTED BY IDOCK:   -9.92 KCAL/MOL
REMARK 923 INTER-LIGAND FREE ENERGY PREDICTED BY IDOCK:   -8.97 KCAL/MOL
REMARK 924 INTRA-LIGAND FREE ENERGY PREDICTED BY IDOCK:   -0.96 KCAL/MOL
REMARK 927      BINDING AFFINITY PREDICTED BY RF-SCORE:    0.00 PKD
ROOT
HETATM    1  C   UNL     1     -10.527   5.672  70.755  1.00  0.00    -0.265 C  
HETATM    2  O   UNL     1     -10.884   6.658  71.722  1.00  0.00    -0.224 OA 
ENDROOT
BRANCH   2   3
HETATM    3  C   UNL     1     -10.981   7.952  71.273  1.00  0.00    -0.238 A  
HETATM    4  C   UNL     1      -9.912   8.545  70.577  1.00  0.00    -0.214 A  
HETATM    5  C   UNL     1      -9.979   9.846  70.080  1.00  0.00    -0.254 A  
HETATM    6  C   UNL     1     -11.143  10.564  70.335  1.00  0.00    -0.321 A  
HETATM    7  C   UNL     1     -12.180   8.673  71.474  1.00  0.00    -0.318 A  
HETATM    8  C   UNL     1     -12.247   9.998  70.995  1.00  0.00    -0.365 A  
BRANCH   5   9
HETATM    9  N   UNL     1      -8.834  10.400  69.493  1.00  0.00    -0.348 NA 
HETATM   10  H   UNL     1      -8.105  10.828  70.065  1.00  0.00     0.000 HD 
BRANCH   9  11
HETATM   11  C   UNL     1      -8.711  10.350  68.040  1.00  0.00    -0.123 C  
BRANCH  11  12
HETATM   12  C   UNL     1      -9.220  11.609  67.358  1.00  0.00    -0.168 A  
HETATM   13  C   UNL     1     -10.014  11.515  66.185  1.00  0.00    -0.257 A  
HETATM   14  H2  UNL     1     -12.581  11.205  64.661  1.00  0.00     0.000 HD 
HETATM   15  C   UNL     1     -10.569  12.710  65.579  1.00  0.00    -0.301 A  
HETATM   16  H1  UNL     1     -12.771  11.798  63.142  1.00  0.00     0.000 HD 
HETATM   17  C   UNL     1     -10.273  10.161  65.561  1.00  0.00    -0.288 C  
HETATM   18  C   UNL     1     -10.213  13.962  66.102  1.00  0.00    -0.301 A  
HETATM   19  N   UNL     1     -10.604  15.127  65.579  1.00  0.00    -0.338 NA 
HETATM   20  C   UNL     1      -9.425  14.024  67.236  1.00  0.00    -0.231 A  
HETATM   21  C   UNL     1      -8.953  12.880  67.877  1.00  0.00    -0.193 A  
HETATM   22  C   UNL     1     -11.396  15.089  64.515  1.00  0.00    -0.287 A  
HETATM   23  N   UNL     1     -11.892  13.981  63.977  1.00  0.00    -0.357 NA 
HETATM   24  N   UNL     1     -11.765  16.290  63.948  1.00  0.00    -1.518 NA 
HETATM   25  C   UNL     1     -11.483  12.819  64.504  1.00  0.00    -0.342 A  
HETATM   26  H2  UNL     1     -11.442  17.178  64.333  1.00  0.00     0.000 HD 
HETATM   27  H1  UNL     1     -12.373  16.261  63.130  1.00  0.00     0.000 HD 
HETATM   28  N   UNL     1     -12.112  11.719  63.916  1.00  0.00    -0.355 NA 
ENDBRANCH  11  12
ENDBRANCH   9  11
ENDBRANCH   5   9
BRANCH   8  29
HETATM   29  O   UNL     1     -13.279  10.901  71.083  1.00  0.00    -0.302 OA 
HETATM   30  C   UNL     1     -13.156  12.039  71.918  1.00  0.00    -0.370 C  
ENDBRANCH   8  29
BRANCH   7  31
HETATM   31  O   UNL     1     -13.296   8.212  72.118  1.00  0.00    -0.292 OA 
HETATM   32  C   UNL     1     -14.341   7.584  71.397  1.00  0.00    -0.394 C  
ENDBRANCH   7  31
ENDBRANCH   2   3
TORSDOF 6
ENDMDL
MODEL       13
REMARK 921   NORMALIZED FREE ENERGY PREDICTED BY IDOCK:   -6.69 KCAL/MOL
REMARK 922        TOTAL FREE ENERGY PREDICTED BY IDOCK:   -9.89 KCAL/MOL
REMARK 923 INTER-LIGAND FREE ENERGY PREDICTED BY IDOCK:   -8.93 KCAL/MOL
REMARK 924 INTRA-LIGAND FREE ENERGY PREDICTED BY IDOCK:   -0.96 KCAL/MOL
REMARK 927      BINDING AFFINITY PREDICTED BY RF-SCORE:    0.00 PKD
ROOT
HETATM    1  C   UNL     1     -12.149  13.545  64.693  1.00  0.00    -0.409 C  
HETATM    2  O   UNL     1     -11.869  12.501  65.623  1.00  0.00    -0.402 OA 
ENDROOT
BRANCH   2   3
HETATM    3  C   UNL     1     -11.850  12.850  66.952  1.00  0.00    -0.379 A  
HETATM    4  C   UNL     1     -11.969  14.198  67.335  1.00  0.00    -0.439 A  
HETATM    5  C   UNL     1     -11.984  14.593  68.672  1.00  0.00    -0.270 A  
HETATM    6  C   UNL     1     -11.833  13.595  69.631  1.00  0.00    -0.396 A  
HETATM    7  C   UNL     1     -11.757  11.841  67.937  1.00  0.00    -0.276 A  
HETATM    8  C   UNL     1     -11.746  12.233  69.291  1.00  0.00    -0.330 A  
BRANCH   5   9
HETATM    9  N   UNL     1     -11.997  15.962  68.968  1.00  0.00    -0.492 NA 
HETATM   10  H   UNL     1     -12.832  16.526  68.804  1.00  0.00     0.000 HD 
BRANCH   9  11
HETATM   11  C   UNL     1     -10.786  16.560  69.517  1.00  0.00    -0.321 C  
BRANCH  11  12
HETATM   12  C   UNL     1     -10.092  17.497  68.542  1.00  0.00    -0.363 A  
HETATM   13  C   UNL     1      -8.772  17.217  68.099  1.00  0.00    -0.243 A  
HETATM   14  H2  UNL     1      -6.718  15.936  66.325  1.00  0.00     0.000 HD 
HETATM   15  C   UNL     1      -8.139  18.064  67.107  1.00  0.00    -0.225 A  
HETATM   16  H1  UNL     1      -5.234  16.597  66.090  1.00  0.00     0.000 HD 
HETATM   17  C   UNL     1      -8.024  16.035  68.673  1.00  0.00    -0.174 C  
HETATM   18  C   UNL     1      -8.804  19.223  66.683  1.00  0.00    -0.334 A  
HETATM   19  N   UNL     1      -8.284  20.112  65.832  1.00  0.00    -0.215 NA 
HETATM   20  C   UNL     1     -10.082  19.480  67.143  1.00  0.00    -0.515 A  
HETATM   21  C   UNL     1     -10.735  18.629  68.034  1.00  0.00    -0.273 A  
HETATM   22  C   UNL     1      -7.075  19.863  65.345  1.00  0.00    -0.261 A  
HETATM   23  N   UNL     1      -6.375  18.760  65.578  1.00  0.00    -0.256 NA 
HETATM   24  N   UNL     1      -6.519  20.800  64.500  1.00  0.00    -0.441 NA 
HETATM   25  C   UNL     1      -6.903  17.882  66.443  1.00  0.00    -0.242 A  
HETATM   26  H2  UNL     1      -7.020  21.655  64.256  1.00  0.00     0.000 HD 
HETATM   27  H1  UNL     1      -5.591  20.609  64.126  1.00  0.00     0.000 HD 
HETATM   28  N   UNL     1      -6.125  16.728  66.568  1.00  0.00    -0.304 NA 
ENDBRANCH  11  12
ENDBRANCH   9  11
ENDBRANCH   5   9
BRANCH   8  29
HETATM   29  O   UNL     1     -11.645  11.455  70.420  1.00  0.00    -0.297 OA 
HETATM   30  C   UNL     1     -12.817  11.021  71.088  1.00  0.00    -0.392 C  
ENDBRANCH   8  29
BRANCH   7  31
HETATM   31  O   UNL     1     -11.652  10.496  67.703  1.00  0.00    -0.447 OA 
HETATM   32  C   UNL     1     -10.389   9.894  67.483  1.00  0.00    -0.236 C  
ENDBRANCH   7  31
ENDBRANCH   2   3
TORSDOF 6
ENDMDL
MODEL       14
REMARK 921   NORMALIZED FREE ENERGY PREDICTED BY IDOCK:   -6.65 KCAL/MOL
REMARK 922        TOTAL FREE ENERGY PREDICTED BY IDOCK:   -9.84 KCAL/MOL
REMARK 923 INTER-LIGAND FREE ENERGY PREDICTED BY IDOCK:   -9.21 KCAL/MOL
REMARK 924 INTRA-LIGAND FREE ENERGY PREDICTED BY IDOCK:   -0.63 KCAL/MOL
REMARK 927      BINDING AFFINITY PREDICTED BY RF-SCORE:    0.00 PKD
ROOT
HETATM    1  C   UNL     1      -5.887  15.017  67.835  1.00  0.00    -0.139 C  
HETATM    2  O   UNL     1      -6.347  15.990  66.899  1.00  0.00    -0.306 OA 
ENDROOT
BRANCH   2   3
HETATM    3  C   UNL     1      -7.705  16.072  66.714  1.00  0.00    -0.235 A  
HETATM    4  C   UNL     1      -8.535  14.986  67.045  1.00  0.00    -0.258 A  
HETATM    5  C   UNL     1      -9.920  15.036  66.899  1.00  0.00    -0.244 A  
HETATM    6  C   UNL     1     -10.461  16.204  66.367  1.00  0.00    -0.304 A  
HETATM    7  C   UNL     1      -8.273  17.272  66.229  1.00  0.00    -0.267 A  
HETATM    8  C   UNL     1      -9.671  17.324  66.056  1.00  0.00    -0.168 A  
BRANCH   5   9
HETATM    9  N   UNL     1     -10.665  13.877  67.150  1.00  0.00    -0.281 NA 
HETATM   10  H   UNL     1     -11.637  13.802  66.847  1.00  0.00     0.000 HD 
BRANCH   9  11
HETATM   11  C   UNL     1     -10.015  12.778  67.856  1.00  0.00    -0.229 C  
BRANCH  11  12
HETATM   12  C   UNL     1     -10.882  12.181  68.951  1.00  0.00    -0.241 A  
HETATM   13  C   UNL     1     -10.896  10.777  69.166  1.00  0.00    -0.281 A  
HETATM   14  H2  UNL     1      -9.899   8.198  70.331  1.00  0.00     0.000 HD 
HETATM   15  C   UNL     1     -11.659  10.212  70.261  1.00  0.00    -0.379 A  
HETATM   16  H1  UNL     1     -10.885   6.905  70.561  1.00  0.00     0.000 HD 
HETATM   17  C   UNL     1     -10.119   9.869  68.238  1.00  0.00    -0.185 C  
HETATM   18  C   UNL     1     -12.469  11.060  71.030  1.00  0.00    -0.409 A  
HETATM   19  N   UNL     1     -13.269  10.638  72.013  1.00  0.00    -0.450 NA 
HETATM   20  C   UNL     1     -12.448  12.421  70.789  1.00  0.00    -0.356 A  
HETATM   21  C   UNL     1     -11.655  12.986  69.792  1.00  0.00    -0.286 A  
HETATM   22  C   UNL     1     -13.272   9.340  72.289  1.00  0.00    -0.460 A  
HETATM   23  N   UNL     1     -12.484   8.439  71.714  1.00  0.00    -0.319 NA 
HETATM   24  N   UNL     1     -14.128   8.896  73.275  1.00  0.00    -1.248 NA 
HETATM   25  C   UNL     1     -11.696   8.875  70.721  1.00  0.00    -0.230 A  
HETATM   26  H2  UNL     1     -14.738   9.543  73.775  1.00  0.00     0.000 HD 
HETATM   27  H1  UNL     1     -14.131   7.899  73.486  1.00  0.00     0.000 HD 
HETATM   28  N   UNL     1     -10.859   7.869  70.230  1.00  0.00    -0.241 NA 
ENDBRANCH  11  12
ENDBRANCH   9  11
ENDBRANCH   5   9
BRANCH   8  29
HETATM   29  O   UNL     1     -10.450  18.355  65.587  1.00  0.00    -0.624 OA 
HETATM   30  C   UNL     1     -10.776  19.440  66.439  1.00  0.00    -0.412 C  
ENDBRANCH   8  29
BRANCH   7  31
HETATM   31  O   UNL     1      -7.585  18.405  65.885  1.00  0.00    -0.451 OA 
HETATM   32  C   UNL     1      -7.196  19.344  66.872  1.00  0.00    -0.209 C  
ENDBRANCH   7  31
ENDBRANCH   2   3
TORSDOF 6
ENDMDL
MODEL       15
REMARK 921   NORMALIZED FREE ENERGY PREDICTED BY IDOCK:   -6.64 KCAL/MOL
REMARK 922        TOTAL FREE ENERGY PREDICTED BY IDOCK:   -9.82 KCAL/MOL
REMARK 923 INTER-LIGAND FREE ENERGY PREDICTED BY IDOCK:   -9.01 KCAL/MOL
REMARK 924 INTRA-LIGAND FREE ENERGY PREDICTED BY IDOCK:   -0.81 KCAL/MOL
REMARK 927      BINDING AFFINITY PREDICTED BY RF-SCORE:    0.00 PKD
ROOT
HETATM    1  C   UNL     1      -9.994  10.338  65.005  1.00  0.00    -0.323 C  
HETATM    2  O   UNL     1      -9.915   9.223  65.891  1.00  0.00    -0.307 OA 
ENDROOT
BRANCH   2   3
HETATM    3  C   UNL     1     -10.201   9.465  67.212  1.00  0.00    -0.246 A  
HETATM    4  C   UNL     1     -10.498  10.768  67.648  1.00  0.00    -0.252 A  
HETATM    5  C   UNL     1     -10.821  11.054  68.974  1.00  0.00    -0.229 A  
HETATM    6  C   UNL     1     -10.800   9.994  69.875  1.00  0.00    -0.328 A  
HETATM    7  C   UNL     1     -10.240   8.388  68.127  1.00  0.00    -0.208 A  
HETATM    8  C   UNL     1     -10.542   8.671  69.474  1.00  0.00    -0.213 A  
BRANCH   5   9
HETATM    9  N   UNL     1     -10.998  12.392  69.349  1.00  0.00    -0.453 NA 
HETATM   10  H   UNL     1     -10.474  12.792  70.128  1.00  0.00     0.000 HD 
BRANCH   9  11
HETATM   11  C   UNL     1     -11.953  13.198  68.597  1.00  0.00    -0.284 C  
BRANCH  11  12
HETATM   12  C   UNL     1     -11.473  14.621  68.362  1.00  0.00    -0.335 A  
HETATM   13  C   UNL     1     -11.276  15.100  67.041  1.00  0.00    -0.308 A  
HETATM   14  H2  UNL     1     -12.133  16.335  64.443  1.00  0.00     0.000 HD 
HETATM   15  C   UNL     1     -10.897  16.480  66.812  1.00  0.00    -0.070 A  
HETATM   16  H1  UNL     1     -11.084  17.142  63.472  1.00  0.00     0.000 HD 
HETATM   17  C   UNL     1     -11.453  14.160  65.868  1.00  0.00    -0.338 C  
HETATM   18  C   UNL     1     -10.618  17.298  67.916  1.00  0.00    -0.384 A  
HETATM   19  N   UNL     1     -10.190  18.560  67.822  1.00  0.00    -0.363 NA 
HETATM   20  C   UNL     1     -10.803  16.801  69.193  1.00  0.00    -0.287 A  
HETATM   21  C   UNL     1     -11.247  15.500  69.426  1.00  0.00    -0.302 A  
HETATM   22  C   UNL     1     -10.045  19.070  66.605  1.00  0.00    -0.392 A  
HETATM   23  N   UNL     1     -10.368  18.449  65.477  1.00  0.00    -0.521 NA 
HETATM   24  N   UNL     1      -9.563  20.358  66.504  1.00  0.00    -0.630 NA 
HETATM   25  C   UNL     1     -10.785  17.180  65.587  1.00  0.00    -0.136 A  
HETATM   26  H2  UNL     1      -9.325  20.900  67.335  1.00  0.00     0.000 HD 
HETATM   27  H1  UNL     1      -9.452  20.750  65.569  1.00  0.00     0.000 HD 
HETATM   28  N   UNL     1     -11.164  16.639  64.355  1.00  0.00    -1.060 NA 
ENDBRANCH  11  12
ENDBRANCH   9  11
ENDBRANCH   5   9
BRANCH   8  29
HETATM   29  O   UNL     1     -10.621   7.813  70.545  1.00  0.00    -0.218 OA 
HETATM   30  C   UNL     1     -11.866   7.236  70.900  1.00  0.00    -0.316 C  
ENDBRANCH   8  29
BRANCH   7  31
HETATM   31  O   UNL     1      -9.989   7.075  67.833  1.00  0.00    -0.144 OA 
HETATM   32  C   UNL     1     -11.006   6.243  67.303  1.00  0.00    -0.366 C  
ENDBRANCH   7  31
ENDBRANCH   2   3
TORSDOF 6
ENDMDL
MODEL       16
REMARK 921   NORMALIZED FREE ENERGY PREDICTED BY IDOCK:   -6.61 KCAL/MOL
REMARK 922        TOTAL FREE ENERGY PREDICTED BY IDOCK:   -9.78 KCAL/MOL
REMARK 923 INTER-LIGAND FREE ENERGY PREDICTED BY IDOCK:   -9.31 KCAL/MOL
REMARK 924 INTRA-LIGAND FREE ENERGY PREDICTED BY IDOCK:   -0.46 KCAL/MOL
REMARK 927      BINDING AFFINITY PREDICTED BY RF-SCORE:    0.00 PKD
ROOT
HETATM    1  C   UNL     1      -8.243  19.090  68.623  1.00  0.00    -0.364 C  
HETATM    2  O   UNL     1      -9.641  18.940  68.386  1.00  0.00    -0.329 OA 
ENDROOT
BRANCH   2   3
HETATM    3  C   UNL     1     -10.076  17.682  68.047  1.00  0.00    -0.343 A  
HETATM    4  C   UNL     1     -10.324  16.722  69.044  1.00  0.00    -0.326 A  
HETATM    5  C   UNL     1     -10.792  15.444  68.746  1.00  0.00    -0.252 A  
HETATM    6  C   UNL     1     -10.971  15.130  67.402  1.00  0.00    -0.314 A  
HETATM    7  C   UNL     1     -10.317  17.369  66.689  1.00  0.00    -0.306 A  
HETATM    8  C   UNL     1     -10.769  16.071  66.377  1.00  0.00    -0.232 A  
BRANCH   5   9
HETATM    9  N   UNL     1     -10.911  14.512  69.786  1.00  0.00    -0.427 NA 
HETATM   10  H   UNL     1     -10.179  14.417  70.491  1.00  0.00     0.000 HD 
BRANCH   9  11
HETATM   11  C   UNL     1     -12.109  13.681  69.833  1.00  0.00    -0.341 C  
BRANCH  11  12
HETATM   12  C   UNL     1     -11.798  12.194  69.872  1.00  0.00    -0.392 A  
HETATM   13  C   UNL     1     -12.383  11.368  70.868  1.00  0.00    -0.483 A  
HETATM   14  H2  UNL     1     -14.535   9.635  72.038  1.00  0.00     0.000 HD 
HETATM   15  C   UNL     1     -12.153   9.937  70.858  1.00  0.00    -0.431 A  
HETATM   16  H1  UNL     1     -14.210   8.468  73.147  1.00  0.00     0.000 HD 
HETATM   17  C   UNL     1     -13.241  11.989  71.948  1.00  0.00    -0.469 C  
HETATM   18  C   UNL     1     -11.256   9.402  69.923  1.00  0.00    -0.155 A  
HETATM   19  N   UNL     1     -10.913   8.111  69.871  1.00  0.00    -0.213 NA 
HETATM   20  C   UNL     1     -10.688  10.232  68.974  1.00  0.00    -0.257 A  
HETATM   21  C   UNL     1     -10.966  11.597  68.921  1.00  0.00    -0.282 A  
HETATM   22  C   UNL     1     -11.479   7.290  70.747  1.00  0.00    -0.299 A  
HETATM   23  N   UNL     1     -12.417   7.637  71.618  1.00  0.00    -0.323 NA 
HETATM   24  N   UNL     1     -11.094   5.965  70.723  1.00  0.00    -0.282 NA 
HETATM   25  C   UNL     1     -12.743   8.937  71.667  1.00  0.00    -0.349 A  
HETATM   26  H2  UNL     1     -10.399   5.629  70.056  1.00  0.00     0.000 HD 
HETATM   27  H1  UNL     1     -11.529   5.334  71.395  1.00  0.00     0.000 HD 
HETATM   28  N   UNL     1     -13.785   9.189  72.564  1.00  0.00    -0.474 NA 
ENDBRANCH  11  12
ENDBRANCH   9  11
ENDBRANCH   5   9
BRANCH   8  29
HETATM   29  O   UNL     1     -11.053  15.523  65.149  1.00  0.00    -0.376 OA 
HETATM   30  C   UNL     1     -10.673  14.187  64.865  1.00  0.00    -0.428 C  
ENDBRANCH   8  29
BRANCH   7  31
HETATM   31  O   UNL     1     -10.134  18.212  65.626  1.00  0.00    -0.544 OA 
HETATM   32  C   UNL     1     -10.718  19.502  65.614  1.00  0.00    -0.325 C  
ENDBRANCH   7  31
ENDBRANCH   2   3
TORSDOF 6
ENDMDL
MODEL       17
REMARK 921   NORMALIZED FREE ENERGY PREDICTED BY IDOCK:   -6.59 KCAL/MOL
REMARK 922        TOTAL FREE ENERGY PREDICTED BY IDOCK:   -9.76 KCAL/MOL
REMARK 923 INTER-LIGAND FREE ENERGY PREDICTED BY IDOCK:   -8.76 KCAL/MOL
REMARK 924 INTRA-LIGAND FREE ENERGY PREDICTED BY IDOCK:   -0.99 KCAL/MOL
REMARK 927      BINDING AFFINITY PREDICTED BY RF-SCORE:    0.00 PKD
ROOT
HETATM    1  C   UNL     1     -11.206   6.668  69.683  1.00  0.00    -0.340 C  
HETATM    2  O   UNL     1     -10.330   7.763  69.945  1.00  0.00    -0.212 OA 
ENDROOT
BRANCH   2   3
HETATM    3  C   UNL     1     -10.792   9.013  69.613  1.00  0.00    -0.186 A  
HETATM    4  C   UNL     1     -10.641   9.503  68.304  1.00  0.00    -0.260 A  
HETATM    5  C   UNL     1     -11.120  10.754  67.917  1.00  0.00    -0.308 A  
HETATM    6  C   UNL     1     -11.728  11.532  68.898  1.00  0.00    -0.403 A  
HETATM    7  C   UNL     1     -11.463   9.790  70.585  1.00  0.00    -0.324 A  
HETATM    8  C   UNL     1     -11.930  11.066  70.209  1.00  0.00    -0.365 A  
BRANCH   5   9
HETATM    9  N   UNL     1     -10.835  11.213  66.625  1.00  0.00    -0.268 NA 
HETATM   10  H   UNL     1     -11.453  10.994  65.843  1.00  0.00     0.000 HD 
BRANCH   9  11
HETATM   11  C   UNL     1      -9.630  12.011  66.426  1.00  0.00    -0.228 C  
BRANCH  11  12
HETATM   12  C   UNL     1      -9.927  13.478  66.163  1.00  0.00    -0.310 A  
HETATM   13  C   UNL     1      -9.447  14.475  67.052  1.00  0.00    -0.247 A  
HETATM   14  H2  UNL     1      -7.419  16.410  68.124  1.00  0.00     0.000 HD 
HETATM   15  C   UNL     1      -9.659  15.879  66.760  1.00  0.00    -0.252 A  
HETATM   16  H1  UNL     1      -7.852  17.754  68.962  1.00  0.00     0.000 HD 
HETATM   17  C   UNL     1      -8.721  14.066  68.315  1.00  0.00    -0.182 C  
HETATM   18  C   UNL     1     -10.441  16.229  65.651  1.00  0.00    -0.368 A  
HETATM   19  N   UNL     1     -10.762  17.485  65.330  1.00  0.00    -0.586 NA 
HETATM   20  C   UNL     1     -10.909  15.236  64.809  1.00  0.00    -0.379 A  
HETATM   21  C   UNL     1     -10.643  13.887  65.034  1.00  0.00    -0.418 A  
HETATM   22  C   UNL     1     -10.288  18.456  66.101  1.00  0.00    -0.407 A  
HETATM   23  N   UNL     1      -9.455  18.280  67.119  1.00  0.00    -0.263 NA 
HETATM   24  N   UNL     1     -10.653  19.751  65.797  1.00  0.00    -0.498 NA 
HETATM   25  C   UNL     1      -9.151  17.013  67.437  1.00  0.00    -0.222 A  
HETATM   26  H2  UNL     1     -11.266  19.956  65.008  1.00  0.00     0.000 HD 
HETATM   27  H1  UNL     1     -10.289  20.497  66.389  1.00  0.00     0.000 HD 
HETATM   28  N   UNL     1      -8.218  16.936  68.474  1.00  0.00    -0.239 NA 
ENDBRANCH  11  12
ENDBRANCH   9  11
ENDBRANCH   5   9
BRANCH   8  29
HETATM   29  O   UNL     1     -12.585  12.008  70.966  1.00  0.00    -0.364 OA 
HETATM   30  C   UNL     1     -12.347  13.388  70.741  1.00  0.00    -0.354 C  
ENDBRANCH   8  29
BRANCH   7  31
HETATM   31  O   UNL     1     -11.692   9.428  71.885  1.00  0.00    -0.374 OA 
HETATM   32  C   UNL     1     -12.899   8.788  72.258  1.00  0.00    -0.405 C  
ENDBRANCH   7  31
ENDBRANCH   2   3
TORSDOF 6
ENDMDL
MODEL       18
REMARK 921   NORMALIZED FREE ENERGY PREDICTED BY IDOCK:   -6.59 KCAL/MOL
REMARK 922        TOTAL FREE ENERGY PREDICTED BY IDOCK:   -9.75 KCAL/MOL
REMARK 923 INTER-LIGAND FREE ENERGY PREDICTED BY IDOCK:   -9.03 KCAL/MOL
REMARK 924 INTRA-LIGAND FREE ENERGY PREDICTED BY IDOCK:   -0.73 KCAL/MOL
REMARK 927      BINDING AFFINITY PREDICTED BY RF-SCORE:    0.00 PKD
ROOT
HETATM    1  C   UNL     1      -9.039   7.107  74.427  1.00  0.00    -0.190 C  
HETATM    2  O   UNL     1     -10.292   6.494  74.131  1.00  0.00    -0.341 OA 
ENDROOT
BRANCH   2   3
HETATM    3  C   UNL     1     -10.770   6.658  72.854  1.00  0.00    -0.255 A  
HETATM    4  C   UNL     1     -11.640   7.720  72.551  1.00  0.00    -0.422 A  
HETATM    5  C   UNL     1     -12.126   7.939  71.263  1.00  0.00    -0.296 A  
HETATM    6  C   UNL     1     -11.748   7.031  70.278  1.00  0.00    -0.284 A  
HETATM    7  C   UNL     1     -10.348   5.777  71.832  1.00  0.00    -0.214 A  
HETATM    8  C   UNL     1     -10.853   5.976  70.532  1.00  0.00    -0.314 A  
BRANCH   5   9
HETATM    9  N   UNL     1     -13.071   8.954  71.064  1.00  0.00    -0.519 NA 
HETATM   10  H   UNL     1     -13.872   8.812  70.448  1.00  0.00     0.000 HD 
BRANCH   9  11
HETATM   11  C   UNL     1     -12.881  10.220  71.764  1.00  0.00    -0.460 C  
BRANCH  11  12
HETATM   12  C   UNL     1     -12.428  11.343  70.845  1.00  0.00    -0.478 A  
HETATM   13  C   UNL     1     -12.730  12.693  71.164  1.00  0.00    -0.347 A  
HETATM   14  H2  UNL     1     -12.259  15.338  72.502  1.00  0.00     0.000 HD 
HETATM   15  C   UNL     1     -12.231  13.771  70.334  1.00  0.00    -0.433 A  
HETATM   16  H1  UNL     1     -12.843  16.744  71.887  1.00  0.00     0.000 HD 
HETATM   17  C   UNL     1     -13.586  13.004  72.373  1.00  0.00    -0.628 C  
HETATM   18  C   UNL     1     -11.546  13.453  69.152  1.00  0.00    -0.315 A  
HETATM   19  N   UNL     1     -11.108  14.361  68.276  1.00  0.00    -0.250 NA 
HETATM   20  C   UNL     1     -11.279  12.129  68.857  1.00  0.00    -0.320 A  
HETATM   21  C   UNL     1     -11.682  11.087  69.691  1.00  0.00    -0.401 A  
HETATM   22  C   UNL     1     -11.316  15.641  68.561  1.00  0.00    -0.360 A  
HETATM   23  N   UNL     1     -11.857  16.089  69.687  1.00  0.00    -0.282 NA 
HETATM   24  N   UNL     1     -10.903  16.578  67.638  1.00  0.00    -0.306 NA 
HETATM   25  C   UNL     1     -12.303  15.167  70.551  1.00  0.00    -0.358 A  
HETATM   26  H2  UNL     1     -10.452  16.299  66.766  1.00  0.00     0.000 HD 
HETATM   27  H1  UNL     1     -11.063  17.561  67.857  1.00  0.00     0.000 HD 
HETATM   28  N   UNL     1     -12.791  15.737  71.730  1.00  0.00    -0.456 NA 
ENDBRANCH  11  12
ENDBRANCH   9  11
ENDBRANCH   5   9
BRANCH   8  29
HETATM   29  O   UNL     1     -10.614   5.254  69.387  1.00  0.00    -0.252 OA 
HETATM   30  C   UNL     1     -10.576   5.910  68.131  1.00  0.00    -0.244 C  
ENDBRANCH   8  29
BRANCH   7  31
HETATM   31  O   UNL     1      -9.496   4.716  71.987  1.00  0.00    -0.134 OA 
HETATM   32  C   UNL     1      -9.975   3.460  72.432  1.00  0.00    -0.165 C  
ENDBRANCH   7  31
ENDBRANCH   2   3
TORSDOF 6
ENDMDL
MODEL       19
REMARK 921   NORMALIZED FREE ENERGY PREDICTED BY IDOCK:   -6.57 KCAL/MOL
REMARK 922        TOTAL FREE ENERGY PREDICTED BY IDOCK:   -9.73 KCAL/MOL
REMARK 923 INTER-LIGAND FREE ENERGY PREDICTED BY IDOCK:   -9.02 KCAL/MOL
REMARK 924 INTRA-LIGAND FREE ENERGY PREDICTED BY IDOCK:   -0.71 KCAL/MOL
REMARK 927      BINDING AFFINITY PREDICTED BY RF-SCORE:    0.00 PKD
ROOT
HETATM    1  C   UNL     1     -13.236   9.008  72.293  1.00  0.00    -0.460 C  
HETATM    2  O   UNL     1     -12.153   8.173  72.698  1.00  0.00    -0.359 OA 
ENDROOT
BRANCH   2   3
HETATM    3  C   UNL     1     -11.553   7.426  71.714  1.00  0.00    -0.272 A  
HETATM    4  C   UNL     1     -11.354   7.966  70.431  1.00  0.00    -0.201 A  
HETATM    5  C   UNL     1     -10.724   7.253  69.413  1.00  0.00    -0.225 A  
HETATM    6  C   UNL     1     -10.327   5.950  69.701  1.00  0.00    -0.313 A  
HETATM    7  C   UNL     1     -11.093   6.122  72.011  1.00  0.00    -0.274 A  
HETATM    8  C   UNL     1     -10.476   5.385  70.980  1.00  0.00    -0.232 A  
BRANCH   5   9
HETATM    9  N   UNL     1     -10.661   7.821  68.134  1.00  0.00    -0.417 NA 
HETATM   10  H   UNL     1     -11.271   7.493  67.383  1.00  0.00     0.000 HD 
BRANCH   9  11
HETATM   11  C   UNL     1      -9.701   8.894  67.902  1.00  0.00    -0.160 C  
BRANCH  11  12
HETATM   12  C   UNL     1     -10.200   9.934  66.912  1.00  0.00    -0.302 A  
HETATM   13  C   UNL     1     -10.924  11.066  67.369  1.00  0.00    -0.349 A  
HETATM   14  H2  UNL     1     -11.210  13.847  68.459  1.00  0.00     0.000 HD 
HETATM   15  C   UNL     1     -11.330  12.099  66.437  1.00  0.00    -0.411 A  
HETATM   16  H1  UNL     1     -12.551  14.756  68.190  1.00  0.00     0.000 HD 
HETATM   17  C   UNL     1     -11.281  11.186  68.834  1.00  0.00    -0.317 C  
HETATM   18  C   UNL     1     -11.097  11.905  65.068  1.00  0.00    -0.305 A  
HETATM   19  N   UNL     1     -11.494  12.754  64.116  1.00  0.00    -0.365 NA 
HETATM   20  C   UNL     1     -10.403  10.786  64.649  1.00  0.00    -0.394 A  
HETATM   21  C   UNL     1      -9.935   9.825  65.544  1.00  0.00    -0.329 A  
HETATM   22  C   UNL     1     -12.125  13.857  64.500  1.00  0.00    -0.443 A  
HETATM   23  N   UNL     1     -12.322  14.219  65.761  1.00  0.00    -0.424 NA 
HETATM   24  N   UNL     1     -12.573  14.714  63.516  1.00  0.00    -0.907 NA 
HETATM   25  C   UNL     1     -11.930  13.352  66.705  1.00  0.00    -0.394 A  
HETATM   26  H2  UNL     1     -12.424  14.508  62.528  1.00  0.00     0.000 HD 
HETATM   27  H1  UNL     1     -13.057  15.561  63.811  1.00  0.00     0.000 HD 
HETATM   28  N   UNL     1     -12.119  13.853  67.996  1.00  0.00    -0.343 NA 
ENDBRANCH  11  12
ENDBRANCH   9  11
ENDBRANCH   5   9
BRANCH   8  29
HETATM   29  O   UNL     1      -9.968   4.108  71.010  1.00  0.00    -0.189 OA 
HETATM   30  C   UNL     1      -8.661   3.853  70.524  1.00  0.00    -0.076 C  
ENDBRANCH   8  29
BRANCH   7  31
HETATM   31  O   UNL     1     -11.207   5.485  73.217  1.00  0.00    -0.286 OA 
HETATM   32  C   UNL     1     -10.255   5.701  74.243  1.00  0.00    -0.278 C  
ENDBRANCH   7  31
ENDBRANCH   2   3
TORSDOF 6
ENDMDL
MODEL       20
REMARK 921   NORMALIZED FREE ENERGY PREDICTED BY IDOCK:   -6.57 KCAL/MOL
REMARK 922        TOTAL FREE ENERGY PREDICTED BY IDOCK:   -9.72 KCAL/MOL
REMARK 923 INTER-LIGAND FREE ENERGY PREDICTED BY IDOCK:   -8.81 KCAL/MOL
REMARK 924 INTRA-LIGAND FREE ENERGY PREDICTED BY IDOCK:   -0.91 KCAL/MOL
REMARK 927      BINDING AFFINITY PREDICTED BY RF-SCORE:    0.00 PKD
ROOT
HETATM    1  C   UNL     1      -8.010   5.846  69.915  1.00  0.00    -0.104 C  
HETATM    2  O   UNL     1      -9.413   6.059  69.774  1.00  0.00    -0.147 OA 
ENDROOT
BRANCH   2   3
HETATM    3  C   UNL     1      -9.878   7.314  70.081  1.00  0.00    -0.179 A  
HETATM    4  C   UNL     1      -9.191   8.457  69.635  1.00  0.00    -0.160 A  
HETATM    5  C   UNL     1      -9.643   9.748  69.901  1.00  0.00    -0.235 A  
HETATM    6  C   UNL     1     -10.797   9.871  70.670  1.00  0.00    -0.400 A  
HETATM    7  C   UNL     1     -11.080   7.453  70.812  1.00  0.00    -0.265 A  
HETATM    8  C   UNL     1     -11.532   8.755  71.106  1.00  0.00    -0.286 A  
BRANCH   5   9
HETATM    9  N   UNL     1      -8.845  10.833  69.514  1.00  0.00    -0.392 NA 
HETATM   10  H   UNL     1      -8.607  11.571  70.177  1.00  0.00     0.000 HD 
BRANCH   9  11
HETATM   11  C   UNL     1      -8.364  10.879  68.138  1.00  0.00    -0.123 C  
BRANCH  11  12
HETATM   12  C   UNL     1      -8.878  12.086  67.370  1.00  0.00    -0.178 A  
HETATM   13  C   UNL     1     -10.054  11.984  66.581  1.00  0.00    -0.220 A  
HETATM   14  H2  UNL     1     -13.016  12.039  66.104  1.00  0.00     0.000 HD 
HETATM   15  C   UNL     1     -10.591  13.153  65.914  1.00  0.00    -0.290 A  
HETATM   16  H1  UNL     1     -13.656  12.389  64.632  1.00  0.00     0.000 HD 
HETATM   17  C   UNL     1     -10.742  10.645  66.431  1.00  0.00    -0.198 C  
HETATM   18  C   UNL     1      -9.868  14.354  65.966  1.00  0.00    -0.319 A  
HETATM   19  N   UNL     1     -10.229  15.471  65.328  1.00  0.00    -0.362 NA 
HETATM   20  C   UNL     1      -8.717  14.421  66.729  1.00  0.00    -0.187 A  
HETATM   21  C   UNL     1      -8.235  13.325  67.443  1.00  0.00    -0.185 A  
HETATM   22  C   UNL     1     -11.354  15.440  64.624  1.00  0.00    -0.355 A  
HETATM   23  N   UNL     1     -12.188  14.408  64.569  1.00  0.00    -0.533 NA 
HETATM   24  N   UNL     1     -11.707  16.578  63.930  1.00  0.00    -1.484 NA 
HETATM   25  C   UNL     1     -11.807  13.291  65.204  1.00  0.00    -0.348 A  
HETATM   26  H2  UNL     1     -11.124  17.415  63.957  1.00  0.00     0.000 HD 
HETATM   27  H1  UNL     1     -12.571  16.555  63.389  1.00  0.00     0.000 HD 
HETATM   28  N   UNL     1     -12.780  12.289  65.144  1.00  0.00    -0.466 NA 
ENDBRANCH  11  12
ENDBRANCH   9  11
ENDBRANCH   5   9
BRANCH   8  29
HETATM   29  O   UNL     1     -12.645   9.150  71.809  1.00  0.00    -0.323 OA 
HETATM   30  C   UNL     1     -12.965  10.527  71.915  1.00  0.00    -0.447 C  
ENDBRANCH   8  29
BRANCH   7  31
HETATM   31  O   UNL     1     -11.853   6.429  71.290  1.00  0.00    -0.327 OA 
HETATM   32  C   UNL     1     -11.484   5.730  72.465  1.00  0.00    -0.296 C  
ENDBRANCH   7  31
ENDBRANCH   2   3
TORSDOF 6
ENDMDL
MODEL       21
REMARK 921   NORMALIZED FREE ENERGY PREDICTED BY IDOCK:   -6.55 KCAL/MOL
REMARK 922        TOTAL FREE ENERGY PREDICTED BY IDOCK:   -9.70 KCAL/MOL
REMARK 923 INTER-LIGAND FREE ENERGY PREDICTED BY IDOCK:   -8.89 KCAL/MOL
REMARK 924 INTRA-LIGAND FREE ENERGY PREDICTED BY IDOCK:   -0.82 KCAL/MOL
REMARK 927      BINDING AFFINITY PREDICTED BY RF-SCORE:    0.00 PKD
ROOT
HETATM    1  C   UNL     1     -12.805  10.893  71.336  1.00  0.00    -0.449 C  
HETATM    2  O   UNL     1     -11.563  10.203  71.224  1.00  0.00    -0.364 OA 
ENDROOT
BRANCH   2   3
HETATM    3  C   UNL     1     -11.146   9.889  69.953  1.00  0.00    -0.275 A  
HETATM    4  C   UNL     1     -11.086  10.881  68.959  1.00  0.00    -0.302 A  
HETATM    5  C   UNL     1     -10.643  10.612  67.665  1.00  0.00    -0.246 A  
HETATM    6  C   UNL     1     -10.295   9.296  67.374  1.00  0.00    -0.327 A  
HETATM    7  C   UNL     1     -10.734   8.569  69.660  1.00  0.00    -0.197 A  
HETATM    8  C   UNL     1     -10.307   8.282  68.348  1.00  0.00    -0.199 A  
BRANCH   5   9
HETATM    9  N   UNL     1     -10.715  11.629  66.705  1.00  0.00    -0.258 NA 
HETATM   10  H   UNL     1      -9.981  11.742  66.005  1.00  0.00     0.000 HD 
BRANCH   9  11
HETATM   11  C   UNL     1     -11.866  12.524  66.732  1.00  0.00    -0.346 C  
BRANCH  11  12
HETATM   12  C   UNL     1     -11.500  13.972  66.452  1.00  0.00    -0.361 A  
HETATM   13  C   UNL     1     -11.379  14.898  67.521  1.00  0.00    -0.351 A  
HETATM   14  H2  UNL     1      -9.934  16.311  69.740  1.00  0.00     0.000 HD 
HETATM   15  C   UNL     1     -10.950  16.259  67.265  1.00  0.00    -0.144 A  
HETATM   16  H1  UNL     1     -10.362  17.815  70.242  1.00  0.00     0.000 HD 
HETATM   17  C   UNL     1     -11.710  14.462  68.932  1.00  0.00    -0.357 C  
HETATM   18  C   UNL     1     -10.771  16.673  65.938  1.00  0.00    -0.175 A  
HETATM   19  N   UNL     1     -10.450  17.921  65.583  1.00  0.00    -0.619 NA 
HETATM   20  C   UNL     1     -10.910  15.754  64.915  1.00  0.00    -0.433 A  
HETATM   21  C   UNL     1     -11.241  14.422  65.154  1.00  0.00    -0.359 A  
HETATM   22  C   UNL     1     -10.270  18.809  66.552  1.00  0.00    -0.413 A  
HETATM   23  N   UNL     1     -10.307  18.534  67.850  1.00  0.00    -0.381 NA 
HETATM   24  N   UNL     1      -9.981  20.107  66.186  1.00  0.00    -0.575 NA 
HETATM   25  C   UNL     1     -10.641  17.282  68.192  1.00  0.00    -0.386 A  
HETATM   26  H2  UNL     1      -9.908  20.375  65.205  1.00  0.00     0.000 HD 
HETATM   27  H1  UNL     1      -9.843  20.789  66.931  1.00  0.00     0.000 HD 
HETATM   28  N   UNL     1     -10.585  17.077  69.574  1.00  0.00    -0.268 NA 
ENDBRANCH  11  12
ENDBRANCH   9  11
ENDBRANCH   5   9
BRANCH   8  29
HETATM   29  O   UNL     1      -9.882   7.088  67.814  1.00  0.00    -0.132 OA 
HETATM   30  C   UNL     1     -10.824   6.184  67.263  1.00  0.00    -0.352 C  
ENDBRANCH   8  29
BRANCH   7  31
HETATM   31  O   UNL     1     -10.727   7.516  70.536  1.00  0.00    -0.225 OA 
HETATM   32  C   UNL     1     -11.888   6.728  70.731  1.00  0.00    -0.392 C  
ENDBRANCH   7  31
ENDBRANCH   2   3
TORSDOF 6
ENDMDL
MODEL       22
REMARK 921   NORMALIZED FREE ENERGY PREDICTED BY IDOCK:   -6.54 KCAL/MOL
REMARK 922        TOTAL FREE ENERGY PREDICTED BY IDOCK:   -9.68 KCAL/MOL
REMARK 923 INTER-LIGAND FREE ENERGY PREDICTED BY IDOCK:   -8.89 KCAL/MOL
REMARK 924 INTRA-LIGAND FREE ENERGY PREDICTED BY IDOCK:   -0.80 KCAL/MOL
REMARK 927      BINDING AFFINITY PREDICTED BY RF-SCORE:    0.00 PKD
ROOT
HETATM    1  C   UNL     1     -13.254  12.765  72.047  1.00  0.00    -0.436 C  
HETATM    2  O   UNL     1     -12.949  11.375  71.948  1.00  0.00    -0.453 OA 
ENDROOT
BRANCH   2   3
HETATM    3  C   UNL     1     -12.246  10.977  70.837  1.00  0.00    -0.367 A  
HETATM    4  C   UNL     1     -12.350  11.698  69.634  1.00  0.00    -0.172 A  
HETATM    5  C   UNL     1     -11.634  11.345  68.492  1.00  0.00    -0.318 A  
HETATM    6  C   UNL     1     -10.828  10.212  68.571  1.00  0.00    -0.278 A  
HETATM    7  C   UNL     1     -11.381   9.863  70.921  1.00  0.00    -0.370 A  
HETATM    8  C   UNL     1     -10.670   9.485  69.764  1.00  0.00    -0.239 A  
BRANCH   5   9
HETATM    9  N   UNL     1     -11.874  12.048  67.304  1.00  0.00    -0.598 NA 
HETATM   10  H   UNL     1     -12.825  12.271  67.009  1.00  0.00     0.000 HD 
BRANCH   9  11
HETATM   11  C   UNL     1     -10.727  12.454  66.499  1.00  0.00    -0.236 C  
BRANCH  11  12
HETATM   12  C   UNL     1     -10.671  13.954  66.260  1.00  0.00    -0.285 A  
HETATM   13  C   UNL     1     -10.035  14.805  67.202  1.00  0.00    -0.236 A  
HETATM   14  H2  UNL     1      -7.695  16.218  68.439  1.00  0.00     0.000 HD 
HETATM   15  C   UNL     1      -9.909  16.224  66.937  1.00  0.00    -0.253 A  
HETATM   16  H1  UNL     1      -7.867  17.614  69.287  1.00  0.00     0.000 HD 
HETATM   17  C   UNL     1      -9.498  14.225  68.492  1.00  0.00    -0.206 C  
HETATM   18  C   UNL     1     -10.523  16.757  65.795  1.00  0.00    -0.292 A  
HETATM   19  N   UNL     1     -10.534  18.058  65.491  1.00  0.00    -0.608 NA 
HETATM   20  C   UNL     1     -11.149  15.907  64.901  1.00  0.00    -0.400 A  
HETATM   21  C   UNL     1     -11.206  14.529  65.103  1.00  0.00    -0.367 A  
HETATM   22  C   UNL     1      -9.903  18.886  66.314  1.00  0.00    -0.365 A  
HETATM   23  N   UNL     1      -9.195  18.512  67.372  1.00  0.00    -0.277 NA 
HETATM   24  N   UNL     1      -9.949  20.234  66.025  1.00  0.00    -0.622 NA 
HETATM   25  C   UNL     1      -9.202  17.206  67.671  1.00  0.00    -0.238 A  
HETATM   26  H2  UNL     1     -10.451  20.583  65.208  1.00  0.00     0.000 HD 
HETATM   27  H1  UNL     1      -9.464  20.870  66.657  1.00  0.00     0.000 HD 
HETATM   28  N   UNL     1      -8.376  16.906  68.758  1.00  0.00    -0.249 NA 
ENDBRANCH  11  12
ENDBRANCH   9  11
ENDBRANCH   5   9
BRANCH   8  29
HETATM   29  O   UNL     1      -9.794   8.441  69.585  1.00  0.00    -0.179 OA 
HETATM   30  C   UNL     1      -9.522   7.960  68.280  1.00  0.00    -0.144 C  
ENDBRANCH   8  29
BRANCH   7  31
HETATM   31  O   UNL     1     -11.175   9.087  72.030  1.00  0.00    -0.361 OA 
HETATM   32  C   UNL     1     -11.989   7.957  72.286  1.00  0.00    -0.337 C  
ENDBRANCH   7  31
ENDBRANCH   2   3
TORSDOF 6
ENDMDL
MODEL       23
REMARK 921   NORMALIZED FREE ENERGY PREDICTED BY IDOCK:   -6.54 KCAL/MOL
REMARK 922        TOTAL FREE ENERGY PREDICTED BY IDOCK:   -9.68 KCAL/MOL
REMARK 923 INTER-LIGAND FREE ENERGY PREDICTED BY IDOCK:   -9.02 KCAL/MOL
REMARK 924 INTRA-LIGAND FREE ENERGY PREDICTED BY IDOCK:   -0.67 KCAL/MOL
REMARK 927      BINDING AFFINITY PREDICTED BY RF-SCORE:    0.00 PKD
ROOT
HETATM    1  C   UNL     1     -14.401   8.643  71.773  1.00  0.00    -0.391 C  
HETATM    2  O   UNL     1     -13.359   9.351  72.441  1.00  0.00    -0.452 OA 
ENDROOT
BRANCH   2   3
HETATM    3  C   UNL     1     -12.153   9.429  71.788  1.00  0.00    -0.382 A  
HETATM    4  C   UNL     1     -11.911  10.458  70.861  1.00  0.00    -0.475 A  
HETATM    5  C   UNL     1     -10.692  10.591  70.198  1.00  0.00    -0.171 A  
HETATM    6  C   UNL     1      -9.719   9.630  70.459  1.00  0.00    -0.280 A  
HETATM    7  C   UNL     1     -11.136   8.495  72.088  1.00  0.00    -0.366 A  
HETATM    8  C   UNL     1      -9.908   8.607  71.405  1.00  0.00    -0.256 A  
BRANCH   5   9
HETATM    9  N   UNL     1     -10.567  11.577  69.211  1.00  0.00    -0.409 NA 
HETATM   10  H   UNL     1      -9.708  11.671  68.669  1.00  0.00     0.000 HD 
BRANCH   9  11
HETATM   11  C   UNL     1     -11.700  12.466  68.978  1.00  0.00    -0.323 C  
BRANCH  11  12
HETATM   12  C   UNL     1     -11.282  13.907  68.731  1.00  0.00    -0.302 A  
HETATM   13  C   UNL     1     -11.072  14.373  67.407  1.00  0.00    -0.317 A  
HETATM   14  H2  UNL     1     -11.916  15.523  64.767  1.00  0.00     0.000 HD 
HETATM   15  C   UNL     1     -10.754  15.766  67.164  1.00  0.00    -0.312 A  
HETATM   16  H1  UNL     1     -10.881  16.364  63.810  1.00  0.00     0.000 HD 
HETATM   17  C   UNL     1     -11.172  13.406  66.247  1.00  0.00    -0.322 C  
HETATM   18  C   UNL     1     -10.544  16.614  68.261  1.00  0.00    -0.338 A  
HETATM   19  N   UNL     1     -10.174  17.893  68.156  1.00  0.00    -0.362 NA 
HETATM   20  C   UNL     1     -10.741  16.129  69.541  1.00  0.00    -0.313 A  
HETATM   21  C   UNL     1     -11.128  14.813  69.785  1.00  0.00    -0.288 A  
HETATM   22  C   UNL     1     -10.022  18.390  66.935  1.00  0.00    -0.353 A  
HETATM   23  N   UNL     1     -10.283  17.736  65.810  1.00  0.00    -0.600 NA 
HETATM   24  N   UNL     1      -9.599  19.698  66.824  1.00  0.00    -0.346 NA 
HETATM   25  C   UNL     1     -10.642  16.450  65.930  1.00  0.00    -0.285 A  
HETATM   26  H2  UNL     1      -9.410  20.265  67.651  1.00  0.00     0.000 HD 
HETATM   27  H1  UNL     1      -9.481  20.080  65.886  1.00  0.00     0.000 HD 
HETATM   28  N   UNL     1     -10.961  15.871  64.699  1.00  0.00    -0.569 NA 
ENDBRANCH  11  12
ENDBRANCH   9  11
ENDBRANCH   5   9
BRANCH   8  29
HETATM   29  O   UNL     1      -8.785   7.820  71.502  1.00  0.00    -0.117 OA 
HETATM   30  C   UNL     1      -8.019   7.533  70.345  1.00  0.00    -0.102 C  
ENDBRANCH   8  29
BRANCH   7  31
HETATM   31  O   UNL     1     -11.233   7.459  72.978  1.00  0.00    -0.336 OA 
HETATM   32  C   UNL     1     -11.635   6.170  72.550  1.00  0.00    -0.250 C  
ENDBRANCH   7  31
ENDBRANCH   2   3
TORSDOF 6
ENDMDL
MODEL       24
REMARK 921   NORMALIZED FREE ENERGY PREDICTED BY IDOCK:   -6.52 KCAL/MOL
REMARK 922        TOTAL FREE ENERGY PREDICTED BY IDOCK:   -9.66 KCAL/MOL
REMARK 923 INTER-LIGAND FREE ENERGY PREDICTED BY IDOCK:   -8.87 KCAL/MOL
REMARK 924 INTRA-LIGAND FREE ENERGY PREDICTED BY IDOCK:   -0.79 KCAL/MOL
REMARK 927      BINDING AFFINITY PREDICTED BY RF-SCORE:    0.00 PKD
ROOT
HETATM    1  C   UNL     1     -11.908  15.841  64.265  1.00  0.00    -0.118 C  
HETATM    2  O   UNL     1     -10.715  16.485  64.707  1.00  0.00    -0.719 OA 
ENDROOT
BRANCH   2   3
HETATM    3  C   UNL     1      -9.920  15.778  65.576  1.00  0.00    -0.306 A  
HETATM    4  C   UNL     1     -10.113  14.396  65.752  1.00  0.00    -0.361 A  
HETATM    5  C   UNL     1      -9.312  13.636  66.602  1.00  0.00    -0.254 A  
HETATM    6  C   UNL     1      -8.322  14.308  67.313  1.00  0.00    -0.222 A  
HETATM    7  C   UNL     1      -8.874  16.438  66.259  1.00  0.00    -0.332 A  
HETATM    8  C   UNL     1      -8.073  15.681  67.139  1.00  0.00    -0.215 A  
BRANCH   5   9
HETATM    9  N   UNL     1      -9.637  12.288  66.805  1.00  0.00    -0.212 NA 
HETATM   10  H   UNL     1     -10.230  11.786  66.143  1.00  0.00     0.000 HD 
BRANCH   9  11
HETATM   11  C   UNL     1      -9.105  11.621  67.988  1.00  0.00    -0.177 C  
BRANCH  11  12
HETATM   12  C   UNL     1     -10.187  11.197  68.967  1.00  0.00    -0.194 A  
HETATM   13  C   UNL     1      -9.984  10.077  69.815  1.00  0.00    -0.276 A  
HETATM   14  H2  UNL     1      -9.007   8.683  72.287  1.00  0.00     0.000 HD 
HETATM   15  C   UNL     1     -10.980   9.720  70.806  1.00  0.00    -0.406 A  
HETATM   16  H1  UNL     1      -9.701   7.302  72.842  1.00  0.00     0.000 HD 
HETATM   17  C   UNL     1      -8.726   9.248  69.674  1.00  0.00    -0.155 C  
HETATM   18  C   UNL     1     -12.191  10.426  70.834  1.00  0.00    -0.383 A  
HETATM   19  N   UNL     1     -13.206  10.136  71.653  1.00  0.00    -0.413 NA 
HETATM   20  C   UNL     1     -12.368  11.504  69.986  1.00  0.00    -0.287 A  
HETATM   21  C   UNL     1     -11.385  11.909  69.085  1.00  0.00    -0.338 A  
HETATM   22  C   UNL     1     -13.040   9.131  72.504  1.00  0.00    -0.377 A  
HETATM   23  N   UNL     1     -11.916   8.444  72.659  1.00  0.00    -0.360 NA 
HETATM   24  N   UNL     1     -14.102   8.803  73.321  1.00  0.00    -1.146 NA 
HETATM   25  C   UNL     1     -10.910   8.738  71.823  1.00  0.00    -0.345 A  
HETATM   26  H2  UNL     1     -14.984   9.313  73.273  1.00  0.00     0.000 HD 
HETATM   27  H1  UNL     1     -13.975   8.031  73.975  1.00  0.00     0.000 HD 
HETATM   28  N   UNL     1      -9.752   8.010  72.110  1.00  0.00    -0.200 NA 
ENDBRANCH  11  12
ENDBRANCH   9  11
ENDBRANCH   5   9
BRANCH   8  29
HETATM   29  O   UNL     1      -7.021  16.089  67.924  1.00  0.00    -0.119 OA 
HETATM   30  C   UNL     1      -7.116  16.004  69.336  1.00  0.00    -0.217 C  
ENDBRANCH   8  29
BRANCH   7  31
HETATM   31  O   UNL     1      -8.567  17.769  66.166  1.00  0.00    -0.446 OA 
HETATM   32  C   UNL     1      -9.225  18.723  66.980  1.00  0.00    -0.294 C  
ENDBRANCH   7  31
ENDBRANCH   2   3
TORSDOF 6
ENDMDL
MODEL       25
REMARK 921   NORMALIZED FREE ENERGY PREDICTED BY IDOCK:   -6.49 KCAL/MOL
REMARK 922        TOTAL FREE ENERGY PREDICTED BY IDOCK:   -9.61 KCAL/MOL
REMARK 923 INTER-LIGAND FREE ENERGY PREDICTED BY IDOCK:   -8.52 KCAL/MOL
REMARK 924 INTRA-LIGAND FREE ENERGY PREDICTED BY IDOCK:   -1.09 KCAL/MOL
REMARK 927      BINDING AFFINITY PREDICTED BY RF-SCORE:    0.00 PKD
ROOT
HETATM    1  C   UNL     1      -5.955  16.278  69.880  1.00  0.00    -0.188 C  
HETATM    2  O   UNL     1      -5.776  16.450  68.476  1.00  0.00    -0.106 OA 
ENDROOT
BRANCH   2   3
HETATM    3  C   UNL     1      -6.917  16.583  67.723  1.00  0.00    -0.142 A  
HETATM    4  C   UNL     1      -7.600  15.444  67.258  1.00  0.00    -0.246 A  
HETATM    5  C   UNL     1      -8.776  15.533  66.515  1.00  0.00    -0.305 A  
HETATM    6  C   UNL     1      -9.238  16.810  66.209  1.00  0.00    -0.313 A  
HETATM    7  C   UNL     1      -7.430  17.872  67.454  1.00  0.00    -0.201 A  
HETATM    8  C   UNL     1      -8.606  17.973  66.683  1.00  0.00    -0.263 A  
BRANCH   5   9
HETATM    9  N   UNL     1      -9.335  14.357  65.999  1.00  0.00    -0.514 NA 
HETATM   10  H   UNL     1      -8.749  13.645  65.563  1.00  0.00     0.000 HD 
BRANCH   9  11
HETATM   11  C   UNL     1     -10.779  14.178  66.101  1.00  0.00    -0.297 C  
BRANCH  11  12
HETATM   12  C   UNL     1     -11.184  13.252  67.235  1.00  0.00    -0.320 A  
HETATM   13  C   UNL     1     -11.640  13.788  68.468  1.00  0.00    -0.373 A  
HETATM   14  H2  UNL     1     -13.699  14.888  70.354  1.00  0.00     0.000 HD 
HETATM   15  C   UNL     1     -12.104  12.908  69.522  1.00  0.00    -0.274 A  
HETATM   16  H1  UNL     1     -13.533  14.783  71.985  1.00  0.00     0.000 HD 
HETATM   17  C   UNL     1     -11.632  15.286  68.682  1.00  0.00    -0.370 C  
HETATM   18  C   UNL     1     -11.986  11.522  69.347  1.00  0.00    -0.325 A  
HETATM   19  N   UNL     1     -12.311  10.621  70.278  1.00  0.00    -0.321 NA 
HETATM   20  C   UNL     1     -11.523  11.026  68.141  1.00  0.00    -0.374 A  
HETATM   21  C   UNL     1     -11.152  11.862  67.089  1.00  0.00    -0.347 A  
HETATM   22  C   UNL     1     -12.797  11.074  71.427  1.00  0.00    -0.443 A  
HETATM   23  N   UNL     1     -13.058  12.348  71.692  1.00  0.00    -0.376 NA 
HETATM   24  N   UNL     1     -13.094  10.149  72.406  1.00  0.00    -0.494 NA 
HETATM   25  C   UNL     1     -12.716  13.241  70.753  1.00  0.00    -0.209 A  
HETATM   26  H2  UNL     1     -12.945   9.151  72.253  1.00  0.00     0.000 HD 
HETATM   27  H1  UNL     1     -13.467  10.497  73.289  1.00  0.00     0.000 HD 
HETATM   28  N   UNL     1     -13.092  14.542  71.097  1.00  0.00    -0.347 NA 
ENDBRANCH  11  12
ENDBRANCH   9  11
ENDBRANCH   5   9
BRANCH   8  29
HETATM   29  O   UNL     1      -9.283  19.097  66.274  1.00  0.00    -0.337 OA 
HETATM   30  C   UNL     1     -10.467  19.494  66.945  1.00  0.00    -0.477 C  
ENDBRANCH   8  29
BRANCH   7  31
HETATM   31  O   UNL     1      -6.877  19.058  67.858  1.00  0.00    -0.216 OA 
HETATM   32  C   UNL     1      -7.278  19.669  69.071  1.00  0.00    -0.344 C  
ENDBRANCH   7  31
ENDBRANCH   2   3
TORSDOF 6
ENDMDL
MODEL       26
REMARK 921   NORMALIZED FREE ENERGY PREDICTED BY IDOCK:   -6.48 KCAL/MOL
REMARK 922        TOTAL FREE ENERGY PREDICTED BY IDOCK:   -9.61 KCAL/MOL
REMARK 923 INTER-LIGAND FREE ENERGY PREDICTED BY IDOCK:   -8.69 KCAL/MOL
REMARK 924 INTRA-LIGAND FREE ENERGY PREDICTED BY IDOCK:   -0.92 KCAL/MOL
REMARK 927      BINDING AFFINITY PREDICTED BY RF-SCORE:    0.00 PKD
ROOT
HETATM    1  C   UNL     1     -13.574  13.785  72.570  1.00  0.00    -0.575 C  
HETATM    2  O   UNL     1     -13.056  12.570  72.032  1.00  0.00    -0.421 OA 
ENDROOT
BRANCH   2   3
HETATM    3  C   UNL     1     -12.613  12.612  70.733  1.00  0.00    -0.217 A  
HETATM    4  C   UNL     1     -12.464  13.844  70.072  1.00  0.00    -0.325 A  
HETATM    5  C   UNL     1     -11.991  13.934  68.764  1.00  0.00    -0.358 A  
HETATM    6  C   UNL     1     -11.704  12.740  68.108  1.00  0.00    -0.392 A  
HETATM    7  C   UNL     1     -12.263  11.411  70.075  1.00  0.00    -0.301 A  
HETATM    8  C   UNL     1     -11.806  11.490  68.744  1.00  0.00    -0.330 A  
BRANCH   5   9
HETATM    9  N   UNL     1     -11.973  15.189  68.141  1.00  0.00    -0.521 NA 
HETATM   10  H   UNL     1     -12.708  15.873  68.319  1.00  0.00     0.000 HD 
BRANCH   9  11
HETATM   11  C   UNL     1     -10.874  15.490  67.230  1.00  0.00    -0.313 C  
BRANCH  11  12
HETATM   12  C   UNL     1     -10.007  16.644  67.707  1.00  0.00    -0.262 A  
HETATM   13  C   UNL     1      -8.807  16.387  68.421  1.00  0.00    -0.214 A  
HETATM   14  H2  UNL     1      -5.881  15.773  68.683  1.00  0.00     0.000 HD 
HETATM   15  C   UNL     1      -7.937  17.481  68.806  1.00  0.00    -0.238 A  
HETATM   16  H1  UNL     1      -5.015  16.203  70.010  1.00  0.00     0.000 HD 
HETATM   17  C   UNL     1      -8.443  14.966  68.789  1.00  0.00    -0.172 C  
HETATM   18  C   UNL     1      -8.357  18.797  68.564  1.00  0.00    -0.346 A  
HETATM   19  N   UNL     1      -7.672  19.880  68.942  1.00  0.00    -0.209 NA 
HETATM   20  C   UNL     1      -9.538  19.018  67.880  1.00  0.00    -0.373 A  
HETATM   21  C   UNL     1     -10.343  17.972  67.432  1.00  0.00    -0.391 A  
HETATM   22  C   UNL     1      -6.514  19.690  69.563  1.00  0.00    -0.339 A  
HETATM   23  N   UNL     1      -5.948  18.507  69.767  1.00  0.00    -0.252 NA 
HETATM   24  N   UNL     1      -5.827  20.805  69.992  1.00  0.00    -0.473 NA 
HETATM   25  C   UNL     1      -6.651  17.429  69.393  1.00  0.00    -0.213 A  
HETATM   26  H2  UNL     1      -6.194  21.744  69.838  1.00  0.00     0.000 HD 
HETATM   27  H1  UNL     1      -4.938  20.659  70.469  1.00  0.00     0.000 HD 
HETATM   28  N   UNL     1      -5.942  16.240  69.587  1.00  0.00    -0.166 NA 
ENDBRANCH  11  12
ENDBRANCH   9  11
ENDBRANCH   5   9
BRANCH   8  29
HETATM   29  O   UNL     1     -11.429  10.479  67.894  1.00  0.00    -0.417 OA 
HETATM   30  C   UNL     1     -10.127  10.474  67.333  1.00  0.00    -0.197 C  
ENDBRANCH   8  29
BRANCH   7  31
HETATM   31  O   UNL     1     -12.345  10.151  70.606  1.00  0.00    -0.293 OA 
HETATM   32  C   UNL     1     -11.237   9.573  71.274  1.00  0.00    -0.382 C  
ENDBRANCH   7  31
ENDBRANCH   2   3
TORSDOF 6
ENDMDL
MODEL       27
REMARK 921   NORMALIZED FREE ENERGY PREDICTED BY IDOCK:   -6.46 KCAL/MOL
REMARK 922        TOTAL FREE ENERGY PREDICTED BY IDOCK:   -9.58 KCAL/MOL
REMARK 923 INTER-LIGAND FREE ENERGY PREDICTED BY IDOCK:   -9.08 KCAL/MOL
REMARK 924 INTRA-LIGAND FREE ENERGY PREDICTED BY IDOCK:   -0.50 KCAL/MOL
REMARK 927      BINDING AFFINITY PREDICTED BY RF-SCORE:    0.00 PKD
ROOT
HETATM    1  C   UNL     1      -8.055  19.082  68.741  1.00  0.00    -0.337 C  
HETATM    2  O   UNL     1      -9.460  18.851  68.828  1.00  0.00    -0.354 OA 
ENDROOT
BRANCH   2   3
HETATM    3  C   UNL     1      -9.940  17.733  68.189  1.00  0.00    -0.342 A  
HETATM    4  C   UNL     1     -10.384  16.625  68.932  1.00  0.00    -0.300 A  
HETATM    5  C   UNL     1     -10.904  15.483  68.325  1.00  0.00    -0.292 A  
HETATM    6  C   UNL     1     -10.932  15.460  66.933  1.00  0.00    -0.294 A  
HETATM    7  C   UNL     1     -10.027  17.720  66.778  1.00  0.00    -0.333 A  
HETATM    8  C   UNL     1     -10.530  16.560  66.155  1.00  0.00    -0.294 A  
BRANCH   5   9
HETATM    9  N   UNL     1     -11.225  14.381  69.128  1.00  0.00    -0.260 NA 
HETATM   10  H   UNL     1     -11.089  14.412  70.139  1.00  0.00     0.000 HD 
BRANCH   9  11
HETATM   11  C   UNL     1     -11.758  13.188  68.481  1.00  0.00    -0.352 C  
BRANCH  11  12
HETATM   12  C   UNL     1     -11.884  12.005  69.428  1.00  0.00    -0.384 A  
HETATM   13  C   UNL     1     -11.254  10.772  69.117  1.00  0.00    -0.323 A  
HETATM   14  H2  UNL     1      -8.967   8.829  69.058  1.00  0.00     0.000 HD 
HETATM   15  C   UNL     1     -11.303   9.668  70.056  1.00  0.00    -0.239 A  
HETATM   16  H1  UNL     1      -9.202   7.206  68.985  1.00  0.00     0.000 HD 
HETATM   17  C   UNL     1     -10.537  10.608  67.795  1.00  0.00    -0.275 C  
HETATM   18  C   UNL     1     -12.078   9.802  71.217  1.00  0.00    -0.382 A  
HETATM   19  N   UNL     1     -12.255   8.826  72.112  1.00  0.00    -0.370 NA 
HETATM   20  C   UNL     1     -12.693  11.010  71.487  1.00  0.00    -0.521 A  
HETATM   21  C   UNL     1     -12.585  12.106  70.633  1.00  0.00    -0.255 A  
HETATM   22  C   UNL     1     -11.638   7.672  71.893  1.00  0.00    -0.280 A  
HETATM   23  N   UNL     1     -10.796   7.438  70.894  1.00  0.00    -0.236 NA 
HETATM   24  N   UNL     1     -11.853   6.650  72.794  1.00  0.00    -0.484 NA 
HETATM   25  C   UNL     1     -10.637   8.421  69.998  1.00  0.00    -0.235 A  
HETATM   26  H2  UNL     1     -12.465   6.776  73.600  1.00  0.00     0.000 HD 
HETATM   27  H1  UNL     1     -11.380   5.763  72.626  1.00  0.00     0.000 HD 
HETATM   28  N   UNL     1      -9.683   8.104  69.027  1.00  0.00    -0.161 NA 
ENDBRANCH  11  12
ENDBRANCH   9  11
ENDBRANCH   5   9
BRANCH   8  29
HETATM   29  O   UNL     1     -10.694  16.296  64.816  1.00  0.00    -0.680 OA 
HETATM   30  C   UNL     1     -11.617  15.304  64.398  1.00  0.00    -0.263 C  
ENDBRANCH   8  29
BRANCH   7  31
HETATM   31  O   UNL     1      -9.647  18.733  65.940  1.00  0.00    -0.476 OA 
HETATM   32  C   UNL     1     -10.512  19.825  65.683  1.00  0.00    -0.361 C  
ENDBRANCH   7  31
ENDBRANCH   2   3
TORSDOF 6
ENDMDL
MODEL       28
REMARK 921   NORMALIZED FREE ENERGY PREDICTED BY IDOCK:   -6.45 KCAL/MOL
REMARK 922        TOTAL FREE ENERGY PREDICTED BY IDOCK:   -9.57 KCAL/MOL
REMARK 923 INTER-LIGAND FREE ENERGY PREDICTED BY IDOCK:   -8.92 KCAL/MOL
REMARK 924 INTRA-LIGAND FREE ENERGY PREDICTED BY IDOCK:   -0.65 KCAL/MOL
REMARK 927      BINDING AFFINITY PREDICTED BY RF-SCORE:    0.00 PKD
ROOT
HETATM    1  C   UNL     1      -7.418  17.691  65.981  1.00  0.00    -0.247 C  
HETATM    2  O   UNL     1      -8.664  17.010  65.850  1.00  0.00    -0.524 OA 
ENDROOT
BRANCH   2   3
HETATM    3  C   UNL     1      -9.091  16.294  66.943  1.00  0.00    -0.220 A  
HETATM    4  C   UNL     1      -8.541  15.031  67.225  1.00  0.00    -0.226 A  
HETATM    5  C   UNL     1      -8.925  14.285  68.337  1.00  0.00    -0.189 A  
HETATM    6  C   UNL     1      -9.917  14.823  69.152  1.00  0.00    -0.184 A  
HETATM    7  C   UNL     1     -10.056  16.855  67.810  1.00  0.00    -0.292 A  
HETATM    8  C   UNL     1     -10.467  16.096  68.925  1.00  0.00    -0.258 A  
BRANCH   5   9
HETATM    9  N   UNL     1      -8.409  12.991  68.489  1.00  0.00    -0.305 NA 
HETATM   10  H   UNL     1      -7.525  12.832  68.974  1.00  0.00     0.000 HD 
BRANCH   9  11
HETATM   11  C   UNL     1      -9.169  11.876  67.935  1.00  0.00    -0.187 C  
BRANCH  11  12
HETATM   12  C   UNL     1     -10.266  11.385  68.865  1.00  0.00    -0.184 A  
HETATM   13  C   UNL     1     -10.011  10.322  69.771  1.00  0.00    -0.222 A  
HETATM   14  H2  UNL     1      -9.065   9.125  72.355  1.00  0.00     0.000 HD 
HETATM   15  C   UNL     1     -11.029   9.906  70.716  1.00  0.00    -0.407 A  
HETATM   16  H1  UNL     1      -9.657   7.704  72.928  1.00  0.00     0.000 HD 
HETATM   17  C   UNL     1      -8.673   9.616  69.742  1.00  0.00    -0.221 C  
HETATM   18  C   UNL     1     -12.302  10.491  70.640  1.00  0.00    -0.356 A  
HETATM   19  N   UNL     1     -13.334  10.133  71.409  1.00  0.00    -0.354 NA 
HETATM   20  C   UNL     1     -12.527  11.513  69.738  1.00  0.00    -0.122 A  
HETATM   21  C   UNL     1     -11.532  11.979  68.880  1.00  0.00    -0.356 A  
HETATM   22  C   UNL     1     -13.128   9.182  72.312  1.00  0.00    -0.438 A  
HETATM   23  N   UNL     1     -11.954   8.614  72.562  1.00  0.00    -0.340 NA 
HETATM   24  N   UNL     1     -14.203   8.781  73.077  1.00  0.00    -1.132 NA 
HETATM   25  C   UNL     1     -10.930   8.975  71.776  1.00  0.00    -0.372 A  
HETATM   26  H2  UNL     1     -15.125   9.200  72.954  1.00  0.00     0.000 HD 
HETATM   27  H1  UNL     1     -14.044   8.050  73.770  1.00  0.00     0.000 HD 
HETATM   28  N   UNL     1      -9.729   8.375  72.163  1.00  0.00    -0.271 NA 
ENDBRANCH  11  12
ENDBRANCH   9  11
ENDBRANCH   5   9
BRANCH   8  29
HETATM   29  O   UNL     1     -11.393  16.407  69.893  1.00  0.00    -0.298 OA 
HETATM   30  C   UNL     1     -12.371  15.452  70.269  1.00  0.00    -0.388 C  
ENDBRANCH   8  29
BRANCH   7  31
HETATM   31  O   UNL     1     -10.657  18.076  67.662  1.00  0.00    -0.400 OA 
HETATM   32  C   UNL     1     -10.154  19.218  68.332  1.00  0.00    -0.431 C  
ENDBRANCH   7  31
ENDBRANCH   2   3
TORSDOF 6
ENDMDL
MODEL       29
REMARK 921   NORMALIZED FREE ENERGY PREDICTED BY IDOCK:   -6.45 KCAL/MOL
REMARK 922        TOTAL FREE ENERGY PREDICTED BY IDOCK:   -9.56 KCAL/MOL
REMARK 923 INTER-LIGAND FREE ENERGY PREDICTED BY IDOCK:   -9.02 KCAL/MOL
REMARK 924 INTRA-LIGAND FREE ENERGY PREDICTED BY IDOCK:   -0.54 KCAL/MOL
REMARK 927      BINDING AFFINITY PREDICTED BY RF-SCORE:    0.00 PKD
ROOT
HETATM    1  C   UNL     1      -8.046   6.908  71.180  1.00  0.00    -0.110 C  
HETATM    2  O   UNL     1      -8.491   7.939  72.060  1.00  0.00    -0.114 OA 
ENDROOT
BRANCH   2   3
HETATM    3  C   UNL     1      -9.662   8.572  71.722  1.00  0.00    -0.267 A  
HETATM    4  C   UNL     1      -9.679   9.541  70.702  1.00  0.00    -0.311 A  
HETATM    5  C   UNL     1     -10.849  10.187  70.309  1.00  0.00    -0.310 A  
HETATM    6  C   UNL     1     -12.015   9.864  70.998  1.00  0.00    -0.456 A  
HETATM    7  C   UNL     1     -10.863   8.212  72.374  1.00  0.00    -0.339 A  
HETATM    8  C   UNL     1     -12.049   8.877  71.998  1.00  0.00    -0.371 A  
BRANCH   5   9
HETATM    9  N   UNL     1     -10.764  11.215  69.362  1.00  0.00    -0.361 NA 
HETATM   10  H   UNL     1      -9.897  11.387  68.850  1.00  0.00     0.000 HD 
BRANCH   9  11
HETATM   11  C   UNL     1     -11.947  12.035  69.125  1.00  0.00    -0.268 C  
BRANCH  11  12
HETATM   12  C   UNL     1     -11.613  13.492  68.847  1.00  0.00    -0.364 A  
HETATM   13  C   UNL     1     -11.169  13.889  67.559  1.00  0.00    -0.323 A  
HETATM   14  H2  UNL     1     -11.532  14.770  64.713  1.00  0.00     0.000 HD 
HETATM   15  C   UNL     1     -10.929  15.289  67.267  1.00  0.00    -0.327 A  
HETATM   16  H1  UNL     1     -10.395  15.649  63.919  1.00  0.00     0.000 HD 
HETATM   17  C   UNL     1     -10.937  12.844  66.490  1.00  0.00    -0.300 C  
HETATM   18  C   UNL     1     -11.031  16.224  68.307  1.00  0.00    -0.348 A  
HETATM   19  N   UNL     1     -10.760  17.525  68.170  1.00  0.00    -0.368 NA 
HETATM   20  C   UNL     1     -11.451  15.807  69.557  1.00  0.00    -0.356 A  
HETATM   21  C   UNL     1     -11.765  14.476  69.828  1.00  0.00    -0.356 A  
HETATM   22  C   UNL     1     -10.396  17.954  66.968  1.00  0.00    -0.362 A  
HETATM   23  N   UNL     1     -10.356  17.203  65.874  1.00  0.00    -0.501 NA 
HETATM   24  N   UNL     1     -10.075  19.288  66.835  1.00  0.00    -0.346 NA 
HETATM   25  C   UNL     1     -10.619  15.898  66.028  1.00  0.00    -0.323 A  
HETATM   26  H2  UNL     1     -10.115  19.924  67.631  1.00  0.00     0.000 HD 
HETATM   27  H1  UNL     1      -9.795  19.618  65.911  1.00  0.00     0.000 HD 
HETATM   28  N   UNL     1     -10.618  15.210  64.812  1.00  0.00    -0.355 NA 
ENDBRANCH  11  12
ENDBRANCH   9  11
ENDBRANCH   5   9
BRANCH   8  29
HETATM   29  O   UNL     1     -13.323   8.724  72.490  1.00  0.00    -0.399 OA 
HETATM   30  C   UNL     1     -14.293   8.019  71.733  1.00  0.00    -0.478 C  
ENDBRANCH   8  29
BRANCH   7  31
HETATM   31  O   UNL     1     -10.990   7.278  73.366  1.00  0.00    -0.358 OA 
HETATM   32  C   UNL     1     -11.091   5.900  73.056  1.00  0.00    -0.254 C  
ENDBRANCH   7  31
ENDBRANCH   2   3
TORSDOF 6
ENDMDL
MODEL       30
REMARK 921   NORMALIZED FREE ENERGY PREDICTED BY IDOCK:   -6.44 KCAL/MOL
REMARK 922        TOTAL FREE ENERGY PREDICTED BY IDOCK:   -9.55 KCAL/MOL
REMARK 923 INTER-LIGAND FREE ENERGY PREDICTED BY IDOCK:   -8.73 KCAL/MOL
REMARK 924 INTRA-LIGAND FREE ENERGY PREDICTED BY IDOCK:   -0.81 KCAL/MOL
REMARK 927      BINDING AFFINITY PREDICTED BY RF-SCORE:    0.00 PKD
ROOT
HETATM    1  C   UNL     1      -7.825   7.587  69.534  1.00  0.00    -0.120 C  
HETATM    2  O   UNL     1      -8.560   8.099  70.643  1.00  0.00    -0.124 OA 
ENDROOT
BRANCH   2   3
HETATM    3  C   UNL     1      -9.574   8.980  70.355  1.00  0.00    -0.208 A  
HETATM    4  C   UNL     1      -9.619   9.630  69.109  1.00  0.00    -0.176 A  
HETATM    5  C   UNL     1     -10.645  10.509  68.765  1.00  0.00    -0.207 A  
HETATM    6  C   UNL     1     -11.619  10.757  69.728  1.00  0.00    -0.393 A  
HETATM    7  C   UNL     1     -10.601   9.196  71.302  1.00  0.00    -0.329 A  
HETATM    8  C   UNL     1     -11.630  10.101  70.972  1.00  0.00    -0.376 A  
BRANCH   5   9
HETATM    9  N   UNL     1     -10.559  11.198  67.548  1.00  0.00    -0.207 NA 
HETATM   10  H   UNL     1      -9.710  11.163  66.984  1.00  0.00     0.000 HD 
BRANCH   9  11
HETATM   11  C   UNL     1     -11.718  11.968  67.109  1.00  0.00    -0.273 C  
BRANCH  11  12
HETATM   12  C   UNL     1     -11.362  13.379  66.671  1.00  0.00    -0.350 A  
HETATM   13  C   UNL     1     -11.377  14.444  67.609  1.00  0.00    -0.348 A  
HETATM   14  H2  UNL     1     -10.206  16.197  69.745  1.00  0.00     0.000 HD 
HETATM   15  C   UNL     1     -10.959  15.774  67.213  1.00  0.00    -0.259 A  
HETATM   16  H1  UNL     1     -10.723  17.737  69.991  1.00  0.00     0.000 HD 
HETATM   17  C   UNL     1     -11.840  14.187  69.026  1.00  0.00    -0.384 C  
HETATM   18  C   UNL     1     -10.653  16.014  65.865  1.00  0.00    -0.328 A  
HETATM   19  N   UNL     1     -10.330  17.214  65.375  1.00  0.00    -0.637 NA 
HETATM   20  C   UNL     1     -10.662  14.961  64.969  1.00  0.00    -0.451 A  
HETATM   21  C   UNL     1     -10.982  13.660  65.355  1.00  0.00    -0.302 A  
HETATM   22  C   UNL     1     -10.274  18.230  66.227  1.00  0.00    -0.401 A  
HETATM   23  N   UNL     1     -10.439  18.131  67.540  1.00  0.00    -0.397 NA 
HETATM   24  N   UNL     1      -9.983  19.478  65.717  1.00  0.00    -0.438 NA 
HETATM   25  C   UNL     1     -10.774  16.924  68.016  1.00  0.00    -0.364 A  
HETATM   26  H2  UNL     1      -9.816  19.615  64.720  1.00  0.00     0.000 HD 
HETATM   27  H1  UNL     1      -9.940  20.259  66.371  1.00  0.00     0.000 HD 
HETATM   28  N   UNL     1     -10.857  16.908  69.411  1.00  0.00    -0.266 NA 
ENDBRANCH  11  12
ENDBRANCH   9  11
ENDBRANCH   5   9
BRANCH   8  29
HETATM   29  O   UNL     1     -12.716  10.492  71.719  1.00  0.00    -0.420 OA 
HETATM   30  C   UNL     1     -13.092  11.858  71.761  1.00  0.00    -0.360 C  
ENDBRANCH   8  29
BRANCH   7  31
HETATM   31  O   UNL     1     -10.688   8.617  72.540  1.00  0.00    -0.307 OA 
HETATM   32  C   UNL     1     -11.340   7.372  72.714  1.00  0.00    -0.308 C  
ENDBRANCH   7  31
ENDBRANCH   2   3
TORSDOF 6
ENDMDL
MODEL       31
REMARK 921   NORMALIZED FREE ENERGY PREDICTED BY IDOCK:   -6.43 KCAL/MOL
REMARK 922        TOTAL FREE ENERGY PREDICTED BY IDOCK:   -9.54 KCAL/MOL
REMARK 923 INTER-LIGAND FREE ENERGY PREDICTED BY IDOCK:   -8.51 KCAL/MOL
REMARK 924 INTRA-LIGAND FREE ENERGY PREDICTED BY IDOCK:   -1.03 KCAL/MOL
REMARK 927      BINDING AFFINITY PREDICTED BY RF-SCORE:    0.00 PKD
ROOT
HETATM    1  C   UNL     1     -10.544  19.293  66.939  1.00  0.00    -0.459 C  
HETATM    2  O   UNL     1      -9.260  19.058  66.363  1.00  0.00    -0.328 OA 
ENDROOT
BRANCH   2   3
HETATM    3  C   UNL     1      -8.613  17.910  66.753  1.00  0.00    -0.254 A  
HETATM    4  C   UNL     1      -9.125  16.649  66.400  1.00  0.00    -0.325 A  
HETATM    5  C   UNL     1      -8.486  15.462  66.751  1.00  0.00    -0.272 A  
HETATM    6  C   UNL     1      -7.324  15.566  67.510  1.00  0.00    -0.216 A  
HETATM    7  C   UNL     1      -7.401  18.003  67.475  1.00  0.00    -0.206 A  
HETATM    8  C   UNL     1      -6.759  16.807  67.854  1.00  0.00    -0.141 A  
BRANCH   5   9
HETATM    9  N   UNL     1      -9.116  14.246  66.455  1.00  0.00    -0.473 NA 
HETATM   10  H   UNL     1      -8.571  13.421  66.201  1.00  0.00     0.000 HD 
BRANCH   9  11
HETATM   11  C   UNL     1     -10.572  14.191  66.519  1.00  0.00    -0.282 C  
BRANCH  11  12
HETATM   12  C   UNL     1     -11.083  13.249  67.597  1.00  0.00    -0.292 A  
HETATM   13  C   UNL     1     -11.503  13.760  68.853  1.00  0.00    -0.344 A  
HETATM   14  H2  UNL     1     -13.470  14.956  70.778  1.00  0.00     0.000 HD 
HETATM   15  C   UNL     1     -12.067  12.874  69.852  1.00  0.00    -0.335 A  
HETATM   16  H1  UNL     1     -13.340  14.746  72.402  1.00  0.00     0.000 HD 
HETATM   17  C   UNL     1     -11.350  15.236  69.150  1.00  0.00    -0.307 C  
HETATM   18  C   UNL     1     -12.083  11.495  69.602  1.00  0.00    -0.296 A  
HETATM   19  N   UNL     1     -12.509  10.582  70.479  1.00  0.00    -0.335 NA 
HETATM   20  C   UNL     1     -11.654  11.022  68.375  1.00  0.00    -0.372 A  
HETATM   21  C   UNL     1     -11.187  11.872  67.375  1.00  0.00    -0.366 A  
HETATM   22  C   UNL     1     -12.965  11.018  71.647  1.00  0.00    -0.456 A  
HETATM   23  N   UNL     1     -13.103  12.296  71.979  1.00  0.00    -0.412 NA 
HETATM   24  N   UNL     1     -13.366  10.075  72.570  1.00  0.00    -0.560 NA 
HETATM   25  C   UNL     1     -12.660  13.200  71.094  1.00  0.00    -0.314 A  
HETATM   26  H2  UNL     1     -13.314   9.078  72.363  1.00  0.00     0.000 HD 
HETATM   27  H1  UNL     1     -13.716  10.410  73.467  1.00  0.00     0.000 HD 
HETATM   28  N   UNL     1     -12.912  14.512  71.506  1.00  0.00    -0.318 NA 
ENDBRANCH  11  12
ENDBRANCH   9  11
ENDBRANCH   5   9
BRANCH   8  29
HETATM   29  O   UNL     1      -5.597  16.633  68.567  1.00  0.00    -0.117 OA 
HETATM   30  C   UNL     1      -5.648  16.464  69.973  1.00  0.00    -0.191 C  
ENDBRANCH   8  29
BRANCH   7  31
HETATM   31  O   UNL     1      -6.786  19.162  67.866  1.00  0.00    -0.221 OA 
HETATM   32  C   UNL     1      -7.073  19.745  69.125  1.00  0.00    -0.314 C  
ENDBRANCH   7  31
ENDBRANCH   2   3
TORSDOF 6
ENDMDL
MODEL       32
REMARK 921   NORMALIZED FREE ENERGY PREDICTED BY IDOCK:   -6.43 KCAL/MOL
REMARK 922        TOTAL FREE ENERGY PREDICTED BY IDOCK:   -9.54 KCAL/MOL
REMARK 923 INTER-LIGAND FREE ENERGY PREDICTED BY IDOCK:   -8.81 KCAL/MOL
REMARK 924 INTRA-LIGAND FREE ENERGY PREDICTED BY IDOCK:   -0.73 KCAL/MOL
REMARK 927      BINDING AFFINITY PREDICTED BY RF-SCORE:    0.00 PKD
ROOT
HETATM    1  C   UNL     1     -12.229  14.458  64.580  1.00  0.00    -0.464 C  
HETATM    2  O   UNL     1     -11.437  14.984  65.643  1.00  0.00    -0.331 OA 
ENDROOT
BRANCH   2   3
HETATM    3  C   UNL     1     -11.554  14.364  66.863  1.00  0.00    -0.388 A  
HETATM    4  C   UNL     1     -11.659  12.964  66.941  1.00  0.00    -0.425 A  
HETATM    5  C   UNL     1     -11.751  12.292  68.159  1.00  0.00    -0.349 A  
HETATM    6  C   UNL     1     -11.777  13.070  69.313  1.00  0.00    -0.375 A  
HETATM    7  C   UNL     1     -11.523  15.137  68.045  1.00  0.00    -0.342 A  
HETATM    8  C   UNL     1     -11.640  14.468  69.281  1.00  0.00    -0.302 A  
BRANCH   5   9
HETATM    9  N   UNL     1     -11.960  10.907  68.149  1.00  0.00    -0.796 NA 
HETATM   10  H   UNL     1     -12.897  10.519  68.030  1.00  0.00     0.000 HD 
BRANCH   9  11
HETATM   11  C   UNL     1     -10.804  10.033  68.313  1.00  0.00    -0.241 C  
BRANCH  11  12
HETATM   12  C   UNL     1     -10.860   9.207  69.587  1.00  0.00    -0.210 A  
HETATM   13  C   UNL     1     -10.748   7.793  69.528  1.00  0.00    -0.200 A  
HETATM   14  H2  UNL     1      -9.261   5.188  69.438  1.00  0.00     0.000 HD 
HETATM   15  C   UNL     1     -10.719   7.010  70.747  1.00  0.00    -0.252 A  
HETATM   16  H1  UNL     1      -9.925   3.785  69.975  1.00  0.00     0.000 HD 
HETATM   17  C   UNL     1     -10.669   7.103  68.183  1.00  0.00    -0.214 C  
HETATM   18  C   UNL     1     -10.919   7.659  71.974  1.00  0.00    -0.246 A  
HETATM   19  N   UNL     1     -10.986   7.029  73.150  1.00  0.00    -0.296 NA 
HETATM   20  C   UNL     1     -11.040   9.036  72.001  1.00  0.00    -0.371 A  
HETATM   21  C   UNL     1     -10.987   9.809  70.843  1.00  0.00    -0.411 A  
HETATM   22  C   UNL     1     -10.829   5.711  73.150  1.00  0.00    -0.281 A  
HETATM   23  N   UNL     1     -10.533   4.981  72.082  1.00  0.00    -0.214 NA 
HETATM   24  N   UNL     1     -10.940   5.053  74.357  1.00  0.00    -0.346 NA 
HETATM   25  C   UNL     1     -10.481   5.624  70.908  1.00  0.00    -0.256 A  
HETATM   26  H2  UNL     1     -11.136   5.562  75.220  1.00  0.00     0.000 HD 
HETATM   27  H1  UNL     1     -10.820   4.041  74.358  1.00  0.00     0.000 HD 
HETATM   28  N   UNL     1     -10.097   4.784  69.859  1.00  0.00    -0.246 NA 
ENDBRANCH  11  12
ENDBRANCH   9  11
ENDBRANCH   5   9
BRANCH   8  29
HETATM   29  O   UNL     1     -11.657  14.990  70.552  1.00  0.00    -0.264 OA 
HETATM   30  C   UNL     1     -12.865  15.010  71.293  1.00  0.00    -0.367 C  
ENDBRANCH   8  29
BRANCH   7  31
HETATM   31  O   UNL     1     -11.409  16.500  68.111  1.00  0.00    -0.308 OA 
HETATM   32  C   UNL     1     -10.137  17.119  68.174  1.00  0.00    -0.311 C  
ENDBRANCH   7  31
ENDBRANCH   2   3
TORSDOF 6
ENDMDL
MODEL       33
REMARK 921   NORMALIZED FREE ENERGY PREDICTED BY IDOCK:   -6.41 KCAL/MOL
REMARK 922        TOTAL FREE ENERGY PREDICTED BY IDOCK:   -9.51 KCAL/MOL
REMARK 923 INTER-LIGAND FREE ENERGY PREDICTED BY IDOCK:   -8.75 KCAL/MOL
REMARK 924 INTRA-LIGAND FREE ENERGY PREDICTED BY IDOCK:   -0.75 KCAL/MOL
REMARK 927      BINDING AFFINITY PREDICTED BY RF-SCORE:    0.00 PKD
ROOT
HETATM    1  C   UNL     1     -13.188  10.843  72.039  1.00  0.00    -0.351 C  
HETATM    2  O   UNL     1     -13.038   9.505  71.568  1.00  0.00    -0.348 OA 
ENDROOT
BRANCH   2   3
HETATM    3  C   UNL     1     -11.823   9.181  71.015  1.00  0.00    -0.292 A  
HETATM    4  C   UNL     1     -10.949  10.191  70.576  1.00  0.00    -0.380 A  
HETATM    5  C   UNL     1      -9.696   9.908  70.035  1.00  0.00    -0.227 A  
HETATM    6  C   UNL     1      -9.350   8.566  69.904  1.00  0.00    -0.159 A  
HETATM    7  C   UNL     1     -11.435   7.824  70.929  1.00  0.00    -0.279 A  
HETATM    8  C   UNL     1     -10.179   7.527  70.361  1.00  0.00    -0.202 A  
BRANCH   5   9
HETATM    9  N   UNL     1      -8.930  10.963  69.524  1.00  0.00    -0.383 NA 
HETATM   10  H   UNL     1      -8.630  11.733  70.124  1.00  0.00     0.000 HD 
BRANCH   9  11
HETATM   11  C   UNL     1      -8.573  10.934  68.110  1.00  0.00    -0.133 C  
BRANCH  11  12
HETATM   12  C   UNL     1      -9.099  12.134  67.340  1.00  0.00    -0.181 A  
HETATM   13  C   UNL     1     -10.176  11.982  66.428  1.00  0.00    -0.243 A  
HETATM   14  H2  UNL     1     -13.069  11.838  65.643  1.00  0.00     0.000 HD 
HETATM   15  C   UNL     1     -10.733  13.138  65.754  1.00  0.00    -0.292 A  
HETATM   16  H1  UNL     1     -13.581  12.208  64.127  1.00  0.00     0.000 HD 
HETATM   17  C   UNL     1     -10.737  10.603  66.154  1.00  0.00    -0.146 C  
HETATM   18  C   UNL     1     -10.117  14.385  65.929  1.00  0.00    -0.325 A  
HETATM   19  N   UNL     1     -10.498  15.501  65.300  1.00  0.00    -0.398 NA 
HETATM   20  C   UNL     1      -9.059  14.502  66.811  1.00  0.00    -0.283 A  
HETATM   21  C   UNL     1      -8.567  13.413  67.528  1.00  0.00    -0.200 A  
HETATM   22  C   UNL     1     -11.539  15.419  64.481  1.00  0.00    -0.296 A  
HETATM   23  N   UNL     1     -12.278  14.332  64.298  1.00  0.00    -0.600 NA 
HETATM   24  N   UNL     1     -11.908  16.560  63.798  1.00  0.00    -1.223 NA 
HETATM   25  C   UNL     1     -11.877  13.218  64.925  1.00  0.00    -0.362 A  
HETATM   26  H2  UNL     1     -11.399  17.435  63.919  1.00  0.00     0.000 HD 
HETATM   27  H1  UNL     1     -12.707  16.497  63.169  1.00  0.00     0.000 HD 
HETATM   28  N   UNL     1     -12.757  12.150  64.724  1.00  0.00    -0.495 NA 
ENDBRANCH  11  12
ENDBRANCH   9  11
ENDBRANCH   5   9
BRANCH   8  29
HETATM   29  O   UNL     1      -9.589   6.304  70.151  1.00  0.00    -0.161 OA 
HETATM   30  C   UNL     1      -9.940   5.535  69.013  1.00  0.00    -0.181 C  
ENDBRANCH   8  29
BRANCH   7  31
HETATM   31  O   UNL     1     -12.179   6.749  71.332  1.00  0.00    -0.343 OA 
HETATM   32  C   UNL     1     -11.786   5.972  72.449  1.00  0.00    -0.271 C  
ENDBRANCH   7  31
ENDBRANCH   2   3
TORSDOF 6
ENDMDL
MODEL       34
REMARK 921   NORMALIZED FREE ENERGY PREDICTED BY IDOCK:   -6.40 KCAL/MOL
REMARK 922        TOTAL FREE ENERGY PREDICTED BY IDOCK:   -9.49 KCAL/MOL
REMARK 923 INTER-LIGAND FREE ENERGY PREDICTED BY IDOCK:   -8.64 KCAL/MOL
REMARK 924 INTRA-LIGAND FREE ENERGY PREDICTED BY IDOCK:   -0.85 KCAL/MOL
REMARK 927      BINDING AFFINITY PREDICTED BY RF-SCORE:    0.00 PKD
ROOT
HETATM    1  C   UNL     1      -6.097  14.747  68.410  1.00  0.00    -0.100 C  
HETATM    2  O   UNL     1      -6.480  16.115  68.532  1.00  0.00    -0.112 OA 
ENDROOT
BRANCH   2   3
HETATM    3  C   UNL     1      -7.817  16.365  68.719  1.00  0.00    -0.220 A  
HETATM    4  C   UNL     1      -8.666  15.361  69.217  1.00  0.00    -0.252 A  
HETATM    5  C   UNL     1     -10.023  15.580  69.448  1.00  0.00    -0.277 A  
HETATM    6  C   UNL     1     -10.527  16.837  69.125  1.00  0.00    -0.343 A  
HETATM    7  C   UNL     1      -8.331  17.655  68.450  1.00  0.00    -0.290 A  
HETATM    8  C   UNL     1      -9.707  17.879  68.658  1.00  0.00    -0.353 A  
BRANCH   5   9
HETATM    9  N   UNL     1     -10.821  14.499  69.843  1.00  0.00    -0.447 NA 
HETATM   10  H   UNL     1     -10.583  13.945  70.666  1.00  0.00     0.000 HD 
BRANCH   9  11
HETATM   11  C   UNL     1     -12.002  14.187  69.047  1.00  0.00    -0.340 C  
BRANCH  11  12
HETATM   12  C   UNL     1     -11.662  13.649  67.666  1.00  0.00    -0.398 A  
HETATM   13  C   UNL     1     -11.055  12.374  67.526  1.00  0.00    -0.313 A  
HETATM   14  H2  UNL     1     -11.047   9.383  67.276  1.00  0.00     0.000 HD 
HETATM   15  C   UNL     1     -10.804  11.824  66.208  1.00  0.00    -0.325 A  
HETATM   16  H1  UNL     1      -9.829   8.572  66.530  1.00  0.00     0.000 HD 
HETATM   17  C   UNL     1     -10.661  11.591  68.759  1.00  0.00    -0.241 C  
HETATM   18  C   UNL     1     -11.063  12.619  65.082  1.00  0.00    -0.294 A  
HETATM   19  N   UNL     1     -10.801  12.244  63.827  1.00  0.00    -0.402 NA 
HETATM   20  C   UNL     1     -11.641  13.864  65.249  1.00  0.00    -0.332 A  
HETATM   21  C   UNL     1     -11.963  14.370  66.507  1.00  0.00    -0.406 A  
HETATM   22  C   UNL     1     -10.286  11.035  63.642  1.00  0.00    -0.352 A  
HETATM   23  N   UNL     1     -10.085  10.140  64.601  1.00  0.00    -0.261 NA 
HETATM   24  N   UNL     1      -9.975  10.662  62.351  1.00  0.00    -0.738 NA 
HETATM   25  C   UNL     1     -10.341  10.534  65.857  1.00  0.00    -0.206 A  
HETATM   26  H2  UNL     1     -10.135  11.293  61.566  1.00  0.00     0.000 HD 
HETATM   27  H1  UNL     1      -9.579   9.734  62.209  1.00  0.00     0.000 HD 
HETATM   28  N   UNL     1     -10.163   9.502  66.783  1.00  0.00    -0.244 NA 
ENDBRANCH  11  12
ENDBRANCH   9  11
ENDBRANCH   5   9
BRANCH   8  29
HETATM   29  O   UNL     1     -10.440  19.023  68.455  1.00  0.00    -0.344 OA 
HETATM   30  C   UNL     1     -10.808  19.404  67.140  1.00  0.00    -0.450 C  
ENDBRANCH   8  29
BRANCH   7  31
HETATM   31  O   UNL     1      -7.615  18.722  67.979  1.00  0.00    -0.250 OA 
HETATM   32  C   UNL     1      -7.003  19.636  68.873  1.00  0.00    -0.347 C  
ENDBRANCH   7  31
ENDBRANCH   2   3
TORSDOF 6
ENDMDL
MODEL       35
REMARK 921   NORMALIZED FREE ENERGY PREDICTED BY IDOCK:   -6.39 KCAL/MOL
REMARK 922        TOTAL FREE ENERGY PREDICTED BY IDOCK:   -9.48 KCAL/MOL
REMARK 923 INTER-LIGAND FREE ENERGY PREDICTED BY IDOCK:   -8.73 KCAL/MOL
REMARK 924 INTRA-LIGAND FREE ENERGY PREDICTED BY IDOCK:   -0.75 KCAL/MOL
REMARK 927      BINDING AFFINITY PREDICTED BY RF-SCORE:    0.00 PKD
ROOT
HETATM    1  C   UNL     1     -14.168   8.265  71.699  1.00  0.00    -0.447 C  
HETATM    2  O   UNL     1     -13.070   8.730  72.482  1.00  0.00    -0.401 OA 
ENDROOT
BRANCH   2   3
HETATM    3  C   UNL     1     -11.880   8.917  71.822  1.00  0.00    -0.358 A  
HETATM    4  C   UNL     1     -11.840   9.647  70.621  1.00  0.00    -0.331 A  
HETATM    5  C   UNL     1     -10.651   9.885  69.934  1.00  0.00    -0.273 A  
HETATM    6  C   UNL     1      -9.489   9.332  70.464  1.00  0.00    -0.317 A  
HETATM    7  C   UNL     1     -10.685   8.410  72.380  1.00  0.00    -0.335 A  
HETATM    8  C   UNL     1      -9.480   8.626  71.680  1.00  0.00    -0.269 A  
BRANCH   5   9
HETATM    9  N   UNL     1     -10.710  10.528  68.690  1.00  0.00    -0.200 NA 
HETATM   10  H   UNL     1      -9.951  10.433  68.014  1.00  0.00     0.000 HD 
BRANCH   9  11
HETATM   11  C   UNL     1     -11.886  11.337  68.387  1.00  0.00    -0.261 C  
BRANCH  11  12
HETATM   12  C   UNL     1     -11.539  12.672  67.749  1.00  0.00    -0.403 A  
HETATM   13  C   UNL     1     -11.553  13.860  68.525  1.00  0.00    -0.367 A  
HETATM   14  H2  UNL     1     -10.378  15.906  70.380  1.00  0.00     0.000 HD 
HETATM   15  C   UNL     1     -11.144  15.121  67.939  1.00  0.00    -0.322 A  
HETATM   16  H1  UNL     1     -10.901  17.463  70.406  1.00  0.00     0.000 HD 
HETATM   17  C   UNL     1     -12.007  13.808  69.968  1.00  0.00    -0.407 C  
HETATM   18  C   UNL     1     -10.848  15.167  66.569  1.00  0.00    -0.317 A  
HETATM   19  N   UNL     1     -10.534  16.286  65.911  1.00  0.00    -0.347 NA 
HETATM   20  C   UNL     1     -10.857  13.997  65.833  1.00  0.00    -0.288 A  
HETATM   21  C   UNL     1     -11.169  12.764  66.404  1.00  0.00    -0.339 A  
HETATM   22  C   UNL     1     -10.478  17.414  66.608  1.00  0.00    -0.253 A  
HETATM   23  N   UNL     1     -10.633  17.503  67.922  1.00  0.00    -0.391 NA 
HETATM   24  N   UNL     1     -10.195  18.577  65.922  1.00  0.00    -0.580 NA 
HETATM   25  C   UNL     1     -10.960  16.375  68.569  1.00  0.00    -0.350 A  
HETATM   26  H2  UNL     1     -10.035  18.571  64.914  1.00  0.00     0.000 HD 
HETATM   27  H1  UNL     1     -10.152  19.443  66.457  1.00  0.00     0.000 HD 
HETATM   28  N   UNL     1     -11.034  16.559  69.952  1.00  0.00    -0.336 NA 
ENDBRANCH  11  12
ENDBRANCH   9  11
ENDBRANCH   5   9
BRANCH   8  29
HETATM   29  O   UNL     1      -8.206   8.222  72.000  1.00  0.00    -0.135 OA 
HETATM   30  C   UNL     1      -7.096   8.765  71.305  1.00  0.00    -0.092 C  
ENDBRANCH   8  29
BRANCH   7  31
HETATM   31  O   UNL     1     -10.580   7.700  73.546  1.00  0.00    -0.343 OA 
HETATM   32  C   UNL     1     -10.627   6.284  73.539  1.00  0.00    -0.269 C  
ENDBRANCH   7  31
ENDBRANCH   2   3
TORSDOF 6
ENDMDL
MODEL       36
REMARK 921   NORMALIZED FREE ENERGY PREDICTED BY IDOCK:   -6.39 KCAL/MOL
REMARK 922        TOTAL FREE ENERGY PREDICTED BY IDOCK:   -9.48 KCAL/MOL
REMARK 923 INTER-LIGAND FREE ENERGY PREDICTED BY IDOCK:   -8.66 KCAL/MOL
REMARK 924 INTRA-LIGAND FREE ENERGY PREDICTED BY IDOCK:   -0.82 KCAL/MOL
REMARK 927      BINDING AFFINITY PREDICTED BY RF-SCORE:    0.00 PKD
ROOT
HETATM    1  C   UNL     1      -7.592   9.909  70.121  1.00  0.00    -0.175 C  
HETATM    2  O   UNL     1      -7.559   9.212  71.364  1.00  0.00    -0.293 OA 
ENDROOT
BRANCH   2   3
HETATM    3  C   UNL     1      -8.758   8.736  71.834  1.00  0.00    -0.129 A  
HETATM    4  C   UNL     1      -9.956   9.034  71.160  1.00  0.00    -0.365 A  
HETATM    5  C   UNL     1     -11.191   8.548  71.586  1.00  0.00    -0.292 A  
HETATM    6  C   UNL     1     -11.204   7.777  72.744  1.00  0.00    -0.456 A  
HETATM    7  C   UNL     1      -8.780   7.903  72.976  1.00  0.00    -0.202 A  
HETATM    8  C   UNL     1     -10.027   7.426  73.428  1.00  0.00    -0.314 A  
BRANCH   5   9
HETATM    9  N   UNL     1     -12.347   8.978  70.923  1.00  0.00    -0.476 NA 
HETATM   10  H   UNL     1     -12.752   8.428  70.164  1.00  0.00     0.000 HD 
BRANCH   9  11
HETATM   11  C   UNL     1     -12.957  10.234  71.345  1.00  0.00    -0.440 C  
BRANCH  11  12
HETATM   12  C   UNL     1     -12.533  11.417  70.490  1.00  0.00    -0.381 A  
HETATM   13  C   UNL     1     -12.674  12.741  70.982  1.00  0.00    -0.331 A  
HETATM   14  H2  UNL     1     -11.809  15.180  72.502  1.00  0.00     0.000 HD 
HETATM   15  C   UNL     1     -12.195  13.866  70.204  1.00  0.00    -0.425 A  
HETATM   16  H1  UNL     1     -12.345  16.684  72.117  1.00  0.00     0.000 HD 
HETATM   17  C   UNL     1     -13.337  12.976  72.322  1.00  0.00    -0.606 C  
HETATM   18  C   UNL     1     -11.699  13.633  68.913  1.00  0.00    -0.338 A  
HETATM   19  N   UNL     1     -11.301  14.600  68.081  1.00  0.00    -0.288 NA 
HETATM   20  C   UNL     1     -11.586  12.334  68.453  1.00  0.00    -0.377 A  
HETATM   21  C   UNL     1     -11.967  11.238  69.225  1.00  0.00    -0.411 A  
HETATM   22  C   UNL     1     -11.360  15.851  68.519  1.00  0.00    -0.374 A  
HETATM   23  N   UNL     1     -11.711  16.210  69.748  1.00  0.00    -0.259 NA 
HETATM   24  N   UNL     1     -10.990  16.853  67.647  1.00  0.00    -0.233 NA 
HETATM   25  C   UNL     1     -12.119  15.231  70.568  1.00  0.00    -0.354 A  
HETATM   26  H2  UNL     1     -10.682  16.641  66.698  1.00  0.00     0.000 HD 
HETATM   27  H1  UNL     1     -11.036  17.814  67.984  1.00  0.00     0.000 HD 
HETATM   28  N   UNL     1     -12.400  15.700  71.854  1.00  0.00    -0.387 NA 
ENDBRANCH  11  12
ENDBRANCH   9  11
ENDBRANCH   5   9
BRANCH   8  29
HETATM   29  O   UNL     1     -10.311   6.629  74.511  1.00  0.00    -0.328 OA 
HETATM   30  C   UNL     1     -10.466   5.231  74.340  1.00  0.00    -0.242 C  
ENDBRANCH   8  29
BRANCH   7  31
HETATM   31  O   UNL     1      -7.691   7.523  73.714  1.00  0.00    -0.108 OA 
HETATM   32  C   UNL     1      -6.955   6.361  73.374  1.00  0.00    -0.078 C  
ENDBRANCH   7  31
ENDBRANCH   2   3
TORSDOF 6
ENDMDL
MODEL       37
REMARK 921   NORMALIZED FREE ENERGY PREDICTED BY IDOCK:   -6.38 KCAL/MOL
REMARK 922        TOTAL FREE ENERGY PREDICTED BY IDOCK:   -9.48 KCAL/MOL
REMARK 923 INTER-LIGAND FREE ENERGY PREDICTED BY IDOCK:   -8.74 KCAL/MOL
REMARK 924 INTRA-LIGAND FREE ENERGY PREDICTED BY IDOCK:   -0.74 KCAL/MOL
REMARK 927      BINDING AFFINITY PREDICTED BY RF-SCORE:    0.00 PKD
ROOT
HETATM    1  C   UNL     1     -13.210  15.498  71.176  1.00  0.00    -0.507 C  
HETATM    2  O   UNL     1     -11.977  15.787  70.521  1.00  0.00    -0.344 OA 
ENDROOT
BRANCH   2   3
HETATM    3  C   UNL     1     -11.743  15.134  69.336  1.00  0.00    -0.332 A  
HETATM    4  C   UNL     1     -11.995  13.755  69.221  1.00  0.00    -0.399 A  
HETATM    5  C   UNL     1     -11.798  13.059  68.029  1.00  0.00    -0.347 A  
HETATM    6  C   UNL     1     -11.297  13.780  66.949  1.00  0.00    -0.345 A  
HETATM    7  C   UNL     1     -11.289  15.865  68.214  1.00  0.00    -0.342 A  
HETATM    8  C   UNL     1     -11.065  15.165  67.011  1.00  0.00    -0.328 A  
BRANCH   5   9
HETATM    9  N   UNL     1     -11.970  11.669  68.026  1.00  0.00    -0.609 NA 
HETATM   10  H   UNL     1     -12.890  11.254  67.875  1.00  0.00     0.000 HD 
BRANCH   9  11
HETATM   11  C   UNL     1     -10.798  10.829  68.246  1.00  0.00    -0.229 C  
BRANCH  11  12
HETATM   12  C   UNL     1     -10.998   9.808  69.354  1.00  0.00    -0.241 A  
HETATM   13  C   UNL     1     -10.728   8.435  69.118  1.00  0.00    -0.123 A  
HETATM   14  H2  UNL     1      -8.982   6.000  68.954  1.00  0.00     0.000 HD 
HETATM   15  C   UNL     1     -10.840   7.471  70.195  1.00  0.00    -0.259 A  
HETATM   16  H1  UNL     1      -9.580   4.482  69.145  1.00  0.00     0.000 HD 
HETATM   17  C   UNL     1     -10.331   7.977  67.731  1.00  0.00    -0.294 C  
HETATM   18  C   UNL     1     -11.329   7.899  71.438  1.00  0.00    -0.252 A  
HETATM   19  N   UNL     1     -11.542   7.086  72.476  1.00  0.00    -0.242 NA 
HETATM   20  C   UNL     1     -11.598   9.241  71.636  1.00  0.00    -0.463 A  
HETATM   21  C   UNL     1     -11.416  10.190  70.632  1.00  0.00    -0.432 A  
HETATM   22  C   UNL     1     -11.249   5.801  72.320  1.00  0.00    -0.278 A  
HETATM   23  N   UNL     1     -10.687   5.276  71.239  1.00  0.00    -0.177 NA 
HETATM   24  N   UNL     1     -11.509   4.952  73.376  1.00  0.00    -0.450 NA 
HETATM   25  C   UNL     1     -10.489   6.101  70.201  1.00  0.00    -0.231 A  
HETATM   26  H2  UNL     1     -11.913   5.300  74.246  1.00  0.00     0.000 HD 
HETATM   27  H1  UNL     1     -11.285   3.965  73.256  1.00  0.00     0.000 HD 
HETATM   28  N   UNL     1      -9.832   5.470  69.140  1.00  0.00    -0.154 NA 
ENDBRANCH  11  12
ENDBRANCH   9  11
ENDBRANCH   5   9
BRANCH   8  29
HETATM   29  O   UNL     1     -10.611  15.638  65.803  1.00  0.00    -0.324 OA 
HETATM   30  C   UNL     1     -11.214  15.197  64.598  1.00  0.00    -0.343 C  
ENDBRANCH   8  29
BRANCH   7  31
HETATM   31  O   UNL     1     -11.021  17.207  68.184  1.00  0.00    -0.361 OA 
HETATM   32  C   UNL     1      -9.735  17.697  68.516  1.00  0.00    -0.328 C  
ENDBRANCH   7  31
ENDBRANCH   2   3
TORSDOF 6
ENDMDL
MODEL       38
REMARK 921   NORMALIZED FREE ENERGY PREDICTED BY IDOCK:   -6.38 KCAL/MOL
REMARK 922        TOTAL FREE ENERGY PREDICTED BY IDOCK:   -9.47 KCAL/MOL
REMARK 923 INTER-LIGAND FREE ENERGY PREDICTED BY IDOCK:   -8.84 KCAL/MOL
REMARK 924 INTRA-LIGAND FREE ENERGY PREDICTED BY IDOCK:   -0.63 KCAL/MOL
REMARK 927      BINDING AFFINITY PREDICTED BY RF-SCORE:    0.00 PKD
ROOT
HETATM    1  C   UNL     1     -10.876   6.184  67.905  1.00  0.00    -0.319 C  
HETATM    2  O   UNL     1     -10.932   5.905  69.302  1.00  0.00    -0.334 OA 
ENDROOT
BRANCH   2   3
HETATM    3  C   UNL     1     -10.622   6.941  70.149  1.00  0.00    -0.220 A  
HETATM    4  C   UNL     1     -10.676   8.271  69.696  1.00  0.00    -0.196 A  
HETATM    5  C   UNL     1     -10.396   9.353  70.529  1.00  0.00    -0.281 A  
HETATM    6  C   UNL     1     -10.016   9.066  71.837  1.00  0.00    -0.304 A  
HETATM    7  C   UNL     1     -10.291   6.667  71.496  1.00  0.00    -0.209 A  
HETATM    8  C   UNL     1      -9.983   7.754  72.339  1.00  0.00    -0.214 A  
BRANCH   5   9
HETATM    9  N   UNL     1     -10.367  10.639  69.974  1.00  0.00    -0.436 NA 
HETATM   10  H   UNL     1      -9.481  11.095  69.753  1.00  0.00     0.000 HD 
BRANCH   9  11
HETATM   11  C   UNL     1     -11.638  11.309  69.720  1.00  0.00    -0.333 C  
BRANCH  11  12
HETATM   12  C   UNL     1     -11.611  12.181  68.475  1.00  0.00    -0.366 A  
HETATM   13  C   UNL     1     -11.408  13.581  68.587  1.00  0.00    -0.323 A  
HETATM   14  H2  UNL     1      -9.755  16.077  68.800  1.00  0.00     0.000 HD 
HETATM   15  C   UNL     1     -11.300  14.403  67.398  1.00  0.00    -0.353 A  
HETATM   16  H1  UNL     1     -10.313  17.539  68.301  1.00  0.00     0.000 HD 
HETATM   17  C   UNL     1     -11.314  14.217  69.957  1.00  0.00    -0.224 C  
HETATM   18  C   UNL     1     -11.515  13.811  66.145  1.00  0.00    -0.338 A  
HETATM   19  N   UNL     1     -11.514  14.484  64.991  1.00  0.00    -0.365 NA 
HETATM   20  C   UNL     1     -11.726  12.447  66.066  1.00  0.00    -0.469 A  
HETATM   21  C   UNL     1     -11.749  11.632  67.196  1.00  0.00    -0.215 A  
HETATM   22  C   UNL     1     -11.270  15.788  65.041  1.00  0.00    -0.308 A  
HETATM   23  N   UNL     1     -10.951  16.460  66.141  1.00  0.00    -0.044 NA 
HETATM   24  N   UNL     1     -11.311  16.493  63.856  1.00  0.00    -1.559 NA 
HETATM   25  C   UNL     1     -10.967  15.774  67.292  1.00  0.00    -0.259 A  
HETATM   26  H2  UNL     1     -11.521  16.029  62.972  1.00  0.00     0.000 HD 
HETATM   27  H1  UNL     1     -11.125  17.494  63.895  1.00  0.00     0.000 HD 
HETATM   28  N   UNL     1     -10.553  16.550  68.377  1.00  0.00    -0.305 NA 
ENDBRANCH  11  12
ENDBRANCH   9  11
ENDBRANCH   5   9
BRANCH   8  29
HETATM   29  O   UNL     1      -9.617   7.748  73.664  1.00  0.00    -0.286 OA 
HETATM   30  C   UNL     1      -8.256   7.918  74.023  1.00  0.00    -0.241 C  
ENDBRANCH   8  29
BRANCH   7  31
HETATM   31  O   UNL     1     -10.218   5.425  72.068  1.00  0.00    -0.190 OA 
HETATM   32  C   UNL     1     -11.306   4.904  72.811  1.00  0.00    -0.148 C  
ENDBRANCH   7  31
ENDBRANCH   2   3
TORSDOF 6
ENDMDL
MODEL       39
REMARK 921   NORMALIZED FREE ENERGY PREDICTED BY IDOCK:   -6.38 KCAL/MOL
REMARK 922        TOTAL FREE ENERGY PREDICTED BY IDOCK:   -9.47 KCAL/MOL
REMARK 923 INTER-LIGAND FREE ENERGY PREDICTED BY IDOCK:   -8.76 KCAL/MOL
REMARK 924 INTRA-LIGAND FREE ENERGY PREDICTED BY IDOCK:   -0.71 KCAL/MOL
REMARK 927      BINDING AFFINITY PREDICTED BY RF-SCORE:    0.00 PKD
ROOT
HETATM    1  C   UNL     1     -14.329   7.818  71.592  1.00  0.00    -0.481 C  
HETATM    2  O   UNL     1     -13.252   6.887  71.680  1.00  0.00    -0.354 OA 
ENDROOT
BRANCH   2   3
HETATM    3  C   UNL     1     -11.991   7.415  71.805  1.00  0.00    -0.305 A  
HETATM    4  C   UNL     1     -11.642   8.593  71.121  1.00  0.00    -0.330 A  
HETATM    5  C   UNL     1     -10.383   9.178  71.242  1.00  0.00    -0.334 A  
HETATM    6  C   UNL     1      -9.453   8.524  72.045  1.00  0.00    -0.364 A  
HETATM    7  C   UNL     1     -11.056   6.793  72.663  1.00  0.00    -0.265 A  
HETATM    8  C   UNL     1      -9.772   7.365  72.773  1.00  0.00    -0.173 A  
BRANCH   5   9
HETATM    9  N   UNL     1     -10.078  10.290  70.445  1.00  0.00    -0.371 NA 
HETATM   10  H   UNL     1     -10.221  11.239  70.792  1.00  0.00     0.000 HD 
BRANCH   9  11
HETATM   11  C   UNL     1      -9.553  10.054  69.104  1.00  0.00    -0.210 C  
BRANCH  11  12
HETATM   12  C   UNL     1     -10.234  10.902  68.043  1.00  0.00    -0.202 A  
HETATM   13  C   UNL     1      -9.898  10.737  66.673  1.00  0.00    -0.241 A  
HETATM   14  H2  UNL     1     -10.107   9.475  63.958  1.00  0.00     0.000 HD 
HETATM   15  C   UNL     1     -10.603  11.486  65.652  1.00  0.00    -0.326 A  
HETATM   16  H1  UNL     1      -9.716  10.287  62.586  1.00  0.00     0.000 HD 
HETATM   17  C   UNL     1      -8.791   9.782  66.282  1.00  0.00    -0.165 C  
HETATM   18  C   UNL     1     -11.536  12.455  66.046  1.00  0.00    -0.401 A  
HETATM   19  N   UNL     1     -12.188  13.254  65.196  1.00  0.00    -0.415 NA 
HETATM   20  C   UNL     1     -11.833  12.606  67.388  1.00  0.00    -0.393 A  
HETATM   21  C   UNL     1     -11.222  11.833  68.374  1.00  0.00    -0.307 A  
HETATM   22  C   UNL     1     -11.949  13.096  63.900  1.00  0.00    -0.488 A  
HETATM   23  N   UNL     1     -11.171  12.155  63.380  1.00  0.00    -0.429 NA 
HETATM   24  N   UNL     1     -12.589  13.948  63.023  1.00  0.00    -0.908 NA 
HETATM   25  C   UNL     1     -10.515  11.370  64.244  1.00  0.00    -0.342 A  
HETATM   26  H2  UNL     1     -13.224  14.673  63.359  1.00  0.00     0.000 HD 
HETATM   27  H1  UNL     1     -12.405  13.827  62.028  1.00  0.00     0.000 HD 
HETATM   28  N   UNL     1      -9.779  10.371  63.600  1.00  0.00    -0.304 NA 
ENDBRANCH  11  12
ENDBRANCH   9  11
ENDBRANCH   5   9
BRANCH   8  29
HETATM   29  O   UNL     1      -8.695   6.944  73.516  1.00  0.00    -0.126 OA 
HETATM   30  C   UNL     1      -7.679   6.162  72.910  1.00  0.00    -0.105 C  
ENDBRANCH   8  29
BRANCH   7  31
HETATM   31  O   UNL     1     -11.270   5.658  73.397  1.00  0.00    -0.247 OA 
HETATM   32  C   UNL     1     -10.894   4.388  72.895  1.00  0.00    -0.176 C  
ENDBRANCH   7  31
ENDBRANCH   2   3
TORSDOF 6
ENDMDL
MODEL       40
REMARK 921   NORMALIZED FREE ENERGY PREDICTED BY IDOCK:   -6.36 KCAL/MOL
REMARK 922        TOTAL FREE ENERGY PREDICTED BY IDOCK:   -9.44 KCAL/MOL
REMARK 923 INTER-LIGAND FREE ENERGY PREDICTED BY IDOCK:   -8.82 KCAL/MOL
REMARK 924 INTRA-LIGAND FREE ENERGY PREDICTED BY IDOCK:   -0.62 KCAL/MOL
REMARK 927      BINDING AFFINITY PREDICTED BY RF-SCORE:    0.00 PKD
ROOT
HETATM    1  C   UNL     1     -12.027  15.481  70.058  1.00  0.00    -0.364 C  
HETATM    2  O   UNL     1     -11.638  15.720  68.707  1.00  0.00    -0.363 OA 
ENDROOT
BRANCH   2   3
HETATM    3  C   UNL     1     -11.568  14.622  67.884  1.00  0.00    -0.348 A  
HETATM    4  C   UNL     1     -11.801  13.333  68.396  1.00  0.00    -0.395 A  
HETATM    5  C   UNL     1     -11.767  12.196  67.591  1.00  0.00    -0.316 A  
HETATM    6  C   UNL     1     -11.449  12.378  66.248  1.00  0.00    -0.423 A  
HETATM    7  C   UNL     1     -11.304  14.798  66.507  1.00  0.00    -0.344 A  
HETATM    8  C   UNL     1     -11.244  13.651  65.689  1.00  0.00    -0.297 A  
BRANCH   5   9
HETATM    9  N   UNL     1     -11.903  10.940  68.196  1.00  0.00    -0.753 NA 
HETATM   10  H   UNL     1     -12.820  10.587  68.473  1.00  0.00     0.000 HD 
BRANCH   9  11
HETATM   11  C   UNL     1     -10.698  10.149  68.421  1.00  0.00    -0.230 C  
BRANCH  11  12
HETATM   12  C   UNL     1     -10.794   9.256  69.648  1.00  0.00    -0.228 A  
HETATM   13  C   UNL     1     -10.659   7.849  69.520  1.00  0.00    -0.220 A  
HETATM   14  H2  UNL     1      -9.130   5.271  69.358  1.00  0.00     0.000 HD 
HETATM   15  C   UNL     1     -10.669   7.003  70.697  1.00  0.00    -0.255 A  
HETATM   16  H1  UNL     1      -9.794   3.834  69.793  1.00  0.00     0.000 HD 
HETATM   17  C   UNL     1     -10.514   7.232  68.146  1.00  0.00    -0.244 C  
HETATM   18  C   UNL     1     -10.929   7.585  71.946  1.00  0.00    -0.235 A  
HETATM   19  N   UNL     1     -11.036   6.893  73.084  1.00  0.00    -0.282 NA 
HETATM   20  C   UNL     1     -11.073   8.956  72.039  1.00  0.00    -0.421 A  
HETATM   21  C   UNL     1     -10.983   9.790  70.926  1.00  0.00    -0.411 A  
HETATM   22  C   UNL     1     -10.859   5.578  73.023  1.00  0.00    -0.274 A  
HETATM   23  N   UNL     1     -10.508   4.909  71.932  1.00  0.00    -0.192 NA 
HETATM   24  N   UNL     1     -11.010   4.857  74.188  1.00  0.00    -0.373 NA 
HETATM   25  C   UNL     1     -10.416   5.614  70.795  1.00  0.00    -0.265 A  
HETATM   26  H2  UNL     1     -11.249   5.317  75.067  1.00  0.00     0.000 HD 
HETATM   27  H1  UNL     1     -10.875   3.848  74.141  1.00  0.00     0.000 HD 
HETATM   28  N   UNL     1      -9.976   4.835  69.722  1.00  0.00    -0.229 NA 
ENDBRANCH  11  12
ENDBRANCH   9  11
ENDBRANCH   5   9
BRANCH   8  29
HETATM   29  O   UNL     1     -10.988  13.558  64.343  1.00  0.00    -0.378 OA 
HETATM   30  C   UNL     1     -11.971  13.028  63.469  1.00  0.00    -0.545 C  
ENDBRANCH   8  29
BRANCH   7  31
HETATM   31  O   UNL     1     -11.076  15.993  65.879  1.00  0.00    -0.167 OA 
HETATM   32  C   UNL     1      -9.800  16.606  65.926  1.00  0.00    -0.273 C  
ENDBRANCH   7  31
ENDBRANCH   2   3
TORSDOF 6
ENDMDL
MODEL       41
REMARK 921   NORMALIZED FREE ENERGY PREDICTED BY IDOCK:   -6.35 KCAL/MOL
REMARK 922        TOTAL FREE ENERGY PREDICTED BY IDOCK:   -9.43 KCAL/MOL
REMARK 923 INTER-LIGAND FREE ENERGY PREDICTED BY IDOCK:   -8.86 KCAL/MOL
REMARK 924 INTRA-LIGAND FREE ENERGY PREDICTED BY IDOCK:   -0.57 KCAL/MOL
REMARK 927      BINDING AFFINITY PREDICTED BY RF-SCORE:    0.00 PKD
ROOT
HETATM    1  C   UNL     1     -11.005  12.587  63.463  1.00  0.00    -0.420 C  
HETATM    2  O   UNL     1     -10.057  11.527  63.358  1.00  0.00    -0.347 OA 
ENDROOT
BRANCH   2   3
HETATM    3  C   UNL     1      -9.945  10.692  64.443  1.00  0.00    -0.350 A  
HETATM    4  C   UNL     1     -10.820  10.824  65.535  1.00  0.00    -0.061 A  
HETATM    5  C   UNL     1     -10.760   9.980  66.643  1.00  0.00    -0.058 A  
HETATM    6  C   UNL     1      -9.762   9.010  66.649  1.00  0.00    -0.295 A  
HETATM    7  C   UNL     1      -8.974   9.665  64.436  1.00  0.00    -0.234 A  
HETATM    8  C   UNL     1      -8.890   8.822  65.563  1.00  0.00    -0.188 A  
BRANCH   5   9
HETATM    9  N   UNL     1     -11.595  10.245  67.736  1.00  0.00    -0.620 NA 
HETATM   10  H   UNL     1     -12.594  10.408  67.606  1.00  0.00     0.000 HD 
BRANCH   9  11
HETATM   11  C   UNL     1     -10.999  10.283  69.067  1.00  0.00    -0.232 C  
BRANCH  11  12
HETATM   12  C   UNL     1     -11.681  11.274  69.996  1.00  0.00    -0.428 A  
HETATM   13  C   UNL     1     -11.581  12.668  69.750  1.00  0.00    -0.285 A  
HETATM   14  H2  UNL     1     -12.390  15.268  68.487  1.00  0.00     0.000 HD 
HETATM   15  C   UNL     1     -12.298  13.611  70.586  1.00  0.00    -0.440 A  
HETATM   16  H1  UNL     1     -12.079  16.717  69.195  1.00  0.00     0.000 HD 
HETATM   17  C   UNL     1     -10.715  13.170  68.616  1.00  0.00    -0.274 C  
HETATM   18  C   UNL     1     -12.993  13.131  71.705  1.00  0.00    -0.338 A  
HETATM   19  N   UNL     1     -13.625  13.915  72.584  1.00  0.00    -0.671 NA 
HETATM   20  C   UNL     1     -13.061  11.769  71.929  1.00  0.00    -0.482 A  
HETATM   21  C   UNL     1     -12.445  10.846  71.085  1.00  0.00    -0.511 A  
HETATM   22  C   UNL     1     -13.608  15.223  72.364  1.00  0.00    -0.488 A  
HETATM   23  N   UNL     1     -13.078  15.807  71.296  1.00  0.00    -0.489 NA 
HETATM   24  N   UNL     1     -14.222  16.037  73.292  1.00  0.00    -0.420 NA 
HETATM   25  C   UNL     1     -12.438  15.010  70.429  1.00  0.00    -0.356 A  
HETATM   26  H2  UNL     1     -14.674  15.647  74.120  1.00  0.00     0.000 HD 
HETATM   27  H1  UNL     1     -14.209  17.042  73.124  1.00  0.00     0.000 HD 
HETATM   28  N   UNL     1     -11.977  15.708  69.309  1.00  0.00    -0.360 NA 
ENDBRANCH  11  12
ENDBRANCH   9  11
ENDBRANCH   5   9
BRANCH   8  29
HETATM   29  O   UNL     1      -8.029   7.778  65.804  1.00  0.00    -0.101 OA 
HETATM   30  C   UNL     1      -8.542   6.502  66.147  1.00  0.00    -0.145 C  
ENDBRANCH   8  29
BRANCH   7  31
HETATM   31  O   UNL     1      -8.075   9.416  63.434  1.00  0.00    -0.135 OA 
HETATM   32  C   UNL     1      -6.827  10.085  63.397  1.00  0.00    -0.132 C  
ENDBRANCH   7  31
ENDBRANCH   2   3
TORSDOF 6
ENDMDL
MODEL       42
REMARK 921   NORMALIZED FREE ENERGY PREDICTED BY IDOCK:   -6.35 KCAL/MOL
REMARK 922        TOTAL FREE ENERGY PREDICTED BY IDOCK:   -9.42 KCAL/MOL
REMARK 923 INTER-LIGAND FREE ENERGY PREDICTED BY IDOCK:   -8.21 KCAL/MOL
REMARK 924 INTRA-LIGAND FREE ENERGY PREDICTED BY IDOCK:   -1.22 KCAL/MOL
REMARK 927      BINDING AFFINITY PREDICTED BY RF-SCORE:    0.00 PKD
ROOT
HETATM    1  C   UNL     1     -10.428   9.894  66.835  1.00  0.00    -0.215 C  
HETATM    2  O   UNL     1     -11.437  10.247  67.778  1.00  0.00    -0.351 OA 
ENDROOT
BRANCH   2   3
HETATM    3  C   UNL     1     -11.630  11.589  67.999  1.00  0.00    -0.300 A  
HETATM    4  C   UNL     1     -11.724  12.482  66.917  1.00  0.00    -0.447 A  
HETATM    5  C   UNL     1     -11.947  13.846  67.096  1.00  0.00    -0.420 A  
HETATM    6  C   UNL     1     -12.034  14.309  68.406  1.00  0.00    -0.344 A  
HETATM    7  C   UNL     1     -11.779  12.064  69.322  1.00  0.00    -0.330 A  
HETATM    8  C   UNL     1     -11.981  13.446  69.514  1.00  0.00    -0.319 A  
BRANCH   5   9
HETATM    9  N   UNL     1     -11.921  14.684  65.973  1.00  0.00    -0.297 NA 
HETATM   10  H   UNL     1     -12.785  15.040  65.564  1.00  0.00     0.000 HD 
BRANCH   9  11
HETATM   11  C   UNL     1     -10.624  15.035  65.405  1.00  0.00    -0.380 C  
BRANCH  11  12
HETATM   12  C   UNL     1      -9.921  16.145  66.170  1.00  0.00    -0.357 A  
HETATM   13  C   UNL     1      -8.800  15.849  66.988  1.00  0.00    -0.240 A  
HETATM   14  H2  UNL     1      -5.886  15.385  67.538  1.00  0.00     0.000 HD 
HETATM   15  C   UNL     1      -8.078  16.915  67.654  1.00  0.00    -0.193 A  
HETATM   16  H1  UNL     1      -5.226  15.640  69.020  1.00  0.00     0.000 HD 
HETATM   17  C   UNL     1      -8.364  14.411  67.172  1.00  0.00    -0.214 C  
HETATM   18  C   UNL     1      -8.574  18.224  67.568  1.00  0.00    -0.250 A  
HETATM   19  N   UNL     1      -8.034  19.270  68.201  1.00  0.00    -0.296 NA 
HETATM   20  C   UNL     1      -9.677  18.481  66.776  1.00  0.00    -0.345 A  
HETATM   21  C   UNL     1     -10.331  17.477  66.065  1.00  0.00    -0.309 A  
HETATM   22  C   UNL     1      -6.948  19.051  68.932  1.00  0.00    -0.323 A  
HETATM   23  N   UNL     1      -6.313  17.889  69.021  1.00  0.00    -0.222 NA 
HETATM   24  N   UNL     1      -6.414  20.121  69.620  1.00  0.00    -0.327 NA 
HETATM   25  C   UNL     1      -6.872  16.847  68.391  1.00  0.00    -0.167 A  
HETATM   26  H2  UNL     1      -6.838  21.047  69.568  1.00  0.00     0.000 HD 
HETATM   27  H1  UNL     1      -5.580  19.953  70.182  1.00  0.00     0.000 HD 
HETATM   28  N   UNL     1      -6.095  15.690  68.488  1.00  0.00    -0.099 NA 
ENDBRANCH  11  12
ENDBRANCH   9  11
ENDBRANCH   5   9
BRANCH   8  29
HETATM   29  O   UNL     1     -12.132  14.147  70.686  1.00  0.00    -0.314 OA 
HETATM   30  C   UNL     1     -12.717  15.438  70.669  1.00  0.00    -0.437 C  
ENDBRANCH   8  29
BRANCH   7  31
HETATM   31  O   UNL     1     -11.725  11.304  70.460  1.00  0.00    -0.329 OA 
HETATM   32  C   UNL     1     -12.882  10.649  70.949  1.00  0.00    -0.382 C  
ENDBRANCH   7  31
ENDBRANCH   2   3
TORSDOF 6
ENDMDL
MODEL       43
REMARK 921   NORMALIZED FREE ENERGY PREDICTED BY IDOCK:   -6.34 KCAL/MOL
REMARK 922        TOTAL FREE ENERGY PREDICTED BY IDOCK:   -9.41 KCAL/MOL
REMARK 923 INTER-LIGAND FREE ENERGY PREDICTED BY IDOCK:   -8.59 KCAL/MOL
REMARK 924 INTRA-LIGAND FREE ENERGY PREDICTED BY IDOCK:   -0.82 KCAL/MOL
REMARK 927      BINDING AFFINITY PREDICTED BY RF-SCORE:    0.00 PKD
ROOT
HETATM    1  C   UNL     1     -11.341   7.138  73.140  1.00  0.00    -0.093 C  
HETATM    2  O   UNL     1     -11.934   6.965  71.855  1.00  0.00    -0.299 OA 
ENDROOT
BRANCH   2   3
HETATM    3  C   UNL     1     -11.468   7.775  70.849  1.00  0.00    -0.279 A  
HETATM    4  C   UNL     1     -11.468   9.173  71.003  1.00  0.00    -0.372 A  
HETATM    5  C   UNL     1     -10.978  10.029  70.018  1.00  0.00    -0.300 A  
HETATM    6  C   UNL     1     -10.518   9.447  68.841  1.00  0.00    -0.236 A  
HETATM    7  C   UNL     1     -10.944   7.194  69.671  1.00  0.00    -0.212 A  
HETATM    8  C   UNL     1     -10.468   8.054  68.661  1.00  0.00    -0.167 A  
BRANCH   5   9
HETATM    9  N   UNL     1     -11.112  11.412  70.203  1.00  0.00    -0.454 NA 
HETATM   10  H   UNL     1     -10.500  11.917  70.844  1.00  0.00     0.000 HD 
BRANCH   9  11
HETATM   11  C   UNL     1     -12.151  12.110  69.453  1.00  0.00    -0.190 C  
BRANCH  11  12
HETATM   12  C   UNL     1     -11.695  13.460  68.924  1.00  0.00    -0.369 A  
HETATM   13  C   UNL     1     -11.427  13.632  67.541  1.00  0.00    -0.360 A  
HETATM   14  H2  UNL     1     -12.151  14.205  64.685  1.00  0.00     0.000 HD 
HETATM   15  C   UNL     1     -11.071  14.937  67.021  1.00  0.00    -0.338 A  
HETATM   16  H1  UNL     1     -11.064  14.810  63.614  1.00  0.00     0.000 HD 
HETATM   17  C   UNL     1     -11.505  12.442  66.609  1.00  0.00    -0.429 C  
HETATM   18  C   UNL     1     -10.884  15.996  67.921  1.00  0.00    -0.333 A  
HETATM   19  N   UNL     1     -10.484  17.219  67.562  1.00  0.00    -0.356 NA 
HETATM   20  C   UNL     1     -11.137  15.797  69.266  1.00  0.00    -0.297 A  
HETATM   21  C   UNL     1     -11.559  14.567  69.767  1.00  0.00    -0.345 A  
HETATM   22  C   UNL     1     -10.277  17.443  66.270  1.00  0.00    -0.341 A  
HETATM   23  N   UNL     1     -10.511  16.568  65.300  1.00  0.00    -0.637 NA 
HETATM   24  N   UNL     1      -9.823  18.692  65.902  1.00  0.00    -0.504 NA 
HETATM   25  C   UNL     1     -10.901  15.342  65.676  1.00  0.00    -0.363 A  
HETATM   26  H2  UNL     1      -9.653  19.419  66.597  1.00  0.00     0.000 HD 
HETATM   27  H1  UNL     1      -9.664  18.865  64.910  1.00  0.00     0.000 HD 
HETATM   28  N   UNL     1     -11.187  14.519  64.583  1.00  0.00    -0.372 NA 
ENDBRANCH  11  12
ENDBRANCH   9  11
ENDBRANCH   5   9
BRANCH   8  29
HETATM   29  O   UNL     1      -9.937   7.739  67.433  1.00  0.00    -0.162 OA 
HETATM   30  C   UNL     1      -9.832   8.736  66.430  1.00  0.00    -0.282 C  
ENDBRANCH   8  29
BRANCH   7  31
HETATM   31  O   UNL     1     -10.870   5.854  69.401  1.00  0.00    -0.306 OA 
HETATM   32  C   UNL     1      -9.757   5.089  69.829  1.00  0.00    -0.196 C  
ENDBRANCH   7  31
ENDBRANCH   2   3
TORSDOF 6
ENDMDL
MODEL       44
REMARK 921   NORMALIZED FREE ENERGY PREDICTED BY IDOCK:   -6.29 KCAL/MOL
REMARK 922        TOTAL FREE ENERGY PREDICTED BY IDOCK:   -9.35 KCAL/MOL
REMARK 923 INTER-LIGAND FREE ENERGY PREDICTED BY IDOCK:   -9.15 KCAL/MOL
REMARK 924 INTRA-LIGAND FREE ENERGY PREDICTED BY IDOCK:   -0.20 KCAL/MOL
REMARK 927      BINDING AFFINITY PREDICTED BY RF-SCORE:    0.00 PKD
ROOT
HETATM    1  C   UNL     1     -11.449  16.123  70.556  1.00  0.00    -0.343 C  
HETATM    2  O   UNL     1     -12.589  15.289  70.359  1.00  0.00    -0.370 OA 
ENDROOT
BRANCH   2   3
HETATM    3  C   UNL     1     -12.342  13.967  70.076  1.00  0.00    -0.337 A  
HETATM    4  C   UNL     1     -11.761  13.599  68.850  1.00  0.00    -0.377 A  
HETATM    5  C   UNL     1     -11.468  12.273  68.535  1.00  0.00    -0.303 A  
HETATM    6  C   UNL     1     -11.814  11.305  69.473  1.00  0.00    -0.427 A  
HETATM    7  C   UNL     1     -12.636  12.980  71.044  1.00  0.00    -0.299 A  
HETATM    8  C   UNL     1     -12.365  11.634  70.724  1.00  0.00    -0.358 A  
BRANCH   5   9
HETATM    9  N   UNL     1     -10.989  11.977  67.252  1.00  0.00    -0.248 NA 
HETATM   10  H   UNL     1     -11.508  11.359  66.627  1.00  0.00     0.000 HD 
BRANCH   9  11
HETATM   11  C   UNL     1      -9.727  12.577  66.832  1.00  0.00    -0.232 C  
BRANCH  11  12
HETATM   12  C   UNL     1      -9.850  14.059  66.518  1.00  0.00    -0.298 A  
HETATM   13  C   UNL     1      -9.151  15.016  67.300  1.00  0.00    -0.213 A  
HETATM   14  H2  UNL     1      -6.781  16.692  68.062  1.00  0.00     0.000 HD 
HETATM   15  C   UNL     1      -9.201  16.422  66.953  1.00  0.00    -0.237 A  
HETATM   16  H1  UNL     1      -6.941  18.117  68.862  1.00  0.00     0.000 HD 
HETATM   17  C   UNL     1      -8.359  14.562  68.507  1.00  0.00    -0.160 C  
HETATM   18  C   UNL     1     -10.041  16.831  65.907  1.00  0.00    -0.304 A  
HETATM   19  N   UNL     1     -10.221  18.106  65.551  1.00  0.00    -0.484 NA 
HETATM   20  C   UNL     1     -10.722  15.880  65.172  1.00  0.00    -0.449 A  
HETATM   21  C   UNL     1     -10.617  14.517  65.443  1.00  0.00    -0.385 A  
HETATM   22  C   UNL     1      -9.543  19.033  66.217  1.00  0.00    -0.335 A  
HETATM   23  N   UNL     1      -8.641  18.784  67.158  1.00  0.00    -0.272 NA 
HETATM   24  N   UNL     1      -9.761  20.352  65.879  1.00  0.00    -0.635 NA 
HETATM   25  C   UNL     1      -8.478  17.502  67.513  1.00  0.00    -0.213 A  
HETATM   26  H2  UNL     1     -10.419  20.608  65.143  1.00  0.00     0.000 HD 
HETATM   27  H1  UNL     1      -9.241  21.064  66.391  1.00  0.00     0.000 HD 
HETATM   28  N   UNL     1      -7.462  17.339  68.458  1.00  0.00    -0.231 NA 
ENDBRANCH  11  12
ENDBRANCH   9  11
ENDBRANCH   5   9
BRANCH   8  29
HETATM   29  O   UNL     1     -12.576  10.504  71.477  1.00  0.00    -0.382 OA 
HETATM   30  C   UNL     1     -11.590   9.486  71.517  1.00  0.00    -0.395 C  
ENDBRANCH   8  29
BRANCH   7  31
HETATM   31  O   UNL     1     -13.185  13.203  72.278  1.00  0.00    -0.466 OA 
HETATM   32  C   UNL     1     -14.284  14.083  72.434  1.00  0.00    -0.403 C  
ENDBRANCH   7  31
ENDBRANCH   2   3
TORSDOF 6
ENDMDL
MODEL       45
REMARK 921   NORMALIZED FREE ENERGY PREDICTED BY IDOCK:   -6.29 KCAL/MOL
REMARK 922        TOTAL FREE ENERGY PREDICTED BY IDOCK:   -9.35 KCAL/MOL
REMARK 923 INTER-LIGAND FREE ENERGY PREDICTED BY IDOCK:   -8.34 KCAL/MOL
REMARK 924 INTRA-LIGAND FREE ENERGY PREDICTED BY IDOCK:   -1.01 KCAL/MOL
REMARK 927      BINDING AFFINITY PREDICTED BY RF-SCORE:    0.00 PKD
ROOT
HETATM    1  C   UNL     1     -10.399  19.949  68.247  1.00  0.00    -0.393 C  
HETATM    2  O   UNL     1     -10.329  18.747  67.484  1.00  0.00    -0.369 OA 
ENDROOT
BRANCH   2   3
HETATM    3  C   UNL     1      -9.708  17.676  68.079  1.00  0.00    -0.301 A  
HETATM    4  C   UNL     1     -10.466  16.601  68.576  1.00  0.00    -0.319 A  
HETATM    5  C   UNL     1      -9.875  15.482  69.162  1.00  0.00    -0.246 A  
HETATM    6  C   UNL     1      -8.488  15.483  69.276  1.00  0.00    -0.265 A  
HETATM    7  C   UNL     1      -8.297  17.638  68.149  1.00  0.00    -0.259 A  
HETATM    8  C   UNL     1      -7.692  16.521  68.761  1.00  0.00    -0.226 A  
BRANCH   5   9
HETATM    9  N   UNL     1     -10.702  14.504  69.729  1.00  0.00    -0.443 NA 
HETATM   10  H   UNL     1     -10.583  14.216  70.701  1.00  0.00     0.000 HD 
BRANCH   9  11
HETATM   11  C   UNL     1     -11.738  13.908  68.893  1.00  0.00    -0.337 C  
BRANCH  11  12
HETATM   12  C   UNL     1     -11.177  13.019  67.796  1.00  0.00    -0.313 A  
HETATM   13  C   UNL     1     -11.709  13.083  66.481  1.00  0.00    -0.437 A  
HETATM   14  H2  UNL     1     -11.939  14.176  63.696  1.00  0.00     0.000 HD 
HETATM   15  C   UNL     1     -11.122  12.296  65.415  1.00  0.00    -0.353 A  
HETATM   16  H1  UNL     1     -12.483  13.264  62.443  1.00  0.00     0.000 HD 
HETATM   17  C   UNL     1     -12.900  13.972  66.198  1.00  0.00    -0.162 C  
HETATM   18  C   UNL     1     -10.100  11.388  65.728  1.00  0.00    -0.246 A  
HETATM   19  N   UNL     1      -9.539  10.561  64.841  1.00  0.00    -0.250 NA 
HETATM   20  C   UNL     1      -9.611  11.335  67.020  1.00  0.00    -0.197 A  
HETATM   21  C   UNL     1     -10.112  12.146  68.037  1.00  0.00    -0.204 A  
HETATM   22  C   UNL     1      -9.965  10.626  63.586  1.00  0.00    -0.301 A  
HETATM   23  N   UNL     1     -10.849  11.503  63.128  1.00  0.00    -0.252 NA 
HETATM   24  N   UNL     1      -9.418   9.744  62.678  1.00  0.00    -0.544 NA 
HETATM   25  C   UNL     1     -11.412  12.319  64.030  1.00  0.00    -0.409 A  
HETATM   26  H2  UNL     1      -8.711   9.065  62.960  1.00  0.00     0.000 HD 
HETATM   27  H1  UNL     1      -9.745   9.793  61.713  1.00  0.00     0.000 HD 
HETATM   28  N   UNL     1     -12.274  13.247  63.441  1.00  0.00    -0.707 NA 
ENDBRANCH  11  12
ENDBRANCH   9  11
ENDBRANCH   5   9
BRANCH   8  29
HETATM   29  O   UNL     1      -6.358  16.261  68.967  1.00  0.00    -0.136 OA 
HETATM   30  C   UNL     1      -5.738  16.658  70.178  1.00  0.00    -0.203 C  
ENDBRANCH   8  29
BRANCH   7  31
HETATM   31  O   UNL     1      -7.443  18.605  67.690  1.00  0.00    -0.226 OA 
HETATM   32  C   UNL     1      -7.115  18.690  66.315  1.00  0.00    -0.245 C  
ENDBRANCH   7  31
ENDBRANCH   2   3
TORSDOF 6
ENDMDL
MODEL       46
REMARK 921   NORMALIZED FREE ENERGY PREDICTED BY IDOCK:   -6.28 KCAL/MOL
REMARK 922        TOTAL FREE ENERGY PREDICTED BY IDOCK:   -9.34 KCAL/MOL
REMARK 923 INTER-LIGAND FREE ENERGY PREDICTED BY IDOCK:   -8.48 KCAL/MOL
REMARK 924 INTRA-LIGAND FREE ENERGY PREDICTED BY IDOCK:   -0.86 KCAL/MOL
REMARK 927      BINDING AFFINITY PREDICTED BY RF-SCORE:    0.00 PKD
ROOT
HETATM    1  C   UNL     1      -6.878  14.423  67.519  1.00  0.00    -0.139 C  
HETATM    2  O   UNL     1      -7.291  15.669  68.076  1.00  0.00    -0.116 OA 
ENDROOT
BRANCH   2   3
HETATM    3  C   UNL     1      -8.328  16.311  67.445  1.00  0.00    -0.169 A  
HETATM    4  C   UNL     1      -9.006  15.691  66.380  1.00  0.00    -0.362 A  
HETATM    5  C   UNL     1     -10.081  16.295  65.730  1.00  0.00    -0.347 A  
HETATM    6  C   UNL     1     -10.442  17.572  66.151  1.00  0.00    -0.288 A  
HETATM    7  C   UNL     1      -8.743  17.583  67.901  1.00  0.00    -0.247 A  
HETATM    8  C   UNL     1      -9.814  18.212  67.234  1.00  0.00    -0.314 A  
BRANCH   5   9
HETATM    9  N   UNL     1     -10.632  15.660  64.610  1.00  0.00    -0.692 NA 
HETATM   10  H   UNL     1     -10.182  15.723  63.696  1.00  0.00     0.000 HD 
BRANCH   9  11
HETATM   11  C   UNL     1     -11.868  14.906  64.784  1.00  0.00    -0.384 C  
BRANCH  11  12
HETATM   12  C   UNL     1     -11.704  13.699  65.694  1.00  0.00    -0.360 A  
HETATM   13  C   UNL     1     -11.147  12.495  65.191  1.00  0.00    -0.335 A  
HETATM   14  H2  UNL     1      -8.906  10.634  64.469  1.00  0.00     0.000 HD 
HETATM   15  C   UNL     1     -10.914  11.371  66.076  1.00  0.00    -0.286 A  
HETATM   16  H1  UNL     1      -9.108   9.005  64.413  1.00  0.00     0.000 HD 
HETATM   17  C   UNL     1     -10.804  12.384  63.721  1.00  0.00    -0.500 C  
HETATM   18  C   UNL     1     -11.354  11.453  67.405  1.00  0.00    -0.288 A  
HETATM   19  N   UNL     1     -11.259  10.453  68.286  1.00  0.00    -0.285 NA 
HETATM   20  C   UNL     1     -11.908  12.633  67.865  1.00  0.00    -0.388 A  
HETATM   21  C   UNL     1     -12.062  13.750  67.045  1.00  0.00    -0.436 A  
HETATM   22  C   UNL     1     -10.691   9.325  67.877  1.00  0.00    -0.188 A  
HETATM   23  N   UNL     1     -10.140   9.142  66.683  1.00  0.00    -0.265 NA 
HETATM   24  N   UNL     1     -10.631   8.277  68.771  1.00  0.00    -0.366 NA 
HETATM   25  C   UNL     1     -10.253  10.149  65.806  1.00  0.00    -0.213 A  
HETATM   26  H2  UNL     1     -11.009   8.366  69.715  1.00  0.00     0.000 HD 
HETATM   27  H1  UNL     1     -10.195   7.411  68.457  1.00  0.00     0.000 HD 
HETATM   28  N   UNL     1      -9.584   9.885  64.608  1.00  0.00    -0.295 NA 
ENDBRANCH  11  12
ENDBRANCH   9  11
ENDBRANCH   5   9
BRANCH   8  29
HETATM   29  O   UNL     1     -10.382  19.440  67.471  1.00  0.00    -0.385 OA 
HETATM   30  C   UNL     1      -9.860  20.596  66.838  1.00  0.00    -0.256 C  
ENDBRANCH   8  29
BRANCH   7  31
HETATM   31  O   UNL     1      -8.183  18.288  68.933  1.00  0.00    -0.266 OA 
HETATM   32  C   UNL     1      -7.018  19.066  68.731  1.00  0.00    -0.310 C  
ENDBRANCH   7  31
ENDBRANCH   2   3
TORSDOF 6
ENDMDL
MODEL       47
REMARK 921   NORMALIZED FREE ENERGY PREDICTED BY IDOCK:   -6.27 KCAL/MOL
REMARK 922        TOTAL FREE ENERGY PREDICTED BY IDOCK:   -9.32 KCAL/MOL
REMARK 923 INTER-LIGAND FREE ENERGY PREDICTED BY IDOCK:   -8.40 KCAL/MOL
REMARK 924 INTRA-LIGAND FREE ENERGY PREDICTED BY IDOCK:   -0.93 KCAL/MOL
REMARK 927      BINDING AFFINITY PREDICTED BY RF-SCORE:    0.00 PKD
ROOT
HETATM    1  C   UNL     1     -12.389  15.227  70.254  1.00  0.00    -0.366 C  
HETATM    2  O   UNL     1     -11.889  16.261  69.408  1.00  0.00    -0.213 OA 
ENDROOT
BRANCH   2   3
HETATM    3  C   UNL     1     -10.862  15.920  68.562  1.00  0.00    -0.298 A  
HETATM    4  C   UNL     1     -10.344  14.613  68.563  1.00  0.00    -0.238 A  
HETATM    5  C   UNL     1      -9.321  14.217  67.703  1.00  0.00    -0.209 A  
HETATM    6  C   UNL     1      -8.794  15.187  66.855  1.00  0.00    -0.284 A  
HETATM    7  C   UNL     1     -10.357  16.879  67.655  1.00  0.00    -0.317 A  
HETATM    8  C   UNL     1      -9.307  16.494  66.797  1.00  0.00    -0.243 A  
BRANCH   5   9
HETATM    9  N   UNL     1      -8.788  12.929  67.840  1.00  0.00    -0.180 NA 
HETATM   10  H   UNL     1      -7.800  12.791  68.056  1.00  0.00     0.000 HD 
BRANCH   9  11
HETATM   11  C   UNL     1      -9.682  11.790  67.666  1.00  0.00    -0.182 C  
BRANCH  11  12
HETATM   12  C   UNL     1      -9.724  10.878  68.882  1.00  0.00    -0.198 A  
HETATM   13  C   UNL     1     -10.933  10.709  69.606  1.00  0.00    -0.331 A  
HETATM   14  H2  UNL     1     -13.600   9.461  70.185  1.00  0.00     0.000 HD 
HETATM   15  C   UNL     1     -10.997   9.778  70.715  1.00  0.00    -0.406 A  
HETATM   16  H1  UNL     1     -14.246   9.441  71.695  1.00  0.00     0.000 HD 
HETATM   17  C   UNL     1     -12.156  11.513  69.223  1.00  0.00    -0.344 C  
HETATM   18  C   UNL     1      -9.821   9.137  71.130  1.00  0.00    -0.301 A  
HETATM   19  N   UNL     1      -9.748   8.319  72.184  1.00  0.00    -0.245 NA 
HETATM   20  C   UNL     1      -8.653   9.332  70.415  1.00  0.00    -0.250 A  
HETATM   21  C   UNL     1      -8.598  10.161  69.297  1.00  0.00    -0.180 A  
HETATM   22  C   UNL     1     -10.867   8.085  72.858  1.00  0.00    -0.330 A  
HETATM   23  N   UNL     1     -12.067   8.539  72.520  1.00  0.00    -0.375 NA 
HETATM   24  N   UNL     1     -10.785   7.275  73.972  1.00  0.00    -0.572 NA 
HETATM   25  C   UNL     1     -12.123   9.368  71.468  1.00  0.00    -0.379 A  
HETATM   26  H2  UNL     1      -9.897   6.869  74.266  1.00  0.00     0.000 HD 
HETATM   27  H1  UNL     1     -11.644   7.095  74.490  1.00  0.00     0.000 HD 
HETATM   28  N   UNL     1     -13.434   9.735  71.153  1.00  0.00    -0.319 NA 
ENDBRANCH  11  12
ENDBRANCH   9  11
ENDBRANCH   5   9
BRANCH   8  29
HETATM   29  O   UNL     1      -8.640  17.238  65.854  1.00  0.00    -0.528 OA 
HETATM   30  C   UNL     1      -7.329  17.709  66.119  1.00  0.00    -0.309 C  
ENDBRANCH   8  29
BRANCH   7  31
HETATM   31  O   UNL     1     -10.780  18.176  67.539  1.00  0.00    -0.412 OA 
HETATM   32  C   UNL     1     -10.207  19.200  68.332  1.00  0.00    -0.389 C  
ENDBRANCH   7  31
ENDBRANCH   2   3
TORSDOF 6
ENDMDL
MODEL       48
REMARK 921   NORMALIZED FREE ENERGY PREDICTED BY IDOCK:   -6.27 KCAL/MOL
REMARK 922        TOTAL FREE ENERGY PREDICTED BY IDOCK:   -9.32 KCAL/MOL
REMARK 923 INTER-LIGAND FREE ENERGY PREDICTED BY IDOCK:   -8.30 KCAL/MOL
REMARK 924 INTRA-LIGAND FREE ENERGY PREDICTED BY IDOCK:   -1.01 KCAL/MOL
REMARK 927      BINDING AFFINITY PREDICTED BY RF-SCORE:    0.00 PKD
ROOT
HETATM    1  C   UNL     1      -5.896  15.187  69.123  1.00  0.00    -0.098 C  
HETATM    2  O   UNL     1      -5.669  16.498  68.610  1.00  0.00    -0.115 OA 
ENDROOT
BRANCH   2   3
HETATM    3  C   UNL     1      -6.668  17.037  67.835  1.00  0.00    -0.148 A  
HETATM    4  C   UNL     1      -7.510  16.203  67.080  1.00  0.00    -0.264 A  
HETATM    5  C   UNL     1      -8.553  16.705  66.303  1.00  0.00    -0.324 A  
HETATM    6  C   UNL     1      -8.710  18.088  66.269  1.00  0.00    -0.194 A  
HETATM    7  C   UNL     1      -6.874  18.435  67.837  1.00  0.00    -0.217 A  
HETATM    8  C   UNL     1      -7.912  18.955  67.036  1.00  0.00    -0.252 A  
BRANCH   5   9
HETATM    9  N   UNL     1      -9.278  15.819  65.496  1.00  0.00    -0.319 NA 
HETATM   10  H   UNL     1      -8.814  15.270  64.771  1.00  0.00     0.000 HD 
BRANCH   9  11
HETATM   11  C   UNL     1     -10.714  15.701  65.720  1.00  0.00    -0.341 C  
BRANCH  11  12
HETATM   12  C   UNL     1     -11.089  14.475  66.537  1.00  0.00    -0.332 A  
HETATM   13  C   UNL     1     -11.260  14.578  67.943  1.00  0.00    -0.310 A  
HETATM   14  H2  UNL     1     -12.803  15.131  70.457  1.00  0.00     0.000 HD 
HETATM   15  C   UNL     1     -11.697  13.430  68.713  1.00  0.00    -0.377 A  
HETATM   16  H1  UNL     1     -12.412  14.434  71.892  1.00  0.00     0.000 HD 
HETATM   17  C   UNL     1     -10.975  15.892  68.638  1.00  0.00    -0.320 C  
HETATM   18  C   UNL     1     -11.834  12.194  68.066  1.00  0.00    -0.285 A  
HETATM   19  N   UNL     1     -12.157  11.057  68.689  1.00  0.00    -0.555 NA 
HETATM   20  C   UNL     1     -11.646  12.119  66.698  1.00  0.00    -0.416 A  
HETATM   21  C   UNL     1     -11.306  13.233  65.933  1.00  0.00    -0.333 A  
HETATM   22  C   UNL     1     -12.384  11.116  69.996  1.00  0.00    -0.279 A  
HETATM   23  N   UNL     1     -12.390  12.230  70.716  1.00  0.00    -0.356 NA 
HETATM   24  N   UNL     1     -12.676   9.937  70.648  1.00  0.00    -0.526 NA 
HETATM   25  C   UNL     1     -12.053  13.361  70.080  1.00  0.00    -0.344 A  
HETATM   26  H2  UNL     1     -12.716   9.050  70.145  1.00  0.00     0.000 HD 
HETATM   27  H1  UNL     1     -12.849   9.981  71.652  1.00  0.00     0.000 HD 
HETATM   28  N   UNL     1     -12.155  14.484  70.906  1.00  0.00    -0.317 NA 
ENDBRANCH  11  12
ENDBRANCH   9  11
ENDBRANCH   5   9
BRANCH   8  29
HETATM   29  O   UNL     1      -8.296  20.261  66.853  1.00  0.00    -0.313 OA 
HETATM   30  C   UNL     1      -9.575  20.691  67.288  1.00  0.00    -0.417 C  
ENDBRANCH   8  29
BRANCH   7  31
HETATM   31  O   UNL     1      -6.141  19.355  68.537  1.00  0.00    -0.222 OA 
HETATM   32  C   UNL     1      -6.520  19.741  69.846  1.00  0.00    -0.327 C  
ENDBRANCH   7  31
ENDBRANCH   2   3
TORSDOF 6
ENDMDL
MODEL       49
REMARK 921   NORMALIZED FREE ENERGY PREDICTED BY IDOCK:   -6.26 KCAL/MOL
REMARK 922        TOTAL FREE ENERGY PREDICTED BY IDOCK:   -9.31 KCAL/MOL
REMARK 923 INTER-LIGAND FREE ENERGY PREDICTED BY IDOCK:   -8.39 KCAL/MOL
REMARK 924 INTRA-LIGAND FREE ENERGY PREDICTED BY IDOCK:   -0.93 KCAL/MOL
REMARK 927      BINDING AFFINITY PREDICTED BY RF-SCORE:    0.00 PKD
ROOT
HETATM    1  C   UNL     1      -6.211  14.957  68.123  1.00  0.00    -0.138 C  
HETATM    2  O   UNL     1      -6.943  16.140  68.433  1.00  0.00    -0.123 OA 
ENDROOT
BRANCH   2   3
HETATM    3  C   UNL     1      -8.044  16.403  67.654  1.00  0.00    -0.156 A  
HETATM    4  C   UNL     1      -8.512  15.446  66.737  1.00  0.00    -0.307 A  
HETATM    5  C   UNL     1      -9.640  15.660  65.948  1.00  0.00    -0.350 A  
HETATM    6  C   UNL     1     -10.277  16.892  66.072  1.00  0.00    -0.350 A  
HETATM    7  C   UNL     1      -8.734  17.626  67.812  1.00  0.00    -0.232 A  
HETATM    8  C   UNL     1      -9.864  17.862  67.002  1.00  0.00    -0.314 A  
BRANCH   5   9
HETATM    9  N   UNL     1      -9.978  14.702  64.983  1.00  0.00    -0.474 NA 
HETATM   10  H   UNL     1      -9.337  14.475  64.223  1.00  0.00     0.000 HD 
BRANCH   9  11
HETATM   11  C   UNL     1     -11.272  14.038  65.094  1.00  0.00    -0.329 C  
BRANCH  11  12
HETATM   12  C   UNL     1     -11.462  13.327  66.424  1.00  0.00    -0.364 A  
HETATM   13  C   UNL     1     -11.072  11.970  66.570  1.00  0.00    -0.362 A  
HETATM   14  H2  UNL     1      -9.135   9.746  67.127  1.00  0.00     0.000 HD 
HETATM   15  C   UNL     1     -11.176  11.313  67.858  1.00  0.00    -0.353 A  
HETATM   16  H1  UNL     1      -9.624   8.282  67.688  1.00  0.00     0.000 HD 
HETATM   17  C   UNL     1     -10.554  11.205  65.371  1.00  0.00    -0.291 C  
HETATM   18  C   UNL     1     -11.774  12.003  68.923  1.00  0.00    -0.326 A  
HETATM   19  N   UNL     1     -11.989  11.472  70.130  1.00  0.00    -0.350 NA 
HETATM   20  C   UNL     1     -12.159  13.319  68.748  1.00  0.00    -0.254 A  
HETATM   21  C   UNL     1     -11.988  13.988  67.537  1.00  0.00    -0.430 A  
HETATM   22  C   UNL     1     -11.587  10.223  70.331  1.00  0.00    -0.328 A  
HETATM   23  N   UNL     1     -10.919   9.488  69.451  1.00  0.00    -0.208 NA 
HETATM   24  N   UNL     1     -11.847   9.658  71.562  1.00  0.00    -0.390 NA 
HETATM   25  C   UNL     1     -10.721  10.029  68.241  1.00  0.00    -0.240 A  
HETATM   26  H2  UNL     1     -12.330  10.181  72.293  1.00  0.00     0.000 HD 
HETATM   27  H1  UNL     1     -11.539   8.699  71.717  1.00  0.00     0.000 HD 
HETATM   28  N   UNL     1      -9.952   9.207  67.412  1.00  0.00    -0.191 NA 
ENDBRANCH  11  12
ENDBRANCH   9  11
ENDBRANCH   5   9
BRANCH   8  29
HETATM   29  O   UNL     1     -10.682  18.965  66.952  1.00  0.00    -0.421 OA 
HETATM   30  C   UNL     1     -10.500  19.936  65.935  1.00  0.00    -0.461 C  
ENDBRANCH   8  29
BRANCH   7  31
HETATM   31  O   UNL     1      -8.398  18.633  68.676  1.00  0.00    -0.329 OA 
HETATM   32  C   UNL     1      -7.397  19.577  68.336  1.00  0.00    -0.316 C  
ENDBRANCH   7  31
ENDBRANCH   2   3
TORSDOF 6
ENDMDL
MODEL       50
REMARK 921   NORMALIZED FREE ENERGY PREDICTED BY IDOCK:   -6.26 KCAL/MOL
REMARK 922        TOTAL FREE ENERGY PREDICTED BY IDOCK:   -9.31 KCAL/MOL
REMARK 923 INTER-LIGAND FREE ENERGY PREDICTED BY IDOCK:   -8.34 KCAL/MOL
REMARK 924 INTRA-LIGAND FREE ENERGY PREDICTED BY IDOCK:   -0.97 KCAL/MOL
REMARK 927      BINDING AFFINITY PREDICTED BY RF-SCORE:    0.00 PKD
ROOT
HETATM    1  C   UNL     1      -7.339  18.110  66.035  1.00  0.00    -0.255 C  
HETATM    2  O   UNL     1      -8.739  18.351  65.910  1.00  0.00    -0.497 OA 
ENDROOT
BRANCH   2   3
HETATM    3  C   UNL     1      -9.576  17.427  66.486  1.00  0.00    -0.280 A  
HETATM    4  C   UNL     1     -10.135  16.394  65.712  1.00  0.00    -0.352 A  
HETATM    5  C   UNL     1     -10.966  15.419  66.261  1.00  0.00    -0.278 A  
HETATM    6  C   UNL     1     -11.262  15.527  67.617  1.00  0.00    -0.291 A  
HETATM    7  C   UNL     1      -9.838  17.491  67.873  1.00  0.00    -0.293 A  
HETATM    8  C   UNL     1     -10.697  16.523  68.433  1.00  0.00    -0.339 A  
BRANCH   5   9
HETATM    9  N   UNL     1     -11.568  14.489  65.404  1.00  0.00    -0.349 NA 
HETATM   10  H   UNL     1     -11.508  14.594  64.391  1.00  0.00     0.000 HD 
BRANCH   9  11
HETATM   11  C   UNL     1     -12.283  13.365  65.999  1.00  0.00    -0.437 C  
BRANCH  11  12
HETATM   12  C   UNL     1     -11.444  12.100  66.072  1.00  0.00    -0.427 A  
HETATM   13  C   UNL     1     -11.272  11.428  67.311  1.00  0.00    -0.370 A  
HETATM   14  H2  UNL     1     -12.032   9.505  69.486  1.00  0.00     0.000 HD 
HETATM   15  C   UNL     1     -10.541  10.177  67.369  1.00  0.00    -0.329 A  
HETATM   16  H1  UNL     1     -10.915   8.817  70.473  1.00  0.00     0.000 HD 
HETATM   17  C   UNL     1     -11.846  12.027  68.576  1.00  0.00    -0.369 C  
HETATM   18  C   UNL     1      -9.912   9.706  66.207  1.00  0.00    -0.264 A  
HETATM   19  N   UNL     1      -9.153   8.608  66.163  1.00  0.00    -0.187 NA 
HETATM   20  C   UNL     1     -10.084  10.389  65.018  1.00  0.00    -0.379 A  
HETATM   21  C   UNL     1     -10.853  11.548  64.932  1.00  0.00    -0.345 A  
HETATM   22  C   UNL     1      -9.010   7.913  67.285  1.00  0.00    -0.127 A  
HETATM   23  N   UNL     1      -9.626   8.183  68.429  1.00  0.00    -0.146 NA 
HETATM   24  N   UNL     1      -8.192   6.803  67.251  1.00  0.00    -0.120 NA 
HETATM   25  C   UNL     1     -10.375   9.294  68.462  1.00  0.00    -0.209 A  
HETATM   26  H2  UNL     1      -7.714   6.525  66.394  1.00  0.00     0.000 HD 
HETATM   27  H1  UNL     1      -8.082   6.270  68.113  1.00  0.00     0.000 HD 
HETATM   28  N   UNL     1     -11.034   9.453  69.685  1.00  0.00    -0.227 NA 
ENDBRANCH  11  12
ENDBRANCH   9  11
ENDBRANCH   5   9
BRANCH   8  29
HETATM   29  O   UNL     1     -11.118  16.384  69.734  1.00  0.00    -0.338 OA 
HETATM   30  C   UNL     1     -12.161  15.476  70.048  1.00  0.00    -0.368 C  
ENDBRANCH   8  29
BRANCH   7  31
HETATM   31  O   UNL     1      -9.348  18.429  68.741  1.00  0.00    -0.326 OA 
HETATM   32  C   UNL     1      -9.997  19.678  68.901  1.00  0.00    -0.438 C  
ENDBRANCH   7  31
ENDBRANCH   2   3
TORSDOF 6
ENDMDL
MODEL       51
REMARK 921   NORMALIZED FREE ENERGY PREDICTED BY IDOCK:   -6.26 KCAL/MOL
REMARK 922        TOTAL FREE ENERGY PREDICTED BY IDOCK:   -9.31 KCAL/MOL
REMARK 923 INTER-LIGAND FREE ENERGY PREDICTED BY IDOCK:   -8.53 KCAL/MOL
REMARK 924 INTRA-LIGAND FREE ENERGY PREDICTED BY IDOCK:   -0.77 KCAL/MOL
REMARK 927      BINDING AFFINITY PREDICTED BY RF-SCORE:    0.00 PKD
ROOT
HETATM    1  C   UNL     1     -10.995   7.384  73.207  1.00  0.00    -0.318 C  
HETATM    2  O   UNL     1     -10.317   6.446  72.375  1.00  0.00    -0.186 OA 
ENDROOT
BRANCH   2   3
HETATM    3  C   UNL     1     -10.165   6.793  71.054  1.00  0.00    -0.197 A  
HETATM    4  C   UNL     1     -10.183   8.145  70.667  1.00  0.00    -0.211 A  
HETATM    5  C   UNL     1     -10.005   8.542  69.343  1.00  0.00    -0.194 A  
HETATM    6  C   UNL     1      -9.847   7.536  68.394  1.00  0.00    -0.173 A  
HETATM    7  C   UNL     1      -9.946   5.784  70.089  1.00  0.00    -0.198 A  
HETATM    8  C   UNL     1      -9.788   6.175  68.743  1.00  0.00    -0.136 A  
BRANCH   5   9
HETATM    9  N   UNL     1     -10.143   9.899  69.024  1.00  0.00    -0.179 NA 
HETATM   10  H   UNL     1      -9.330  10.515  68.989  1.00  0.00     0.000 HD 
BRANCH   9  11
HETATM   11  C   UNL     1     -11.481  10.408  68.743  1.00  0.00    -0.175 C  
BRANCH  11  12
HETATM   12  C   UNL     1     -11.978  11.383  69.797  1.00  0.00    -0.422 A  
HETATM   13  C   UNL     1     -11.816  12.781  69.611  1.00  0.00    -0.384 A  
HETATM   14  H2  UNL     1     -12.595  15.493  68.590  1.00  0.00     0.000 HD 
HETATM   15  C   UNL     1     -12.362  13.716  70.576  1.00  0.00    -0.425 A  
HETATM   16  H1  UNL     1     -12.104  16.877  69.325  1.00  0.00     0.000 HD 
HETATM   17  C   UNL     1     -11.061  13.294  68.405  1.00  0.00    -0.299 C  
HETATM   18  C   UNL     1     -12.948  13.214  71.747  1.00  0.00    -0.338 A  
HETATM   19  N   UNL     1     -13.415  13.982  72.736  1.00  0.00    -0.663 NA 
HETATM   20  C   UNL     1     -13.079  11.848  71.910  1.00  0.00    -0.474 A  
HETATM   21  C   UNL     1     -12.632  10.940  70.951  1.00  0.00    -0.494 A  
HETATM   22  C   UNL     1     -13.337  15.298  72.581  1.00  0.00    -0.478 A  
HETATM   23  N   UNL     1     -12.902  15.910  71.486  1.00  0.00    -0.434 NA 
HETATM   24  N   UNL     1     -13.779  16.092  73.618  1.00  0.00    -0.823 NA 
HETATM   25  C   UNL     1     -12.426  15.127  70.507  1.00  0.00    -0.379 A  
HETATM   26  H2  UNL     1     -14.154  15.683  74.474  1.00  0.00     0.000 HD 
HETATM   27  H1  UNL     1     -13.720  17.103  73.499  1.00  0.00     0.000 HD 
HETATM   28  N   UNL     1     -12.058  15.860  69.375  1.00  0.00    -0.268 NA 
ENDBRANCH  11  12
ENDBRANCH   9  11
ENDBRANCH   5   9
BRANCH   8  29
HETATM   29  O   UNL     1      -9.586   5.394  67.630  1.00  0.00    -0.118 OA 
HETATM   30  C   UNL     1     -10.543   5.390  66.584  1.00  0.00    -0.294 C  
ENDBRANCH   8  29
BRANCH   7  31
HETATM   31  O   UNL     1      -9.889   4.438  70.331  1.00  0.00    -0.202 OA 
HETATM   32  C   UNL     1      -8.660   3.809  70.646  1.00  0.00    -0.071 C  
ENDBRANCH   7  31
ENDBRANCH   2   3
TORSDOF 6
ENDMDL
MODEL       52
REMARK 921   NORMALIZED FREE ENERGY PREDICTED BY IDOCK:   -6.25 KCAL/MOL
REMARK 922        TOTAL FREE ENERGY PREDICTED BY IDOCK:   -9.30 KCAL/MOL
REMARK 923 INTER-LIGAND FREE ENERGY PREDICTED BY IDOCK:   -8.63 KCAL/MOL
REMARK 924 INTRA-LIGAND FREE ENERGY PREDICTED BY IDOCK:   -0.66 KCAL/MOL
REMARK 927      BINDING AFFINITY PREDICTED BY RF-SCORE:    0.00 PKD
ROOT
HETATM    1  C   UNL     1     -11.450  12.372  63.560  1.00  0.00    -0.483 C  
HETATM    2  O   UNL     1     -10.447  12.690  64.523  1.00  0.00    -0.317 OA 
ENDROOT
BRANCH   2   3
HETATM    3  C   UNL     1     -10.883  12.967  65.796  1.00  0.00    -0.272 A  
HETATM    4  C   UNL     1     -11.301  11.928  66.647  1.00  0.00    -0.400 A  
HETATM    5  C   UNL     1     -11.724  12.163  67.954  1.00  0.00    -0.336 A  
HETATM    6  C   UNL     1     -11.758  13.486  68.384  1.00  0.00    -0.393 A  
HETATM    7  C   UNL     1     -10.868  14.301  66.264  1.00  0.00    -0.310 A  
HETATM    8  C   UNL     1     -11.316  14.550  67.577  1.00  0.00    -0.340 A  
BRANCH   5   9
HETATM    9  N   UNL     1     -12.226  11.088  68.701  1.00  0.00    -0.771 NA 
HETATM   10  H   UNL     1     -12.702  10.310  68.245  1.00  0.00     0.000 HD 
BRANCH   9  11
HETATM   11  C   UNL     1     -12.049  11.113  70.149  1.00  0.00    -0.362 C  
BRANCH  11  12
HETATM   12  C   UNL     1     -12.051   9.727  70.771  1.00  0.00    -0.364 A  
HETATM   13  C   UNL     1     -10.835   9.009  70.920  1.00  0.00    -0.323 A  
HETATM   14  H2  UNL     1      -8.299   8.224  72.319  1.00  0.00     0.000 HD 
HETATM   15  C   UNL     1     -10.823   7.722  71.586  1.00  0.00    -0.265 A  
HETATM   16  H1  UNL     1      -7.589   6.762  72.084  1.00  0.00     0.000 HD 
HETATM   17  C   UNL     1      -9.550   9.589  70.370  1.00  0.00    -0.326 C  
HETATM   18  C   UNL     1     -12.042   7.149  71.975  1.00  0.00    -0.292 A  
HETATM   19  N   UNL     1     -12.156   5.938  72.528  1.00  0.00    -0.161 NA 
HETATM   20  C   UNL     1     -13.213   7.864  71.804  1.00  0.00    -0.360 A  
HETATM   21  C   UNL     1     -13.229   9.138  71.239  1.00  0.00    -0.296 A  
HETATM   22  C   UNL     1     -11.039   5.253  72.740  1.00  0.00    -0.286 A  
HETATM   23  N   UNL     1      -9.813   5.709  72.517  1.00  0.00    -0.162 NA 
HETATM   24  N   UNL     1     -11.157   3.985  73.271  1.00  0.00    -0.219 NA 
HETATM   25  C   UNL     1      -9.715   6.921  71.951  1.00  0.00    -0.161 A  
HETATM   26  H2  UNL     1     -12.070   3.588  73.494  1.00  0.00     0.000 HD 
HETATM   27  H1  UNL     1     -10.300   3.459  73.434  1.00  0.00     0.000 HD 
HETATM   28  N   UNL     1      -8.388   7.339  71.821  1.00  0.00    -0.104 NA 
ENDBRANCH  11  12
ENDBRANCH   9  11
ENDBRANCH   5   9
BRANCH   8  29
HETATM   29  O   UNL     1     -11.415  15.745  68.249  1.00  0.00    -0.361 OA 
HETATM   30  C   UNL     1     -11.876  15.768  69.589  1.00  0.00    -0.340 C  
ENDBRANCH   8  29
BRANCH   7  31
HETATM   31  O   UNL     1     -10.471  15.399  65.549  1.00  0.00    -0.322 OA 
HETATM   32  C   UNL     1     -11.379  16.076  64.698  1.00  0.00    -0.306 C  
ENDBRANCH   7  31
ENDBRANCH   2   3
TORSDOF 6
ENDMDL
MODEL       53
REMARK 921   NORMALIZED FREE ENERGY PREDICTED BY IDOCK:   -6.24 KCAL/MOL
REMARK 922        TOTAL FREE ENERGY PREDICTED BY IDOCK:   -9.28 KCAL/MOL
REMARK 923 INTER-LIGAND FREE ENERGY PREDICTED BY IDOCK:   -8.53 KCAL/MOL
REMARK 924 INTRA-LIGAND FREE ENERGY PREDICTED BY IDOCK:   -0.75 KCAL/MOL
REMARK 927      BINDING AFFINITY PREDICTED BY RF-SCORE:    0.00 PKD
ROOT
HETATM    1  C   UNL     1     -11.924  15.497  69.901  1.00  0.00    -0.362 C  
HETATM    2  O   UNL     1     -11.774  15.707  68.499  1.00  0.00    -0.371 OA 
ENDROOT
BRANCH   2   3
HETATM    3  C   UNL     1     -11.593  14.586  67.725  1.00  0.00    -0.365 A  
HETATM    4  C   UNL     1     -11.925  13.315  68.226  1.00  0.00    -0.338 A  
HETATM    5  C   UNL     1     -11.784  12.155  67.465  1.00  0.00    -0.315 A  
HETATM    6  C   UNL     1     -11.257  12.296  66.185  1.00  0.00    -0.372 A  
HETATM    7  C   UNL     1     -11.114  14.721  66.402  1.00  0.00    -0.340 A  
HETATM    8  C   UNL     1     -10.946  13.551  65.633  1.00  0.00    -0.289 A  
BRANCH   5   9
HETATM    9  N   UNL     1     -12.033  10.918  68.073  1.00  0.00    -0.777 NA 
HETATM   10  H   UNL     1     -12.135  10.070  67.514  1.00  0.00     0.000 HD 
BRANCH   9  11
HETATM   11  C   UNL     1     -12.144  10.874  69.527  1.00  0.00    -0.309 C  
BRANCH  11  12
HETATM   12  C   UNL     1     -10.968  10.177  70.191  1.00  0.00    -0.376 A  
HETATM   13  C   UNL     1     -11.170   9.381  71.349  1.00  0.00    -0.452 A  
HETATM   14  H2  UNL     1     -11.839   6.855  72.825  1.00  0.00     0.000 HD 
HETATM   15  C   UNL     1     -10.065   8.650  71.936  1.00  0.00    -0.398 A  
HETATM   16  H1  UNL     1     -11.273   6.551  74.336  1.00  0.00     0.000 HD 
HETATM   17  C   UNL     1     -12.545   9.305  71.976  1.00  0.00    -0.465 C  
HETATM   18  C   UNL     1      -8.777   8.834  71.412  1.00  0.00    -0.214 A  
HETATM   19  N   UNL     1      -7.677   8.271  71.920  1.00  0.00    -0.106 NA 
HETATM   20  C   UNL     1      -8.607   9.627  70.293  1.00  0.00    -0.234 A  
HETATM   21  C   UNL     1      -9.675  10.270  69.669  1.00  0.00    -0.216 A  
HETATM   22  C   UNL     1      -7.825   7.471  72.969  1.00  0.00    -0.101 A  
HETATM   23  N   UNL     1      -8.989   7.127  73.504  1.00  0.00    -0.146 NA 
HETATM   24  N   UNL     1      -6.686   6.922  73.521  1.00  0.00    -0.070 NA 
HETATM   25  C   UNL     1     -10.083   7.708  72.992  1.00  0.00    -0.304 A  
HETATM   26  H2  UNL     1      -5.763   7.124  73.136  1.00  0.00     0.000 HD 
HETATM   27  H1  UNL     1      -6.799   6.308  74.326  1.00  0.00     0.000 HD 
HETATM   28  N   UNL     1     -11.260   7.230  73.575  1.00  0.00    -0.109 NA 
ENDBRANCH  11  12
ENDBRANCH   9  11
ENDBRANCH   5   9
BRANCH   8  29
HETATM   29  O   UNL     1     -10.483  13.418  64.346  1.00  0.00    -0.426 OA 
HETATM   30  C   UNL     1     -10.783  12.248  63.604  1.00  0.00    -0.467 C  
ENDBRANCH   8  29
BRANCH   7  31
HETATM   31  O   UNL     1     -10.771  15.896  65.787  1.00  0.00    -0.331 OA 
HETATM   32  C   UNL     1      -9.506  16.491  66.015  1.00  0.00    -0.282 C  
ENDBRANCH   7  31
ENDBRANCH   2   3
TORSDOF 6
ENDMDL
MODEL       54
REMARK 921   NORMALIZED FREE ENERGY PREDICTED BY IDOCK:   -6.24 KCAL/MOL
REMARK 922        TOTAL FREE ENERGY PREDICTED BY IDOCK:   -9.28 KCAL/MOL
REMARK 923 INTER-LIGAND FREE ENERGY PREDICTED BY IDOCK:   -8.37 KCAL/MOL
REMARK 924 INTRA-LIGAND FREE ENERGY PREDICTED BY IDOCK:   -0.91 KCAL/MOL
REMARK 927      BINDING AFFINITY PREDICTED BY RF-SCORE:    0.00 PKD
ROOT
HETATM    1  C   UNL     1      -7.444  17.609  66.255  1.00  0.00    -0.305 C  
HETATM    2  O   UNL     1      -8.687  16.997  65.918  1.00  0.00    -0.524 OA 
ENDROOT
BRANCH   2   3
HETATM    3  C   UNL     1      -9.233  16.156  66.858  1.00  0.00    -0.225 A  
HETATM    4  C   UNL     1      -8.700  14.870  67.057  1.00  0.00    -0.263 A  
HETATM    5  C   UNL     1      -9.205  13.996  68.018  1.00  0.00    -0.201 A  
HETATM    6  C   UNL     1     -10.300  14.431  68.759  1.00  0.00    -0.241 A  
HETATM    7  C   UNL     1     -10.308  16.607  67.657  1.00  0.00    -0.305 A  
HETATM    8  C   UNL     1     -10.841  15.721  68.616  1.00  0.00    -0.278 A  
BRANCH   5   9
HETATM    9  N   UNL     1      -8.689  12.695  68.081  1.00  0.00    -0.186 NA 
HETATM   10  H   UNL     1      -7.689  12.533  68.201  1.00  0.00     0.000 HD 
BRANCH   9  11
HETATM   11  C   UNL     1      -9.621  11.578  67.970  1.00  0.00    -0.180 C  
BRANCH  11  12
HETATM   12  C   UNL     1      -9.611  10.674  69.192  1.00  0.00    -0.193 A  
HETATM   13  C   UNL     1     -10.816  10.407  69.893  1.00  0.00    -0.353 A  
HETATM   14  H2  UNL     1     -13.380   8.940  70.427  1.00  0.00     0.000 HD 
HETATM   15  C   UNL     1     -10.824   9.481  71.008  1.00  0.00    -0.423 A  
HETATM   16  H1  UNL     1     -14.052   8.876  71.923  1.00  0.00     0.000 HD 
HETATM   17  C   UNL     1     -12.095  11.102  69.477  1.00  0.00    -0.396 C  
HETATM   18  C   UNL     1      -9.607   8.946  71.452  1.00  0.00    -0.289 A  
HETATM   19  N   UNL     1      -9.487   8.144  72.514  1.00  0.00    -0.239 NA 
HETATM   20  C   UNL     1      -8.445   9.235  70.760  1.00  0.00    -0.244 A  
HETATM   21  C   UNL     1      -8.437  10.059  69.635  1.00  0.00    -0.193 A  
HETATM   22  C   UNL     1     -10.596   7.820  73.167  1.00  0.00    -0.352 A  
HETATM   23  N   UNL     1     -11.823   8.168  72.801  1.00  0.00    -0.337 NA 
HETATM   24  N   UNL     1     -10.470   7.027  74.288  1.00  0.00    -0.528 NA 
HETATM   25  C   UNL     1     -11.927   8.983  71.741  1.00  0.00    -0.368 A  
HETATM   26  H2  UNL     1      -9.557   6.700  74.605  1.00  0.00     0.000 HD 
HETATM   27  H1  UNL     1     -11.321   6.778  74.790  1.00  0.00     0.000 HD 
HETATM   28  N   UNL     1     -13.258   9.235  71.395  1.00  0.00    -0.343 NA 
ENDBRANCH  11  12
ENDBRANCH   9  11
ENDBRANCH   5   9
BRANCH   8  29
HETATM   29  O   UNL     1     -11.884  15.913  69.489  1.00  0.00    -0.345 OA 
HETATM   30  C   UNL     1     -12.307  14.853  70.331  1.00  0.00    -0.345 C  
ENDBRANCH   8  29
BRANCH   7  31
HETATM   31  O   UNL     1     -10.908  17.835  67.579  1.00  0.00    -0.344 OA 
HETATM   32  C   UNL     1     -10.324  18.968  68.196  1.00  0.00    -0.368 C  
ENDBRANCH   7  31
ENDBRANCH   2   3
TORSDOF 6
ENDMDL
MODEL       55
REMARK 921   NORMALIZED FREE ENERGY PREDICTED BY IDOCK:   -6.23 KCAL/MOL
REMARK 922        TOTAL FREE ENERGY PREDICTED BY IDOCK:   -9.27 KCAL/MOL
REMARK 923 INTER-LIGAND FREE ENERGY PREDICTED BY IDOCK:   -8.68 KCAL/MOL
REMARK 924 INTRA-LIGAND FREE ENERGY PREDICTED BY IDOCK:   -0.59 KCAL/MOL
REMARK 927      BINDING AFFINITY PREDICTED BY RF-SCORE:    0.00 PKD
ROOT
HETATM    1  C   UNL     1      -7.317  17.465  66.225  1.00  0.00    -0.312 C  
HETATM    2  O   UNL     1      -8.672  17.310  65.809  1.00  0.00    -0.531 OA 
ENDROOT
BRANCH   2   3
HETATM    3  C   UNL     1      -9.446  16.444  66.542  1.00  0.00    -0.272 A  
HETATM    4  C   UNL     1      -9.296  15.054  66.390  1.00  0.00    -0.334 A  
HETATM    5  C   UNL     1     -10.040  14.140  67.134  1.00  0.00    -0.258 A  
HETATM    6  C   UNL     1     -10.981  14.658  68.019  1.00  0.00    -0.274 A  
HETATM    7  C   UNL     1     -10.364  16.956  67.487  1.00  0.00    -0.318 A  
HETATM    8  C   UNL     1     -11.138  16.039  68.227  1.00  0.00    -0.351 A  
BRANCH   5   9
HETATM    9  N   UNL     1      -9.909  12.775  66.847  1.00  0.00    -0.231 NA 
HETATM   10  H   UNL     1      -8.997  12.369  66.634  1.00  0.00     0.000 HD 
BRANCH   9  11
HETATM   11  C   UNL     1     -11.111  11.949  66.861  1.00  0.00    -0.305 C  
BRANCH  11  12
HETATM   12  C   UNL     1     -11.301  11.199  68.169  1.00  0.00    -0.377 A  
HETATM   13  C   UNL     1     -10.772   9.891  68.327  1.00  0.00    -0.276 A  
HETATM   14  H2  UNL     1      -8.636   7.887  68.983  1.00  0.00     0.000 HD 
HETATM   15  C   UNL     1     -10.881   9.206  69.600  1.00  0.00    -0.210 A  
HETATM   16  H1  UNL     1      -8.992   6.369  69.498  1.00  0.00     0.000 HD 
HETATM   17  C   UNL     1     -10.100   9.209  67.156  1.00  0.00    -0.301 C  
HETATM   18  C   UNL     1     -11.616   9.808  70.631  1.00  0.00    -0.313 A  
HETATM   19  N   UNL     1     -11.844   9.236  71.817  1.00  0.00    -0.374 NA 
HETATM   20  C   UNL     1     -12.134  11.076  70.445  1.00  0.00    -0.463 A  
HETATM   21  C   UNL     1     -11.966  11.779  69.254  1.00  0.00    -0.354 A  
HETATM   22  C   UNL     1     -11.318   8.036  72.032  1.00  0.00    -0.302 A  
HETATM   23  N   UNL     1     -10.520   7.395  71.188  1.00  0.00    -0.209 NA 
HETATM   24  N   UNL     1     -11.588   7.426  73.239  1.00  0.00    -0.572 NA 
HETATM   25  C   UNL     1     -10.309   7.975  69.998  1.00  0.00    -0.218 A  
HETATM   26  H2  UNL     1     -12.170   7.881  73.942  1.00  0.00     0.000 HD 
HETATM   27  H1  UNL     1     -11.185   6.505  73.404  1.00  0.00     0.000 HD 
HETATM   28  N   UNL     1      -9.404   7.257  69.211  1.00  0.00    -0.154 NA 
ENDBRANCH  11  12
ENDBRANCH   9  11
ENDBRANCH   5   9
BRANCH   8  29
HETATM   29  O   UNL     1     -12.100  16.284  69.177  1.00  0.00    -0.143 OA 
HETATM   30  C   UNL     1     -12.129  15.517  70.369  1.00  0.00    -0.392 C  
ENDBRANCH   8  29
BRANCH   7  31
HETATM   31  O   UNL     1     -10.596  18.280  67.745  1.00  0.00    -0.408 OA 
HETATM   32  C   UNL     1      -9.840  18.971  68.724  1.00  0.00    -0.425 C  
ENDBRANCH   7  31
ENDBRANCH   2   3
TORSDOF 6
ENDMDL
MODEL       56
REMARK 921   NORMALIZED FREE ENERGY PREDICTED BY IDOCK:   -6.23 KCAL/MOL
REMARK 922        TOTAL FREE ENERGY PREDICTED BY IDOCK:   -9.27 KCAL/MOL
REMARK 923 INTER-LIGAND FREE ENERGY PREDICTED BY IDOCK:   -8.68 KCAL/MOL
REMARK 924 INTRA-LIGAND FREE ENERGY PREDICTED BY IDOCK:   -0.59 KCAL/MOL
REMARK 927      BINDING AFFINITY PREDICTED BY RF-SCORE:    0.00 PKD
ROOT
HETATM    1  C   UNL     1     -10.130   8.491  68.490  1.00  0.00    -0.194 C  
HETATM    2  O   UNL     1     -10.907   8.709  69.666  1.00  0.00    -0.226 OA 
ENDROOT
BRANCH   2   3
HETATM    3  C   UNL     1     -11.431   9.968  69.832  1.00  0.00    -0.215 A  
HETATM    4  C   UNL     1     -11.290  10.936  68.822  1.00  0.00    -0.357 A  
HETATM    5  C   UNL     1     -11.830  12.216  68.939  1.00  0.00    -0.304 A  
HETATM    6  C   UNL     1     -12.490  12.522  70.125  1.00  0.00    -0.092 A  
HETATM    7  C   UNL     1     -12.154  10.274  71.008  1.00  0.00    -0.386 A  
HETATM    8  C   UNL     1     -12.683  11.573  71.144  1.00  0.00    -0.356 A  
BRANCH   5   9
HETATM    9  N   UNL     1     -11.554  13.155  67.936  1.00  0.00    -0.314 NA 
HETATM   10  H   UNL     1     -12.306  13.673  67.481  1.00  0.00     0.000 HD 
BRANCH   9  11
HETATM   11  C   UNL     1     -10.161  13.373  67.560  1.00  0.00    -0.226 C  
BRANCH  11  12
HETATM   12  C   UNL     1      -9.748  14.834  67.632  1.00  0.00    -0.213 A  
HETATM   13  C   UNL     1     -10.130  15.736  66.605  1.00  0.00    -0.287 A  
HETATM   14  H2  UNL     1     -11.974  17.664  65.230  1.00  0.00     0.000 HD 
HETATM   15  C   UNL     1      -9.808  17.145  66.712  1.00  0.00    -0.288 A  
HETATM   16  H1  UNL     1     -11.418  18.843  64.232  1.00  0.00     0.000 HD 
HETATM   17  C   UNL     1     -10.868  15.219  65.389  1.00  0.00    -0.399 C  
HETATM   18  C   UNL     1      -9.016  17.579  67.785  1.00  0.00    -0.245 A  
HETATM   19  N   UNL     1      -8.597  18.838  67.943  1.00  0.00    -0.290 NA 
HETATM   20  C   UNL     1      -8.645  16.676  68.764  1.00  0.00    -0.261 A  
HETATM   21  C   UNL     1      -9.019  15.334  68.715  1.00  0.00    -0.200 A  
HETATM   22  C   UNL     1      -8.978  19.730  67.037  1.00  0.00    -0.329 A  
HETATM   23  N   UNL     1      -9.806  19.484  66.029  1.00  0.00    -0.404 NA 
HETATM   24  N   UNL     1      -8.512  21.021  67.174  1.00  0.00    -0.523 NA 
HETATM   25  C   UNL     1     -10.209  18.215  65.877  1.00  0.00    -0.234 A  
HETATM   26  H2  UNL     1      -7.896  21.281  67.945  1.00  0.00     0.000 HD 
HETATM   27  H1  UNL     1      -8.803  21.706  66.478  1.00  0.00     0.000 HD 
HETATM   28  N   UNL     1     -11.129  18.073  64.834  1.00  0.00    -0.484 NA 
ENDBRANCH  11  12
ENDBRANCH   9  11
ENDBRANCH   5   9
BRANCH   8  29
HETATM   29  O   UNL     1     -13.396  12.115  72.186  1.00  0.00    -0.522 OA 
HETATM   30  C   UNL     1     -13.774  13.481  72.152  1.00  0.00    -0.559 C  
ENDBRANCH   8  29
BRANCH   7  31
HETATM   31  O   UNL     1     -12.379   9.423  72.057  1.00  0.00    -0.366 OA 
HETATM   32  C   UNL     1     -13.578   8.674  72.139  1.00  0.00    -0.406 C  
ENDBRANCH   7  31
ENDBRANCH   2   3
TORSDOF 6
ENDMDL
MODEL       57
REMARK 921   NORMALIZED FREE ENERGY PREDICTED BY IDOCK:   -6.23 KCAL/MOL
REMARK 922        TOTAL FREE ENERGY PREDICTED BY IDOCK:   -9.27 KCAL/MOL
REMARK 923 INTER-LIGAND FREE ENERGY PREDICTED BY IDOCK:   -8.60 KCAL/MOL
REMARK 924 INTRA-LIGAND FREE ENERGY PREDICTED BY IDOCK:   -0.67 KCAL/MOL
REMARK 927      BINDING AFFINITY PREDICTED BY RF-SCORE:    0.00 PKD
ROOT
HETATM    1  C   UNL     1     -10.965  16.017  69.479  1.00  0.00    -0.326 C  
HETATM    2  O   UNL     1     -11.565  15.809  68.202  1.00  0.00    -0.344 OA 
ENDROOT
BRANCH   2   3
HETATM    3  C   UNL     1     -11.428  14.556  67.656  1.00  0.00    -0.353 A  
HETATM    4  C   UNL     1     -11.879  13.422  68.354  1.00  0.00    -0.401 A  
HETATM    5  C   UNL     1     -11.785  12.136  67.825  1.00  0.00    -0.320 A  
HETATM    6  C   UNL     1     -11.183  12.005  66.576  1.00  0.00    -0.387 A  
HETATM    7  C   UNL     1     -10.872  14.415  66.364  1.00  0.00    -0.314 A  
HETATM    8  C   UNL     1     -10.751  13.116  65.830  1.00  0.00    -0.274 A  
BRANCH   5   9
HETATM    9  N   UNL     1     -12.158  11.050  68.627  1.00  0.00    -0.748 NA 
HETATM   10  H   UNL     1     -12.613  10.231  68.223  1.00  0.00     0.000 HD 
BRANCH   9  11
HETATM   11  C   UNL     1     -11.877  11.120  70.057  1.00  0.00    -0.361 C  
BRANCH  11  12
HETATM   12  C   UNL     1     -11.926   9.763  70.739  1.00  0.00    -0.382 A  
HETATM   13  C   UNL     1     -10.733   9.020  70.938  1.00  0.00    -0.319 A  
HETATM   14  H2  UNL     1      -8.239   8.230  72.409  1.00  0.00     0.000 HD 
HETATM   15  C   UNL     1     -10.765   7.764  71.660  1.00  0.00    -0.257 A  
HETATM   16  H1  UNL     1      -7.566   6.741  72.249  1.00  0.00     0.000 HD 
HETATM   17  C   UNL     1      -9.424   9.541  70.383  1.00  0.00    -0.317 C  
HETATM   18  C   UNL     1     -12.005   7.242  72.055  1.00  0.00    -0.296 A  
HETATM   19  N   UNL     1     -12.159   6.060  72.658  1.00  0.00    -0.087 NA 
HETATM   20  C   UNL     1     -13.153   7.979  71.834  1.00  0.00    -0.336 A  
HETATM   21  C   UNL     1     -13.126   9.227  71.215  1.00  0.00    -0.328 A  
HETATM   22  C   UNL     1     -11.065   5.355  72.917  1.00  0.00    -0.305 A  
HETATM   23  N   UNL     1      -9.824   5.768  72.693  1.00  0.00    -0.164 NA 
HETATM   24  N   UNL     1     -11.225   4.116  73.502  1.00  0.00    -0.272 NA 
HETATM   25  C   UNL     1      -9.684   6.950  72.077  1.00  0.00    -0.152 A  
HETATM   26  H2  UNL     1     -12.151   3.753  73.727  1.00  0.00     0.000 HD 
HETATM   27  H1  UNL     1     -10.384   3.574  73.701  1.00  0.00     0.000 HD 
HETATM   28  N   UNL     1      -8.345   7.327  71.949  1.00  0.00    -0.107 NA 
ENDBRANCH  11  12
ENDBRANCH   9  11
ENDBRANCH   5   9
BRANCH   8  29
HETATM   29  O   UNL     1     -10.233  12.719  64.621  1.00  0.00    -0.321 OA 
HETATM   30  C   UNL     1     -11.095  12.236  63.605  1.00  0.00    -0.469 C  
ENDBRANCH   8  29
BRANCH   7  31
HETATM   31  O   UNL     1     -10.411  15.433  65.572  1.00  0.00    -0.327 OA 
HETATM   32  C   UNL     1     -11.254  16.044  64.613  1.00  0.00    -0.330 C  
ENDBRANCH   7  31
ENDBRANCH   2   3
TORSDOF 6
ENDMDL
MODEL       58
REMARK 921   NORMALIZED FREE ENERGY PREDICTED BY IDOCK:   -6.22 KCAL/MOL
REMARK 922        TOTAL FREE ENERGY PREDICTED BY IDOCK:   -9.26 KCAL/MOL
REMARK 923 INTER-LIGAND FREE ENERGY PREDICTED BY IDOCK:   -8.45 KCAL/MOL
REMARK 924 INTRA-LIGAND FREE ENERGY PREDICTED BY IDOCK:   -0.81 KCAL/MOL
REMARK 927      BINDING AFFINITY PREDICTED BY RF-SCORE:    0.00 PKD
ROOT
HETATM    1  C   UNL     1     -10.905   7.002  67.064  1.00  0.00    -0.343 C  
HETATM    2  O   UNL     1      -9.794   7.557  67.766  1.00  0.00    -0.144 OA 
ENDROOT
BRANCH   2   3
HETATM    3  C   UNL     1     -10.062   8.128  68.986  1.00  0.00    -0.205 A  
HETATM    4  C   UNL     1     -10.623   9.415  69.061  1.00  0.00    -0.233 A  
HETATM    5  C   UNL     1     -10.936  10.021  70.277  1.00  0.00    -0.316 A  
HETATM    6  C   UNL     1     -10.631   9.312  71.436  1.00  0.00    -0.417 A  
HETATM    7  C   UNL     1      -9.811   7.397  70.169  1.00  0.00    -0.180 A  
HETATM    8  C   UNL     1     -10.102   8.010  71.405  1.00  0.00    -0.185 A  
BRANCH   5   9
HETATM    9  N   UNL     1     -11.392  11.345  70.271  1.00  0.00    -0.498 NA 
HETATM   10  H   UNL     1     -11.221  11.963  71.065  1.00  0.00     0.000 HD 
BRANCH   9  11
HETATM   11  C   UNL     1     -12.119  11.819  69.098  1.00  0.00    -0.228 C  
BRANCH  11  12
HETATM   12  C   UNL     1     -11.687  13.206  68.653  1.00  0.00    -0.362 A  
HETATM   13  C   UNL     1     -11.328  13.443  67.300  1.00  0.00    -0.348 A  
HETATM   14  H2  UNL     1     -11.870  14.095  64.421  1.00  0.00     0.000 HD 
HETATM   15  C   UNL     1     -10.995  14.781  66.854  1.00  0.00    -0.328 A  
HETATM   16  H1  UNL     1     -10.737  14.787  63.455  1.00  0.00     0.000 HD 
HETATM   17  C   UNL     1     -11.285  12.288  66.323  1.00  0.00    -0.367 C  
HETATM   18  C   UNL     1     -10.921  15.811  67.803  1.00  0.00    -0.314 A  
HETATM   19  N   UNL     1     -10.552  17.063  67.518  1.00  0.00    -0.331 NA 
HETATM   20  C   UNL     1     -11.261  15.549  69.117  1.00  0.00    -0.300 A  
HETATM   21  C   UNL     1     -11.663  14.284  69.542  1.00  0.00    -0.366 A  
HETATM   22  C   UNL     1     -10.263  17.346  66.254  1.00  0.00    -0.341 A  
HETATM   23  N   UNL     1     -10.387  16.500  65.239  1.00  0.00    -0.628 NA 
HETATM   24  N   UNL     1      -9.840  18.627  65.965  1.00  0.00    -0.523 NA 
HETATM   25  C   UNL     1     -10.747  15.245  65.541  1.00  0.00    -0.371 A  
HETATM   26  H2  UNL     1      -9.754  19.332  66.696  1.00  0.00     0.000 HD 
HETATM   27  H1  UNL     1      -9.618  18.844  64.994  1.00  0.00     0.000 HD 
HETATM   28  N   UNL     1     -10.916  14.453  64.401  1.00  0.00    -0.250 NA 
ENDBRANCH  11  12
ENDBRANCH   9  11
ENDBRANCH   5   9
BRANCH   8  29
HETATM   29  O   UNL     1      -9.932   7.522  72.678  1.00  0.00    -0.178 OA 
HETATM   30  C   UNL     1      -8.863   7.993  73.480  1.00  0.00    -0.268 C  
ENDBRANCH   8  29
BRANCH   7  31
HETATM   31  O   UNL     1      -9.285   6.134  70.237  1.00  0.00    -0.154 OA 
HETATM   32  C   UNL     1     -10.123   4.995  70.166  1.00  0.00    -0.268 C  
ENDBRANCH   7  31
ENDBRANCH   2   3
TORSDOF 6
ENDMDL
MODEL       59
REMARK 921   NORMALIZED FREE ENERGY PREDICTED BY IDOCK:   -6.21 KCAL/MOL
REMARK 922        TOTAL FREE ENERGY PREDICTED BY IDOCK:   -9.24 KCAL/MOL
REMARK 923 INTER-LIGAND FREE ENERGY PREDICTED BY IDOCK:   -8.14 KCAL/MOL
REMARK 924 INTRA-LIGAND FREE ENERGY PREDICTED BY IDOCK:   -1.10 KCAL/MOL
REMARK 927      BINDING AFFINITY PREDICTED BY RF-SCORE:    0.00 PKD
ROOT
HETATM    1  C   UNL     1      -5.882  14.778  68.143  1.00  0.00    -0.138 C  
HETATM    2  O   UNL     1      -6.230  16.149  68.318  1.00  0.00    -0.110 OA 
ENDROOT
BRANCH   2   3
HETATM    3  C   UNL     1      -7.567  16.431  68.459  1.00  0.00    -0.188 A  
HETATM    4  C   UNL     1      -8.441  15.477  69.009  1.00  0.00    -0.229 A  
HETATM    5  C   UNL     1      -9.798  15.731  69.196  1.00  0.00    -0.247 A  
HETATM    6  C   UNL     1     -10.276  16.969  68.776  1.00  0.00    -0.317 A  
HETATM    7  C   UNL     1      -8.054  17.706  68.090  1.00  0.00    -0.252 A  
HETATM    8  C   UNL     1      -9.431  17.964  68.254  1.00  0.00    -0.300 A  
BRANCH   5   9
HETATM    9  N   UNL     1     -10.621  14.692  69.649  1.00  0.00    -0.417 NA 
HETATM   10  H   UNL     1     -10.498  14.294  70.581  1.00  0.00     0.000 HD 
BRANCH   9  11
HETATM   11  C   UNL     1     -11.659  14.193  68.754  1.00  0.00    -0.327 C  
BRANCH  11  12
HETATM   12  C   UNL     1     -11.125  13.232  67.704  1.00  0.00    -0.292 A  
HETATM   13  C   UNL     1     -11.639  13.261  66.381  1.00  0.00    -0.387 A  
HETATM   14  H2  UNL     1     -11.788  14.238  63.548  1.00  0.00     0.000 HD 
HETATM   15  C   UNL     1     -11.076  12.402  65.359  1.00  0.00    -0.344 A  
HETATM   16  H1  UNL     1     -12.357  13.297  62.329  1.00  0.00     0.000 HD 
HETATM   17  C   UNL     1     -12.786  14.188  66.043  1.00  0.00    -0.325 C  
HETATM   18  C   UNL     1     -10.099  11.464  65.725  1.00  0.00    -0.246 A  
HETATM   19  N   UNL     1      -9.566  10.575  64.883  1.00  0.00    -0.250 NA 
HETATM   20  C   UNL     1      -9.628  11.447  67.025  1.00  0.00    -0.192 A  
HETATM   21  C   UNL     1     -10.103  12.324  67.998  1.00  0.00    -0.206 A  
HETATM   22  C   UNL     1      -9.974  10.603  63.620  1.00  0.00    -0.301 A  
HETATM   23  N   UNL     1     -10.812  11.497  63.112  1.00  0.00    -0.252 NA 
HETATM   24  N   UNL     1      -9.457   9.658  62.759  1.00  0.00    -0.560 NA 
HETATM   25  C   UNL     1     -11.348  12.377  63.970  1.00  0.00    -0.399 A  
HETATM   26  H2  UNL     1      -8.784   8.961  63.081  1.00  0.00     0.000 HD 
HETATM   27  H1  UNL     1      -9.770   9.679  61.789  1.00  0.00     0.000 HD 
HETATM   28  N   UNL     1     -12.161  13.315  63.329  1.00  0.00    -0.585 NA 
ENDBRANCH  11  12
ENDBRANCH   9  11
ENDBRANCH   5   9
BRANCH   8  29
HETATM   29  O   UNL     1     -10.142  19.101  67.955  1.00  0.00    -0.354 OA 
HETATM   30  C   UNL     1     -10.657  19.292  66.648  1.00  0.00    -0.438 C  
ENDBRANCH   8  29
BRANCH   7  31
HETATM   31  O   UNL     1      -7.312  18.727  67.561  1.00  0.00    -0.221 OA 
HETATM   32  C   UNL     1      -7.054  18.791  66.170  1.00  0.00    -0.259 C  
ENDBRANCH   7  31
ENDBRANCH   2   3
TORSDOF 6
ENDMDL
MODEL       60
REMARK 921   NORMALIZED FREE ENERGY PREDICTED BY IDOCK:   -6.21 KCAL/MOL
REMARK 922        TOTAL FREE ENERGY PREDICTED BY IDOCK:   -9.24 KCAL/MOL
REMARK 923 INTER-LIGAND FREE ENERGY PREDICTED BY IDOCK:   -8.69 KCAL/MOL
REMARK 924 INTRA-LIGAND FREE ENERGY PREDICTED BY IDOCK:   -0.55 KCAL/MOL
REMARK 927      BINDING AFFINITY PREDICTED BY RF-SCORE:    0.00 PKD
ROOT
HETATM    1  C   UNL     1     -11.026   6.128  68.170  1.00  0.00    -0.307 C  
HETATM    2  O   UNL     1     -10.807   5.707  69.515  1.00  0.00    -0.324 OA 
ENDROOT
BRANCH   2   3
HETATM    3  C   UNL     1     -10.589   6.698  70.441  1.00  0.00    -0.223 A  
HETATM    4  C   UNL     1     -10.705   8.051  70.076  1.00  0.00    -0.244 A  
HETATM    5  C   UNL     1     -10.519   9.087  70.991  1.00  0.00    -0.269 A  
HETATM    6  C   UNL     1     -10.170   8.732  72.291  1.00  0.00    -0.310 A  
HETATM    7  C   UNL     1     -10.291   6.350  71.779  1.00  0.00    -0.203 A  
HETATM    8  C   UNL     1     -10.078   7.392  72.705  1.00  0.00    -0.208 A  
BRANCH   5   9
HETATM    9  N   UNL     1     -10.547  10.408  70.525  1.00  0.00    -0.404 NA 
HETATM   10  H   UNL     1      -9.688  10.953  70.444  1.00  0.00     0.000 HD 
BRANCH   9  11
HETATM   11  C   UNL     1     -11.836  10.983  70.157  1.00  0.00    -0.357 C  
BRANCH  11  12
HETATM   12  C   UNL     1     -11.718  12.095  69.128  1.00  0.00    -0.384 A  
HETATM   13  C   UNL     1     -11.435  11.786  67.771  1.00  0.00    -0.381 A  
HETATM   14  H2  UNL     1     -12.141  11.014  64.958  1.00  0.00     0.000 HD 
HETATM   15  C   UNL     1     -11.403  12.836  66.773  1.00  0.00    -0.362 A  
HETATM   16  H1  UNL     1     -11.196  11.419  63.679  1.00  0.00     0.000 HD 
HETATM   17  C   UNL     1     -11.158  10.353  67.371  1.00  0.00    -0.297 C  
HETATM   18  C   UNL     1     -11.540  14.168  67.188  1.00  0.00    -0.377 A  
HETATM   19  N   UNL     1     -11.452  15.219  66.366  1.00  0.00    -0.170 NA 
HETATM   20  C   UNL     1     -11.799  14.442  68.518  1.00  0.00    -0.369 A  
HETATM   21  C   UNL     1     -11.914  13.435  69.474  1.00  0.00    -0.377 A  
HETATM   22  C   UNL     1     -11.246  14.975  65.078  1.00  0.00    -0.409 A  
HETATM   23  N   UNL     1     -11.199  13.767  64.531  1.00  0.00    -0.374 NA 
HETATM   24  N   UNL     1     -11.113  16.059  64.235  1.00  0.00    -1.044 NA 
HETATM   25  C   UNL     1     -11.277  12.723  65.368  1.00  0.00    -0.292 A  
HETATM   26  H2  UNL     1     -11.170  17.014  64.589  1.00  0.00     0.000 HD 
HETATM   27  H1  UNL     1     -10.954  15.873  63.246  1.00  0.00     0.000 HD 
HETATM   28  N   UNL     1     -11.287  11.501  64.691  1.00  0.00    -0.214 NA 
ENDBRANCH  11  12
ENDBRANCH   9  11
ENDBRANCH   5   9
BRANCH   8  29
HETATM   29  O   UNL     1      -9.760   7.315  74.040  1.00  0.00    -0.280 OA 
HETATM   30  C   UNL     1      -8.411   7.443  74.455  1.00  0.00    -0.207 C  
ENDBRANCH   8  29
BRANCH   7  31
HETATM   31  O   UNL     1     -10.165   5.078  72.269  1.00  0.00    -0.188 OA 
HETATM   32  C   UNL     1      -8.925   4.397  72.210  1.00  0.00    -0.120 C  
ENDBRANCH   7  31
ENDBRANCH   2   3
TORSDOF 6
ENDMDL
MODEL       61
REMARK 921   NORMALIZED FREE ENERGY PREDICTED BY IDOCK:   -6.21 KCAL/MOL
REMARK 922        TOTAL FREE ENERGY PREDICTED BY IDOCK:   -9.24 KCAL/MOL
REMARK 923 INTER-LIGAND FREE ENERGY PREDICTED BY IDOCK:   -8.43 KCAL/MOL
REMARK 924 INTRA-LIGAND FREE ENERGY PREDICTED BY IDOCK:   -0.80 KCAL/MOL
REMARK 927      BINDING AFFINITY PREDICTED BY RF-SCORE:    0.00 PKD
ROOT
HETATM    1  C   UNL     1     -12.299  15.184  64.270  1.00  0.00    -0.178 C  
HETATM    2  O   UNL     1     -11.187  16.033  64.547  1.00  0.00    -0.521 OA 
ENDROOT
BRANCH   2   3
HETATM    3  C   UNL     1     -10.237  15.540  65.408  1.00  0.00    -0.377 A  
HETATM    4  C   UNL     1     -10.146  14.158  65.651  1.00  0.00    -0.350 A  
HETATM    5  C   UNL     1      -9.180  13.613  66.495  1.00  0.00    -0.179 A  
HETATM    6  C   UNL     1      -8.319  14.502  67.132  1.00  0.00    -0.226 A  
HETATM    7  C   UNL     1      -9.319  16.426  66.017  1.00  0.00    -0.300 A  
HETATM    8  C   UNL     1      -8.354  15.886  66.891  1.00  0.00    -0.246 A  
BRANCH   5   9
HETATM    9  N   UNL     1      -9.223  12.240  66.768  1.00  0.00    -0.206 NA 
HETATM   10  H   UNL     1      -8.369  11.717  66.967  1.00  0.00     0.000 HD 
BRANCH   9  11
HETATM   11  C   UNL     1     -10.522  11.576  66.760  1.00  0.00    -0.239 C  
BRANCH  11  12
HETATM   12  C   UNL     1     -10.678  10.562  67.882  1.00  0.00    -0.305 A  
HETATM   13  C   UNL     1     -11.311  10.934  69.097  1.00  0.00    -0.350 A  
HETATM   14  H2  UNL     1     -13.662  11.375  70.910  1.00  0.00     0.000 HD 
HETATM   15  C   UNL     1     -11.534   9.949  70.137  1.00  0.00    -0.309 A  
HETATM   16  H1  UNL     1     -13.527  11.310  72.545  1.00  0.00     0.000 HD 
HETATM   17  C   UNL     1     -11.745  12.368  69.308  1.00  0.00    -0.386 C  
HETATM   18  C   UNL     1     -11.012   8.658  69.969  1.00  0.00    -0.203 A  
HETATM   19  N   UNL     1     -11.093   7.695  70.892  1.00  0.00    -0.258 NA 
HETATM   20  C   UNL     1     -10.386   8.328  68.782  1.00  0.00    -0.223 A  
HETATM   21  C   UNL     1     -10.238   9.243  67.741  1.00  0.00    -0.271 A  
HETATM   22  C   UNL     1     -11.728   7.978  72.022  1.00  0.00    -0.323 A  
HETATM   23  N   UNL     1     -12.356   9.120  72.275  1.00  0.00    -0.342 NA 
HETATM   24  N   UNL     1     -11.775   7.000  72.993  1.00  0.00    -0.502 NA 
HETATM   25  C   UNL     1     -12.257  10.081  71.346  1.00  0.00    -0.416 A  
HETATM   26  H2  UNL     1     -11.338   6.089  72.847  1.00  0.00     0.000 HD 
HETATM   27  H1  UNL     1     -12.262   7.217  73.861  1.00  0.00     0.000 HD 
HETATM   28  N   UNL     1     -13.006  11.214  71.674  1.00  0.00    -0.462 NA 
ENDBRANCH  11  12
ENDBRANCH   9  11
ENDBRANCH   5   9
BRANCH   8  29
HETATM   29  O   UNL     1      -7.377  16.532  67.610  1.00  0.00    -0.128 OA 
HETATM   30  C   UNL     1      -7.636  16.949  68.940  1.00  0.00    -0.234 C  
ENDBRANCH   8  29
BRANCH   7  31
HETATM   31  O   UNL     1      -9.287  17.785  65.855  1.00  0.00    -0.514 OA 
HETATM   32  C   UNL     1     -10.134  18.627  66.616  1.00  0.00    -0.385 C  
ENDBRANCH   7  31
ENDBRANCH   2   3
TORSDOF 6
ENDMDL
MODEL       62
REMARK 921   NORMALIZED FREE ENERGY PREDICTED BY IDOCK:   -6.20 KCAL/MOL
REMARK 922        TOTAL FREE ENERGY PREDICTED BY IDOCK:   -9.23 KCAL/MOL
REMARK 923 INTER-LIGAND FREE ENERGY PREDICTED BY IDOCK:   -8.48 KCAL/MOL
REMARK 924 INTRA-LIGAND FREE ENERGY PREDICTED BY IDOCK:   -0.75 KCAL/MOL
REMARK 927      BINDING AFFINITY PREDICTED BY RF-SCORE:    0.00 PKD
ROOT
HETATM    1  C   UNL     1      -9.396   5.796  66.338  1.00  0.00    -0.156 C  
HETATM    2  O   UNL     1      -9.296   5.430  67.713  1.00  0.00    -0.112 OA 
ENDROOT
BRANCH   2   3
HETATM    3  C   UNL     1      -9.832   6.309  68.623  1.00  0.00    -0.136 A  
HETATM    4  C   UNL     1      -9.942   7.676  68.312  1.00  0.00    -0.198 A  
HETATM    5  C   UNL     1     -10.505   8.596  69.194  1.00  0.00    -0.211 A  
HETATM    6  C   UNL     1     -10.924   8.116  70.432  1.00  0.00    -0.248 A  
HETATM    7  C   UNL     1     -10.314   5.825  69.860  1.00  0.00    -0.262 A  
HETATM    8  C   UNL     1     -10.863   6.752  70.769  1.00  0.00    -0.249 A  
BRANCH   5   9
HETATM    9  N   UNL     1     -10.481   9.955  68.854  1.00  0.00    -0.202 NA 
HETATM   10  H   UNL     1      -9.598  10.461  68.777  1.00  0.00     0.000 HD 
BRANCH   9  11
HETATM   11  C   UNL     1     -11.752  10.628  68.613  1.00  0.00    -0.158 C  
BRANCH  11  12
HETATM   12  C   UNL     1     -12.163  11.546  69.752  1.00  0.00    -0.310 A  
HETATM   13  C   UNL     1     -11.858  12.931  69.700  1.00  0.00    -0.387 A  
HETATM   14  H2  UNL     1     -12.346  15.792  68.935  1.00  0.00     0.000 HD 
HETATM   15  C   UNL     1     -12.320  13.822  70.745  1.00  0.00    -0.451 A  
HETATM   16  H1  UNL     1     -11.728  17.044  69.799  1.00  0.00     0.000 HD 
HETATM   17  C   UNL     1     -11.039  13.475  68.550  1.00  0.00    -0.300 C  
HETATM   18  C   UNL     1     -12.970  13.276  71.862  1.00  0.00    -0.311 A  
HETATM   19  N   UNL     1     -13.371  13.992  72.916  1.00  0.00    -0.648 NA 
HETATM   20  C   UNL     1     -13.241  11.921  71.894  1.00  0.00    -0.467 A  
HETATM   21  C   UNL     1     -12.875  11.066  70.856  1.00  0.00    -0.393 A  
HETATM   22  C   UNL     1     -13.159  15.302  72.886  1.00  0.00    -0.490 A  
HETATM   23  N   UNL     1     -12.650  15.966  71.855  1.00  0.00    -0.452 NA 
HETATM   24  N   UNL     1     -13.534  16.037  73.991  1.00  0.00    -0.764 NA 
HETATM   25  C   UNL     1     -12.241  15.234  70.809  1.00  0.00    -0.360 A  
HETATM   26  H2  UNL     1     -13.959  15.590  74.804  1.00  0.00     0.000 HD 
HETATM   27  H1  UNL     1     -13.371  17.043  73.968  1.00  0.00     0.000 HD 
HETATM   28  N   UNL     1     -11.786  16.027  69.753  1.00  0.00    -0.301 NA 
ENDBRANCH  11  12
ENDBRANCH   9  11
ENDBRANCH   5   9
BRANCH   8  29
HETATM   29  O   UNL     1     -11.375   6.538  72.026  1.00  0.00    -0.257 OA 
HETATM   30  C   UNL     1     -10.697   7.047  73.163  1.00  0.00    -0.326 C  
ENDBRANCH   8  29
BRANCH   7  31
HETATM   31  O   UNL     1     -10.283   4.522  70.281  1.00  0.00    -0.219 OA 
HETATM   32  C   UNL     1      -9.124   3.986  70.895  1.00  0.00    -0.113 C  
ENDBRANCH   7  31
ENDBRANCH   2   3
TORSDOF 6
ENDMDL
MODEL       63
REMARK 921   NORMALIZED FREE ENERGY PREDICTED BY IDOCK:   -6.20 KCAL/MOL
REMARK 922        TOTAL FREE ENERGY PREDICTED BY IDOCK:   -9.22 KCAL/MOL
REMARK 923 INTER-LIGAND FREE ENERGY PREDICTED BY IDOCK:   -8.43 KCAL/MOL
REMARK 924 INTRA-LIGAND FREE ENERGY PREDICTED BY IDOCK:   -0.79 KCAL/MOL
REMARK 927      BINDING AFFINITY PREDICTED BY RF-SCORE:    0.00 PKD
ROOT
HETATM    1  C   UNL     1     -10.403  19.831  68.261  1.00  0.00    -0.410 C  
HETATM    2  O   UNL     1     -10.332  18.651  67.464  1.00  0.00    -0.367 OA 
ENDROOT
BRANCH   2   3
HETATM    3  C   UNL     1      -9.793  17.537  68.061  1.00  0.00    -0.299 A  
HETATM    4  C   UNL     1     -10.623  16.605  68.709  1.00  0.00    -0.340 A  
HETATM    5  C   UNL     1     -10.120  15.448  69.302  1.00  0.00    -0.253 A  
HETATM    6  C   UNL     1      -8.741  15.264  69.267  1.00  0.00    -0.237 A  
HETATM    7  C   UNL     1      -8.400  17.308  67.981  1.00  0.00    -0.228 A  
HETATM    8  C   UNL     1      -7.881  16.153  68.600  1.00  0.00    -0.188 A  
BRANCH   5   9
HETATM    9  N   UNL     1     -10.998  14.626  70.020  1.00  0.00    -0.433 NA 
HETATM   10  H   UNL     1     -10.843  14.430  71.010  1.00  0.00     0.000 HD 
BRANCH   9  11
HETATM   11  C   UNL     1     -12.141  14.056  69.316  1.00  0.00    -0.338 C  
BRANCH  11  12
HETATM   12  C   UNL     1     -11.788  13.539  67.931  1.00  0.00    -0.397 A  
HETATM   13  C   UNL     1     -11.097  12.308  67.783  1.00  0.00    -0.304 A  
HETATM   14  H2  UNL     1     -10.887   9.324  67.539  1.00  0.00     0.000 HD 
HETATM   15  C   UNL     1     -10.830  11.773  66.462  1.00  0.00    -0.323 A  
HETATM   16  H1  UNL     1      -9.629   8.597  66.774  1.00  0.00     0.000 HD 
HETATM   17  C   UNL     1     -10.630  11.558  69.011  1.00  0.00    -0.207 C  
HETATM   18  C   UNL     1     -11.162  12.545  65.339  1.00  0.00    -0.307 A  
HETATM   19  N   UNL     1     -10.895  12.185  64.081  1.00  0.00    -0.327 NA 
HETATM   20  C   UNL     1     -11.820  13.748  65.513  1.00  0.00    -0.378 A  
HETATM   21  C   UNL     1     -12.156  14.235  66.775  1.00  0.00    -0.446 A  
HETATM   22  C   UNL     1     -10.301  11.013  63.890  1.00  0.00    -0.372 A  
HETATM   23  N   UNL     1     -10.023  10.138  64.847  1.00  0.00    -0.329 NA 
HETATM   24  N   UNL     1      -9.986  10.659  62.594  1.00  0.00    -0.741 NA 
HETATM   25  C   UNL     1     -10.285  10.517  66.106  1.00  0.00    -0.236 A  
HETATM   26  H2  UNL     1     -10.202  11.275  61.811  1.00  0.00     0.000 HD 
HETATM   27  H1  UNL     1      -9.530   9.760  62.447  1.00  0.00     0.000 HD 
HETATM   28  N   UNL     1     -10.022   9.503  67.030  1.00  0.00    -0.199 NA 
ENDBRANCH  11  12
ENDBRANCH   9  11
ENDBRANCH   5   9
BRANCH   8  29
HETATM   29  O   UNL     1      -6.578  15.722  68.679  1.00  0.00    -0.111 OA 
HETATM   30  C   UNL     1      -6.140  14.639  67.876  1.00  0.00    -0.150 C  
ENDBRANCH   8  29
BRANCH   7  31
HETATM   31  O   UNL     1      -7.486  18.122  67.369  1.00  0.00    -0.208 OA 
HETATM   32  C   UNL     1      -7.098  17.896  66.026  1.00  0.00    -0.305 C  
ENDBRANCH   7  31
ENDBRANCH   2   3
TORSDOF 6
ENDMDL
MODEL       64
REMARK 921   NORMALIZED FREE ENERGY PREDICTED BY IDOCK:   -6.19 KCAL/MOL
REMARK 922        TOTAL FREE ENERGY PREDICTED BY IDOCK:   -9.21 KCAL/MOL
REMARK 923 INTER-LIGAND FREE ENERGY PREDICTED BY IDOCK:   -8.38 KCAL/MOL
REMARK 924 INTRA-LIGAND FREE ENERGY PREDICTED BY IDOCK:   -0.83 KCAL/MOL
REMARK 927      BINDING AFFINITY PREDICTED BY RF-SCORE:    0.00 PKD
ROOT
HETATM    1  C   UNL     1     -11.348  14.838  64.607  1.00  0.00    -0.366 C  
HETATM    2  O   UNL     1     -10.796  16.100  64.974  1.00  0.00    -0.516 OA 
ENDROOT
BRANCH   2   3
HETATM    3  C   UNL     1     -10.517  16.286  66.306  1.00  0.00    -0.308 A  
HETATM    4  C   UNL     1     -10.779  15.264  67.236  1.00  0.00    -0.311 A  
HETATM    5  C   UNL     1     -10.486  15.399  68.592  1.00  0.00    -0.237 A  
HETATM    6  C   UNL     1      -9.953  16.616  69.009  1.00  0.00    -0.280 A  
HETATM    7  C   UNL     1      -9.923  17.495  66.734  1.00  0.00    -0.313 A  
HETATM    8  C   UNL     1      -9.645  17.650  68.107  1.00  0.00    -0.297 A  
BRANCH   5   9
HETATM    9  N   UNL     1     -10.875  14.378  69.469  1.00  0.00    -0.384 NA 
HETATM   10  H   UNL     1     -10.401  14.246  70.364  1.00  0.00     0.000 HD 
BRANCH   9  11
HETATM   11  C   UNL     1     -11.975  13.509  69.070  1.00  0.00    -0.335 C  
BRANCH  11  12
HETATM   12  C   UNL     1     -11.690  12.037  69.321  1.00  0.00    -0.389 A  
HETATM   13  C   UNL     1     -11.364  11.178  68.239  1.00  0.00    -0.365 A  
HETATM   14  H2  UNL     1      -9.513   9.872  66.270  1.00  0.00     0.000 HD 
HETATM   15  C   UNL     1     -11.012   9.793  68.485  1.00  0.00    -0.195 A  
HETATM   16  H1  UNL     1      -9.847   8.414  65.592  1.00  0.00     0.000 HD 
HETATM   17  C   UNL     1     -11.395  11.710  66.823  1.00  0.00    -0.354 C  
HETATM   18  C   UNL     1     -11.111   9.291  69.791  1.00  0.00    -0.150 A  
HETATM   19  N   UNL     1     -10.884   8.016  70.119  1.00  0.00    -0.245 NA 
HETATM   20  C   UNL     1     -11.446  10.147  70.823  1.00  0.00    -0.442 A  
HETATM   21  C   UNL     1     -11.706  11.500  70.612  1.00  0.00    -0.133 A  
HETATM   22  C   UNL     1     -10.520   7.187  69.149  1.00  0.00    -0.211 A  
HETATM   23  N   UNL     1     -10.289   7.544  67.892  1.00  0.00    -0.200 NA 
HETATM   24  N   UNL     1     -10.327   5.862  69.478  1.00  0.00    -0.221 NA 
HETATM   25  C   UNL     1     -10.532   8.823  67.574  1.00  0.00    -0.271 A  
HETATM   26  H2  UNL     1     -10.458   5.530  70.434  1.00  0.00     0.000 HD 
HETATM   27  H1  UNL     1     -10.047   5.225  68.733  1.00  0.00     0.000 HD 
HETATM   28  N   UNL     1     -10.194   9.113  66.249  1.00  0.00    -0.248 NA 
ENDBRANCH  11  12
ENDBRANCH   9  11
ENDBRANCH   5   9
BRANCH   8  29
HETATM   29  O   UNL     1      -9.095  18.723  68.766  1.00  0.00    -0.337 OA 
HETATM   30  C   UNL     1      -7.691  18.920  68.752  1.00  0.00    -0.331 C  
ENDBRANCH   8  29
BRANCH   7  31
HETATM   31  O   UNL     1      -9.603  18.559  65.934  1.00  0.00    -0.494 OA 
HETATM   32  C   UNL     1     -10.532  19.604  65.711  1.00  0.00    -0.444 C  
ENDBRANCH   7  31
ENDBRANCH   2   3
TORSDOF 6
ENDMDL
MODEL       65
REMARK 921   NORMALIZED FREE ENERGY PREDICTED BY IDOCK:   -6.18 KCAL/MOL
REMARK 922        TOTAL FREE ENERGY PREDICTED BY IDOCK:   -9.20 KCAL/MOL
REMARK 923 INTER-LIGAND FREE ENERGY PREDICTED BY IDOCK:   -8.43 KCAL/MOL
REMARK 924 INTRA-LIGAND FREE ENERGY PREDICTED BY IDOCK:   -0.77 KCAL/MOL
REMARK 927      BINDING AFFINITY PREDICTED BY RF-SCORE:    0.00 PKD
ROOT
HETATM    1  C   UNL     1     -10.607   6.425  73.803  1.00  0.00    -0.253 C  
HETATM    2  O   UNL     1     -10.785   5.442  72.785  1.00  0.00    -0.216 OA 
ENDROOT
BRANCH   2   3
HETATM    3  C   UNL     1     -10.730   5.886  71.486  1.00  0.00    -0.256 A  
HETATM    4  C   UNL     1     -11.089   7.208  71.171  1.00  0.00    -0.281 A  
HETATM    5  C   UNL     1     -11.021   7.707  69.871  1.00  0.00    -0.200 A  
HETATM    6  C   UNL     1     -10.618   6.825  68.872  1.00  0.00    -0.257 A  
HETATM    7  C   UNL     1     -10.267   5.017  70.472  1.00  0.00    -0.246 A  
HETATM    8  C   UNL     1     -10.218   5.506  69.150  1.00  0.00    -0.239 A  
BRANCH   5   9
HETATM    9  N   UNL     1     -11.496   9.001  69.622  1.00  0.00    -0.422 NA 
HETATM   10  H   UNL     1     -12.497   9.188  69.555  1.00  0.00     0.000 HD 
BRANCH   9  11
HETATM   11  C   UNL     1     -10.522  10.074  69.459  1.00  0.00    -0.240 C  
BRANCH  11  12
HETATM   12  C   UNL     1     -10.976  11.145  68.480  1.00  0.00    -0.267 A  
HETATM   13  C   UNL     1     -10.688  11.015  67.096  1.00  0.00    -0.313 A  
HETATM   14  H2  UNL     1     -11.194  10.065  64.295  1.00  0.00     0.000 HD 
HETATM   15  C   UNL     1     -11.190  11.992  66.150  1.00  0.00    -0.394 A  
HETATM   16  H1  UNL     1     -10.616  10.867  62.983  1.00  0.00     0.000 HD 
HETATM   17  C   UNL     1      -9.846   9.856  66.611  1.00  0.00    -0.265 C  
HETATM   18  C   UNL     1     -11.862  13.123  66.637  1.00  0.00    -0.391 A  
HETATM   19  N   UNL     1     -12.300  14.121  65.865  1.00  0.00    -0.465 NA 
HETATM   20  C   UNL     1     -12.115  13.231  67.992  1.00  0.00    -0.260 A  
HETATM   21  C   UNL     1     -11.710  12.257  68.903  1.00  0.00    -0.380 A  
HETATM   22  C   UNL     1     -12.105  14.016  64.556  1.00  0.00    -0.459 A  
HETATM   23  N   UNL     1     -11.577  12.961  63.949  1.00  0.00    -0.420 NA 
HETATM   24  N   UNL     1     -12.518  15.065  63.761  1.00  0.00    -1.049 NA 
HETATM   25  C   UNL     1     -11.131  11.972  64.737  1.00  0.00    -0.317 A  
HETATM   26  H2  UNL     1     -12.959  15.892  64.164  1.00  0.00     0.000 HD 
HETATM   27  H1  UNL     1     -12.368  14.985  62.756  1.00  0.00     0.000 HD 
HETATM   28  N   UNL     1     -10.658  10.882  64.002  1.00  0.00    -0.333 NA 
ENDBRANCH  11  12
ENDBRANCH   9  11
ENDBRANCH   5   9
BRANCH   8  29
HETATM   29  O   UNL     1      -9.829   4.862  68.000  1.00  0.00    -0.152 OA 
HETATM   30  C   UNL     1      -8.514   5.035  67.501  1.00  0.00    -0.105 C  
ENDBRANCH   8  29
BRANCH   7  31
HETATM   31  O   UNL     1      -9.874   3.718  70.644  1.00  0.00    -0.184 OA 
HETATM   32  C   UNL     1      -8.523   3.401  70.931  1.00  0.00    -0.066 C  
ENDBRANCH   7  31
ENDBRANCH   2   3
TORSDOF 6
ENDMDL
MODEL       66
REMARK 921   NORMALIZED FREE ENERGY PREDICTED BY IDOCK:   -6.11 KCAL/MOL
REMARK 922        TOTAL FREE ENERGY PREDICTED BY IDOCK:   -9.11 KCAL/MOL
REMARK 923 INTER-LIGAND FREE ENERGY PREDICTED BY IDOCK:   -8.16 KCAL/MOL
REMARK 924 INTRA-LIGAND FREE ENERGY PREDICTED BY IDOCK:   -0.95 KCAL/MOL
REMARK 927      BINDING AFFINITY PREDICTED BY RF-SCORE:    0.00 PKD
ROOT
HETATM    1  C   UNL     1      -9.667  11.205  65.182  1.00  0.00    -0.250 C  
HETATM    2  O   UNL     1     -10.982  11.729  65.352  1.00  0.00    -0.299 OA 
ENDROOT
BRANCH   2   3
HETATM    3  C   UNL     1     -11.108  12.818  66.181  1.00  0.00    -0.290 A  
HETATM    4  C   UNL     1     -10.695  14.091  65.750  1.00  0.00    -0.294 A  
HETATM    5  C   UNL     1     -10.831  15.226  66.548  1.00  0.00    -0.311 A  
HETATM    6  C   UNL     1     -11.360  15.047  67.823  1.00  0.00    -0.340 A  
HETATM    7  C   UNL     1     -11.697  12.660  67.456  1.00  0.00    -0.368 A  
HETATM    8  C   UNL     1     -11.816  13.798  68.279  1.00  0.00    -0.378 A  
BRANCH   5   9
HETATM    9  N   UNL     1     -10.298  16.438  66.089  1.00  0.00    -0.335 NA 
HETATM   10  H   UNL     1     -10.907  17.216  65.835  1.00  0.00     0.000 HD 
BRANCH   9  11
HETATM   11  C   UNL     1      -8.848  16.558  65.984  1.00  0.00    -0.232 C  
BRANCH  11  12
HETATM   12  C   UNL     1      -8.253  17.496  67.022  1.00  0.00    -0.240 A  
HETATM   13  C   UNL     1      -7.444  16.983  68.069  1.00  0.00    -0.185 A  
HETATM   14  H2  UNL     1      -4.871  16.063  69.311  1.00  0.00     0.000 HD 
HETATM   15  C   UNL     1      -6.809  17.883  69.011  1.00  0.00    -0.242 A  
HETATM   16  H1  UNL     1      -4.618  16.113  70.932  1.00  0.00     0.000 HD 
HETATM   17  C   UNL     1      -7.253  15.488  68.205  1.00  0.00    -0.123 C  
HETATM   18  C   UNL     1      -7.101  19.253  68.940  1.00  0.00    -0.350 A  
HETATM   19  N   UNL     1      -6.633  20.161  69.801  1.00  0.00    -0.303 NA 
HETATM   20  C   UNL     1      -7.906  19.724  67.919  1.00  0.00    -0.328 A  
HETATM   21  C   UNL     1      -8.455  18.878  66.957  1.00  0.00    -0.292 A  
HETATM   22  C   UNL     1      -5.825  19.736  70.764  1.00  0.00    -0.256 A  
HETATM   23  N   UNL     1      -5.384  18.491  70.891  1.00  0.00    -0.260 NA 
HETATM   24  N   UNL     1      -5.375  20.665  71.679  1.00  0.00    -0.572 NA 
HETATM   25  C   UNL     1      -5.870  17.588  70.028  1.00  0.00    -0.234 A  
HETATM   26  H2  UNL     1      -5.653  21.644  71.618  1.00  0.00     0.000 HD 
HETATM   27  H1  UNL     1      -4.754  20.338  72.419  1.00  0.00     0.000 HD 
HETATM   28  N   UNL     1      -5.295  16.326  70.200  1.00  0.00    -0.166 NA 
ENDBRANCH  11  12
ENDBRANCH   9  11
ENDBRANCH   5   9
BRANCH   8  29
HETATM   29  O   UNL     1     -12.328  13.900  69.550  1.00  0.00    -0.333 OA 
HETATM   30  C   UNL     1     -12.598  15.177  70.104  1.00  0.00    -0.279 C  
ENDBRANCH   8  29
BRANCH   7  31
HETATM   31  O   UNL     1     -12.154  11.485  67.990  1.00  0.00    -0.617 OA 
HETATM   32  C   UNL     1     -11.250  10.486  68.427  1.00  0.00    -0.279 C  
ENDBRANCH   7  31
ENDBRANCH   2   3
TORSDOF 6
ENDMDL
MODEL       67
REMARK 921   NORMALIZED FREE ENERGY PREDICTED BY IDOCK:   -6.08 KCAL/MOL
REMARK 922        TOTAL FREE ENERGY PREDICTED BY IDOCK:   -9.07 KCAL/MOL
REMARK 923 INTER-LIGAND FREE ENERGY PREDICTED BY IDOCK:   -8.29 KCAL/MOL
REMARK 924 INTRA-LIGAND FREE ENERGY PREDICTED BY IDOCK:   -0.78 KCAL/MOL
REMARK 927      BINDING AFFINITY PREDICTED BY RF-SCORE:    0.00 PKD
ROOT
HETATM    1  C   UNL     1      -6.109  15.119  68.223  1.00  0.00    -0.118 C  
HETATM    2  O   UNL     1      -6.315  15.648  66.915  1.00  0.00    -0.250 OA 
ENDROOT
BRANCH   2   3
HETATM    3  C   UNL     1      -7.566  16.147  66.643  1.00  0.00    -0.203 A  
HETATM    4  C   UNL     1      -8.688  15.299  66.658  1.00  0.00    -0.327 A  
HETATM    5  C   UNL     1      -9.978  15.768  66.416  1.00  0.00    -0.277 A  
HETATM    6  C   UNL     1     -10.116  17.120  66.114  1.00  0.00    -0.317 A  
HETATM    7  C   UNL     1      -7.728  17.528  66.393  1.00  0.00    -0.297 A  
HETATM    8  C   UNL     1      -9.026  18.008  66.124  1.00  0.00    -0.093 A  
BRANCH   5   9
HETATM    9  N   UNL     1     -11.028  14.843  66.343  1.00  0.00    -0.332 NA 
HETATM   10  H   UNL     1     -11.213  14.328  65.482  1.00  0.00     0.000 HD 
BRANCH   9  11
HETATM   11  C   UNL     1     -11.848  14.636  67.531  1.00  0.00    -0.347 C  
BRANCH  11  12
HETATM   12  C   UNL     1     -11.687  13.248  68.129  1.00  0.00    -0.397 A  
HETATM   13  C   UNL     1     -12.083  12.996  69.468  1.00  0.00    -0.289 A  
HETATM   14  H2  UNL     1     -14.036  12.295  71.637  1.00  0.00     0.000 HD 
HETATM   15  C   UNL     1     -12.007  11.656  70.015  1.00  0.00    -0.429 A  
HETATM   16  H1  UNL     1     -13.561  11.604  73.049  1.00  0.00     0.000 HD 
HETATM   17  C   UNL     1     -12.578  14.137  70.330  1.00  0.00    -0.397 C  
HETATM   18  C   UNL     1     -11.429  10.641  69.238  1.00  0.00    -0.281 A  
HETATM   19  N   UNL     1     -11.240   9.390  69.667  1.00  0.00    -0.139 NA 
HETATM   20  C   UNL     1     -11.038  10.917  67.942  1.00  0.00    -0.362 A  
HETATM   21  C   UNL     1     -11.182  12.183  67.377  1.00  0.00    -0.362 A  
HETATM   22  C   UNL     1     -11.648   9.092  70.895  1.00  0.00    -0.291 A  
HETATM   23  N   UNL     1     -12.300   9.922  71.700  1.00  0.00    -0.395 NA 
HETATM   24  N   UNL     1     -11.415   7.813  71.355  1.00  0.00    -0.255 NA 
HETATM   25  C   UNL     1     -12.472  11.177  71.262  1.00  0.00    -0.360 A  
HETATM   26  H2  UNL     1     -10.946   7.119  70.772  1.00  0.00     0.000 HD 
HETATM   27  H1  UNL     1     -11.728   7.585  72.298  1.00  0.00     0.000 HD 
HETATM   28  N   UNL     1     -13.226  11.949  72.150  1.00  0.00    -0.423 NA 
ENDBRANCH  11  12
ENDBRANCH   9  11
ENDBRANCH   5   9
BRANCH   8  29
HETATM   29  O   UNL     1      -9.436  19.287  65.834  1.00  0.00    -0.429 OA 
HETATM   30  C   UNL     1     -10.160  20.034  66.797  1.00  0.00    -0.476 C  
ENDBRANCH   8  29
BRANCH   7  31
HETATM   31  O   UNL     1      -6.727  18.462  66.365  1.00  0.00    -0.187 OA 
HETATM   32  C   UNL     1      -5.948  18.656  65.198  1.00  0.00    -0.259 C  
ENDBRANCH   7  31
ENDBRANCH   2   3
TORSDOF 6
ENDMDL
MODEL       68
REMARK 921   NORMALIZED FREE ENERGY PREDICTED BY IDOCK:   -6.06 KCAL/MOL
REMARK 922        TOTAL FREE ENERGY PREDICTED BY IDOCK:   -9.04 KCAL/MOL
REMARK 923 INTER-LIGAND FREE ENERGY PREDICTED BY IDOCK:   -8.70 KCAL/MOL
REMARK 924 INTRA-LIGAND FREE ENERGY PREDICTED BY IDOCK:   -0.35 KCAL/MOL
REMARK 927      BINDING AFFINITY PREDICTED BY RF-SCORE:    0.00 PKD
ROOT
HETATM    1  C   UNL     1     -12.101  15.477  70.280  1.00  0.00    -0.386 C  
HETATM    2  O   UNL     1     -11.739  16.465  69.317  1.00  0.00    -0.195 OA 
ENDROOT
BRANCH   2   3
HETATM    3  C   UNL     1     -10.890  16.064  68.314  1.00  0.00    -0.319 A  
HETATM    4  C   UNL     1     -10.879  14.725  67.885  1.00  0.00    -0.269 A  
HETATM    5  C   UNL     1     -10.055  14.282  66.852  1.00  0.00    -0.264 A  
HETATM    6  C   UNL     1      -9.199  15.217  66.276  1.00  0.00    -0.350 A  
HETATM    7  C   UNL     1     -10.058  17.016  67.682  1.00  0.00    -0.298 A  
HETATM    8  C   UNL     1      -9.204  16.572  66.652  1.00  0.00    -0.250 A  
BRANCH   5   9
HETATM    9  N   UNL     1     -10.024  12.913  66.556  1.00  0.00    -0.253 NA 
HETATM   10  H   UNL     1      -9.161  12.461  66.255  1.00  0.00     0.000 HD 
BRANCH   9  11
HETATM   11  C   UNL     1     -11.261  12.151  66.691  1.00  0.00    -0.324 C  
BRANCH  11  12
HETATM   12  C   UNL     1     -11.365  11.418  68.018  1.00  0.00    -0.372 A  
HETATM   13  C   UNL     1     -10.866  10.096  68.145  1.00  0.00    -0.310 A  
HETATM   14  H2  UNL     1      -8.748   8.029  68.643  1.00  0.00     0.000 HD 
HETATM   15  C   UNL     1     -10.890   9.425  69.430  1.00  0.00    -0.208 A  
HETATM   16  H1  UNL     1      -9.108   6.527  69.202  1.00  0.00     0.000 HD 
HETATM   17  C   UNL     1     -10.316   9.382  66.929  1.00  0.00    -0.308 C  
HETATM   18  C   UNL     1     -11.518  10.058  70.512  1.00  0.00    -0.330 A  
HETATM   19  N   UNL     1     -11.664   9.503  71.719  1.00  0.00    -0.383 NA 
HETATM   20  C   UNL     1     -12.009  11.341  70.356  1.00  0.00    -0.471 A  
HETATM   21  C   UNL     1     -11.918  12.029  69.148  1.00  0.00    -0.326 A  
HETATM   22  C   UNL     1     -11.161   8.289  71.902  1.00  0.00    -0.292 A  
HETATM   23  N   UNL     1     -10.456   7.615  71.002  1.00  0.00    -0.210 NA 
HETATM   24  N   UNL     1     -11.348   7.697  73.133  1.00  0.00    -0.596 NA 
HETATM   25  C   UNL     1     -10.327   8.178  69.792  1.00  0.00    -0.216 A  
HETATM   26  H2  UNL     1     -11.855   8.176  73.878  1.00  0.00     0.000 HD 
HETATM   27  H1  UNL     1     -10.962   6.764  73.274  1.00  0.00     0.000 HD 
HETATM   28  N   UNL     1      -9.514   7.425  68.941  1.00  0.00    -0.145 NA 
ENDBRANCH  11  12
ENDBRANCH   9  11
ENDBRANCH   5   9
BRANCH   8  29
HETATM   29  O   UNL     1      -8.298  17.288  65.906  1.00  0.00    -0.533 OA 
HETATM   30  C   UNL     1      -6.944  17.364  66.319  1.00  0.00    -0.284 C  
ENDBRANCH   8  29
BRANCH   7  31
HETATM   31  O   UNL     1      -9.983  18.348  67.989  1.00  0.00    -0.317 OA 
HETATM   32  C   UNL     1     -10.753  19.301  67.279  1.00  0.00    -0.488 C  
ENDBRANCH   7  31
ENDBRANCH   2   3
TORSDOF 6
ENDMDL
MODEL       69
REMARK 921   NORMALIZED FREE ENERGY PREDICTED BY IDOCK:   -6.06 KCAL/MOL
REMARK 922        TOTAL FREE ENERGY PREDICTED BY IDOCK:   -9.04 KCAL/MOL
REMARK 923 INTER-LIGAND FREE ENERGY PREDICTED BY IDOCK:   -8.87 KCAL/MOL
REMARK 924 INTRA-LIGAND FREE ENERGY PREDICTED BY IDOCK:   -0.17 KCAL/MOL
REMARK 927      BINDING AFFINITY PREDICTED BY RF-SCORE:    0.00 PKD
ROOT
HETATM    1  C   UNL     1     -12.607   9.172  71.274  1.00  0.00    -0.288 C  
HETATM    2  O   UNL     1     -12.796  10.505  71.742  1.00  0.00    -0.429 OA 
ENDROOT
BRANCH   2   3
HETATM    3  C   UNL     1     -12.524  11.514  70.851  1.00  0.00    -0.366 A  
HETATM    4  C   UNL     1     -11.973  11.221  69.591  1.00  0.00    -0.423 A  
HETATM    5  C   UNL     1     -11.707  12.212  68.647  1.00  0.00    -0.330 A  
HETATM    6  C   UNL     1     -11.973  13.528  69.014  1.00  0.00    -0.376 A  
HETATM    7  C   UNL     1     -12.843  12.849  71.190  1.00  0.00    -0.238 A  
HETATM    8  C   UNL     1     -12.556  13.860  70.250  1.00  0.00    -0.264 A  
BRANCH   5   9
HETATM    9  N   UNL     1     -11.060  11.851  67.458  1.00  0.00    -0.255 NA 
HETATM   10  H   UNL     1     -11.469  11.162  66.826  1.00  0.00     0.000 HD 
BRANCH   9  11
HETATM   11  C   UNL     1      -9.783  12.485  67.148  1.00  0.00    -0.205 C  
BRANCH  11  12
HETATM   12  C   UNL     1      -9.929  13.939  66.731  1.00  0.00    -0.269 A  
HETATM   13  C   UNL     1      -9.340  14.969  67.511  1.00  0.00    -0.195 A  
HETATM   14  H2  UNL     1      -7.112  16.784  68.375  1.00  0.00     0.000 HD 
HETATM   15  C   UNL     1      -9.408  16.349  67.073  1.00  0.00    -0.241 A  
HETATM   16  H1  UNL     1      -7.396  18.247  69.066  1.00  0.00     0.000 HD 
HETATM   17  C   UNL     1      -8.648  14.622  68.811  1.00  0.00    -0.160 C  
HETATM   18  C   UNL     1     -10.161  16.660  65.931  1.00  0.00    -0.340 A  
HETATM   19  N   UNL     1     -10.354  17.903  65.480  1.00  0.00    -0.597 NA 
HETATM   20  C   UNL     1     -10.737  15.639  65.199  1.00  0.00    -0.463 A  
HETATM   21  C   UNL     1     -10.610  14.300  65.565  1.00  0.00    -0.351 A  
HETATM   22  C   UNL     1      -9.774  18.894  66.144  1.00  0.00    -0.277 A  
HETATM   23  N   UNL     1      -8.954  18.740  67.177  1.00  0.00    -0.276 NA 
HETATM   24  N   UNL     1     -10.006  20.181  65.706  1.00  0.00    -0.550 NA 
HETATM   25  C   UNL     1      -8.779  17.489  67.626  1.00  0.00    -0.223 A  
HETATM   26  H2  UNL     1     -10.602  20.365  64.898  1.00  0.00     0.000 HD 
HETATM   27  H1  UNL     1      -9.561  20.943  66.216  1.00  0.00     0.000 HD 
HETATM   28  N   UNL     1      -7.849  17.425  68.667  1.00  0.00    -0.271 NA 
ENDBRANCH  11  12
ENDBRANCH   9  11
ENDBRANCH   5   9
BRANCH   8  29
HETATM   29  O   UNL     1     -12.750  15.217  70.348  1.00  0.00    -0.379 OA 
HETATM   30  C   UNL     1     -11.727  16.110  69.943  1.00  0.00    -0.184 C  
ENDBRANCH   8  29
BRANCH   7  31
HETATM   31  O   UNL     1     -13.395  13.269  72.370  1.00  0.00    -0.525 OA 
HETATM   32  C   UNL     1     -12.835  14.355  73.087  1.00  0.00    -0.390 C  
ENDBRANCH   7  31
ENDBRANCH   2   3
TORSDOF 6
ENDMDL
MODEL       70
REMARK 921   NORMALIZED FREE ENERGY PREDICTED BY IDOCK:   -6.01 KCAL/MOL
REMARK 922        TOTAL FREE ENERGY PREDICTED BY IDOCK:   -8.98 KCAL/MOL
REMARK 923 INTER-LIGAND FREE ENERGY PREDICTED BY IDOCK:   -8.42 KCAL/MOL
REMARK 924 INTRA-LIGAND FREE ENERGY PREDICTED BY IDOCK:   -0.56 KCAL/MOL
REMARK 927      BINDING AFFINITY PREDICTED BY RF-SCORE:    0.00 PKD
ROOT
HETATM    1  C   UNL     1     -10.386  19.819  68.317  1.00  0.00    -0.410 C  
HETATM    2  O   UNL     1     -10.646  18.546  67.729  1.00  0.00    -0.406 OA 
ENDROOT
BRANCH   2   3
HETATM    3  C   UNL     1     -10.060  17.459  68.331  1.00  0.00    -0.347 A  
HETATM    4  C   UNL     1     -10.840  16.538  69.051  1.00  0.00    -0.329 A  
HETATM    5  C   UNL     1     -10.290  15.407  69.654  1.00  0.00    -0.277 A  
HETATM    6  C   UNL     1      -8.912  15.240  69.551  1.00  0.00    -0.183 A  
HETATM    7  C   UNL     1      -8.670  17.246  68.185  1.00  0.00    -0.243 A  
HETATM    8  C   UNL     1      -8.101  16.118  68.811  1.00  0.00    -0.218 A  
BRANCH   5   9
HETATM    9  N   UNL     1     -11.117  14.597  70.443  1.00  0.00    -0.479 NA 
HETATM   10  H   UNL     1     -11.026  14.587  71.459  1.00  0.00     0.000 HD 
BRANCH   9  11
HETATM   11  C   UNL     1     -12.111  13.766  69.772  1.00  0.00    -0.340 C  
BRANCH  11  12
HETATM   12  C   UNL     1     -11.761  12.287  69.795  1.00  0.00    -0.368 A  
HETATM   13  C   UNL     1     -12.320  11.435  70.783  1.00  0.00    -0.483 A  
HETATM   14  H2  UNL     1     -14.422   9.633  71.941  1.00  0.00     0.000 HD 
HETATM   15  C   UNL     1     -12.053  10.011  70.758  1.00  0.00    -0.418 A  
HETATM   16  H1  UNL     1     -14.063   8.464  73.036  1.00  0.00     0.000 HD 
HETATM   17  C   UNL     1     -13.191  12.022  71.872  1.00  0.00    -0.469 C  
HETATM   18  C   UNL     1     -11.144   9.510  69.814  1.00  0.00    -0.191 A  
HETATM   19  N   UNL     1     -10.767   8.230  69.748  1.00  0.00    -0.238 NA 
HETATM   20  C   UNL     1     -10.602  10.364  68.873  1.00  0.00    -0.241 A  
HETATM   21  C   UNL     1     -10.915  11.722  68.835  1.00  0.00    -0.288 A  
HETATM   22  C   UNL     1     -11.309   7.384  70.616  1.00  0.00    -0.281 A  
HETATM   23  N   UNL     1     -12.254   7.697  71.494  1.00  0.00    -0.312 NA 
HETATM   24  N   UNL     1     -10.889   6.070  70.577  1.00  0.00    -0.294 NA 
HETATM   25  C   UNL     1     -12.614   8.987  71.557  1.00  0.00    -0.338 A  
HETATM   26  H2  UNL     1     -10.188   5.759  69.905  1.00  0.00     0.000 HD 
HETATM   27  H1  UNL     1     -11.305   5.421  71.244  1.00  0.00     0.000 HD 
HETATM   28  N   UNL     1     -13.659   9.201  72.460  1.00  0.00    -0.476 NA 
ENDBRANCH  11  12
ENDBRANCH   9  11
ENDBRANCH   5   9
BRANCH   8  29
HETATM   29  O   UNL     1      -6.790  15.707  68.834  1.00  0.00    -0.114 OA 
HETATM   30  C   UNL     1      -6.327  14.876  69.885  1.00  0.00    -0.157 C  
ENDBRANCH   8  29
BRANCH   7  31
HETATM   31  O   UNL     1      -7.801  18.052  67.500  1.00  0.00    -0.211 OA 
HETATM   32  C   UNL     1      -7.255  17.640  66.260  1.00  0.00    -0.307 C  
ENDBRANCH   7  31
ENDBRANCH   2   3
TORSDOF 6
ENDMDL
MODEL       71
REMARK 921   NORMALIZED FREE ENERGY PREDICTED BY IDOCK:   -6.01 KCAL/MOL
REMARK 922        TOTAL FREE ENERGY PREDICTED BY IDOCK:   -8.97 KCAL/MOL
REMARK 923 INTER-LIGAND FREE ENERGY PREDICTED BY IDOCK:   -8.38 KCAL/MOL
REMARK 924 INTRA-LIGAND FREE ENERGY PREDICTED BY IDOCK:   -0.59 KCAL/MOL
REMARK 927      BINDING AFFINITY PREDICTED BY RF-SCORE:    0.00 PKD
ROOT
HETATM    1  C   UNL     1     -12.303  14.290  65.158  1.00  0.00    -0.424 C  
HETATM    2  O   UNL     1     -11.608  14.735  66.321  1.00  0.00    -0.358 OA 
ENDROOT
BRANCH   2   3
HETATM    3  C   UNL     1     -11.743  13.965  67.450  1.00  0.00    -0.389 A  
HETATM    4  C   UNL     1     -11.709  12.562  67.362  1.00  0.00    -0.432 A  
HETATM    5  C   UNL     1     -11.814  11.743  68.486  1.00  0.00    -0.303 A  
HETATM    6  C   UNL     1     -11.996  12.371  69.715  1.00  0.00    -0.359 A  
HETATM    7  C   UNL     1     -11.870  14.591  68.711  1.00  0.00    -0.315 A  
HETATM    8  C   UNL     1     -12.000  13.770  69.851  1.00  0.00    -0.347 A  
BRANCH   5   9
HETATM    9  N   UNL     1     -11.880  10.356  68.303  1.00  0.00    -0.760 NA 
HETATM   10  H   UNL     1     -12.754   9.849  68.444  1.00  0.00     0.000 HD 
BRANCH   9  11
HETATM   11  C   UNL     1     -10.664   9.654  67.905  1.00  0.00    -0.247 C  
BRANCH  11  12
HETATM   12  C   UNL     1     -10.533   8.283  68.548  1.00  0.00    -0.199 A  
HETATM   13  C   UNL     1     -10.252   8.168  69.935  1.00  0.00    -0.204 A  
HETATM   14  H2  UNL     1     -10.961   8.041  72.848  1.00  0.00     0.000 HD 
HETATM   15  C   UNL     1     -10.207   6.864  70.566  1.00  0.00    -0.209 A  
HETATM   16  H1  UNL     1     -10.009   7.275  73.945  1.00  0.00     0.000 HD 
HETATM   17  C   UNL     1      -9.988   9.414  70.752  1.00  0.00    -0.358 C  
HETATM   18  C   UNL     1     -10.331   5.720  69.766  1.00  0.00    -0.263 A  
HETATM   19  N   UNL     1     -10.231   4.470  70.229  1.00  0.00    -0.167 NA 
HETATM   20  C   UNL     1     -10.589   5.861  68.415  1.00  0.00    -0.314 A  
HETATM   21  C   UNL     1     -10.717   7.110  67.810  1.00  0.00    -0.282 A  
HETATM   22  C   UNL     1     -10.025   4.312  71.531  1.00  0.00    -0.173 A  
HETATM   23  N   UNL     1      -9.989   5.298  72.419  1.00  0.00    -0.172 NA 
HETATM   24  N   UNL     1      -9.879   3.025  72.004  1.00  0.00    -0.166 NA 
HETATM   25  C   UNL     1     -10.080   6.546  71.939  1.00  0.00    -0.182 A  
HETATM   26  H2  UNL     1      -9.927   2.223  71.376  1.00  0.00     0.000 HD 
HETATM   27  H1  UNL     1      -9.721   2.904  73.004  1.00  0.00     0.000 HD 
HETATM   28  N   UNL     1     -10.101   7.504  72.956  1.00  0.00    -0.258 NA 
ENDBRANCH  11  12
ENDBRANCH   9  11
ENDBRANCH   5   9
BRANCH   8  29
HETATM   29  O   UNL     1     -12.155  14.132  71.167  1.00  0.00    -0.343 OA 
HETATM   30  C   UNL     1     -13.313  13.733  71.880  1.00  0.00    -0.414 C  
ENDBRANCH   8  29
BRANCH   7  31
HETATM   31  O   UNL     1     -11.900  15.940  68.939  1.00  0.00    -0.397 OA 
HETATM   32  C   UNL     1     -10.703  16.665  69.157  1.00  0.00    -0.342 C  
ENDBRANCH   7  31
ENDBRANCH   2   3
TORSDOF 6
ENDMDL
MODEL       72
REMARK 921   NORMALIZED FREE ENERGY PREDICTED BY IDOCK:   -5.97 KCAL/MOL
REMARK 922        TOTAL FREE ENERGY PREDICTED BY IDOCK:   -8.92 KCAL/MOL
REMARK 923 INTER-LIGAND FREE ENERGY PREDICTED BY IDOCK:   -8.01 KCAL/MOL
REMARK 924 INTRA-LIGAND FREE ENERGY PREDICTED BY IDOCK:   -0.91 KCAL/MOL
REMARK 927      BINDING AFFINITY PREDICTED BY RF-SCORE:    0.00 PKD
ROOT
HETATM    1  C   UNL     1     -10.308  20.105  66.435  1.00  0.00    -0.389 C  
HETATM    2  O   UNL     1      -8.982  19.595  66.307  1.00  0.00    -0.362 OA 
ENDROOT
BRANCH   2   3
HETATM    3  C   UNL     1      -8.763  18.325  66.782  1.00  0.00    -0.272 A  
HETATM    4  C   UNL     1      -9.143  17.205  66.021  1.00  0.00    -0.140 A  
HETATM    5  C   UNL     1      -8.914  15.900  66.452  1.00  0.00    -0.326 A  
HETATM    6  C   UNL     1      -8.323  15.738  67.702  1.00  0.00    -0.170 A  
HETATM    7  C   UNL     1      -8.111  18.147  68.023  1.00  0.00    -0.258 A  
HETATM    8  C   UNL     1      -7.897  16.830  68.479  1.00  0.00    -0.229 A  
BRANCH   5   9
HETATM    9  N   UNL     1      -9.419  14.841  65.686  1.00  0.00    -0.507 NA 
HETATM   10  H   UNL     1      -8.804  14.286  65.090  1.00  0.00     0.000 HD 
BRANCH   9  11
HETATM   11  C   UNL     1     -10.846  14.552  65.764  1.00  0.00    -0.315 C  
BRANCH  11  12
HETATM   12  C   UNL     1     -11.231  13.796  67.025  1.00  0.00    -0.326 A  
HETATM   13  C   UNL     1     -11.052  12.390  67.097  1.00  0.00    -0.328 A  
HETATM   14  H2  UNL     1      -9.500   9.873  67.612  1.00  0.00     0.000 HD 
HETATM   15  C   UNL     1     -11.342  11.678  68.326  1.00  0.00    -0.348 A  
HETATM   16  H1  UNL     1     -10.234   8.466  68.035  1.00  0.00     0.000 HD 
HETATM   17  C   UNL     1     -10.566  11.632  65.881  1.00  0.00    -0.318 C  
HETATM   18  C   UNL     1     -11.909  12.381  69.399  1.00  0.00    -0.304 A  
HETATM   19  N   UNL     1     -12.284  11.814  70.549  1.00  0.00    -0.365 NA 
HETATM   20  C   UNL     1     -12.087  13.748  69.295  1.00  0.00    -0.374 A  
HETATM   21  C   UNL     1     -11.735  14.458  68.148  1.00  0.00    -0.377 A  
HETATM   22  C   UNL     1     -12.082  10.509  70.685  1.00  0.00    -0.356 A  
HETATM   23  N   UNL     1     -11.466   9.739  69.797  1.00  0.00    -0.156 NA 
HETATM   24  N   UNL     1     -12.508   9.914  71.854  1.00  0.00    -0.378 NA 
HETATM   25  C   UNL     1     -11.105  10.319  68.643  1.00  0.00    -0.239 A  
HETATM   26  H2  UNL     1     -12.961  10.457  72.589  1.00  0.00     0.000 HD 
HETATM   27  H1  UNL     1     -12.353   8.912  71.958  1.00  0.00     0.000 HD 
HETATM   28  N   UNL     1     -10.405   9.445  67.807  1.00  0.00    -0.223 NA 
ENDBRANCH  11  12
ENDBRANCH   9  11
ENDBRANCH   5   9
BRANCH   8  29
HETATM   29  O   UNL     1      -7.311  16.399  69.645  1.00  0.00    -0.138 OA 
HETATM   30  C   UNL     1      -5.907  16.218  69.707  1.00  0.00    -0.182 C  
ENDBRANCH   8  29
BRANCH   7  31
HETATM   31  O   UNL     1      -7.676  19.145  68.853  1.00  0.00    -0.339 OA 
HETATM   32  C   UNL     1      -6.428  19.777  68.635  1.00  0.00    -0.285 C  
ENDBRANCH   7  31
ENDBRANCH   2   3
TORSDOF 6
ENDMDL
MODEL       73
REMARK 921   NORMALIZED FREE ENERGY PREDICTED BY IDOCK:   -5.97 KCAL/MOL
REMARK 922        TOTAL FREE ENERGY PREDICTED BY IDOCK:   -8.91 KCAL/MOL
REMARK 923 INTER-LIGAND FREE ENERGY PREDICTED BY IDOCK:   -8.35 KCAL/MOL
REMARK 924 INTRA-LIGAND FREE ENERGY PREDICTED BY IDOCK:   -0.56 KCAL/MOL
REMARK 927      BINDING AFFINITY PREDICTED BY RF-SCORE:    0.00 PKD
ROOT
HETATM    1  C   UNL     1      -9.215   3.163  67.680  1.00  0.00    -0.195 C  
HETATM    2  O   UNL     1      -9.612   3.321  69.041  1.00  0.00    -0.159 OA 
ENDROOT
BRANCH   2   3
HETATM    3  C   UNL     1      -9.973   4.586  69.434  1.00  0.00    -0.142 A  
HETATM    4  C   UNL     1     -10.165   5.600  68.478  1.00  0.00    -0.253 A  
HETATM    5  C   UNL     1     -10.559   6.890  68.831  1.00  0.00    -0.221 A  
HETATM    6  C   UNL     1     -10.719   7.157  70.188  1.00  0.00    -0.260 A  
HETATM    7  C   UNL     1     -10.196   4.855  70.803  1.00  0.00    -0.206 A  
HETATM    8  C   UNL     1     -10.572   6.163  71.172  1.00  0.00    -0.246 A  
BRANCH   5   9
HETATM    9  N   UNL     1     -10.624   7.870  67.832  1.00  0.00    -0.390 NA 
HETATM   10  H   UNL     1     -11.157   7.711  66.976  1.00  0.00     0.000 HD 
BRANCH   9  11
HETATM   11  C   UNL     1      -9.910   9.123  68.047  1.00  0.00    -0.168 C  
BRANCH  11  12
HETATM   12  C   UNL     1     -10.323  10.216  67.076  1.00  0.00    -0.303 A  
HETATM   13  C   UNL     1     -11.068  11.334  67.534  1.00  0.00    -0.346 A  
HETATM   14  H2  UNL     1     -11.408  14.062  68.737  1.00  0.00     0.000 HD 
HETATM   15  C   UNL     1     -11.394  12.418  66.627  1.00  0.00    -0.394 A  
HETATM   16  H1  UNL     1     -12.717  15.001  68.416  1.00  0.00     0.000 HD 
HETATM   17  C   UNL     1     -11.532  11.388  68.973  1.00  0.00    -0.366 C  
HETATM   18  C   UNL     1     -11.062  12.288  65.271  1.00  0.00    -0.316 A  
HETATM   19  N   UNL     1     -11.378  13.188  64.336  1.00  0.00    -0.347 NA 
HETATM   20  C   UNL     1     -10.349  11.181  64.849  1.00  0.00    -0.375 A  
HETATM   21  C   UNL     1      -9.958  10.171  65.727  1.00  0.00    -0.339 A  
HETATM   22  C   UNL     1     -12.025  14.279  64.727  1.00  0.00    -0.440 A  
HETATM   23  N   UNL     1     -12.313  14.581  65.987  1.00  0.00    -0.283 NA 
HETATM   24  N   UNL     1     -12.391  15.189  63.757  1.00  0.00    -1.037 NA 
HETATM   25  C   UNL     1     -12.000  13.664  66.913  1.00  0.00    -0.410 A  
HETATM   26  H2  UNL     1     -12.171  15.030  62.773  1.00  0.00     0.000 HD 
HETATM   27  H1  UNL     1     -12.888  16.027  64.057  1.00  0.00     0.000 HD 
HETATM   28  N   UNL     1     -12.280  14.103  68.210  1.00  0.00    -0.258 NA 
ENDBRANCH  11  12
ENDBRANCH   9  11
ENDBRANCH   5   9
BRANCH   8  29
HETATM   29  O   UNL     1     -10.823   6.675  72.422  1.00  0.00    -0.219 OA 
HETATM   30  C   UNL     1     -11.465   7.931  72.557  1.00  0.00    -0.398 C  
ENDBRANCH   8  29
BRANCH   7  31
HETATM   31  O   UNL     1     -10.062   3.960  71.830  1.00  0.00    -0.180 OA 
HETATM   32  C   UNL     1      -8.911   3.970  72.655  1.00  0.00    -0.103 C  
ENDBRANCH   7  31
ENDBRANCH   2   3
TORSDOF 6
ENDMDL
MODEL       74
REMARK 921   NORMALIZED FREE ENERGY PREDICTED BY IDOCK:   -5.94 KCAL/MOL
REMARK 922        TOTAL FREE ENERGY PREDICTED BY IDOCK:   -8.87 KCAL/MOL
REMARK 923 INTER-LIGAND FREE ENERGY PREDICTED BY IDOCK:   -8.29 KCAL/MOL
REMARK 924 INTRA-LIGAND FREE ENERGY PREDICTED BY IDOCK:   -0.58 KCAL/MOL
REMARK 927      BINDING AFFINITY PREDICTED BY RF-SCORE:    0.00 PKD
ROOT
HETATM    1  C   UNL     1     -11.576   5.787  72.699  1.00  0.00    -0.253 C  
HETATM    2  O   UNL     1     -10.398   6.513  72.356  1.00  0.00    -0.185 OA 
ENDROOT
BRANCH   2   3
HETATM    3  C   UNL     1     -10.411   7.174  71.152  1.00  0.00    -0.210 A  
HETATM    4  C   UNL     1     -10.289   8.574  71.108  1.00  0.00    -0.273 A  
HETATM    5  C   UNL     1     -10.270   9.282  69.907  1.00  0.00    -0.214 A  
HETATM    6  C   UNL     1     -10.419   8.547  68.735  1.00  0.00    -0.208 A  
HETATM    7  C   UNL     1     -10.504   6.435  69.951  1.00  0.00    -0.213 A  
HETATM    8  C   UNL     1     -10.509   7.144  68.733  1.00  0.00    -0.202 A  
BRANCH   5   9
HETATM    9  N   UNL     1     -10.253  10.682  69.952  1.00  0.00    -0.437 NA 
HETATM   10  H   UNL     1      -9.386  11.191  70.128  1.00  0.00     0.000 HD 
BRANCH   9  11
HETATM   11  C   UNL     1     -11.509  11.394  69.742  1.00  0.00    -0.300 C  
BRANCH  11  12
HETATM   12  C   UNL     1     -11.499  12.255  68.489  1.00  0.00    -0.349 A  
HETATM   13  C   UNL     1     -11.433  13.669  68.596  1.00  0.00    -0.342 A  
HETATM   14  H2  UNL     1     -10.032  16.310  68.862  1.00  0.00     0.000 HD 
HETATM   15  C   UNL     1     -11.342  14.489  67.404  1.00  0.00    -0.370 A  
HETATM   16  H1  UNL     1     -10.697  17.710  68.319  1.00  0.00     0.000 HD 
HETATM   17  C   UNL     1     -11.468  14.321  69.961  1.00  0.00    -0.280 C  
HETATM   18  C   UNL     1     -11.437  13.871  66.148  1.00  0.00    -0.345 A  
HETATM   19  N   UNL     1     -11.440  14.534  64.988  1.00  0.00    -0.365 NA 
HETATM   20  C   UNL     1     -11.516  12.493  66.075  1.00  0.00    -0.423 A  
HETATM   21  C   UNL     1     -11.521  11.688  67.212  1.00  0.00    -0.350 A  
HETATM   22  C   UNL     1     -11.321  15.855  65.035  1.00  0.00    -0.193 A  
HETATM   23  N   UNL     1     -11.122  16.561  66.141  1.00  0.00     0.113 NA 
HETATM   24  N   UNL     1     -11.367  16.545  63.842  1.00  0.00    -1.559 NA 
HETATM   25  C   UNL     1     -11.133  15.885  67.299  1.00  0.00    -0.172 A  
HETATM   26  H2  UNL     1     -11.488  16.057  62.954  1.00  0.00     0.000 HD 
HETATM   27  H1  UNL     1     -11.277  17.559  63.878  1.00  0.00     0.000 HD 
HETATM   28  N   UNL     1     -10.847  16.704  68.394  1.00  0.00    -0.351 NA 
ENDBRANCH  11  12
ENDBRANCH   9  11
ENDBRANCH   5   9
BRANCH   8  29
HETATM   29  O   UNL     1     -10.609   6.664  67.449  1.00  0.00    -0.220 OA 
HETATM   30  C   UNL     1      -9.441   6.501  66.662  1.00  0.00    -0.159 C  
ENDBRANCH   8  29
BRANCH   7  31
HETATM   31  O   UNL     1     -10.611   5.074  69.852  1.00  0.00    -0.237 OA 
HETATM   32  C   UNL     1      -9.455   4.259  69.773  1.00  0.00    -0.190 C  
ENDBRANCH   7  31
ENDBRANCH   2   3
TORSDOF 6
ENDMDL
MODEL       75
REMARK 921   NORMALIZED FREE ENERGY PREDICTED BY IDOCK:   -5.94 KCAL/MOL
REMARK 922        TOTAL FREE ENERGY PREDICTED BY IDOCK:   -8.87 KCAL/MOL
REMARK 923 INTER-LIGAND FREE ENERGY PREDICTED BY IDOCK:   -7.83 KCAL/MOL
REMARK 924 INTRA-LIGAND FREE ENERGY PREDICTED BY IDOCK:   -1.05 KCAL/MOL
REMARK 927      BINDING AFFINITY PREDICTED BY RF-SCORE:    0.00 PKD
ROOT
HETATM    1  C   UNL     1     -11.167  15.149  68.062  1.00  0.00    -0.323 C  
HETATM    2  O   UNL     1     -11.692  14.826  69.348  1.00  0.00    -0.289 OA 
ENDROOT
BRANCH   2   3
HETATM    3  C   UNL     1     -11.903  13.494  69.610  1.00  0.00    -0.336 A  
HETATM    4  C   UNL     1     -11.541  12.518  68.665  1.00  0.00    -0.357 A  
HETATM    5  C   UNL     1     -11.711  11.155  68.901  1.00  0.00    -0.337 A  
HETATM    6  C   UNL     1     -12.299  10.788  70.108  1.00  0.00    -0.401 A  
HETATM    7  C   UNL     1     -12.446  13.105  70.856  1.00  0.00    -0.323 A  
HETATM    8  C   UNL     1     -12.643  11.730  71.094  1.00  0.00    -0.309 A  
BRANCH   5   9
HETATM    9  N   UNL     1     -11.425  10.253  67.868  1.00  0.00    -0.652 NA 
HETATM   10  H   UNL     1     -12.068  10.132  67.085  1.00  0.00     0.000 HD 
BRANCH   9  11
HETATM   11  C   UNL     1     -10.183   9.491  67.942  1.00  0.00    -0.205 C  
BRANCH  11  12
HETATM   12  C   UNL     1     -10.243   8.355  68.950  1.00  0.00    -0.223 A  
HETATM   13  C   UNL     1      -9.463   8.409  70.135  1.00  0.00    -0.165 A  
HETATM   14  H2  UNL     1      -8.894   9.182  72.978  1.00  0.00     0.000 HD 
HETATM   15  C   UNL     1      -9.580   7.368  71.136  1.00  0.00    -0.162 A  
HETATM   16  H1  UNL     1      -7.873   8.318  73.930  1.00  0.00     0.000 HD 
HETATM   17  C   UNL     1      -8.500   9.557  70.346  1.00  0.00    -0.238 C  
HETATM   18  C   UNL     1     -10.385   6.253  70.862  1.00  0.00    -0.205 A  
HETATM   19  N   UNL     1     -10.507   5.202  71.677  1.00  0.00    -0.206 NA 
HETATM   20  C   UNL     1     -11.122   6.219  69.692  1.00  0.00    -0.479 A  
HETATM   21  C   UNL     1     -11.082   7.253  68.760  1.00  0.00     0.048 A  
HETATM   22  C   UNL     1      -9.841   5.234  72.825  1.00  0.00    -0.158 A  
HETATM   23  N   UNL     1      -9.125   6.263  73.259  1.00  0.00    -0.129 NA 
HETATM   24  N   UNL     1      -9.931   4.131  73.649  1.00  0.00    -0.121 NA 
HETATM   25  C   UNL     1      -9.002   7.306  72.426  1.00  0.00    -0.127 A  
HETATM   26  H2  UNL     1     -10.491   3.320  73.386  1.00  0.00     0.000 HD 
HETATM   27  H1  UNL     1      -9.420   4.156  74.530  1.00  0.00     0.000 HD 
HETATM   28  N   UNL     1      -8.289   8.362  73.000  1.00  0.00    -0.354 NA 
ENDBRANCH  11  12
ENDBRANCH   9  11
ENDBRANCH   5   9
BRANCH   8  29
HETATM   29  O   UNL     1     -13.166  11.107  72.201  1.00  0.00    -0.481 OA 
HETATM   30  C   UNL     1     -13.355   9.702  72.201  1.00  0.00    -0.454 C  
ENDBRANCH   8  29
BRANCH   7  31
HETATM   31  O   UNL     1     -12.824  13.948  71.866  1.00  0.00    -0.331 OA 
HETATM   32  C   UNL     1     -14.104  14.554  71.862  1.00  0.00    -0.508 C  
ENDBRANCH   7  31
ENDBRANCH   2   3
TORSDOF 6
ENDMDL
MODEL       76
REMARK 921   NORMALIZED FREE ENERGY PREDICTED BY IDOCK:   -5.93 KCAL/MOL
REMARK 922        TOTAL FREE ENERGY PREDICTED BY IDOCK:   -8.86 KCAL/MOL
REMARK 923 INTER-LIGAND FREE ENERGY PREDICTED BY IDOCK:   -8.16 KCAL/MOL
REMARK 924 INTRA-LIGAND FREE ENERGY PREDICTED BY IDOCK:   -0.70 KCAL/MOL
REMARK 927      BINDING AFFINITY PREDICTED BY RF-SCORE:    0.00 PKD
ROOT
HETATM    1  C   UNL     1     -10.525  11.283  63.678  1.00  0.00    -0.405 C  
HETATM    2  O   UNL     1     -10.439  12.646  64.089  1.00  0.00    -0.368 OA 
ENDROOT
BRANCH   2   3
HETATM    3  C   UNL     1     -10.847  12.928  65.371  1.00  0.00    -0.283 A  
HETATM    4  C   UNL     1     -11.256  11.894  66.231  1.00  0.00    -0.392 A  
HETATM    5  C   UNL     1     -11.649  12.133  67.547  1.00  0.00    -0.343 A  
HETATM    6  C   UNL     1     -11.663  13.457  67.975  1.00  0.00    -0.391 A  
HETATM    7  C   UNL     1     -10.810  14.262  65.837  1.00  0.00    -0.300 A  
HETATM    8  C   UNL     1     -11.229  14.516  67.159  1.00  0.00    -0.333 A  
BRANCH   5   9
HETATM    9  N   UNL     1     -12.144  11.064  68.305  1.00  0.00    -0.788 NA 
HETATM   10  H   UNL     1     -12.686  10.318  67.868  1.00  0.00     0.000 HD 
BRANCH   9  11
HETATM   11  C   UNL     1     -11.866  11.047  69.737  1.00  0.00    -0.347 C  
BRANCH  11  12
HETATM   12  C   UNL     1     -10.955   9.903  70.150  1.00  0.00    -0.356 A  
HETATM   13  C   UNL     1     -11.460   8.835  70.938  1.00  0.00    -0.330 A  
HETATM   14  H2  UNL     1     -12.827   6.201  71.386  1.00  0.00     0.000 HD 
HETATM   15  C   UNL     1     -10.616   7.704  71.265  1.00  0.00    -0.237 A  
HETATM   16  H1  UNL     1     -12.526   5.275  72.708  1.00  0.00     0.000 HD 
HETATM   17  C   UNL     1     -12.885   8.888  71.445  1.00  0.00    -0.335 C  
HETATM   18  C   UNL     1      -9.265   7.736  70.890  1.00  0.00    -0.152 A  
HETATM   19  N   UNL     1      -8.381   6.785  71.202  1.00  0.00    -0.123 NA 
HETATM   20  C   UNL     1      -8.795   8.795  70.136  1.00  0.00    -0.160 A  
HETATM   21  C   UNL     1      -9.618   9.850  69.744  1.00  0.00    -0.261 A  
HETATM   22  C   UNL     1      -8.821   5.738  71.889  1.00  0.00    -0.139 A  
HETATM   23  N   UNL     1     -10.088   5.526  72.222  1.00  0.00    -0.178 NA 
HETATM   24  N   UNL     1      -7.901   4.776  72.250  1.00  0.00    -0.096 NA 
HETATM   25  C   UNL     1     -10.963   6.494  71.912  1.00  0.00    -0.250 A  
HETATM   26  H2  UNL     1      -6.917   4.865  71.997  1.00  0.00     0.000 HD 
HETATM   27  H1  UNL     1      -8.239   3.972  72.778  1.00  0.00     0.000 HD 
HETATM   28  N   UNL     1     -12.276   6.147  72.242  1.00  0.00    -0.229 NA 
ENDBRANCH  11  12
ENDBRANCH   9  11
ENDBRANCH   5   9
BRANCH   8  29
HETATM   29  O   UNL     1     -11.303  15.713  67.831  1.00  0.00    -0.344 OA 
HETATM   30  C   UNL     1     -11.518  15.726  69.232  1.00  0.00    -0.365 C  
ENDBRANCH   8  29
BRANCH   7  31
HETATM   31  O   UNL     1     -10.419  15.356  65.112  1.00  0.00    -0.392 OA 
HETATM   32  C   UNL     1     -11.378  16.214  64.520  1.00  0.00    -0.267 C  
ENDBRANCH   7  31
ENDBRANCH   2   3
TORSDOF 6
ENDMDL
MODEL       77
REMARK 921   NORMALIZED FREE ENERGY PREDICTED BY IDOCK:   -5.91 KCAL/MOL
REMARK 922        TOTAL FREE ENERGY PREDICTED BY IDOCK:   -8.83 KCAL/MOL
REMARK 923 INTER-LIGAND FREE ENERGY PREDICTED BY IDOCK:   -7.76 KCAL/MOL
REMARK 924 INTRA-LIGAND FREE ENERGY PREDICTED BY IDOCK:   -1.08 KCAL/MOL
REMARK 927      BINDING AFFINITY PREDICTED BY RF-SCORE:    0.00 PKD
ROOT
HETATM    1  C   UNL     1     -10.300  19.672  66.509  1.00  0.00    -0.493 C  
HETATM    2  O   UNL     1      -9.622  18.472  66.144  1.00  0.00    -0.445 OA 
ENDROOT
BRANCH   2   3
HETATM    3  C   UNL     1      -9.763  17.402  66.994  1.00  0.00    -0.276 A  
HETATM    4  C   UNL     1     -10.876  16.549  66.884  1.00  0.00    -0.083 A  
HETATM    5  C   UNL     1     -11.044  15.437  67.708  1.00  0.00    -0.320 A  
HETATM    6  C   UNL     1     -10.078  15.218  68.686  1.00  0.00    -0.222 A  
HETATM    7  C   UNL     1      -8.760  17.135  67.953  1.00  0.00    -0.222 A  
HETATM    8  C   UNL     1      -8.933  16.026  68.806  1.00  0.00    -0.226 A  
BRANCH   5   9
HETATM    9  N   UNL     1     -12.231  14.700  67.607  1.00  0.00    -0.587 NA 
HETATM   10  H   UNL     1     -12.912  14.697  68.367  1.00  0.00     0.000 HD 
BRANCH   9  11
HETATM   11  C   UNL     1     -12.467  13.936  66.387  1.00  0.00    -0.370 C  
BRANCH  11  12
HETATM   12  C   UNL     1     -11.759  12.591  66.382  1.00  0.00    -0.458 A  
HETATM   13  C   UNL     1     -11.034  12.170  65.237  1.00  0.00    -0.349 A  
HETATM   14  H2  UNL     1      -8.618  11.995  63.465  1.00  0.00     0.000 HD 
HETATM   15  C   UNL     1     -10.291  10.926  65.258  1.00  0.00    -0.334 A  
HETATM   16  H1  UNL     1      -8.372  10.731  62.447  1.00  0.00     0.000 HD 
HETATM   17  C   UNL     1     -11.047  13.022  63.986  1.00  0.00    -0.433 C  
HETATM   18  C   UNL     1     -10.395  10.095  66.383  1.00  0.00    -0.188 A  
HETATM   19  N   UNL     1      -9.815   8.895  66.481  1.00  0.00    -0.253 NA 
HETATM   20  C   UNL     1     -11.121  10.523  67.479  1.00  0.00    -0.358 A  
HETATM   21  C   UNL     1     -11.773  11.755  67.502  1.00  0.00    -0.312 A  
HETATM   22  C   UNL     1      -9.079   8.483  65.456  1.00  0.00    -0.091 A  
HETATM   23  N   UNL     1      -8.810   9.205  64.375  1.00  0.00    -0.163 NA 
HETATM   24  N   UNL     1      -8.514   7.227  65.537  1.00  0.00    -0.215 NA 
HETATM   25  C   UNL     1      -9.408  10.401  64.285  1.00  0.00    -0.277 A  
HETATM   26  H2  UNL     1      -8.658   6.636  66.356  1.00  0.00     0.000 HD 
HETATM   27  H1  UNL     1      -7.949   6.911  64.751  1.00  0.00     0.000 HD 
HETATM   28  N   UNL     1      -9.009  11.109  63.148  1.00  0.00    -0.205 NA 
ENDBRANCH  11  12
ENDBRANCH   9  11
ENDBRANCH   5   9
BRANCH   8  29
HETATM   29  O   UNL     1      -8.122  15.574  69.818  1.00  0.00    -0.183 OA 
HETATM   30  C   UNL     1      -6.990  14.775  69.516  1.00  0.00    -0.176 C  
ENDBRANCH   8  29
BRANCH   7  31
HETATM   31  O   UNL     1      -7.623  17.872  68.154  1.00  0.00    -0.242 OA 
HETATM   32  C   UNL     1      -7.626  18.985  69.030  1.00  0.00    -0.275 C  
ENDBRANCH   7  31
ENDBRANCH   2   3
TORSDOF 6
ENDMDL
MODEL       78
REMARK 921   NORMALIZED FREE ENERGY PREDICTED BY IDOCK:   -5.84 KCAL/MOL
REMARK 922        TOTAL FREE ENERGY PREDICTED BY IDOCK:   -8.74 KCAL/MOL
REMARK 923 INTER-LIGAND FREE ENERGY PREDICTED BY IDOCK:   -7.98 KCAL/MOL
REMARK 924 INTRA-LIGAND FREE ENERGY PREDICTED BY IDOCK:   -0.76 KCAL/MOL
REMARK 927      BINDING AFFINITY PREDICTED BY RF-SCORE:    0.00 PKD
ROOT
HETATM    1  C   UNL     1      -6.329   9.683  69.922  1.00  0.00    -0.054 C  
HETATM    2  O   UNL     1      -7.270   8.716  70.384  1.00  0.00    -0.039 OA 
ENDROOT
BRANCH   2   3
HETATM    3  C   UNL     1      -8.596   9.066  70.314  1.00  0.00    -0.178 A  
HETATM    4  C   UNL     1      -9.134   9.582  69.121  1.00  0.00    -0.152 A  
HETATM    5  C   UNL     1     -10.479   9.924  68.998  1.00  0.00    -0.210 A  
HETATM    6  C   UNL     1     -11.279   9.772  70.127  1.00  0.00    -0.324 A  
HETATM    7  C   UNL     1      -9.433   8.862  71.435  1.00  0.00    -0.274 A  
HETATM    8  C   UNL     1     -10.790   9.227  71.327  1.00  0.00    -0.347 A  
BRANCH   5   9
HETATM    9  N   UNL     1     -10.913  10.531  67.812  1.00  0.00    -0.294 NA 
HETATM   10  H   UNL     1     -10.472  10.311  66.919  1.00  0.00     0.000 HD 
BRANCH   9  11
HETATM   11  C   UNL     1     -12.012  11.488  67.889  1.00  0.00    -0.073 C  
BRANCH  11  12
HETATM   12  C   UNL     1     -11.587  12.908  67.553  1.00  0.00    -0.409 A  
HETATM   13  C   UNL     1     -11.800  13.427  66.249  1.00  0.00    -0.438 A  
HETATM   14  H2  UNL     1     -13.391  14.767  64.086  1.00  0.00     0.000 HD 
HETATM   15  C   UNL     1     -11.471  14.807  65.949  1.00  0.00    -0.319 A  
HETATM   16  H1  UNL     1     -12.675  15.586  62.855  1.00  0.00     0.000 HD 
HETATM   17  C   UNL     1     -12.363  12.531  65.168  1.00  0.00    -0.496 C  
HETATM   18  C   UNL     1     -10.836  15.580  66.931  1.00  0.00    -0.301 A  
HETATM   19  N   UNL     1     -10.422  16.836  66.740  1.00  0.00    -0.288 NA 
HETATM   20  C   UNL     1     -10.627  15.044  68.188  1.00  0.00    -0.248 A  
HETATM   21  C   UNL     1     -11.014  13.745  68.514  1.00  0.00    -0.283 A  
HETATM   22  C   UNL     1     -10.651  17.385  65.553  1.00  0.00    -0.108 A  
HETATM   23  N   UNL     1     -11.329  16.809  64.568  1.00  0.00    -0.993 NA 
HETATM   24  N   UNL     1     -10.186  18.665  65.339  1.00  0.00    -0.250 NA 
HETATM   25  C   UNL     1     -11.728  15.545  64.770  1.00  0.00    -0.187 A  
HETATM   26  H2  UNL     1      -9.684  19.174  66.067  1.00  0.00     0.000 HD 
HETATM   27  H1  UNL     1     -10.362  19.087  64.428  1.00  0.00     0.000 HD 
HETATM   28  N   UNL     1     -12.489  15.054  63.705  1.00  0.00    -0.672 NA 
ENDBRANCH  11  12
ENDBRANCH   9  11
ENDBRANCH   5   9
BRANCH   8  29
HETATM   29  O   UNL     1     -11.788   9.148  72.269  1.00  0.00    -0.312 OA 
HETATM   30  C   UNL     1     -13.055   8.619  71.915  1.00  0.00    -0.373 C  
ENDBRANCH   8  29
BRANCH   7  31
HETATM   31  O   UNL     1      -9.044   8.355  72.646  1.00  0.00    -0.234 OA 
HETATM   32  C   UNL     1      -8.920   6.957  72.840  1.00  0.00    -0.126 C  
ENDBRANCH   7  31
ENDBRANCH   2   3
TORSDOF 6
ENDMDL
MODEL       79
REMARK 921   NORMALIZED FREE ENERGY PREDICTED BY IDOCK:   -5.84 KCAL/MOL
REMARK 922        TOTAL FREE ENERGY PREDICTED BY IDOCK:   -8.74 KCAL/MOL
REMARK 923 INTER-LIGAND FREE ENERGY PREDICTED BY IDOCK:   -8.05 KCAL/MOL
REMARK 924 INTRA-LIGAND FREE ENERGY PREDICTED BY IDOCK:   -0.69 KCAL/MOL
REMARK 927      BINDING AFFINITY PREDICTED BY RF-SCORE:    0.00 PKD
ROOT
HETATM    1  C   UNL     1     -10.914   6.206  71.734  1.00  0.00    -0.264 C  
HETATM    2  O   UNL     1     -10.998   7.522  72.279  1.00  0.00    -0.232 OA 
ENDROOT
BRANCH   2   3
HETATM    3  C   UNL     1     -10.913   8.563  71.386  1.00  0.00    -0.264 A  
HETATM    4  C   UNL     1      -9.986   8.520  70.330  1.00  0.00    -0.196 A  
HETATM    5  C   UNL     1      -9.886   9.541  69.386  1.00  0.00    -0.186 A  
HETATM    6  C   UNL     1     -10.720  10.643  69.551  1.00  0.00    -0.290 A  
HETATM    7  C   UNL     1     -11.795   9.661  71.508  1.00  0.00    -0.407 A  
HETATM    8  C   UNL     1     -11.684  10.709  70.572  1.00  0.00    -0.356 A  
BRANCH   5   9
HETATM    9  N   UNL     1      -8.865   9.473  68.428  1.00  0.00    -0.124 NA 
HETATM   10  H   UNL     1      -8.603   8.583  68.003  1.00  0.00     0.000 HD 
BRANCH   9  11
HETATM   11  C   UNL     1      -8.187  10.709  68.055  1.00  0.00    -0.113 C  
BRANCH  11  12
HETATM   12  C   UNL     1      -9.008  11.576  67.115  1.00  0.00    -0.166 A  
HETATM   13  C   UNL     1      -9.036  12.985  67.283  1.00  0.00    -0.212 A  
HETATM   14  H2  UNL     1      -8.027  15.786  66.906  1.00  0.00     0.000 HD 
HETATM   15  C   UNL     1      -9.751  13.821  66.340  1.00  0.00    -0.304 A  
HETATM   16  H1  UNL     1      -9.022  17.090  66.978  1.00  0.00     0.000 HD 
HETATM   17  C   UNL     1      -8.323  13.614  68.461  1.00  0.00    -0.110 C  
HETATM   18  C   UNL     1     -10.507  13.208  65.330  1.00  0.00    -0.307 A  
HETATM   19  N   UNL     1     -11.263  13.875  64.454  1.00  0.00    -0.359 NA 
HETATM   20  C   UNL     1     -10.473  11.832  65.198  1.00  0.00    -0.330 A  
HETATM   21  C   UNL     1      -9.723  11.023  66.049  1.00  0.00    -0.265 A  
HETATM   22  C   UNL     1     -11.275  15.200  64.536  1.00  0.00    -0.272 A  
HETATM   23  N   UNL     1     -10.533  15.916  65.372  1.00  0.00    -0.406 NA 
HETATM   24  N   UNL     1     -12.088  15.889  63.660  1.00  0.00    -1.072 NA 
HETATM   25  C   UNL     1      -9.789  15.233  66.253  1.00  0.00    -0.294 A  
HETATM   26  H2  UNL     1     -12.659  15.398  62.973  1.00  0.00     0.000 HD 
HETATM   27  H1  UNL     1     -12.097  16.906  63.724  1.00  0.00     0.000 HD 
HETATM   28  N   UNL     1      -8.996  16.073  67.040  1.00  0.00    -0.203 NA 
ENDBRANCH  11  12
ENDBRANCH   9  11
ENDBRANCH   5   9
BRANCH   8  29
HETATM   29  O   UNL     1     -12.402  11.879  70.490  1.00  0.00    -0.330 OA 
HETATM   30  C   UNL     1     -11.860  12.996  69.806  1.00  0.00    -0.311 C  
ENDBRANCH   8  29
BRANCH   7  31
HETATM   31  O   UNL     1     -12.750   9.820  72.475  1.00  0.00    -0.226 OA 
HETATM   32  C   UNL     1     -13.964   9.091  72.423  1.00  0.00    -0.448 C  
ENDBRANCH   7  31
ENDBRANCH   2   3
TORSDOF 6
ENDMDL
MODEL       80
REMARK 921   NORMALIZED FREE ENERGY PREDICTED BY IDOCK:   -5.84 KCAL/MOL
REMARK 922        TOTAL FREE ENERGY PREDICTED BY IDOCK:   -8.74 KCAL/MOL
REMARK 923 INTER-LIGAND FREE ENERGY PREDICTED BY IDOCK:   -8.04 KCAL/MOL
REMARK 924 INTRA-LIGAND FREE ENERGY PREDICTED BY IDOCK:   -0.70 KCAL/MOL
REMARK 927      BINDING AFFINITY PREDICTED BY RF-SCORE:    0.00 PKD
ROOT
HETATM    1  C   UNL     1     -10.748  19.449  67.124  1.00  0.00    -0.483 C  
HETATM    2  O   UNL     1     -10.375  18.884  65.868  1.00  0.00    -0.503 OA 
ENDROOT
BRANCH   2   3
HETATM    3  C   UNL     1     -10.152  17.528  65.846  1.00  0.00    -0.185 A  
HETATM    4  C   UNL     1     -11.010  16.678  65.126  1.00  0.00    -0.160 A  
HETATM    5  C   UNL     1     -10.804  15.301  65.054  1.00  0.00    -0.439 A  
HETATM    6  C   UNL     1      -9.726  14.782  65.764  1.00  0.00    -0.347 A  
HETATM    7  C   UNL     1      -9.028  16.995  66.516  1.00  0.00    -0.269 A  
HETATM    8  C   UNL     1      -8.825  15.601  66.468  1.00  0.00    -0.310 A  
BRANCH   5   9
HETATM    9  N   UNL     1     -11.763  14.512  64.406  1.00  0.00    -0.605 NA 
HETATM   10  H   UNL     1     -11.985  14.659  63.421  1.00  0.00     0.000 HD 
BRANCH   9  11
HETATM   11  C   UNL     1     -12.436  13.473  65.177  1.00  0.00    -0.451 C  
BRANCH  11  12
HETATM   12  C   UNL     1     -11.559  12.257  65.428  1.00  0.00    -0.412 A  
HETATM   13  C   UNL     1     -11.318  11.811  66.754  1.00  0.00    -0.385 A  
HETATM   14  H2  UNL     1     -11.935  10.274  69.256  1.00  0.00     0.000 HD 
HETATM   15  C   UNL     1     -10.549  10.605  66.992  1.00  0.00    -0.317 A  
HETATM   16  H1  UNL     1     -10.760   9.790  70.296  1.00  0.00     0.000 HD 
HETATM   17  C   UNL     1     -11.859  12.606  67.922  1.00  0.00    -0.388 C  
HETATM   18  C   UNL     1      -9.954   9.956  65.901  1.00  0.00    -0.277 A  
HETATM   19  N   UNL     1      -9.166   8.883  66.010  1.00  0.00    -0.212 NA 
HETATM   20  C   UNL     1     -10.193  10.421  64.621  1.00  0.00    -0.305 A  
HETATM   21  C   UNL     1     -10.998  11.531  64.373  1.00  0.00    -0.390 A  
HETATM   22  C   UNL     1      -8.958   8.395  67.227  1.00  0.00    -0.130 A  
HETATM   23  N   UNL     1      -9.536   8.843  68.334  1.00  0.00    -0.140 NA 
HETATM   24  N   UNL     1      -8.110   7.313  67.347  1.00  0.00    -0.112 NA 
HETATM   25  C   UNL     1     -10.315   9.927  68.211  1.00  0.00    -0.201 A  
HETATM   26  H2  UNL     1      -7.659   6.903  66.530  1.00  0.00     0.000 HD 
HETATM   27  H1  UNL     1      -7.951   6.939  68.281  1.00  0.00     0.000 HD 
HETATM   28  N   UNL     1     -10.929  10.278  69.417  1.00  0.00    -0.233 NA 
ENDBRANCH  11  12
ENDBRANCH   9  11
ENDBRANCH   5   9
BRANCH   8  29
HETATM   29  O   UNL     1      -7.831  14.847  67.046  1.00  0.00    -0.201 OA 
HETATM   30  C   UNL     1      -8.058  13.478  67.336  1.00  0.00    -0.176 C  
ENDBRANCH   8  29
BRANCH   7  31
HETATM   31  O   UNL     1      -8.108  17.709  67.237  1.00  0.00    -0.203 OA 
HETATM   32  C   UNL     1      -6.995  18.309  66.599  1.00  0.00    -0.207 C  
ENDBRANCH   7  31
ENDBRANCH   2   3
TORSDOF 6
ENDMDL
MODEL       81
REMARK 921   NORMALIZED FREE ENERGY PREDICTED BY IDOCK:   -5.80 KCAL/MOL
REMARK 922        TOTAL FREE ENERGY PREDICTED BY IDOCK:   -8.69 KCAL/MOL
REMARK 923 INTER-LIGAND FREE ENERGY PREDICTED BY IDOCK:   -8.12 KCAL/MOL
REMARK 924 INTRA-LIGAND FREE ENERGY PREDICTED BY IDOCK:   -0.57 KCAL/MOL
REMARK 927      BINDING AFFINITY PREDICTED BY RF-SCORE:    0.00 PKD
ROOT
HETATM    1  C   UNL     1     -10.612  17.674  67.589  1.00  0.00    -0.362 C  
HETATM    2  O   UNL     1     -10.032  16.528  66.970  1.00  0.00    -0.254 OA 
ENDROOT
BRANCH   2   3
HETATM    3  C   UNL     1     -10.665  15.327  67.184  1.00  0.00    -0.316 A  
HETATM    4  C   UNL     1     -10.824  14.830  68.490  1.00  0.00    -0.255 A  
HETATM    5  C   UNL     1     -11.484  13.631  68.754  1.00  0.00    -0.309 A  
HETATM    6  C   UNL     1     -11.953  12.910  67.659  1.00  0.00    -0.344 A  
HETATM    7  C   UNL     1     -11.197  14.613  66.086  1.00  0.00    -0.341 A  
HETATM    8  C   UNL     1     -11.845  13.388  66.342  1.00  0.00    -0.396 A  
BRANCH   5   9
HETATM    9  N   UNL     1     -11.507  13.152  70.070  1.00  0.00    -0.519 NA 
HETATM   10  H   UNL     1     -10.944  13.592  70.798  1.00  0.00     0.000 HD 
BRANCH   9  11
HETATM   11  C   UNL     1     -12.358  12.006  70.372  1.00  0.00    -0.233 C  
BRANCH  11  12
HETATM   12  C   UNL     1     -11.594  10.693  70.411  1.00  0.00    -0.441 A  
HETATM   13  C   UNL     1     -12.160   9.556  71.044  1.00  0.00    -0.398 A  
HETATM   14  H2  UNL     1     -13.856   7.083  71.172  1.00  0.00     0.000 HD 
HETATM   15  C   UNL     1     -11.469   8.281  71.012  1.00  0.00    -0.303 A  
HETATM   16  H1  UNL     1     -13.544   5.865  72.228  1.00  0.00     0.000 HD 
HETATM   17  C   UNL     1     -13.486   9.679  71.762  1.00  0.00    -0.477 C  
HETATM   18  C   UNL     1     -10.186   8.221  70.449  1.00  0.00    -0.201 A  
HETATM   19  N   UNL     1      -9.430   7.120  70.432  1.00  0.00    -0.163 NA 
HETATM   20  C   UNL     1      -9.652   9.348  69.853  1.00  0.00    -0.234 A  
HETATM   21  C   UNL     1     -10.341  10.559  69.805  1.00  0.00    -0.211 A  
HETATM   22  C   UNL     1      -9.941   6.015  70.961  1.00  0.00    -0.187 A  
HETATM   23  N   UNL     1     -11.176   5.900  71.435  1.00  0.00    -0.255 NA 
HETATM   24  N   UNL     1      -9.146   4.888  70.983  1.00  0.00    -0.136 NA 
HETATM   25  C   UNL     1     -11.919   7.016  71.456  1.00  0.00    -0.334 A  
HETATM   26  H2  UNL     1      -8.198   4.903  70.606  1.00  0.00     0.000 HD 
HETATM   27  H1  UNL     1      -9.538   4.040  71.389  1.00  0.00     0.000 HD 
HETATM   28  N   UNL     1     -13.220   6.777  71.908  1.00  0.00    -0.211 NA 
ENDBRANCH  11  12
ENDBRANCH   9  11
ENDBRANCH   5   9
BRANCH   8  29
HETATM   29  O   UNL     1     -12.421  12.509  65.455  1.00  0.00    -0.646 OA 
HETATM   30  C   UNL     1     -11.607  11.769  64.562  1.00  0.00    -0.223 C  
ENDBRANCH   8  29
BRANCH   7  31
HETATM   31  O   UNL     1     -11.126  14.991  64.772  1.00  0.00    -0.387 OA 
HETATM   32  C   UNL     1     -12.113  15.834  64.206  1.00  0.00     0.016 C  
ENDBRANCH   7  31
ENDBRANCH   2   3
TORSDOF 6
ENDMDL
MODEL       82
REMARK 921   NORMALIZED FREE ENERGY PREDICTED BY IDOCK:   -5.79 KCAL/MOL
REMARK 922        TOTAL FREE ENERGY PREDICTED BY IDOCK:   -8.68 KCAL/MOL
REMARK 923 INTER-LIGAND FREE ENERGY PREDICTED BY IDOCK:   -7.99 KCAL/MOL
REMARK 924 INTRA-LIGAND FREE ENERGY PREDICTED BY IDOCK:   -0.69 KCAL/MOL
REMARK 927      BINDING AFFINITY PREDICTED BY RF-SCORE:    0.00 PKD
ROOT
HETATM    1  C   UNL     1     -11.457  15.638  70.020  1.00  0.00    -0.344 C  
HETATM    2  O   UNL     1     -11.866  15.704  68.655  1.00  0.00    -0.372 OA 
ENDROOT
BRANCH   2   3
HETATM    3  C   UNL     1     -11.700  14.564  67.908  1.00  0.00    -0.351 A  
HETATM    4  C   UNL     1     -11.954  13.301  68.472  1.00  0.00    -0.340 A  
HETATM    5  C   UNL     1     -11.826  12.121  67.741  1.00  0.00    -0.257 A  
HETATM    6  C   UNL     1     -11.392  12.233  66.423  1.00  0.00    -0.405 A  
HETATM    7  C   UNL     1     -11.317  14.668  66.551  1.00  0.00    -0.353 A  
HETATM    8  C   UNL     1     -11.162  13.478  65.811  1.00  0.00    -0.297 A  
BRANCH   5   9
HETATM    9  N   UNL     1     -11.992  10.898  68.404  1.00  0.00    -0.779 NA 
HETATM   10  H   UNL     1     -12.806  10.310  68.224  1.00  0.00     0.000 HD 
BRANCH   9  11
HETATM   11  C   UNL     1     -10.969  10.488  69.361  1.00  0.00    -0.250 C  
BRANCH  11  12
HETATM   12  C   UNL     1     -10.596   9.020  69.237  1.00  0.00    -0.226 A  
HETATM   13  C   UNL     1     -10.694   8.160  70.363  1.00  0.00    -0.234 A  
HETATM   14  H2  UNL     1     -12.115   6.309  72.250  1.00  0.00     0.000 HD 
HETATM   15  C   UNL     1     -10.417   6.744  70.228  1.00  0.00    -0.238 A  
HETATM   16  H1  UNL     1     -11.319   5.159  73.109  1.00  0.00     0.000 HD 
HETATM   17  C   UNL     1     -11.081   8.731  71.710  1.00  0.00    -0.417 C  
HETATM   18  C   UNL     1      -9.941   6.261  69.001  1.00  0.00    -0.146 A  
HETATM   19  N   UNL     1      -9.584   4.992  68.786  1.00  0.00    -0.140 NA 
HETATM   20  C   UNL     1      -9.840   7.124  67.925  1.00  0.00    -0.170 A  
HETATM   21  C   UNL     1     -10.182   8.471  68.020  1.00  0.00    -0.264 A  
HETATM   22  C   UNL     1      -9.713   4.138  69.794  1.00  0.00    -0.208 A  
HETATM   23  N   UNL     1     -10.244   4.432  70.975  1.00  0.00    -0.117 NA 
HETATM   24  N   UNL     1      -9.305   2.837  69.588  1.00  0.00    -0.143 NA 
HETATM   25  C   UNL     1     -10.587   5.711  71.180  1.00  0.00    -0.245 A  
HETATM   26  H2  UNL     1      -8.917   2.541  68.692  1.00  0.00     0.000 HD 
HETATM   27  H1  UNL     1      -9.404   2.181  70.362  1.00  0.00     0.000 HD 
HETATM   28  N   UNL     1     -11.196   5.903  72.423  1.00  0.00    -0.277 NA 
ENDBRANCH  11  12
ENDBRANCH   9  11
ENDBRANCH   5   9
BRANCH   8  29
HETATM   29  O   UNL     1     -10.783  13.314  64.500  1.00  0.00    -0.368 OA 
HETATM   30  C   UNL     1     -11.727  12.870  63.540  1.00  0.00    -0.512 C  
ENDBRANCH   8  29
BRANCH   7  31
HETATM   31  O   UNL     1     -11.057  15.830  65.877  1.00  0.00    -0.238 OA 
HETATM   32  C   UNL     1      -9.760  16.399  65.886  1.00  0.00    -0.294 C  
ENDBRANCH   7  31
ENDBRANCH   2   3
TORSDOF 6
ENDMDL
MODEL       83
REMARK 921   NORMALIZED FREE ENERGY PREDICTED BY IDOCK:   -5.79 KCAL/MOL
REMARK 922        TOTAL FREE ENERGY PREDICTED BY IDOCK:   -8.67 KCAL/MOL
REMARK 923 INTER-LIGAND FREE ENERGY PREDICTED BY IDOCK:   -8.00 KCAL/MOL
REMARK 924 INTRA-LIGAND FREE ENERGY PREDICTED BY IDOCK:   -0.68 KCAL/MOL
REMARK 927      BINDING AFFINITY PREDICTED BY RF-SCORE:    0.00 PKD
ROOT
HETATM    1  C   UNL     1     -10.924   6.252  67.788  1.00  0.00    -0.332 C  
HETATM    2  O   UNL     1      -9.905   6.836  68.597  1.00  0.00    -0.140 OA 
ENDROOT
BRANCH   2   3
HETATM    3  C   UNL     1     -10.211   7.041  69.920  1.00  0.00    -0.201 A  
HETATM    4  C   UNL     1     -10.987   8.147  70.308  1.00  0.00    -0.240 A  
HETATM    5  C   UNL     1     -11.345   8.377  71.635  1.00  0.00    -0.286 A  
HETATM    6  C   UNL     1     -10.866   7.481  72.586  1.00  0.00    -0.365 A  
HETATM    7  C   UNL     1      -9.780   6.106  70.889  1.00  0.00    -0.177 A  
HETATM    8  C   UNL     1     -10.117   6.343  72.237  1.00  0.00    -0.176 A  
BRANCH   5   9
HETATM    9  N   UNL     1     -12.028   9.558  71.953  1.00  0.00    -0.358 NA 
HETATM   10  H   UNL     1     -11.862  10.038  72.838  1.00  0.00     0.000 HD 
BRANCH   9  11
HETATM   11  C   UNL     1     -12.982  10.085  70.983  1.00  0.00    -0.360 C  
BRANCH  11  12
HETATM   12  C   UNL     1     -12.494  11.351  70.297  1.00  0.00    -0.312 A  
HETATM   13  C   UNL     1     -12.710  12.618  70.899  1.00  0.00    -0.274 A  
HETATM   14  H2  UNL     1     -12.052  14.902  72.731  1.00  0.00     0.000 HD 
HETATM   15  C   UNL     1     -12.174  13.819  70.288  1.00  0.00    -0.429 A  
HETATM   16  H1  UNL     1     -12.573  16.432  72.441  1.00  0.00     0.000 HD 
HETATM   17  C   UNL     1     -13.512  12.714  72.178  1.00  0.00    -0.561 C  
HETATM   18  C   UNL     1     -11.543  13.719  69.040  1.00  0.00    -0.313 A  
HETATM   19  N   UNL     1     -11.080  14.766  68.352  1.00  0.00    -0.253 NA 
HETATM   20  C   UNL     1     -11.360  12.473  68.469  1.00  0.00    -0.337 A  
HETATM   21  C   UNL     1     -11.797  11.303  69.086  1.00  0.00    -0.423 A  
HETATM   22  C   UNL     1     -11.208  15.968  68.902  1.00  0.00    -0.353 A  
HETATM   23  N   UNL     1     -11.690  16.200  70.116  1.00  0.00    -0.258 NA 
HETATM   24  N   UNL     1     -10.769  17.055  68.175  1.00  0.00    -0.371 NA 
HETATM   25  C   UNL     1     -12.162  15.141  70.790  1.00  0.00    -0.340 A  
HETATM   26  H2  UNL     1     -10.360  16.940  67.247  1.00  0.00     0.000 HD 
HETATM   27  H1  UNL     1     -10.867  17.977  68.597  1.00  0.00     0.000 HD 
HETATM   28  N   UNL     1     -12.583  15.479  72.079  1.00  0.00    -0.371 NA 
ENDBRANCH  11  12
ENDBRANCH   9  11
ENDBRANCH   5   9
BRANCH   8  29
HETATM   29  O   UNL     1      -9.804   5.604  73.353  1.00  0.00    -0.160 OA 
HETATM   30  C   UNL     1     -10.714   4.631  73.836  1.00  0.00    -0.294 C  
ENDBRANCH   8  29
BRANCH   7  31
HETATM   31  O   UNL     1      -9.037   4.982  70.647  1.00  0.00    -0.126 OA 
HETATM   32  C   UNL     1      -9.657   3.776  70.240  1.00  0.00    -0.187 C  
ENDBRANCH   7  31
ENDBRANCH   2   3
TORSDOF 6
ENDMDL
MODEL       84
REMARK 921   NORMALIZED FREE ENERGY PREDICTED BY IDOCK:   -5.77 KCAL/MOL
REMARK 922        TOTAL FREE ENERGY PREDICTED BY IDOCK:   -8.64 KCAL/MOL
REMARK 923 INTER-LIGAND FREE ENERGY PREDICTED BY IDOCK:   -8.03 KCAL/MOL
REMARK 924 INTRA-LIGAND FREE ENERGY PREDICTED BY IDOCK:   -0.62 KCAL/MOL
REMARK 927      BINDING AFFINITY PREDICTED BY RF-SCORE:    0.00 PKD
ROOT
HETATM    1  C   UNL     1      -8.982   5.249  71.193  1.00  0.00    -0.139 C  
HETATM    2  O   UNL     1      -9.824   4.387  70.431  1.00  0.00    -0.202 OA 
ENDROOT
BRANCH   2   3
HETATM    3  C   UNL     1      -9.894   4.632  69.081  1.00  0.00    -0.172 A  
HETATM    4  C   UNL     1     -10.251   5.906  68.607  1.00  0.00    -0.243 A  
HETATM    5  C   UNL     1     -10.306   6.205  67.246  1.00  0.00    -0.219 A  
HETATM    6  C   UNL     1     -10.030   5.170  66.357  1.00  0.00    -0.236 A  
HETATM    7  C   UNL     1      -9.560   3.606  68.168  1.00  0.00    -0.103 A  
HETATM    8  C   UNL     1      -9.636   3.892  66.789  1.00  0.00    -0.198 A  
BRANCH   5   9
HETATM    9  N   UNL     1     -10.774   7.466  66.853  1.00  0.00    -0.489 NA 
HETATM   10  H   UNL     1     -11.639   7.561  66.320  1.00  0.00     0.000 HD 
BRANCH   9  11
HETATM   11  C   UNL     1      -9.991   8.639  67.227  1.00  0.00    -0.219 C  
BRANCH  11  12
HETATM   12  C   UNL     1     -10.346   9.872  66.413  1.00  0.00    -0.246 A  
HETATM   13  C   UNL     1     -11.022  10.961  67.024  1.00  0.00    -0.310 A  
HETATM   14  H2  UNL     1     -11.196  13.521  68.579  1.00  0.00     0.000 HD 
HETATM   15  C   UNL     1     -11.289  12.171  66.271  1.00  0.00    -0.411 A  
HETATM   16  H1  UNL     1     -12.449  14.568  68.401  1.00  0.00     0.000 HD 
HETATM   17  C   UNL     1     -11.474  10.850  68.463  1.00  0.00    -0.380 C  
HETATM   18  C   UNL     1     -10.972  12.203  64.906  1.00  0.00    -0.309 A  
HETATM   19  N   UNL     1     -11.241  13.235  64.101  1.00  0.00    -0.386 NA 
HETATM   20  C   UNL     1     -10.328  11.122  64.333  1.00  0.00    -0.407 A  
HETATM   21  C   UNL     1      -9.992   9.985  65.065  1.00  0.00    -0.320 A  
HETATM   22  C   UNL     1     -11.821  14.300  64.640  1.00  0.00    -0.448 A  
HETATM   23  N   UNL     1     -12.084  14.449  65.933  1.00  0.00    -0.374 NA 
HETATM   24  N   UNL     1     -12.139  15.349  63.803  1.00  0.00    -0.965 NA 
HETATM   25  C   UNL     1     -11.820  13.401  66.726  1.00  0.00    -0.403 A  
HETATM   26  H2  UNL     1     -11.934  15.308  62.804  1.00  0.00     0.000 HD 
HETATM   27  H1  UNL     1     -12.584  16.167  64.217  1.00  0.00     0.000 HD 
HETATM   28  N   UNL     1     -12.067  13.681  68.073  1.00  0.00    -0.334 NA 
ENDBRANCH  11  12
ENDBRANCH   9  11
ENDBRANCH   5   9
BRANCH   8  29
HETATM   29  O   UNL     1      -9.384   3.070  65.717  1.00  0.00    -0.150 OA 
HETATM   30  C   UNL     1      -9.824   3.442  64.422  1.00  0.00    -0.174 C  
ENDBRANCH   8  29
BRANCH   7  31
HETATM   31  O   UNL     1      -9.181   2.331  68.494  1.00  0.00    -0.144 OA 
HETATM   32  C   UNL     1      -7.826   2.025  68.771  1.00  0.00    -0.045 C  
ENDBRANCH   7  31
ENDBRANCH   2   3
TORSDOF 6
ENDMDL
MODEL       85
REMARK 921   NORMALIZED FREE ENERGY PREDICTED BY IDOCK:   -5.77 KCAL/MOL
REMARK 922        TOTAL FREE ENERGY PREDICTED BY IDOCK:   -8.64 KCAL/MOL
REMARK 923 INTER-LIGAND FREE ENERGY PREDICTED BY IDOCK:   -8.02 KCAL/MOL
REMARK 924 INTRA-LIGAND FREE ENERGY PREDICTED BY IDOCK:   -0.62 KCAL/MOL
REMARK 927      BINDING AFFINITY PREDICTED BY RF-SCORE:    0.00 PKD
ROOT
HETATM    1  C   UNL     1     -12.326  12.991  63.220  1.00  0.00    -0.306 C  
HETATM    2  O   UNL     1     -12.312  14.065  64.158  1.00  0.00    -0.620 OA 
ENDROOT
BRANCH   2   3
HETATM    3  C   UNL     1     -11.638  13.844  65.335  1.00  0.00    -0.325 A  
HETATM    4  C   UNL     1     -11.902  12.695  66.101  1.00  0.00    -0.477 A  
HETATM    5  C   UNL     1     -11.222  12.418  67.286  1.00  0.00    -0.303 A  
HETATM    6  C   UNL     1     -10.286  13.354  67.714  1.00  0.00    -0.235 A  
HETATM    7  C   UNL     1     -10.643  14.758  65.752  1.00  0.00    -0.327 A  
HETATM    8  C   UNL     1      -9.967  14.498  66.962  1.00  0.00    -0.255 A  
BRANCH   5   9
HETATM    9  N   UNL     1     -11.618  11.309  68.045  1.00  0.00    -0.490 NA 
HETATM   10  H   UNL     1     -12.488  11.322  68.579  1.00  0.00     0.000 HD 
BRANCH   9  11
HETATM   11  C   UNL     1     -10.754  10.134  68.051  1.00  0.00    -0.260 C  
BRANCH  11  12
HETATM   12  C   UNL     1     -10.827   9.350  69.352  1.00  0.00    -0.208 A  
HETATM   13  C   UNL     1     -10.774   7.932  69.335  1.00  0.00    -0.174 A  
HETATM   14  H2  UNL     1      -9.395   5.266  69.310  1.00  0.00     0.000 HD 
HETATM   15  C   UNL     1     -10.761   7.186  70.578  1.00  0.00    -0.259 A  
HETATM   16  H1  UNL     1     -10.109   3.909  69.898  1.00  0.00     0.000 HD 
HETATM   17  C   UNL     1     -10.741   7.198  68.012  1.00  0.00    -0.232 C  
HETATM   18  C   UNL     1     -10.918   7.881  71.786  1.00  0.00    -0.243 A  
HETATM   19  N   UNL     1     -10.995   7.290  72.982  1.00  0.00    -0.337 NA 
HETATM   20  C   UNL     1     -10.983   9.262  71.772  1.00  0.00    -0.383 A  
HETATM   21  C   UNL     1     -10.913   9.996  70.589  1.00  0.00    -0.392 A  
HETATM   22  C   UNL     1     -10.892   5.968  73.022  1.00  0.00    -0.260 A  
HETATM   23  N   UNL     1     -10.641   5.193  71.974  1.00  0.00    -0.218 NA 
HETATM   24  N   UNL     1     -11.015   5.353  74.250  1.00  0.00    -0.391 NA 
HETATM   25  C   UNL     1     -10.577   5.798  70.779  1.00  0.00    -0.269 A  
HETATM   26  H2  UNL     1     -11.178   5.895  75.099  1.00  0.00     0.000 HD 
HETATM   27  H1  UNL     1     -10.936   4.337  74.281  1.00  0.00     0.000 HD 
HETATM   28  N   UNL     1     -10.241   4.910  69.753  1.00  0.00    -0.253 NA 
ENDBRANCH  11  12
ENDBRANCH   9  11
ENDBRANCH   5   9
BRANCH   8  29
HETATM   29  O   UNL     1      -8.987  15.234  67.583  1.00  0.00    -0.174 OA 
HETATM   30  C   UNL     1      -7.633  14.820  67.504  1.00  0.00    -0.193 C  
ENDBRANCH   8  29
BRANCH   7  31
HETATM   31  O   UNL     1     -10.277  15.902  65.096  1.00  0.00    -0.472 OA 
HETATM   32  C   UNL     1     -10.970  17.117  65.316  1.00  0.00     0.034 C  
ENDBRANCH   7  31
ENDBRANCH   2   3
TORSDOF 6
ENDMDL
MODEL       86
REMARK 921   NORMALIZED FREE ENERGY PREDICTED BY IDOCK:   -5.76 KCAL/MOL
REMARK 922        TOTAL FREE ENERGY PREDICTED BY IDOCK:   -8.64 KCAL/MOL
REMARK 923 INTER-LIGAND FREE ENERGY PREDICTED BY IDOCK:   -7.61 KCAL/MOL
REMARK 924 INTRA-LIGAND FREE ENERGY PREDICTED BY IDOCK:   -1.02 KCAL/MOL
REMARK 927      BINDING AFFINITY PREDICTED BY RF-SCORE:    0.00 PKD
ROOT
HETATM    1  C   UNL     1     -11.194   6.232  70.821  1.00  0.00    -0.324 C  
HETATM    2  O   UNL     1     -10.197   6.420  69.819  1.00  0.00    -0.173 OA 
ENDROOT
BRANCH   2   3
HETATM    3  C   UNL     1      -9.915   7.718  69.469  1.00  0.00    -0.187 A  
HETATM    4  C   UNL     1     -10.661   8.779  70.011  1.00  0.00    -0.232 A  
HETATM    5  C   UNL     1     -10.390  10.112  69.705  1.00  0.00    -0.259 A  
HETATM    6  C   UNL     1      -9.364  10.359  68.798  1.00  0.00    -0.175 A  
HETATM    7  C   UNL     1      -8.838   7.987  68.593  1.00  0.00    -0.134 A  
HETATM    8  C   UNL     1      -8.571   9.330  68.260  1.00  0.00    -0.125 A  
BRANCH   5   9
HETATM    9  N   UNL     1     -11.246  11.103  70.202  1.00  0.00    -0.480 NA 
HETATM   10  H   UNL     1     -11.200  11.395  71.179  1.00  0.00     0.000 HD 
BRANCH   9  11
HETATM   11  C   UNL     1     -12.206  11.708  69.285  1.00  0.00    -0.164 C  
BRANCH  11  12
HETATM   12  C   UNL     1     -11.780  13.085  68.804  1.00  0.00    -0.363 A  
HETATM   13  C   UNL     1     -11.515  13.311  67.427  1.00  0.00    -0.371 A  
HETATM   14  H2  UNL     1     -12.250  13.966  64.592  1.00  0.00     0.000 HD 
HETATM   15  C   UNL     1     -11.189  14.641  66.953  1.00  0.00    -0.345 A  
HETATM   16  H1  UNL     1     -11.177  14.633  63.544  1.00  0.00     0.000 HD 
HETATM   17  C   UNL     1     -11.566  12.153  66.455  1.00  0.00    -0.429 C  
HETATM   18  C   UNL     1     -11.026  15.672  67.890  1.00  0.00    -0.319 A  
HETATM   19  N   UNL     1     -10.654  16.916  67.574  1.00  0.00    -0.326 NA 
HETATM   20  C   UNL     1     -11.275  15.421  69.226  1.00  0.00    -0.300 A  
HETATM   21  C   UNL     1     -11.671  14.165  69.684  1.00  0.00    -0.372 A  
HETATM   22  C   UNL     1     -10.451  17.189  66.291  1.00  0.00    -0.260 A  
HETATM   23  N   UNL     1     -10.665  16.343  65.291  1.00  0.00    -0.555 NA 
HETATM   24  N   UNL     1     -10.025  18.460  65.967  1.00  0.00    -0.542 NA 
HETATM   25  C   UNL     1     -11.027  15.096  65.623  1.00  0.00    -0.355 A  
HETATM   26  H2  UNL     1      -9.872  19.166  66.687  1.00  0.00     0.000 HD 
HETATM   27  H1  UNL     1      -9.869  18.670  64.982  1.00  0.00     0.000 HD 
HETATM   28  N   UNL     1     -11.293  14.305  64.502  1.00  0.00    -0.359 NA 
ENDBRANCH  11  12
ENDBRANCH   9  11
ENDBRANCH   5   9
BRANCH   8  29
HETATM   29  O   UNL     1      -7.606   9.843  67.426  1.00  0.00    -0.091 OA 
HETATM   30  C   UNL     1      -7.871  11.013  66.672  1.00  0.00    -0.153 C  
ENDBRANCH   8  29
BRANCH   7  31
HETATM   31  O   UNL     1      -8.024   7.052  68.010  1.00  0.00    -0.112 OA 
HETATM   32  C   UNL     1      -8.375   6.456  66.774  1.00  0.00    -0.111 C  
ENDBRANCH   7  31
ENDBRANCH   2   3
TORSDOF 6
ENDMDL
MODEL       87
REMARK 921   NORMALIZED FREE ENERGY PREDICTED BY IDOCK:   -5.76 KCAL/MOL
REMARK 922        TOTAL FREE ENERGY PREDICTED BY IDOCK:   -8.63 KCAL/MOL
REMARK 923 INTER-LIGAND FREE ENERGY PREDICTED BY IDOCK:   -7.83 KCAL/MOL
REMARK 924 INTRA-LIGAND FREE ENERGY PREDICTED BY IDOCK:   -0.80 KCAL/MOL
REMARK 927      BINDING AFFINITY PREDICTED BY RF-SCORE:    0.00 PKD
ROOT
HETATM    1  C   UNL     1     -11.274   4.566  73.590  1.00  0.00    -0.264 C  
HETATM    2  O   UNL     1     -10.346   5.648  73.549  1.00  0.00    -0.199 OA 
ENDROOT
BRANCH   2   3
HETATM    3  C   UNL     1     -10.491   6.543  72.518  1.00  0.00    -0.205 A  
HETATM    4  C   UNL     1     -11.179   7.753  72.717  1.00  0.00    -0.456 A  
HETATM    5  C   UNL     1     -11.325   8.702  71.707  1.00  0.00    -0.323 A  
HETATM    6  C   UNL     1     -10.792   8.388  70.459  1.00  0.00    -0.250 A  
HETATM    7  C   UNL     1      -9.904   6.263  71.262  1.00  0.00    -0.175 A  
HETATM    8  C   UNL     1     -10.067   7.206  70.227  1.00  0.00    -0.188 A  
BRANCH   5   9
HETATM    9  N   UNL     1     -12.116   9.831  71.954  1.00  0.00    -0.336 NA 
HETATM   10  H   UNL     1     -12.142  10.261  72.879  1.00  0.00     0.000 HD 
BRANCH   9  11
HETATM   11  C   UNL     1     -12.901  10.378  70.853  1.00  0.00    -0.392 C  
BRANCH  11  12
HETATM   12  C   UNL     1     -12.520  11.807  70.503  1.00  0.00    -0.317 A  
HETATM   13  C   UNL     1     -11.956  12.106  69.235  1.00  0.00    -0.318 A  
HETATM   14  H2  UNL     1     -12.049  12.783  66.313  1.00  0.00     0.000 HD 
HETATM   15  C   UNL     1     -11.667  13.478  68.869  1.00  0.00    -0.379 A  
HETATM   16  H1  UNL     1     -10.831  13.590  65.565  1.00  0.00     0.000 HD 
HETATM   17  C   UNL     1     -11.647  10.983  68.269  1.00  0.00    -0.354 C  
HETATM   18  C   UNL     1     -11.845  14.486  69.826  1.00  0.00    -0.315 A  
HETATM   19  N   UNL     1     -11.541  15.771  69.623  1.00  0.00    -0.342 NA 
HETATM   20  C   UNL     1     -12.381  14.165  71.059  1.00  0.00    -0.438 A  
HETATM   21  C   UNL     1     -12.741  12.861  71.395  1.00  0.00    -0.366 A  
HETATM   22  C   UNL     1     -11.064  16.108  68.431  1.00  0.00    -0.359 A  
HETATM   23  N   UNL     1     -10.939  15.281  67.401  1.00  0.00    -0.316 NA 
HETATM   24  N   UNL     1     -10.709  17.426  68.232  1.00  0.00    -0.360 NA 
HETATM   25  C   UNL     1     -11.237  13.993  67.623  1.00  0.00    -0.297 A  
HETATM   26  H2  UNL     1     -10.810  18.118  68.975  1.00  0.00     0.000 HD 
HETATM   27  H1  UNL     1     -10.343  17.685  67.317  1.00  0.00     0.000 HD 
HETATM   28  N   UNL     1     -11.140  13.219  66.463  1.00  0.00    -0.290 NA 
ENDBRANCH  11  12
ENDBRANCH   9  11
ENDBRANCH   5   9
BRANCH   8  29
HETATM   29  O   UNL     1      -9.616   7.158  68.930  1.00  0.00    -0.142 OA 
HETATM   30  C   UNL     1     -10.500   6.787  67.886  1.00  0.00    -0.218 C  
ENDBRANCH   8  29
BRANCH   7  31
HETATM   31  O   UNL     1      -9.197   5.136  70.940  1.00  0.00    -0.139 OA 
HETATM   32  C   UNL     1      -7.804   5.060  71.183  1.00  0.00    -0.093 C  
ENDBRANCH   7  31
ENDBRANCH   2   3
TORSDOF 6
ENDMDL
MODEL       88
REMARK 921   NORMALIZED FREE ENERGY PREDICTED BY IDOCK:   -5.75 KCAL/MOL
REMARK 922        TOTAL FREE ENERGY PREDICTED BY IDOCK:   -8.61 KCAL/MOL
REMARK 923 INTER-LIGAND FREE ENERGY PREDICTED BY IDOCK:   -7.67 KCAL/MOL
REMARK 924 INTRA-LIGAND FREE ENERGY PREDICTED BY IDOCK:   -0.94 KCAL/MOL
REMARK 927      BINDING AFFINITY PREDICTED BY RF-SCORE:    0.00 PKD
ROOT
HETATM    1  C   UNL     1      -9.831  13.229  67.095  1.00  0.00    -0.237 C  
HETATM    2  O   UNL     1     -11.056  13.920  67.335  1.00  0.00    -0.286 OA 
ENDROOT
BRANCH   2   3
HETATM    3  C   UNL     1     -11.513  13.930  68.630  1.00  0.00    -0.298 A  
HETATM    4  C   UNL     1     -11.846  12.726  69.276  1.00  0.00    -0.358 A  
HETATM    5  C   UNL     1     -12.286  12.688  70.598  1.00  0.00    -0.290 A  
HETATM    6  C   UNL     1     -12.426  13.907  71.256  1.00  0.00    -0.440 A  
HETATM    7  C   UNL     1     -11.604  15.155  69.329  1.00  0.00    -0.324 A  
HETATM    8  C   UNL     1     -12.071  15.129  70.659  1.00  0.00    -0.329 A  
BRANCH   5   9
HETATM    9  N   UNL     1     -12.700  11.462  71.134  1.00  0.00    -0.401 NA 
HETATM   10  H   UNL     1     -13.231  11.422  72.004  1.00  0.00     0.000 HD 
BRANCH   9  11
HETATM   11  C   UNL     1     -12.351  10.242  70.414  1.00  0.00    -0.238 C  
BRANCH  11  12
HETATM   12  C   UNL     1     -11.424   9.332  71.202  1.00  0.00    -0.403 A  
HETATM   13  C   UNL     1     -10.045   9.259  70.874  1.00  0.00    -0.373 A  
HETATM   14  H2  UNL     1      -7.176  10.134  70.989  1.00  0.00     0.000 HD 
HETATM   15  C   UNL     1      -9.143   8.455  71.675  1.00  0.00    -0.268 A  
HETATM   16  H1  UNL     1      -5.935   9.095  70.714  1.00  0.00     0.000 HD 
HETATM   17  C   UNL     1      -9.519  10.019  69.676  1.00  0.00    -0.247 C  
HETATM   18  C   UNL     1      -9.675   7.664  72.703  1.00  0.00    -0.196 A  
HETATM   19  N   UNL     1      -8.950   6.830  73.454  1.00  0.00    -0.127 NA 
HETATM   20  C   UNL     1     -11.025   7.742  72.992  1.00  0.00    -0.442 A  
HETATM   21  C   UNL     1     -11.888   8.574  72.282  1.00  0.00    -0.453 A  
HETATM   22  C   UNL     1      -7.644   6.772  73.222  1.00  0.00    -0.089 A  
HETATM   23  N   UNL     1      -6.992   7.535  72.354  1.00  0.00    -0.066 NA 
HETATM   24  N   UNL     1      -6.900   5.880  73.967  1.00  0.00    -0.080 NA 
HETATM   25  C   UNL     1      -7.734   8.358  71.599  1.00  0.00    -0.113 A  
HETATM   26  H2  UNL     1      -7.338   5.287  74.672  1.00  0.00     0.000 HD 
HETATM   27  H1  UNL     1      -5.898   5.835  73.789  1.00  0.00     0.000 HD 
HETATM   28  N   UNL     1      -6.951   9.165  70.769  1.00  0.00    -0.086 NA 
ENDBRANCH  11  12
ENDBRANCH   9  11
ENDBRANCH   5   9
BRANCH   8  29
HETATM   29  O   UNL     1     -12.266  16.173  71.531  1.00  0.00    -0.433 OA 
HETATM   30  C   UNL     1     -12.544  15.912  72.897  1.00  0.00    -0.480 C  
ENDBRANCH   8  29
BRANCH   7  31
HETATM   31  O   UNL     1     -11.297  16.391  68.827  1.00  0.00    -0.336 OA 
HETATM   32  C   UNL     1      -9.978  16.900  68.909  1.00  0.00    -0.279 C  
ENDBRANCH   7  31
ENDBRANCH   2   3
TORSDOF 6
ENDMDL
MODEL       89
REMARK 921   NORMALIZED FREE ENERGY PREDICTED BY IDOCK:   -5.71 KCAL/MOL
REMARK 922        TOTAL FREE ENERGY PREDICTED BY IDOCK:   -8.56 KCAL/MOL
REMARK 923 INTER-LIGAND FREE ENERGY PREDICTED BY IDOCK:   -8.11 KCAL/MOL
REMARK 924 INTRA-LIGAND FREE ENERGY PREDICTED BY IDOCK:   -0.45 KCAL/MOL
REMARK 927      BINDING AFFINITY PREDICTED BY RF-SCORE:    0.00 PKD
ROOT
HETATM    1  C   UNL     1      -9.047   2.998  68.334  1.00  0.00    -0.161 C  
HETATM    2  O   UNL     1      -9.771   3.134  69.555  1.00  0.00    -0.098 OA 
ENDROOT
BRANCH   2   3
HETATM    3  C   UNL     1      -9.989   4.415  70.001  1.00  0.00    -0.175 A  
HETATM    4  C   UNL     1     -10.291   5.443  69.091  1.00  0.00    -0.300 A  
HETATM    5  C   UNL     1     -10.547   6.750  69.504  1.00  0.00    -0.232 A  
HETATM    6  C   UNL     1     -10.451   7.016  70.867  1.00  0.00    -0.233 A  
HETATM    7  C   UNL     1      -9.952   4.686  71.388  1.00  0.00    -0.197 A  
HETATM    8  C   UNL     1     -10.186   6.010  71.812  1.00  0.00    -0.202 A  
BRANCH   5   9
HETATM    9  N   UNL     1     -10.734   7.738  68.528  1.00  0.00    -0.394 NA 
HETATM   10  H   UNL     1     -11.410   7.609  67.775  1.00  0.00     0.000 HD 
BRANCH   9  11
HETATM   11  C   UNL     1      -9.937   8.956  68.618  1.00  0.00    -0.177 C  
BRANCH  11  12
HETATM   12  C   UNL     1     -10.487  10.090  67.769  1.00  0.00    -0.282 A  
HETATM   13  C   UNL     1     -10.123  10.200  66.402  1.00  0.00    -0.300 A  
HETATM   14  H2  UNL     1     -10.370   9.609  63.470  1.00  0.00     0.000 HD 
HETATM   15  C   UNL     1     -10.710  11.232  65.569  1.00  0.00    -0.283 A  
HETATM   16  H1  UNL     1      -9.849  10.660  62.320  1.00  0.00     0.000 HD 
HETATM   17  C   UNL     1      -9.111   9.241  65.816  1.00  0.00    -0.260 C  
HETATM   18  C   UNL     1     -11.550  12.185  66.164  1.00  0.00    -0.354 A  
HETATM   19  N   UNL     1     -12.084  13.220  65.510  1.00  0.00    -0.408 NA 
HETATM   20  C   UNL     1     -11.875  12.062  67.502  1.00  0.00    -0.275 A  
HETATM   21  C   UNL     1     -11.383  11.026  68.294  1.00  0.00    -0.366 A  
HETATM   22  C   UNL     1     -11.819  13.332  64.214  1.00  0.00    -0.417 A  
HETATM   23  N   UNL     1     -11.126  12.452  63.502  1.00  0.00    -0.461 NA 
HETATM   24  N   UNL     1     -12.334  14.423  63.547  1.00  0.00    -1.114 NA 
HETATM   25  C   UNL     1     -10.586  11.425  64.173  1.00  0.00    -0.369 A  
HETATM   26  H2  UNL     1     -12.901  15.120  64.031  1.00  0.00     0.000 HD 
HETATM   27  H1  UNL     1     -12.130  14.509  62.552  1.00  0.00     0.000 HD 
HETATM   28  N   UNL     1      -9.938  10.521  63.327  1.00  0.00    -0.254 NA 
ENDBRANCH  11  12
ENDBRANCH   9  11
ENDBRANCH   5   9
BRANCH   8  29
HETATM   29  O   UNL     1     -10.185   6.527  73.086  1.00  0.00    -0.187 OA 
HETATM   30  C   UNL     1      -9.712   7.843  73.316  1.00  0.00    -0.285 C  
ENDBRANCH   8  29
BRANCH   7  31
HETATM   31  O   UNL     1      -9.687   3.779  72.378  1.00  0.00    -0.135 OA 
HETATM   32  C   UNL     1     -10.710   3.346  73.258  1.00  0.00    -0.194 C  
ENDBRANCH   7  31
ENDBRANCH   2   3
TORSDOF 6
ENDMDL
MODEL       90
REMARK 921   NORMALIZED FREE ENERGY PREDICTED BY IDOCK:   -5.67 KCAL/MOL
REMARK 922        TOTAL FREE ENERGY PREDICTED BY IDOCK:   -8.51 KCAL/MOL
REMARK 923 INTER-LIGAND FREE ENERGY PREDICTED BY IDOCK:   -7.74 KCAL/MOL
REMARK 924 INTRA-LIGAND FREE ENERGY PREDICTED BY IDOCK:   -0.77 KCAL/MOL
REMARK 927      BINDING AFFINITY PREDICTED BY RF-SCORE:    0.00 PKD
ROOT
HETATM    1  C   UNL     1      -6.673   9.638  69.904  1.00  0.00    -0.069 C  
HETATM    2  O   UNL     1      -7.369   9.471  71.137  1.00  0.00    -0.318 OA 
ENDROOT
BRANCH   2   3
HETATM    3  C   UNL     1      -8.602   8.868  71.071  1.00  0.00    -0.206 A  
HETATM    4  C   UNL     1      -9.658   9.483  70.376  1.00  0.00    -0.326 A  
HETATM    5  C   UNL     1     -10.916   8.894  70.260  1.00  0.00    -0.241 A  
HETATM    6  C   UNL     1     -11.106   7.672  70.900  1.00  0.00    -0.275 A  
HETATM    7  C   UNL     1      -8.792   7.600  71.667  1.00  0.00    -0.116 A  
HETATM    8  C   UNL     1     -10.068   7.007  71.575  1.00  0.00    -0.187 A  
BRANCH   5   9
HETATM    9  N   UNL     1     -11.944   9.619  69.644  1.00  0.00    -0.333 NA 
HETATM   10  H   UNL     1     -12.588   9.167  68.995  1.00  0.00     0.000 HD 
BRANCH   9  11
HETATM   11  C   UNL     1     -12.070  11.038  69.957  1.00  0.00    -0.364 C  
BRANCH  11  12
HETATM   12  C   UNL     1     -11.829  11.935  68.754  1.00  0.00    -0.371 A  
HETATM   13  C   UNL     1     -11.805  13.346  68.908  1.00  0.00    -0.373 A  
HETATM   14  H2  UNL     1     -10.520  15.990  69.511  1.00  0.00     0.000 HD 
HETATM   15  C   UNL     1     -11.494  14.199  67.778  1.00  0.00    -0.352 A  
HETATM   16  H1  UNL     1     -11.086  17.398  68.885  1.00  0.00     0.000 HD 
HETATM   17  C   UNL     1     -12.114  13.958  70.256  1.00  0.00    -0.423 C  
HETATM   18  C   UNL     1     -11.334  13.616  66.513  1.00  0.00    -0.319 A  
HETATM   19  N   UNL     1     -11.120  14.312  65.392  1.00  0.00    -0.314 NA 
HETATM   20  C   UNL     1     -11.378  12.240  66.389  1.00  0.00    -0.405 A  
HETATM   21  C   UNL     1     -11.594  11.403  67.483  1.00  0.00    -0.298 A  
HETATM   22  C   UNL     1     -11.032  15.632  65.496  1.00  0.00    -0.300 A  
HETATM   23  N   UNL     1     -11.062  16.308  66.637  1.00  0.00    -0.004 NA 
HETATM   24  N   UNL     1     -10.854  16.355  64.335  1.00  0.00    -1.020 NA 
HETATM   25  C   UNL     1     -11.289  15.599  67.752  1.00  0.00    -0.261 A  
HETATM   26  H2  UNL     1     -10.792  15.891  63.428  1.00  0.00     0.000 HD 
HETATM   27  H1  UNL     1     -10.787  17.369  64.414  1.00  0.00     0.000 HD 
HETATM   28  N   UNL     1     -11.234  16.390  68.903  1.00  0.00    -0.327 NA 
ENDBRANCH  11  12
ENDBRANCH   9  11
ENDBRANCH   5   9
BRANCH   8  29
HETATM   29  O   UNL     1     -10.505   5.807  72.081  1.00  0.00    -0.199 OA 
HETATM   30  C   UNL     1     -10.174   4.597  71.422  1.00  0.00    -0.141 C  
ENDBRANCH   8  29
BRANCH   7  31
HETATM   31  O   UNL     1      -7.848   6.887  72.356  1.00  0.00    -0.095 OA 
HETATM   32  C   UNL     1      -7.682   7.062  73.751  1.00  0.00    -0.103 C  
ENDBRANCH   7  31
ENDBRANCH   2   3
TORSDOF 6
ENDMDL
MODEL       91
REMARK 921   NORMALIZED FREE ENERGY PREDICTED BY IDOCK:   -5.66 KCAL/MOL
REMARK 922        TOTAL FREE ENERGY PREDICTED BY IDOCK:   -8.49 KCAL/MOL
REMARK 923 INTER-LIGAND FREE ENERGY PREDICTED BY IDOCK:   -7.85 KCAL/MOL
REMARK 924 INTRA-LIGAND FREE ENERGY PREDICTED BY IDOCK:   -0.64 KCAL/MOL
REMARK 927      BINDING AFFINITY PREDICTED BY RF-SCORE:    0.00 PKD
ROOT
HETATM    1  C   UNL     1     -11.407  16.568  68.640  1.00  0.00    -0.237 C  
HETATM    2  O   UNL     1     -10.495  15.982  67.713  1.00  0.00    -0.281 OA 
ENDROOT
BRANCH   2   3
HETATM    3  C   UNL     1     -10.877  14.792  67.144  1.00  0.00    -0.311 A  
HETATM    4  C   UNL     1     -11.241  13.701  67.952  1.00  0.00    -0.300 A  
HETATM    5  C   UNL     1     -11.661  12.485  67.416  1.00  0.00    -0.366 A  
HETATM    6  C   UNL     1     -11.671  12.372  66.029  1.00  0.00    -0.469 A  
HETATM    7  C   UNL     1     -10.947  14.682  65.736  1.00  0.00    -0.330 A  
HETATM    8  C   UNL     1     -11.349  13.449  65.185  1.00  0.00    -0.299 A  
BRANCH   5   9
HETATM    9  N   UNL     1     -11.903  11.414  68.287  1.00  0.00    -0.567 NA 
HETATM   10  H   UNL     1     -12.383  10.574  67.963  1.00  0.00     0.000 HD 
BRANCH   9  11
HETATM   11  C   UNL     1     -11.449  11.532  69.668  1.00  0.00    -0.301 C  
BRANCH  11  12
HETATM   12  C   UNL     1     -10.993  10.208  70.258  1.00  0.00    -0.380 A  
HETATM   13  C   UNL     1     -11.929   9.347  70.889  1.00  0.00    -0.351 A  
HETATM   14  H2  UNL     1     -14.012   7.187  70.963  1.00  0.00     0.000 HD 
HETATM   15  C   UNL     1     -11.513   8.048  71.380  1.00  0.00    -0.293 A  
HETATM   16  H1  UNL     1     -14.275   6.274  72.303  1.00  0.00     0.000 HD 
HETATM   17  C   UNL     1     -13.365   9.795  71.057  1.00  0.00    -0.301 C  
HETATM   18  C   UNL     1     -10.154   7.707  71.325  1.00  0.00    -0.186 A  
HETATM   19  N   UNL     1      -9.649   6.572  71.815  1.00  0.00    -0.153 NA 
HETATM   20  C   UNL     1      -9.261   8.572  70.719  1.00  0.00    -0.204 A  
HETATM   21  C   UNL     1      -9.663   9.788  70.169  1.00  0.00    -0.299 A  
HETATM   22  C   UNL     1     -10.495   5.709  72.363  1.00  0.00    -0.211 A  
HETATM   23  N   UNL     1     -11.814   5.853  72.393  1.00  0.00    -0.278 NA 
HETATM   24  N   UNL     1      -9.971   4.555  72.908  1.00  0.00    -0.147 NA 
HETATM   25  C   UNL     1     -12.306   7.002  71.909  1.00  0.00    -0.323 A  
HETATM   26  H2  UNL     1      -8.967   4.371  72.889  1.00  0.00     0.000 HD 
HETATM   27  H1  UNL     1     -10.620   3.893  73.329  1.00  0.00     0.000 HD 
HETATM   28  N   UNL     1     -13.703   7.028  71.922  1.00  0.00    -0.230 NA 
ENDBRANCH  11  12
ENDBRANCH   9  11
ENDBRANCH   5   9
BRANCH   8  29
HETATM   29  O   UNL     1     -11.475  13.088  63.864  1.00  0.00    -0.399 OA 
HETATM   30  C   UNL     1     -11.155  11.769  63.457  1.00  0.00    -0.422 C  
ENDBRANCH   8  29
BRANCH   7  31
HETATM   31  O   UNL     1     -10.639  15.668  64.837  1.00  0.00    -0.427 OA 
HETATM   32  C   UNL     1     -11.628  16.578  64.391  1.00  0.00     0.211 C  
ENDBRANCH   7  31
ENDBRANCH   2   3
TORSDOF 6
ENDMDL
MODEL       92
REMARK 921   NORMALIZED FREE ENERGY PREDICTED BY IDOCK:   -5.65 KCAL/MOL
REMARK 922        TOTAL FREE ENERGY PREDICTED BY IDOCK:   -8.49 KCAL/MOL
REMARK 923 INTER-LIGAND FREE ENERGY PREDICTED BY IDOCK:   -7.88 KCAL/MOL
REMARK 924 INTRA-LIGAND FREE ENERGY PREDICTED BY IDOCK:   -0.61 KCAL/MOL
REMARK 927      BINDING AFFINITY PREDICTED BY RF-SCORE:    0.00 PKD
ROOT
HETATM    1  C   UNL     1      -9.625  10.073  64.993  1.00  0.00    -0.297 C  
HETATM    2  O   UNL     1      -9.902   9.050  65.948  1.00  0.00    -0.276 OA 
ENDROOT
BRANCH   2   3
HETATM    3  C   UNL     1     -10.173   9.462  67.230  1.00  0.00    -0.246 A  
HETATM    4  C   UNL     1     -10.431  10.817  67.501  1.00  0.00    -0.260 A  
HETATM    5  C   UNL     1     -10.738  11.274  68.782  1.00  0.00    -0.203 A  
HETATM    6  C   UNL     1     -10.741  10.333  69.808  1.00  0.00    -0.328 A  
HETATM    7  C   UNL     1     -10.237   8.508  68.271  1.00  0.00    -0.205 A  
HETATM    8  C   UNL     1     -10.523   8.964  69.574  1.00  0.00    -0.226 A  
BRANCH   5   9
HETATM    9  N   UNL     1     -10.876  12.653  68.989  1.00  0.00    -0.393 NA 
HETATM   10  H   UNL     1     -10.293  13.142  69.669  1.00  0.00     0.000 HD 
BRANCH   9  11
HETATM   11  C   UNL     1     -11.876  13.371  68.207  1.00  0.00    -0.358 C  
BRANCH  11  12
HETATM   12  C   UNL     1     -11.337  14.647  67.581  1.00  0.00    -0.350 A  
HETATM   13  C   UNL     1     -11.181  15.818  68.368  1.00  0.00    -0.362 A  
HETATM   14  H2  UNL     1      -9.729  17.656  70.244  1.00  0.00     0.000 HD 
HETATM   15  C   UNL     1     -10.591  17.011  67.795  1.00  0.00    -0.350 A  
HETATM   16  H1  UNL     1     -10.020  19.272  70.283  1.00  0.00     0.000 HD 
HETATM   17  C   UNL     1     -11.644  15.820  69.809  1.00  0.00    -0.359 C  
HETATM   18  C   UNL     1     -10.286  17.025  66.426  1.00  0.00    -0.326 A  
HETATM   19  N   UNL     1      -9.809  18.092  65.778  1.00  0.00    -0.522 NA 
HETATM   20  C   UNL     1     -10.462  15.874  65.680  1.00  0.00    -0.411 A  
HETATM   21  C   UNL     1     -10.951  14.695  66.238  1.00  0.00    -0.327 A  
HETATM   22  C   UNL     1      -9.593  19.194  66.485  1.00  0.00    -0.355 A  
HETATM   23  N   UNL     1      -9.739  19.294  67.801  1.00  0.00    -0.312 NA 
HETATM   24  N   UNL     1      -9.142  20.309  65.811  1.00  0.00    -0.502 NA 
HETATM   25  C   UNL     1     -10.229  18.219  68.436  1.00  0.00    -0.380 A  
HETATM   26  H2  UNL     1      -8.980  20.288  64.804  1.00  0.00     0.000 HD 
HETATM   27  H1  UNL     1      -8.976  21.155  66.353  1.00  0.00     0.000 HD 
HETATM   28  N   UNL     1     -10.281  18.401  69.820  1.00  0.00     0.443 NA 
ENDBRANCH  11  12
ENDBRANCH   9  11
ENDBRANCH   5   9
BRANCH   8  29
HETATM   29  O   UNL     1     -10.620   8.248  70.742  1.00  0.00    -0.204 OA 
HETATM   30  C   UNL     1     -11.257   8.819  71.872  1.00  0.00    -0.368 C  
ENDBRANCH   8  29
BRANCH   7  31
HETATM   31  O   UNL     1     -10.024   7.162  68.141  1.00  0.00    -0.143 OA 
HETATM   32  C   UNL     1     -11.104   6.277  67.900  1.00  0.00    -0.258 C  
ENDBRANCH   7  31
ENDBRANCH   2   3
TORSDOF 6
ENDMDL
MODEL       93
REMARK 921   NORMALIZED FREE ENERGY PREDICTED BY IDOCK:   -5.62 KCAL/MOL
REMARK 922        TOTAL FREE ENERGY PREDICTED BY IDOCK:   -8.45 KCAL/MOL
REMARK 923 INTER-LIGAND FREE ENERGY PREDICTED BY IDOCK:   -7.57 KCAL/MOL
REMARK 924 INTRA-LIGAND FREE ENERGY PREDICTED BY IDOCK:   -0.88 KCAL/MOL
REMARK 927      BINDING AFFINITY PREDICTED BY RF-SCORE:    0.00 PKD
ROOT
HETATM    1  C   UNL     1     -10.523  19.915  65.863  1.00  0.00    -0.461 C  
HETATM    2  O   UNL     1      -9.354  19.108  65.739  1.00  0.00    -0.387 OA 
ENDROOT
BRANCH   2   3
HETATM    3  C   UNL     1      -9.381  17.886  66.366  1.00  0.00    -0.255 A  
HETATM    4  C   UNL     1     -10.267  16.884  65.934  1.00  0.00    -0.330 A  
HETATM    5  C   UNL     1     -10.308  15.622  66.524  1.00  0.00    -0.291 A  
HETATM    6  C   UNL     1      -9.454  15.396  67.600  1.00  0.00    -0.205 A  
HETATM    7  C   UNL     1      -8.479  17.624  67.422  1.00  0.00    -0.221 A  
HETATM    8  C   UNL     1      -8.529  16.358  68.041  1.00  0.00    -0.183 A  
BRANCH   5   9
HETATM    9  N   UNL     1     -11.292  14.716  66.107  1.00  0.00    -0.349 NA 
HETATM   10  H   UNL     1     -11.404  14.481  65.121  1.00  0.00     0.000 HD 
BRANCH   9  11
HETATM   11  C   UNL     1     -12.153  14.119  67.122  1.00  0.00    -0.397 C  
BRANCH  11  12
HETATM   12  C   UNL     1     -11.651  12.769  67.607  1.00  0.00    -0.412 A  
HETATM   13  C   UNL     1     -11.869  12.366  68.950  1.00  0.00    -0.350 A  
HETATM   14  H2  UNL     1     -13.437  11.142  71.198  1.00  0.00     0.000 HD 
HETATM   15  C   UNL     1     -11.463  11.047  69.394  1.00  0.00    -0.364 A  
HETATM   16  H1  UNL     1     -12.708  10.496  72.520  1.00  0.00     0.000 HD 
HETATM   17  C   UNL     1     -12.520  13.324  69.924  1.00  0.00    -0.117 C  
HETATM   18  C   UNL     1     -10.752  10.225  68.509  1.00  0.00    -0.227 A  
HETATM   19  N   UNL     1     -10.265   9.024  68.833  1.00  0.00    -0.203 NA 
HETATM   20  C   UNL     1     -10.539  10.649  67.210  1.00  0.00    -0.313 A  
HETATM   21  C   UNL     1     -10.997  11.881  66.747  1.00  0.00    -0.337 A  
HETATM   22  C   UNL     1     -10.495   8.579  70.063  1.00  0.00    -0.223 A  
HETATM   23  N   UNL     1     -11.237   9.203  70.969  1.00  0.00    -0.286 NA 
HETATM   24  N   UNL     1      -9.957   7.359  70.414  1.00  0.00    -0.188 NA 
HETATM   25  C   UNL     1     -11.709  10.412  70.634  1.00  0.00    -0.351 A  
HETATM   26  H2  UNL     1      -9.403   6.816  69.752  1.00  0.00     0.000 HD 
HETATM   27  H1  UNL     1     -10.133   7.018  71.358  1.00  0.00     0.000 HD 
HETATM   28  N   UNL     1     -12.531  10.954  71.626  1.00  0.00    -0.304 NA 
ENDBRANCH  11  12
ENDBRANCH   9  11
ENDBRANCH   5   9
BRANCH   8  29
HETATM   29  O   UNL     1      -7.781  15.873  69.087  1.00  0.00    -0.195 OA 
HETATM   30  C   UNL     1      -6.744  14.938  68.842  1.00  0.00    -0.100 C  
ENDBRANCH   8  29
BRANCH   7  31
HETATM   31  O   UNL     1      -7.557  18.501  67.928  1.00  0.00    -0.232 OA 
HETATM   32  C   UNL     1      -7.891  19.366  68.999  1.00  0.00    -0.290 C  
ENDBRANCH   7  31
ENDBRANCH   2   3
TORSDOF 6
ENDMDL
MODEL       94
REMARK 921   NORMALIZED FREE ENERGY PREDICTED BY IDOCK:   -5.62 KCAL/MOL
REMARK 922        TOTAL FREE ENERGY PREDICTED BY IDOCK:   -8.45 KCAL/MOL
REMARK 923 INTER-LIGAND FREE ENERGY PREDICTED BY IDOCK:   -7.54 KCAL/MOL
REMARK 924 INTRA-LIGAND FREE ENERGY PREDICTED BY IDOCK:   -0.90 KCAL/MOL
REMARK 927      BINDING AFFINITY PREDICTED BY RF-SCORE:    0.00 PKD
ROOT
HETATM    1  C   UNL     1     -13.443  12.859  72.147  1.00  0.00    -0.522 C  
HETATM    2  O   UNL     1     -13.275  11.453  71.979  1.00  0.00    -0.503 OA 
ENDROOT
BRANCH   2   3
HETATM    3  C   UNL     1     -12.516  11.049  70.908  1.00  0.00    -0.410 A  
HETATM    4  C   UNL     1     -12.510  11.796  69.717  1.00  0.00    -0.051 A  
HETATM    5  C   UNL     1     -11.733  11.437  68.617  1.00  0.00    -0.329 A  
HETATM    6  C   UNL     1     -10.981  10.271  68.724  1.00  0.00    -0.285 A  
HETATM    7  C   UNL     1     -11.703   9.898  71.024  1.00  0.00    -0.382 A  
HETATM    8  C   UNL     1     -10.932   9.514  69.908  1.00  0.00    -0.238 A  
BRANCH   5   9
HETATM    9  N   UNL     1     -11.865  12.173  67.432  1.00  0.00    -0.565 NA 
HETATM   10  H   UNL     1     -12.772  12.537  67.139  1.00  0.00     0.000 HD 
BRANCH   9  11
HETATM   11  C   UNL     1     -10.670  12.405  66.628  1.00  0.00    -0.235 C  
BRANCH  11  12
HETATM   12  C   UNL     1      -9.774  13.492  67.197  1.00  0.00    -0.244 A  
HETATM   13  C   UNL     1     -10.008  14.854  66.873  1.00  0.00    -0.245 A  
HETATM   14  H2  UNL     1     -11.301  17.542  67.209  1.00  0.00     0.000 HD 
HETATM   15  C   UNL     1      -9.206  15.899  67.478  1.00  0.00    -0.210 A  
HETATM   16  H1  UNL     1     -10.572  18.929  66.716  1.00  0.00     0.000 HD 
HETATM   17  C   UNL     1     -11.095  15.213  65.883  1.00  0.00    -0.319 C  
HETATM   18  C   UNL     1      -8.126  15.535  68.295  1.00  0.00    -0.133 A  
HETATM   19  N   UNL     1      -7.278  16.410  68.843  1.00  0.00    -0.190 NA 
HETATM   20  C   UNL     1      -7.911  14.200  68.582  1.00  0.00    -0.132 A  
HETATM   21  C   UNL     1      -8.726  13.191  68.072  1.00  0.00    -0.190 A  
HETATM   22  C   UNL     1      -7.492  17.700  68.615  1.00  0.00    -0.273 A  
HETATM   23  N   UNL     1      -8.529  18.191  67.949  1.00  0.00    -0.249 NA 
HETATM   24  N   UNL     1      -6.592  18.601  69.145  1.00  0.00    -0.267 NA 
HETATM   25  C   UNL     1      -9.365  17.303  67.395  1.00  0.00    -0.236 A  
HETATM   26  H2  UNL     1      -5.791  18.288  69.693  1.00  0.00     0.000 HD 
HETATM   27  H1  UNL     1      -6.757  19.592  68.969  1.00  0.00     0.000 HD 
HETATM   28  N   UNL     1     -10.458  17.917  66.776  1.00  0.00    -0.337 NA 
ENDBRANCH  11  12
ENDBRANCH   9  11
ENDBRANCH   5   9
BRANCH   8  29
HETATM   29  O   UNL     1     -10.088   8.439  69.764  1.00  0.00    -0.189 OA 
HETATM   30  C   UNL     1     -10.520   7.288  69.058  1.00  0.00    -0.211 C  
ENDBRANCH   8  29
BRANCH   7  31
HETATM   31  O   UNL     1     -11.602   9.093  72.126  1.00  0.00    -0.342 OA 
HETATM   32  C   UNL     1     -12.402   7.930  72.250  1.00  0.00    -0.256 C  
ENDBRANCH   7  31
ENDBRANCH   2   3
TORSDOF 6
ENDMDL
MODEL       95
REMARK 921   NORMALIZED FREE ENERGY PREDICTED BY IDOCK:   -5.60 KCAL/MOL
REMARK 922        TOTAL FREE ENERGY PREDICTED BY IDOCK:   -8.42 KCAL/MOL
REMARK 923 INTER-LIGAND FREE ENERGY PREDICTED BY IDOCK:   -7.66 KCAL/MOL
REMARK 924 INTRA-LIGAND FREE ENERGY PREDICTED BY IDOCK:   -0.76 KCAL/MOL
REMARK 927      BINDING AFFINITY PREDICTED BY RF-SCORE:    0.00 PKD
ROOT
HETATM    1  C   UNL     1      -7.169  13.858  68.865  1.00  0.00    -0.103 C  
HETATM    2  O   UNL     1      -7.146  15.110  68.184  1.00  0.00    -0.103 OA 
ENDROOT
BRANCH   2   3
HETATM    3  C   UNL     1      -8.322  15.819  68.160  1.00  0.00    -0.160 A  
HETATM    4  C   UNL     1      -9.557  15.147  68.159  1.00  0.00    -0.205 A  
HETATM    5  C   UNL     1     -10.774  15.826  68.163  1.00  0.00    -0.285 A  
HETATM    6  C   UNL     1     -10.725  17.217  68.128  1.00  0.00    -0.366 A  
HETATM    7  C   UNL     1      -8.287  17.232  68.183  1.00  0.00    -0.233 A  
HETATM    8  C   UNL     1      -9.513  17.928  68.164  1.00  0.00    -0.288 A  
BRANCH   5   9
HETATM    9  N   UNL     1     -11.958  15.086  68.053  1.00  0.00    -0.521 NA 
HETATM   10  H   UNL     1     -12.803  15.370  68.550  1.00  0.00     0.000 HD 
BRANCH   9  11
HETATM   11  C   UNL     1     -11.952  13.896  67.209  1.00  0.00    -0.411 C  
BRANCH  11  12
HETATM   12  C   UNL     1     -11.734  12.613  67.994  1.00  0.00    -0.402 A  
HETATM   13  C   UNL     1     -11.221  11.458  67.347  1.00  0.00    -0.370 A  
HETATM   14  H2  UNL     1      -9.049   9.667  66.308  1.00  0.00     0.000 HD 
HETATM   15  C   UNL     1     -10.936  10.258  68.110  1.00  0.00    -0.328 A  
HETATM   16  H1  UNL     1      -9.266   8.050  66.120  1.00  0.00     0.000 HD 
HETATM   17  C   UNL     1     -10.981  11.479  65.854  1.00  0.00    -0.301 C  
HETATM   18  C   UNL     1     -11.283  10.221  69.468  1.00  0.00    -0.261 A  
HETATM   19  N   UNL     1     -11.136   9.146  70.247  1.00  0.00    -0.243 NA 
HETATM   20  C   UNL     1     -11.796  11.356  70.069  1.00  0.00    -0.440 A  
HETATM   21  C   UNL     1     -11.998  12.542  69.365  1.00  0.00    -0.315 A  
HETATM   22  C   UNL     1     -10.605   8.059  69.700  1.00  0.00    -0.223 A  
HETATM   23  N   UNL     1     -10.139   7.983  68.459  1.00  0.00    -0.194 NA 
HETATM   24  N   UNL     1     -10.491   6.935  70.490  1.00  0.00    -0.208 NA 
HETATM   25  C   UNL     1     -10.304   9.065  67.686  1.00  0.00    -0.257 A  
HETATM   26  H2  UNL     1     -10.803   6.938  71.462  1.00  0.00     0.000 HD 
HETATM   27  H1  UNL     1     -10.084   6.100  70.070  1.00  0.00     0.000 HD 
HETATM   28  N   UNL     1      -9.721   8.910  66.426  1.00  0.00    -0.242 NA 
ENDBRANCH  11  12
ENDBRANCH   9  11
ENDBRANCH   5   9
BRANCH   8  29
HETATM   29  O   UNL     1      -9.742  19.283  68.160  1.00  0.00    -0.322 OA 
HETATM   30  C   UNL     1     -10.467  19.876  67.096  1.00  0.00    -0.433 C  
ENDBRANCH   8  29
BRANCH   7  31
HETATM   31  O   UNL     1      -7.159  18.007  68.202  1.00  0.00    -0.217 OA 
HETATM   32  C   UNL     1      -6.527  18.338  69.426  1.00  0.00    -0.232 C  
ENDBRANCH   7  31
ENDBRANCH   2   3
TORSDOF 6
ENDMDL
MODEL       96
REMARK 921   NORMALIZED FREE ENERGY PREDICTED BY IDOCK:   -5.59 KCAL/MOL
REMARK 922        TOTAL FREE ENERGY PREDICTED BY IDOCK:   -8.41 KCAL/MOL
REMARK 923 INTER-LIGAND FREE ENERGY PREDICTED BY IDOCK:   -7.73 KCAL/MOL
REMARK 924 INTRA-LIGAND FREE ENERGY PREDICTED BY IDOCK:   -0.68 KCAL/MOL
REMARK 927      BINDING AFFINITY PREDICTED BY RF-SCORE:    0.00 PKD
ROOT
HETATM    1  C   UNL     1     -10.743   6.648  67.367  1.00  0.00    -0.339 C  
HETATM    2  O   UNL     1      -9.772   7.189  68.260  1.00  0.00    -0.142 OA 
ENDROOT
BRANCH   2   3
HETATM    3  C   UNL     1     -10.142   7.299  69.578  1.00  0.00    -0.182 A  
HETATM    4  C   UNL     1     -10.910   8.394  70.012  1.00  0.00    -0.225 A  
HETATM    5  C   UNL     1     -11.331   8.529  71.334  1.00  0.00    -0.271 A  
HETATM    6  C   UNL     1     -10.925   7.548  72.234  1.00  0.00    -0.307 A  
HETATM    7  C   UNL     1      -9.786   6.280  70.490  1.00  0.00    -0.173 A  
HETATM    8  C   UNL     1     -10.187   6.420  71.835  1.00  0.00    -0.195 A  
BRANCH   5   9
HETATM    9  N   UNL     1     -12.001   9.702  71.709  1.00  0.00    -0.381 NA 
HETATM   10  H   UNL     1     -11.898  10.086  72.649  1.00  0.00     0.000 HD 
BRANCH   9  11
HETATM   11  C   UNL     1     -12.849  10.358  70.721  1.00  0.00    -0.364 C  
BRANCH  11  12
HETATM   12  C   UNL     1     -12.492  11.820  70.509  1.00  0.00    -0.317 A  
HETATM   13  C   UNL     1     -11.934  12.247  69.275  1.00  0.00    -0.308 A  
HETATM   14  H2  UNL     1     -12.040  13.197  66.430  1.00  0.00     0.000 HD 
HETATM   15  C   UNL     1     -11.668  13.652  69.041  1.00  0.00    -0.375 A  
HETATM   16  H1  UNL     1     -10.836  14.092  65.763  1.00  0.00     0.000 HD 
HETATM   17  C   UNL     1     -11.607  11.227  68.207  1.00  0.00    -0.370 C  
HETATM   18  C   UNL     1     -11.862  14.562  70.090  1.00  0.00    -0.308 A  
HETATM   19  N   UNL     1     -11.580  15.866  70.009  1.00  0.00    -0.341 NA 
HETATM   20  C   UNL     1     -12.393  14.116  71.286  1.00  0.00    -0.447 A  
HETATM   21  C   UNL     1     -12.730  12.780  71.496  1.00  0.00    -0.330 A  
HETATM   22  C   UNL     1     -11.110  16.322  68.855  1.00  0.00    -0.345 A  
HETATM   23  N   UNL     1     -10.972  15.599  67.751  1.00  0.00    -0.311 NA 
HETATM   24  N   UNL     1     -10.777  17.659  68.783  1.00  0.00    -0.321 NA 
HETATM   25  C   UNL     1     -11.248  14.291  67.850  1.00  0.00    -0.285 A  
HETATM   26  H2  UNL     1     -10.889  18.276  69.588  1.00  0.00     0.000 HD 
HETATM   27  H1  UNL     1     -10.416  18.010  67.897  1.00  0.00     0.000 HD 
HETATM   28  N   UNL     1     -11.138  13.632  66.622  1.00  0.00    -0.302 NA 
ENDBRANCH  11  12
ENDBRANCH   9  11
ENDBRANCH   5   9
BRANCH   8  29
HETATM   29  O   UNL     1      -9.952   5.588  72.903  1.00  0.00    -0.165 OA 
HETATM   30  C   UNL     1     -11.037   4.965  73.568  1.00  0.00    -0.332 C  
ENDBRANCH   8  29
BRANCH   7  31
HETATM   31  O   UNL     1      -9.058   5.157  70.198  1.00  0.00    -0.122 OA 
HETATM   32  C   UNL     1      -9.667   3.878  70.199  1.00  0.00    -0.172 C  
ENDBRANCH   7  31
ENDBRANCH   2   3
TORSDOF 6
ENDMDL
MODEL       97
REMARK 921   NORMALIZED FREE ENERGY PREDICTED BY IDOCK:   -5.58 KCAL/MOL
REMARK 922        TOTAL FREE ENERGY PREDICTED BY IDOCK:   -8.39 KCAL/MOL
REMARK 923 INTER-LIGAND FREE ENERGY PREDICTED BY IDOCK:   -7.73 KCAL/MOL
REMARK 924 INTRA-LIGAND FREE ENERGY PREDICTED BY IDOCK:   -0.66 KCAL/MOL
REMARK 927      BINDING AFFINITY PREDICTED BY RF-SCORE:    0.00 PKD
ROOT
HETATM    1  C   UNL     1     -13.643   8.221  71.818  1.00  0.00    -0.361 C  
HETATM    2  O   UNL     1     -12.245   8.448  71.990  1.00  0.00    -0.319 OA 
ENDROOT
BRANCH   2   3
HETATM    3  C   UNL     1     -11.600   9.110  70.974  1.00  0.00    -0.306 A  
HETATM    4  C   UNL     1     -11.736  10.502  70.834  1.00  0.00    -0.431 A  
HETATM    5  C   UNL     1     -11.077  11.217  69.835  1.00  0.00    -0.162 A  
HETATM    6  C   UNL     1     -10.298  10.488  68.940  1.00  0.00    -0.226 A  
HETATM    7  C   UNL     1     -10.760   8.389  70.095  1.00  0.00    -0.236 A  
HETATM    8  C   UNL     1     -10.108   9.100  69.067  1.00  0.00    -0.191 A  
BRANCH   5   9
HETATM    9  N   UNL     1     -11.348  12.584  69.695  1.00  0.00    -0.479 NA 
HETATM   10  H   UNL     1     -11.208  13.229  70.474  1.00  0.00     0.000 HD 
BRANCH   9  11
HETATM   11  C   UNL     1     -11.838  13.062  68.407  1.00  0.00    -0.334 C  
BRANCH  11  12
HETATM   12  C   UNL     1     -10.900  14.061  67.749  1.00  0.00    -0.257 A  
HETATM   13  C   UNL     1     -10.857  15.405  68.201  1.00  0.00    -0.285 A  
HETATM   14  H2  UNL     1      -9.924  17.649  69.963  1.00  0.00     0.000 HD 
HETATM   15  C   UNL     1      -9.906  16.339  67.630  1.00  0.00    -0.238 A  
HETATM   16  H1  UNL     1      -9.936  19.213  69.464  1.00  0.00     0.000 HD 
HETATM   17  C   UNL     1     -11.815  15.866  69.277  1.00  0.00    -0.328 C  
HETATM   18  C   UNL     1      -9.114  15.923  66.550  1.00  0.00    -0.286 A  
HETATM   19  N   UNL     1      -8.260  16.719  65.900  1.00  0.00    -0.411 NA 
HETATM   20  C   UNL     1      -9.188  14.611  66.120  1.00  0.00    -0.210 A  
HETATM   21  C   UNL     1     -10.039  13.682  66.715  1.00  0.00    -0.269 A  
HETATM   22  C   UNL     1      -8.143  17.971  66.325  1.00  0.00    -0.224 A  
HETATM   23  N   UNL     1      -8.750  18.470  67.394  1.00  0.00    -0.260 NA 
HETATM   24  N   UNL     1      -7.294  18.806  65.629  1.00  0.00    -0.505 NA 
HETATM   25  C   UNL     1      -9.613  17.664  68.029  1.00  0.00    -0.289 A  
HETATM   26  H2  UNL     1      -6.774  18.473  64.817  1.00  0.00     0.000 HD 
HETATM   27  H1  UNL     1      -7.203  19.767  65.955  1.00  0.00     0.000 HD 
HETATM   28  N   UNL     1     -10.146  18.258  69.176  1.00  0.00    -0.282 NA 
ENDBRANCH  11  12
ENDBRANCH   9  11
ENDBRANCH   5   9
BRANCH   8  29
HETATM   29  O   UNL     1      -9.267   8.632  68.086  1.00  0.00    -0.137 OA 
HETATM   30  C   UNL     1      -8.713   9.531  67.140  1.00  0.00    -0.132 C  
ENDBRANCH   8  29
BRANCH   7  31
HETATM   31  O   UNL     1     -10.527   7.041  70.130  1.00  0.00    -0.204 OA 
HETATM   32  C   UNL     1     -11.265   6.156  69.307  1.00  0.00    -0.367 C  
ENDBRANCH   7  31
ENDBRANCH   2   3
TORSDOF 6
ENDMDL
MODEL       98
REMARK 921   NORMALIZED FREE ENERGY PREDICTED BY IDOCK:   -5.57 KCAL/MOL
REMARK 922        TOTAL FREE ENERGY PREDICTED BY IDOCK:   -8.38 KCAL/MOL
REMARK 923 INTER-LIGAND FREE ENERGY PREDICTED BY IDOCK:   -7.70 KCAL/MOL
REMARK 924 INTRA-LIGAND FREE ENERGY PREDICTED BY IDOCK:   -0.69 KCAL/MOL
REMARK 927      BINDING AFFINITY PREDICTED BY RF-SCORE:    0.00 PKD
ROOT
HETATM    1  C   UNL     1      -9.897  16.707  68.743  1.00  0.00    -0.252 C  
HETATM    2  O   UNL     1     -11.238  16.265  68.541  1.00  0.00    -0.350 OA 
ENDROOT
BRANCH   2   3
HETATM    3  C   UNL     1     -11.415  14.921  68.319  1.00  0.00    -0.324 A  
HETATM    4  C   UNL     1     -11.486  14.025  69.400  1.00  0.00    -0.343 A  
HETATM    5  C   UNL     1     -11.693  12.658  69.221  1.00  0.00    -0.322 A  
HETATM    6  C   UNL     1     -11.789  12.197  67.911  1.00  0.00    -0.338 A  
HETATM    7  C   UNL     1     -11.572  14.447  66.997  1.00  0.00    -0.384 A  
HETATM    8  C   UNL     1     -11.759  13.063  66.804  1.00  0.00    -0.382 A  
BRANCH   5   9
HETATM    9  N   UNL     1     -11.644  11.818  70.341  1.00  0.00    -0.506 NA 
HETATM   10  H   UNL     1     -11.040  12.036  71.134  1.00  0.00     0.000 HD 
BRANCH   9  11
HETATM   11  C   UNL     1     -12.480  10.622  70.343  1.00  0.00    -0.338 C  
BRANCH  11  12
HETATM   12  C   UNL     1     -11.777   9.408  70.928  1.00  0.00    -0.378 A  
HETATM   13  C   UNL     1     -10.819   8.698  70.159  1.00  0.00    -0.242 A  
HETATM   14  H2  UNL     1      -8.077   8.150  69.069  1.00  0.00     0.000 HD 
HETATM   15  C   UNL     1     -10.088   7.590  70.742  1.00  0.00    -0.192 A  
HETATM   16  H1  UNL     1      -7.608   6.647  68.601  1.00  0.00     0.000 HD 
HETATM   17  C   UNL     1     -10.569   9.094  68.720  1.00  0.00    -0.208 C  
HETATM   18  C   UNL     1     -10.425   7.162  72.035  1.00  0.00    -0.207 A  
HETATM   19  N   UNL     1      -9.871   6.109  72.640  1.00  0.00    -0.167 NA 
HETATM   20  C   UNL     1     -11.373   7.864  72.756  1.00  0.00    -0.453 A  
HETATM   21  C   UNL     1     -12.024   8.981  72.236  1.00  0.00    -0.332 A  
HETATM   22  C   UNL     1      -8.928   5.447  71.981  1.00  0.00    -0.134 A  
HETATM   23  N   UNL     1      -8.439   5.798  70.799  1.00  0.00    -0.123 NA 
HETATM   24  N   UNL     1      -8.384   4.333  72.588  1.00  0.00    -0.100 NA 
HETATM   25  C   UNL     1      -9.012   6.850  70.198  1.00  0.00    -0.149 A  
HETATM   26  H2  UNL     1      -8.696   4.029  73.510  1.00  0.00     0.000 HD 
HETATM   27  H1  UNL     1      -7.660   3.825  72.082  1.00  0.00     0.000 HD 
HETATM   28  N   UNL     1      -8.383   7.180  68.994  1.00  0.00    -0.125 NA 
ENDBRANCH  11  12
ENDBRANCH   9  11
ENDBRANCH   5   9
BRANCH   8  29
HETATM   29  O   UNL     1     -11.914  12.363  65.632  1.00  0.00    -0.447 OA 
HETATM   30  C   UNL     1     -10.824  11.634  65.093  1.00  0.00    -0.288 C  
ENDBRANCH   8  29
BRANCH   7  31
HETATM   31  O   UNL     1     -11.541  15.210  65.861  1.00  0.00    -0.239 OA 
HETATM   32  C   UNL     1     -10.331  15.404  65.151  1.00  0.00    -0.374 C  
ENDBRANCH   7  31
ENDBRANCH   2   3
TORSDOF 6
ENDMDL
MODEL       99
REMARK 921   NORMALIZED FREE ENERGY PREDICTED BY IDOCK:   -5.57 KCAL/MOL
REMARK 922        TOTAL FREE ENERGY PREDICTED BY IDOCK:   -8.38 KCAL/MOL
REMARK 923 INTER-LIGAND FREE ENERGY PREDICTED BY IDOCK:   -7.43 KCAL/MOL
REMARK 924 INTRA-LIGAND FREE ENERGY PREDICTED BY IDOCK:   -0.95 KCAL/MOL
REMARK 927      BINDING AFFINITY PREDICTED BY RF-SCORE:    0.00 PKD
ROOT
HETATM    1  C   UNL     1      -9.690   3.213  72.292  1.00  0.00    -0.154 C  
HETATM    2  O   UNL     1      -9.491   4.003  73.463  1.00  0.00    -0.104 OA 
ENDROOT
BRANCH   2   3
HETATM    3  C   UNL     1      -9.520   5.366  73.297  1.00  0.00    -0.142 A  
HETATM    4  C   UNL     1     -10.748   6.050  73.246  1.00  0.00    -0.284 A  
HETATM    5  C   UNL     1     -10.823   7.435  73.108  1.00  0.00    -0.386 A  
HETATM    6  C   UNL     1      -9.622   8.126  72.979  1.00  0.00    -0.336 A  
HETATM    7  C   UNL     1      -8.307   6.087  73.224  1.00  0.00    -0.115 A  
HETATM    8  C   UNL     1      -8.373   7.486  73.060  1.00  0.00    -0.129 A  
BRANCH   5   9
HETATM    9  N   UNL     1     -12.083   8.028  72.957  1.00  0.00    -0.642 NA 
HETATM   10  H   UNL     1     -12.671   8.224  73.768  1.00  0.00     0.000 HD 
BRANCH   9  11
HETATM   11  C   UNL     1     -12.533   8.359  71.610  1.00  0.00    -0.328 C  
BRANCH  11  12
HETATM   12  C   UNL     1     -12.481   9.849  71.316  1.00  0.00    -0.479 A  
HETATM   13  C   UNL     1     -11.683  10.340  70.250  1.00  0.00    -0.388 A  
HETATM   14  H2  UNL     1     -11.115  11.069  67.394  1.00  0.00     0.000 HD 
HETATM   15  C   UNL     1     -11.695  11.750  69.916  1.00  0.00    -0.399 A  
HETATM   16  H1  UNL     1     -10.008  12.212  66.989  1.00  0.00     0.000 HD 
HETATM   17  C   UNL     1     -10.808   9.385  69.467  1.00  0.00    -0.231 C  
HETATM   18  C   UNL     1     -12.416  12.633  70.733  1.00  0.00    -0.270 A  
HETATM   19  N   UNL     1     -12.438  13.958  70.563  1.00  0.00    -0.351 NA 
HETATM   20  C   UNL     1     -13.173  12.130  71.774  1.00  0.00    -0.423 A  
HETATM   21  C   UNL     1     -13.235  10.766  72.055  1.00  0.00    -0.466 A  
HETATM   22  C   UNL     1     -11.751  14.458  69.543  1.00  0.00    -0.313 A  
HETATM   23  N   UNL     1     -11.109  13.737  68.633  1.00  0.00    -0.256 NA 
HETATM   24  N   UNL     1     -11.737  15.829  69.391  1.00  0.00    -0.368 NA 
HETATM   25  C   UNL     1     -11.087  12.410  68.822  1.00  0.00    -0.262 A  
HETATM   26  H2  UNL     1     -12.237  16.438  70.040  1.00  0.00     0.000 HD 
HETATM   27  H1  UNL     1     -11.210  16.213  68.608  1.00  0.00     0.000 HD 
HETATM   28  N   UNL     1     -10.447  11.737  67.777  1.00  0.00    -0.190 NA 
ENDBRANCH  11  12
ENDBRANCH   9  11
ENDBRANCH   5   9
BRANCH   8  29
HETATM   29  O   UNL     1      -7.349   8.395  72.943  1.00  0.00    -0.194 OA 
HETATM   30  C   UNL     1      -6.646   8.517  71.718  1.00  0.00    -0.072 C  
ENDBRANCH   8  29
BRANCH   7  31
HETATM   31  O   UNL     1      -7.048   5.550  73.277  1.00  0.00    -0.082 OA 
HETATM   32  C   UNL     1      -6.399   5.345  74.519  1.00  0.00    -0.069 C  
ENDBRANCH   7  31
ENDBRANCH   2   3
TORSDOF 6
ENDMDL
MODEL      100
REMARK 921   NORMALIZED FREE ENERGY PREDICTED BY IDOCK:   -5.57 KCAL/MOL
REMARK 922        TOTAL FREE ENERGY PREDICTED BY IDOCK:   -8.38 KCAL/MOL
REMARK 923 INTER-LIGAND FREE ENERGY PREDICTED BY IDOCK:   -7.65 KCAL/MOL
REMARK 924 INTRA-LIGAND FREE ENERGY PREDICTED BY IDOCK:   -0.73 KCAL/MOL
REMARK 927      BINDING AFFINITY PREDICTED BY RF-SCORE:    0.00 PKD
ROOT
HETATM    1  C   UNL     1      -7.670  16.966  66.100  1.00  0.00    -0.224 C  
HETATM    2  O   UNL     1      -9.011  16.616  65.762  1.00  0.00    -0.498 OA 
ENDROOT
BRANCH   2   3
HETATM    3  C   UNL     1      -9.706  15.879  66.689  1.00  0.00    -0.253 A  
HETATM    4  C   UNL     1      -9.559  14.482  66.742  1.00  0.00    -0.274 A  
HETATM    5  C   UNL     1     -10.223  13.699  67.685  1.00  0.00    -0.239 A  
HETATM    6  C   UNL     1     -11.084  14.354  68.561  1.00  0.00    -0.270 A  
HETATM    7  C   UNL     1     -10.538  16.538  67.623  1.00  0.00    -0.321 A  
HETATM    8  C   UNL     1     -11.233  15.752  68.565  1.00  0.00    -0.354 A  
BRANCH   5   9
HETATM    9  N   UNL     1     -10.107  12.305  67.603  1.00  0.00    -0.198 NA 
HETATM   10  H   UNL     1      -9.201  11.862  67.448  1.00  0.00     0.000 HD 
BRANCH   9  11
HETATM   11  C   UNL     1     -11.317  11.503  67.745  1.00  0.00    -0.296 C  
BRANCH  11  12
HETATM   12  C   UNL     1     -11.035  10.077  68.191  1.00  0.00    -0.289 A  
HETATM   13  C   UNL     1     -11.221   9.702  69.547  1.00  0.00    -0.144 A  
HETATM   14  H2  UNL     1     -12.813   8.754  71.908  1.00  0.00     0.000 HD 
HETATM   15  C   UNL     1     -11.032   8.325  69.958  1.00  0.00    -0.197 A  
HETATM   16  H1  UNL     1     -12.117   7.967  73.171  1.00  0.00     0.000 HD 
HETATM   17  C   UNL     1     -11.610  10.750  70.568  1.00  0.00    -0.425 C  
HETATM   18  C   UNL     1     -10.552   7.399  69.021  1.00  0.00    -0.192 A  
HETATM   19  N   UNL     1     -10.271   6.125  69.307  1.00  0.00    -0.185 NA 
HETATM   20  C   UNL     1     -10.364   7.795  67.710  1.00  0.00    -0.284 A  
HETATM   21  C   UNL     1     -10.622   9.097  67.284  1.00  0.00    -0.303 A  
HETATM   22  C   UNL     1     -10.484   5.713  70.551  1.00  0.00    -0.277 A  
HETATM   23  N   UNL     1     -11.029   6.449  71.512  1.00  0.00    -0.253 NA 
HETATM   24  N   UNL     1     -10.154   4.410  70.860  1.00  0.00    -0.173 NA 
HETATM   25  C   UNL     1     -11.295   7.728  71.214  1.00  0.00    -0.264 A  
HETATM   26  H2  UNL     1      -9.760   3.784  70.157  1.00  0.00     0.000 HD 
HETATM   27  H1  UNL     1     -10.318   4.094  71.814  1.00  0.00     0.000 HD 
HETATM   28  N   UNL     1     -11.927   8.397  72.266  1.00  0.00    -0.373 NA 
ENDBRANCH  11  12
ENDBRANCH   9  11
ENDBRANCH   5   9
BRANCH   8  29
HETATM   29  O   UNL     1     -12.106  16.147  69.550  1.00  0.00    -0.205 OA 
HETATM   30  C   UNL     1     -12.638  15.189  70.450  1.00  0.00    -0.359 C  
ENDBRANCH   8  29
BRANCH   7  31
HETATM   31  O   UNL     1     -10.757  17.887  67.692  1.00  0.00    -0.399 OA 
HETATM   32  C   UNL     1      -9.924  18.717  68.481  1.00  0.00    -0.400 C  
ENDBRANCH   7  31
ENDBRANCH   2   3
TORSDOF 6
ENDMDL
MODEL      101
REMARK 921   NORMALIZED FREE ENERGY PREDICTED BY IDOCK:   -5.56 KCAL/MOL
REMARK 922        TOTAL FREE ENERGY PREDICTED BY IDOCK:   -8.37 KCAL/MOL
REMARK 923 INTER-LIGAND FREE ENERGY PREDICTED BY IDOCK:   -7.49 KCAL/MOL
REMARK 924 INTRA-LIGAND FREE ENERGY PREDICTED BY IDOCK:   -0.88 KCAL/MOL
REMARK 927      BINDING AFFINITY PREDICTED BY RF-SCORE:    0.00 PKD
ROOT
HETATM    1  C   UNL     1      -8.043   7.920  64.413  1.00  0.00    -0.103 C  
HETATM    2  O   UNL     1      -7.188   8.371  65.461  1.00  0.00    -0.076 OA 
ENDROOT
BRANCH   2   3
HETATM    3  C   UNL     1      -7.801   8.900  66.570  1.00  0.00    -0.100 A  
HETATM    4  C   UNL     1      -8.203  10.248  66.586  1.00  0.00    -0.125 A  
HETATM    5  C   UNL     1      -8.853  10.817  67.679  1.00  0.00    -0.132 A  
HETATM    6  C   UNL     1      -9.059  10.004  68.790  1.00  0.00    -0.148 A  
HETATM    7  C   UNL     1      -8.069   8.070  67.683  1.00  0.00    -0.124 A  
HETATM    8  C   UNL     1      -8.705   8.644  68.802  1.00  0.00    -0.135 A  
BRANCH   5   9
HETATM    9  N   UNL     1      -9.124  12.192  67.659  1.00  0.00    -0.175 NA 
HETATM   10  H   UNL     1      -8.386  12.874  67.834  1.00  0.00     0.000 HD 
BRANCH   9  11
HETATM   11  C   UNL     1     -10.490  12.621  67.382  1.00  0.00    -0.224 C  
BRANCH  11  12
HETATM   12  C   UNL     1     -11.090  13.454  68.503  1.00  0.00    -0.299 A  
HETATM   13  C   UNL     1     -11.888  12.839  69.502  1.00  0.00    -0.379 A  
HETATM   14  H2  UNL     1     -12.364  11.376  72.079  1.00  0.00     0.000 HD 
HETATM   15  C   UNL     1     -12.394  13.616  70.616  1.00  0.00    -0.440 A  
HETATM   16  H1  UNL     1     -13.777  11.503  72.907  1.00  0.00     0.000 HD 
HETATM   17  C   UNL     1     -12.220  11.367  69.395  1.00  0.00    -0.288 C  
HETATM   18  C   UNL     1     -12.177  15.002  70.628  1.00  0.00    -0.326 A  
HETATM   19  N   UNL     1     -12.660  15.824  71.564  1.00  0.00    -0.445 NA 
HETATM   20  C   UNL     1     -11.409  15.577  69.634  1.00  0.00    -0.319 A  
HETATM   21  C   UNL     1     -10.848  14.828  68.601  1.00  0.00    -0.257 A  
HETATM   22  C   UNL     1     -13.365  15.286  72.551  1.00  0.00    -0.453 A  
HETATM   23  N   UNL     1     -13.562  13.984  72.722  1.00  0.00    -0.689 NA 
HETATM   24  N   UNL     1     -13.900  16.138  73.495  1.00  0.00    -0.797 NA 
HETATM   25  C   UNL     1     -13.082  13.172  71.770  1.00  0.00    -0.383 A  
HETATM   26  H2  UNL     1     -13.758  17.146  73.437  1.00  0.00     0.000 HD 
HETATM   27  H1  UNL     1     -14.442  15.724  74.253  1.00  0.00     0.000 HD 
HETATM   28  N   UNL     1     -13.280  11.823  72.075  1.00  0.00    -0.464 NA 
ENDBRANCH  11  12
ENDBRANCH   9  11
ENDBRANCH   5   9
BRANCH   8  29
HETATM   29  O   UNL     1      -9.052   8.060  69.997  1.00  0.00    -0.150 OA 
HETATM   30  C   UNL     1      -9.120   8.845  71.175  1.00  0.00    -0.249 C  
ENDBRANCH   8  29
BRANCH   7  31
HETATM   31  O   UNL     1      -7.748   6.744  67.791  1.00  0.00    -0.107 OA 
HETATM   32  C   UNL     1      -8.691   5.740  67.463  1.00  0.00    -0.107 C  
ENDBRANCH   7  31
ENDBRANCH   2   3
TORSDOF 6
ENDMDL
MODEL      102
REMARK 921   NORMALIZED FREE ENERGY PREDICTED BY IDOCK:   -5.52 KCAL/MOL
REMARK 922        TOTAL FREE ENERGY PREDICTED BY IDOCK:   -8.31 KCAL/MOL
REMARK 923 INTER-LIGAND FREE ENERGY PREDICTED BY IDOCK:   -7.58 KCAL/MOL
REMARK 924 INTRA-LIGAND FREE ENERGY PREDICTED BY IDOCK:   -0.72 KCAL/MOL
REMARK 927      BINDING AFFINITY PREDICTED BY RF-SCORE:    0.00 PKD
ROOT
HETATM    1  C   UNL     1     -12.457  13.899  66.106  1.00  0.00    -0.436 C  
HETATM    2  O   UNL     1     -11.448  13.944  67.113  1.00  0.00    -0.315 OA 
ENDROOT
BRANCH   2   3
HETATM    3  C   UNL     1     -11.769  13.394  68.330  1.00  0.00    -0.356 A  
HETATM    4  C   UNL     1     -11.743  12.000  68.509  1.00  0.00    -0.387 A  
HETATM    5  C   UNL     1     -12.035  11.402  69.734  1.00  0.00    -0.353 A  
HETATM    6  C   UNL     1     -12.399  12.244  70.782  1.00  0.00    -0.383 A  
HETATM    7  C   UNL     1     -12.083  14.241  69.417  1.00  0.00    -0.318 A  
HETATM    8  C   UNL     1     -12.403  13.644  70.654  1.00  0.00    -0.368 A  
BRANCH   5   9
HETATM    9  N   UNL     1     -12.092  10.004  69.803  1.00  0.00    -0.480 NA 
HETATM   10  H   UNL     1     -12.110   9.437  68.955  1.00  0.00     0.000 HD 
BRANCH   9  11
HETATM   11  C   UNL     1     -12.126   9.379  71.121  1.00  0.00    -0.328 C  
BRANCH  11  12
HETATM   12  C   UNL     1     -10.849   8.624  71.452  1.00  0.00    -0.339 A  
HETATM   13  C   UNL     1     -10.912   7.288  71.926  1.00  0.00    -0.260 A  
HETATM   14  H2  UNL     1     -11.066   4.305  71.629  1.00  0.00     0.000 HD 
HETATM   15  C   UNL     1      -9.694   6.538  72.166  1.00  0.00    -0.157 A  
HETATM   16  H1  UNL     1     -10.498   3.282  72.781  1.00  0.00     0.000 HD 
HETATM   17  C   UNL     1     -12.257   6.649  72.191  1.00  0.00    -0.269 C  
HETATM   18  C   UNL     1      -8.460   7.191  72.033  1.00  0.00    -0.107 A  
HETATM   19  N   UNL     1      -7.282   6.622  72.299  1.00  0.00    -0.083 NA 
HETATM   20  C   UNL     1      -8.429   8.499  71.584  1.00  0.00    -0.235 A  
HETATM   21  C   UNL     1      -9.590   9.204  71.271  1.00  0.00    -0.331 A  
HETATM   22  C   UNL     1      -7.287   5.353  72.690  1.00  0.00    -0.095 A  
HETATM   23  N   UNL     1      -8.366   4.585  72.762  1.00  0.00    -0.106 NA 
HETATM   24  N   UNL     1      -6.075   4.776  73.007  1.00  0.00    -0.021 NA 
HETATM   25  C   UNL     1      -9.543   5.173  72.503  1.00  0.00    -0.149 A  
HETATM   26  H2  UNL     1      -5.205   5.305  72.943  1.00  0.00     0.000 HD 
HETATM   27  H1  UNL     1      -6.078   3.803  73.308  1.00  0.00     0.000 HD 
HETATM   28  N   UNL     1     -10.606   4.267  72.538  1.00  0.00    -0.151 NA 
ENDBRANCH  11  12
ENDBRANCH   9  11
ENDBRANCH   5   9
BRANCH   8  29
HETATM   29  O   UNL     1     -12.757  14.240  71.840  1.00  0.00    -0.328 OA 
HETATM   30  C   UNL     1     -14.126  14.434  72.154  1.00  0.00    -0.535 C  
ENDBRANCH   8  29
BRANCH   7  31
HETATM   31  O   UNL     1     -12.129  15.608  69.384  1.00  0.00    -0.356 OA 
HETATM   32  C   UNL     1     -11.034  16.382  69.843  1.00  0.00    -0.338 C  
ENDBRANCH   7  31
ENDBRANCH   2   3
TORSDOF 6
ENDMDL
MODEL      103
REMARK 921   NORMALIZED FREE ENERGY PREDICTED BY IDOCK:   -5.51 KCAL/MOL
REMARK 922        TOTAL FREE ENERGY PREDICTED BY IDOCK:   -8.29 KCAL/MOL
REMARK 923 INTER-LIGAND FREE ENERGY PREDICTED BY IDOCK:   -7.26 KCAL/MOL
REMARK 924 INTRA-LIGAND FREE ENERGY PREDICTED BY IDOCK:   -1.03 KCAL/MOL
REMARK 927      BINDING AFFINITY PREDICTED BY RF-SCORE:    0.00 PKD
ROOT
HETATM    1  C   UNL     1     -10.212  19.905  68.192  1.00  0.00    -0.432 C  
HETATM    2  O   UNL     1     -10.420  18.631  67.586  1.00  0.00    -0.389 OA 
ENDROOT
BRANCH   2   3
HETATM    3  C   UNL     1      -9.971  17.537  68.286  1.00  0.00    -0.330 A  
HETATM    4  C   UNL     1     -10.872  16.740  69.013  1.00  0.00    -0.291 A  
HETATM    5  C   UNL     1     -10.464  15.606  69.714  1.00  0.00    -0.308 A  
HETATM    6  C   UNL     1      -9.105  15.307  69.702  1.00  0.00    -0.130 A  
HETATM    7  C   UNL     1      -8.602  17.190  68.235  1.00  0.00    -0.241 A  
HETATM    8  C   UNL     1      -8.176  16.058  68.960  1.00  0.00    -0.235 A  
BRANCH   5   9
HETATM    9  N   UNL     1     -11.404  14.927  70.500  1.00  0.00    -0.371 NA 
HETATM   10  H   UNL     1     -11.408  15.026  71.516  1.00  0.00     0.000 HD 
BRANCH   9  11
HETATM   11  C   UNL     1     -12.379  14.075  69.828  1.00  0.00    -0.291 C  
BRANCH  11  12
HETATM   12  C   UNL     1     -11.948  12.619  69.762  1.00  0.00    -0.365 A  
HETATM   13  C   UNL     1     -11.459  12.072  68.547  1.00  0.00    -0.345 A  
HETATM   14  H2  UNL     1      -9.350  11.446  66.505  1.00  0.00     0.000 HD 
HETATM   15  C   UNL     1     -10.971  10.708  68.502  1.00  0.00    -0.296 A  
HETATM   16  H1  UNL     1      -9.475  10.164  65.486  1.00  0.00     0.000 HD 
HETATM   17  C   UNL     1     -11.458  12.918  67.292  1.00  0.00    -0.388 C  
HETATM   18  C   UNL     1     -11.098   9.906  69.645  1.00  0.00    -0.241 A  
HETATM   19  N   UNL     1     -10.752   8.617  69.694  1.00  0.00    -0.224 NA 
HETATM   20  C   UNL     1     -11.592  10.460  70.811  1.00  0.00    -0.450 A  
HETATM   21  C   UNL     1     -11.987  11.794  70.890  1.00  0.00    -0.116 A  
HETATM   22  C   UNL     1     -10.235   8.077  68.597  1.00  0.00    -0.206 A  
HETATM   23  N   UNL     1      -9.964   8.739  67.479  1.00  0.00    -0.183 NA 
HETATM   24  N   UNL     1      -9.917   6.735  68.632  1.00  0.00    -0.142 NA 
HETATM   25  C   UNL     1     -10.327  10.029  67.440  1.00  0.00    -0.238 A  
HETATM   26  H2  UNL     1     -10.072   6.177  69.472  1.00  0.00     0.000 HD 
HETATM   27  H1  UNL     1      -9.521   6.320  67.789  1.00  0.00     0.000 HD 
HETATM   28  N   UNL     1      -9.939  10.653  66.251  1.00  0.00    -0.214 NA 
ENDBRANCH  11  12
ENDBRANCH   9  11
ENDBRANCH   5   9
BRANCH   8  29
HETATM   29  O   UNL     1      -6.913  15.532  69.085  1.00  0.00    -0.134 OA 
HETATM   30  C   UNL     1      -5.962  16.166  69.924  1.00  0.00    -0.182 C  
ENDBRANCH   8  29
BRANCH   7  31
HETATM   31  O   UNL     1      -7.626  17.867  67.555  1.00  0.00    -0.205 OA 
HETATM   32  C   UNL     1      -7.284  17.508  66.228  1.00  0.00    -0.316 C  
ENDBRANCH   7  31
ENDBRANCH   2   3
TORSDOF 6
ENDMDL
MODEL      104
REMARK 921   NORMALIZED FREE ENERGY PREDICTED BY IDOCK:   -5.45 KCAL/MOL
REMARK 922        TOTAL FREE ENERGY PREDICTED BY IDOCK:   -8.21 KCAL/MOL
REMARK 923 INTER-LIGAND FREE ENERGY PREDICTED BY IDOCK:   -7.17 KCAL/MOL
REMARK 924 INTRA-LIGAND FREE ENERGY PREDICTED BY IDOCK:   -1.04 KCAL/MOL
REMARK 927      BINDING AFFINITY PREDICTED BY RF-SCORE:    0.00 PKD
ROOT
HETATM    1  C   UNL     1      -5.277  13.654  67.949  1.00  0.00    -0.083 C  
HETATM    2  O   UNL     1      -6.037  14.801  67.574  1.00  0.00    -0.317 OA 
ENDROOT
BRANCH   2   3
HETATM    3  C   UNL     1      -7.402  14.648  67.532  1.00  0.00    -0.197 A  
HETATM    4  C   UNL     1      -7.968  13.456  67.046  1.00  0.00     0.023 A  
HETATM    5  C   UNL     1      -9.346  13.248  67.012  1.00  0.00    -0.242 A  
HETATM    6  C   UNL     1     -10.158  14.293  67.445  1.00  0.00    -0.247 A  
HETATM    7  C   UNL     1      -8.235  15.678  68.022  1.00  0.00    -0.144 A  
HETATM    8  C   UNL     1      -9.631  15.486  67.970  1.00  0.00    -0.203 A  
BRANCH   5   9
HETATM    9  N   UNL     1      -9.835  12.079  66.415  1.00  0.00    -0.215 NA 
HETATM   10  H   UNL     1      -9.288  11.582  65.711  1.00  0.00     0.000 HD 
BRANCH   9  11
HETATM   11  C   UNL     1     -11.146  11.590  66.827  1.00  0.00    -0.302 C  
BRANCH  11  12
HETATM   12  C   UNL     1     -11.072  10.553  67.936  1.00  0.00    -0.367 A  
HETATM   13  C   UNL     1     -11.647  10.822  69.205  1.00  0.00    -0.376 A  
HETATM   14  H2  UNL     1     -13.878  10.921  71.210  1.00  0.00     0.000 HD 
HETATM   15  C   UNL     1     -11.649   9.805  70.238  1.00  0.00    -0.283 A  
HETATM   16  H1  UNL     1     -13.602  10.857  72.827  1.00  0.00     0.000 HD 
HETATM   17  C   UNL     1     -12.251  12.182  69.482  1.00  0.00    -0.169 C  
HETATM   18  C   UNL     1     -10.975   8.598  70.001  1.00  0.00    -0.203 A  
HETATM   19  N   UNL     1     -10.849   7.623  70.905  1.00  0.00    -0.237 NA 
HETATM   20  C   UNL     1     -10.410   8.369  68.760  1.00  0.00    -0.225 A  
HETATM   21  C   UNL     1     -10.472   9.307  67.731  1.00  0.00    -0.313 A  
HETATM   22  C   UNL     1     -11.421   7.806  72.089  1.00  0.00    -0.310 A  
HETATM   23  N   UNL     1     -12.174   8.849  72.416  1.00  0.00    -0.336 NA 
HETATM   24  N   UNL     1     -11.256   6.819  73.039  1.00  0.00    -0.464 NA 
HETATM   25  C   UNL     1     -12.281   9.825  71.503  1.00  0.00    -0.406 A  
HETATM   26  H2  UNL     1     -10.715   5.979  72.839  1.00  0.00     0.000 HD 
HETATM   27  H1  UNL     1     -11.695   6.960  73.948  1.00  0.00     0.000 HD 
HETATM   28  N   UNL     1     -13.146  10.842  71.915  1.00  0.00    -0.487 NA 
ENDBRANCH  11  12
ENDBRANCH   9  11
ENDBRANCH   5   9
BRANCH   8  29
HETATM   29  O   UNL     1     -10.640  16.334  68.361  1.00  0.00    -0.271 OA 
HETATM   30  C   UNL     1     -11.648  15.875  69.244  1.00  0.00    -0.369 C  
ENDBRANCH   8  29
BRANCH   7  31
HETATM   31  O   UNL     1      -7.815  16.876  68.535  1.00  0.00    -0.217 OA 
HETATM   32  C   UNL     1      -7.617  17.996  67.691  1.00  0.00    -0.217 C  
ENDBRANCH   7  31
ENDBRANCH   2   3
TORSDOF 6
ENDMDL
MODEL      105
REMARK 921   NORMALIZED FREE ENERGY PREDICTED BY IDOCK:   -5.44 KCAL/MOL
REMARK 922        TOTAL FREE ENERGY PREDICTED BY IDOCK:   -8.20 KCAL/MOL
REMARK 923 INTER-LIGAND FREE ENERGY PREDICTED BY IDOCK:   -7.71 KCAL/MOL
REMARK 924 INTRA-LIGAND FREE ENERGY PREDICTED BY IDOCK:   -0.50 KCAL/MOL
REMARK 927      BINDING AFFINITY PREDICTED BY RF-SCORE:    0.00 PKD
ROOT
HETATM    1  C   UNL     1     -13.176   9.810  71.944  1.00  0.00    -0.449 C  
HETATM    2  O   UNL     1     -13.303  11.211  72.173  1.00  0.00    -0.452 OA 
ENDROOT
BRANCH   2   3
HETATM    3  C   UNL     1     -12.740  12.042  71.234  1.00  0.00    -0.279 A  
HETATM    4  C   UNL     1     -12.016  11.506  70.155  1.00  0.00    -0.452 A  
HETATM    5  C   UNL     1     -11.453  12.311  69.165  1.00  0.00    -0.296 A  
HETATM    6  C   UNL     1     -11.600  13.688  69.305  1.00  0.00    -0.363 A  
HETATM    7  C   UNL     1     -12.932  13.439  71.333  1.00  0.00    -0.328 A  
HETATM    8  C   UNL     1     -12.346  14.261  70.350  1.00  0.00    -0.352 A  
BRANCH   5   9
HETATM    9  N   UNL     1     -10.656  11.709  68.182  1.00  0.00    -0.193 NA 
HETATM   10  H   UNL     1      -9.682  11.985  68.056  1.00  0.00     0.000 HD 
BRANCH   9  11
HETATM   11  C   UNL     1     -11.257  10.677  67.344  1.00  0.00    -0.205 C  
BRANCH  11  12
HETATM   12  C   UNL     1     -10.234   9.913  66.519  1.00  0.00    -0.292 A  
HETATM   13  C   UNL     1      -9.952  10.310  65.186  1.00  0.00    -0.395 A  
HETATM   14  H2  UNL     1      -8.553  11.912  63.068  1.00  0.00     0.000 HD 
HETATM   15  C   UNL     1      -8.919   9.635  64.424  1.00  0.00    -0.276 A  
HETATM   16  H1  UNL     1      -8.367  11.357  61.534  1.00  0.00     0.000 HD 
HETATM   17  C   UNL     1     -10.741  11.438  64.556  1.00  0.00    -0.391 C  
HETATM   18  C   UNL     1      -8.289   8.515  64.984  1.00  0.00    -0.165 A  
HETATM   19  N   UNL     1      -7.379   7.773  64.346  1.00  0.00    -0.081 NA 
HETATM   20  C   UNL     1      -8.595   8.140  66.280  1.00  0.00    -0.157 A  
HETATM   21  C   UNL     1      -9.526   8.832  67.052  1.00  0.00    -0.218 A  
HETATM   22  C   UNL     1      -7.040   8.141  63.116  1.00  0.00    -0.088 A  
HETATM   23  N   UNL     1      -7.478   9.233  62.502  1.00  0.00    -0.103 NA 
HETATM   24  N   UNL     1      -6.133   7.353  62.439  1.00  0.00    -0.057 NA 
HETATM   25  C   UNL     1      -8.398   9.961  63.150  1.00  0.00    -0.166 A  
HETATM   26  H2  UNL     1      -5.736   6.516  62.868  1.00  0.00     0.000 HD 
HETATM   27  H1  UNL     1      -5.873   7.635  61.495  1.00  0.00     0.000 HD 
HETATM   28  N   UNL     1      -8.743  11.122  62.452  1.00  0.00    -0.306 NA 
ENDBRANCH  11  12
ENDBRANCH   9  11
ENDBRANCH   5   9
BRANCH   8  29
HETATM   29  O   UNL     1     -12.370  15.631  70.237  1.00  0.00    -0.400 OA 
HETATM   30  C   UNL     1     -11.186  16.335  69.902  1.00  0.00    -0.317 C  
ENDBRANCH   8  29
BRANCH   7  31
HETATM   31  O   UNL     1     -13.626  14.086  72.320  1.00  0.00    -0.430 OA 
HETATM   32  C   UNL     1     -12.947  14.827  73.318  1.00  0.00    -0.493 C  
ENDBRANCH   7  31
ENDBRANCH   2   3
TORSDOF 6
ENDMDL
MODEL      106
REMARK 921   NORMALIZED FREE ENERGY PREDICTED BY IDOCK:   -5.42 KCAL/MOL
REMARK 922        TOTAL FREE ENERGY PREDICTED BY IDOCK:   -8.18 KCAL/MOL
REMARK 923 INTER-LIGAND FREE ENERGY PREDICTED BY IDOCK:   -7.55 KCAL/MOL
REMARK 924 INTRA-LIGAND FREE ENERGY PREDICTED BY IDOCK:   -0.63 KCAL/MOL
REMARK 927      BINDING AFFINITY PREDICTED BY RF-SCORE:    0.00 PKD
ROOT
HETATM    1  C   UNL     1     -12.782   7.649  71.366  1.00  0.00    -0.327 C  
HETATM    2  O   UNL     1     -12.031   6.541  70.874  1.00  0.00    -0.369 OA 
ENDROOT
BRANCH   2   3
HETATM    3  C   UNL     1     -10.796   6.823  70.342  1.00  0.00    -0.262 A  
HETATM    4  C   UNL     1     -10.607   7.973  69.554  1.00  0.00    -0.216 A  
HETATM    5  C   UNL     1      -9.366   8.311  69.018  1.00  0.00    -0.147 A  
HETATM    6  C   UNL     1      -8.310   7.437  69.260  1.00  0.00    -0.132 A  
HETATM    7  C   UNL     1      -9.702   5.975  70.628  1.00  0.00    -0.174 A  
HETATM    8  C   UNL     1      -8.448   6.297  70.070  1.00  0.00    -0.134 A  
BRANCH   5   9
HETATM    9  N   UNL     1      -9.283   9.413  68.156  1.00  0.00    -0.130 NA 
HETATM   10  H   UNL     1      -9.054   9.291  67.170  1.00  0.00     0.000 HD 
BRANCH   9  11
HETATM   11  C   UNL     1      -9.533  10.740  68.708  1.00  0.00    -0.182 C  
BRANCH  11  12
HETATM   12  C   UNL     1     -10.095  11.712  67.684  1.00  0.00    -0.204 A  
HETATM   13  C   UNL     1      -9.561  13.023  67.575  1.00  0.00    -0.204 A  
HETATM   14  H2  UNL     1      -7.634  15.095  66.576  1.00  0.00     0.000 HD 
HETATM   15  C   UNL     1     -10.039  13.924  66.545  1.00  0.00    -0.286 A  
HETATM   16  H1  UNL     1      -8.038  16.684  66.470  1.00  0.00     0.000 HD 
HETATM   17  C   UNL     1      -8.495  13.481  68.546  1.00  0.00    -0.092 C  
HETATM   18  C   UNL     1     -11.113  13.521  65.738  1.00  0.00    -0.286 A  
HETATM   19  N   UNL     1     -11.682  14.297  64.811  1.00  0.00    -0.393 NA 
HETATM   20  C   UNL     1     -11.624  12.244  65.876  1.00  0.00    -0.450 A  
HETATM   21  C   UNL     1     -11.118  11.339  66.807  1.00  0.00    -0.314 A  
HETATM   22  C   UNL     1     -11.178  15.512  64.633  1.00  0.00    -0.371 A  
HETATM   23  N   UNL     1     -10.104  15.987  65.251  1.00  0.00    -0.492 NA 
HETATM   24  N   UNL     1     -11.790  16.329  63.706  1.00  0.00    -1.413 NA 
HETATM   25  C   UNL     1      -9.551  15.203  66.186  1.00  0.00    -0.313 A  
HETATM   26  H2  UNL     1     -12.602  16.012  63.175  1.00  0.00     0.000 HD 
HETATM   27  H1  UNL     1     -11.404  17.262  63.569  1.00  0.00     0.000 HD 
HETATM   28  N   UNL     1      -8.390  15.762  66.728  1.00  0.00    -0.250 NA 
ENDBRANCH  11  12
ENDBRANCH   9  11
ENDBRANCH   5   9
BRANCH   8  29
HETATM   29  O   UNL     1      -7.252   5.629  70.181  1.00  0.00    -0.064 OA 
HETATM   30  C   UNL     1      -6.788   4.823  69.111  1.00  0.00    -0.050 C  
ENDBRANCH   8  29
BRANCH   7  31
HETATM   31  O   UNL     1      -9.745   4.839  71.390  1.00  0.00    -0.157 OA 
HETATM   32  C   UNL     1      -9.438   4.881  72.772  1.00  0.00    -0.135 C  
ENDBRANCH   7  31
ENDBRANCH   2   3
TORSDOF 6
ENDMDL
MODEL      107
REMARK 921   NORMALIZED FREE ENERGY PREDICTED BY IDOCK:   -5.42 KCAL/MOL
REMARK 922        TOTAL FREE ENERGY PREDICTED BY IDOCK:   -8.18 KCAL/MOL
REMARK 923 INTER-LIGAND FREE ENERGY PREDICTED BY IDOCK:   -7.43 KCAL/MOL
REMARK 924 INTRA-LIGAND FREE ENERGY PREDICTED BY IDOCK:   -0.75 KCAL/MOL
REMARK 927      BINDING AFFINITY PREDICTED BY RF-SCORE:    0.00 PKD
ROOT
HETATM    1  C   UNL     1      -9.780  10.156  65.382  1.00  0.00    -0.291 C  
HETATM    2  O   UNL     1     -10.469   9.428  66.397  1.00  0.00    -0.204 OA 
ENDROOT
BRANCH   2   3
HETATM    3  C   UNL     1     -10.835  10.133  67.518  1.00  0.00    -0.290 A  
HETATM    4  C   UNL     1     -11.371  11.427  67.401  1.00  0.00    -0.359 A  
HETATM    5  C   UNL     1     -11.781  12.166  68.509  1.00  0.00    -0.330 A  
HETATM    6  C   UNL     1     -11.601  11.585  69.761  1.00  0.00    -0.401 A  
HETATM    7  C   UNL     1     -10.711   9.532  68.791  1.00  0.00    -0.190 A  
HETATM    8  C   UNL     1     -11.101  10.281  69.920  1.00  0.00    -0.304 A  
BRANCH   5   9
HETATM    9  N   UNL     1     -12.205  13.487  68.317  1.00  0.00    -0.313 NA 
HETATM   10  H   UNL     1     -12.907  13.907  68.928  1.00  0.00     0.000 HD 
BRANCH   9  11
HETATM   11  C   UNL     1     -11.616  14.248  67.221  1.00  0.00    -0.377 C  
BRANCH  11  12
HETATM   12  C   UNL     1     -10.520  15.196  67.678  1.00  0.00    -0.253 A  
HETATM   13  C   UNL     1     -10.234  16.370  66.933  1.00  0.00    -0.290 A  
HETATM   14  H2  UNL     1     -10.603  19.241  66.140  1.00  0.00     0.000 HD 
HETATM   15  C   UNL     1      -9.245  17.317  67.410  1.00  0.00    -0.231 A  
HETATM   16  H1  UNL     1      -9.386  20.130  65.489  1.00  0.00     0.000 HD 
HETATM   17  C   UNL     1     -10.959  16.626  65.630  1.00  0.00    -0.028 C  
HETATM   18  C   UNL     1      -8.498  16.997  68.553  1.00  0.00    -0.257 A  
HETATM   19  N   UNL     1      -7.513  17.758  69.038  1.00  0.00    -0.219 NA 
HETATM   20  C   UNL     1      -8.788  15.839  69.251  1.00  0.00    -0.262 A  
HETATM   21  C   UNL     1      -9.792  14.961  68.848  1.00  0.00    -0.230 A  
HETATM   22  C   UNL     1      -7.248  18.896  68.407  1.00  0.00    -0.280 A  
HETATM   23  N   UNL     1      -7.938  19.372  67.378  1.00  0.00    -0.263 NA 
HETATM   24  N   UNL     1      -6.204  19.662  68.880  1.00  0.00    -0.257 NA 
HETATM   25  C   UNL     1      -8.915  18.593  66.895  1.00  0.00    -0.294 A  
HETATM   26  H2  UNL     1      -5.654  19.366  69.687  1.00  0.00     0.000 HD 
HETATM   27  H1  UNL     1      -6.000  20.535  68.396  1.00  0.00     0.000 HD 
HETATM   28  N   UNL     1      -9.623  19.211  65.860  1.00  0.00    -0.430 NA 
ENDBRANCH  11  12
ENDBRANCH   9  11
ENDBRANCH   5   9
BRANCH   8  29
HETATM   29  O   UNL     1     -11.060   9.933  71.249  1.00  0.00    -0.351 OA 
HETATM   30  C   UNL     1     -12.087   9.128  71.802  1.00  0.00    -0.376 C  
ENDBRANCH   8  29
BRANCH   7  31
HETATM   31  O   UNL     1     -10.222   8.279  69.044  1.00  0.00    -0.208 OA 
HETATM   32  C   UNL     1      -8.838   8.071  69.262  1.00  0.00    -0.141 C  
ENDBRANCH   7  31
ENDBRANCH   2   3
TORSDOF 6
ENDMDL
MODEL      108
REMARK 921   NORMALIZED FREE ENERGY PREDICTED BY IDOCK:   -5.41 KCAL/MOL
REMARK 922        TOTAL FREE ENERGY PREDICTED BY IDOCK:   -8.16 KCAL/MOL
REMARK 923 INTER-LIGAND FREE ENERGY PREDICTED BY IDOCK:   -7.48 KCAL/MOL
REMARK 924 INTRA-LIGAND FREE ENERGY PREDICTED BY IDOCK:   -0.68 KCAL/MOL
REMARK 927      BINDING AFFINITY PREDICTED BY RF-SCORE:    0.00 PKD
ROOT
HETATM    1  C   UNL     1      -9.062  10.153  65.287  1.00  0.00    -0.195 C  
HETATM    2  O   UNL     1     -10.277   9.809  65.950  1.00  0.00    -0.259 OA 
ENDROOT
BRANCH   2   3
HETATM    3  C   UNL     1     -10.685  10.646  66.960  1.00  0.00    -0.259 A  
HETATM    4  C   UNL     1     -10.945  12.002  66.698  1.00  0.00    -0.330 A  
HETATM    5  C   UNL     1     -11.388  12.880  67.687  1.00  0.00    -0.303 A  
HETATM    6  C   UNL     1     -11.526  12.368  68.974  1.00  0.00    -0.352 A  
HETATM    7  C   UNL     1     -10.885  10.126  68.259  1.00  0.00    -0.252 A  
HETATM    8  C   UNL     1     -11.310  11.012  69.271  1.00  0.00    -0.282 A  
BRANCH   5   9
HETATM    9  N   UNL     1     -11.521  14.238  67.369  1.00  0.00    -0.328 NA 
HETATM   10  H   UNL     1     -11.983  14.883  68.011  1.00  0.00     0.000 HD 
BRANCH   9  11
HETATM   11  C   UNL     1     -10.982  14.705  66.097  1.00  0.00    -0.329 C  
BRANCH  11  12
HETATM   12  C   UNL     1     -10.314  16.066  66.200  1.00  0.00    -0.340 A  
HETATM   13  C   UNL     1      -8.926  16.162  66.481  1.00  0.00    -0.322 A  
HETATM   14  H2  UNL     1      -6.010  16.219  65.776  1.00  0.00     0.000 HD 
HETATM   15  C   UNL     1      -8.270  17.454  66.499  1.00  0.00    -0.311 A  
HETATM   16  H1  UNL     1      -4.900  16.985  66.714  1.00  0.00     0.000 HD 
HETATM   17  C   UNL     1      -8.133  14.907  66.774  1.00  0.00    -0.008 C  
HETATM   18  C   UNL     1      -9.049  18.610  66.348  1.00  0.00    -0.284 A  
HETATM   19  N   UNL     1      -8.563  19.853  66.422  1.00  0.00    -0.346 NA 
HETATM   20  C   UNL     1     -10.402  18.489  66.090  1.00  0.00    -0.457 A  
HETATM   21  C   UNL     1     -11.030  17.249  65.989  1.00  0.00     0.193 A  
HETATM   22  C   UNL     1      -7.259  19.991  66.627  1.00  0.00    -0.249 A  
HETATM   23  N   UNL     1      -6.389  18.990  66.686  1.00  0.00    -0.185 NA 
HETATM   24  N   UNL     1      -6.762  21.272  66.746  1.00  0.00    -0.668 NA 
HETATM   25  C   UNL     1      -6.892  17.750  66.622  1.00  0.00    -0.207 A  
HETATM   26  H2  UNL     1      -7.374  22.085  66.679  1.00  0.00     0.000 HD 
HETATM   27  H1  UNL     1      -5.760  21.378  66.904  1.00  0.00     0.000 HD 
HETATM   28  N   UNL     1      -5.893  16.772  66.625  1.00  0.00    -0.327 NA 
ENDBRANCH  11  12
ENDBRANCH   9  11
ENDBRANCH   5   9
BRANCH   8  29
HETATM   29  O   UNL     1     -11.553  10.759  70.600  1.00  0.00    -0.322 OA 
HETATM   30  C   UNL     1     -12.849  10.967  71.135  1.00  0.00    -0.409 C  
ENDBRANCH   8  29
BRANCH   7  31
HETATM   31  O   UNL     1     -10.686   8.828  68.645  1.00  0.00    -0.175 OA 
HETATM   32  C   UNL     1      -9.560   8.468  69.425  1.00  0.00    -0.170 C  
ENDBRANCH   7  31
ENDBRANCH   2   3
TORSDOF 6
ENDMDL
MODEL      109
REMARK 921   NORMALIZED FREE ENERGY PREDICTED BY IDOCK:   -5.41 KCAL/MOL
REMARK 922        TOTAL FREE ENERGY PREDICTED BY IDOCK:   -8.15 KCAL/MOL
REMARK 923 INTER-LIGAND FREE ENERGY PREDICTED BY IDOCK:   -7.38 KCAL/MOL
REMARK 924 INTRA-LIGAND FREE ENERGY PREDICTED BY IDOCK:   -0.77 KCAL/MOL
REMARK 927      BINDING AFFINITY PREDICTED BY RF-SCORE:    0.00 PKD
ROOT
HETATM    1  C   UNL     1     -12.418  13.981  65.624  1.00  0.00    -0.504 C  
HETATM    2  O   UNL     1     -11.359  13.753  66.552  1.00  0.00    -0.309 OA 
ENDROOT
BRANCH   2   3
HETATM    3  C   UNL     1     -11.722  13.555  67.862  1.00  0.00    -0.357 A  
HETATM    4  C   UNL     1     -11.899  12.253  68.363  1.00  0.00    -0.358 A  
HETATM    5  C   UNL     1     -12.239  12.007  69.692  1.00  0.00    -0.139 A  
HETATM    6  C   UNL     1     -12.440  13.114  70.512  1.00  0.00    -0.322 A  
HETATM    7  C   UNL     1     -11.872  14.669  68.720  1.00  0.00    -0.313 A  
HETATM    8  C   UNL     1     -12.239  14.430  70.060  1.00  0.00    -0.351 A  
BRANCH   5   9
HETATM    9  N   UNL     1     -12.503  10.689  70.085  1.00  0.00    -0.443 NA 
HETATM   10  H   UNL     1     -13.244  10.147  69.640  1.00  0.00     0.000 HD 
BRANCH   9  11
HETATM   11  C   UNL     1     -11.689  10.111  71.149  1.00  0.00    -0.366 C  
BRANCH  11  12
HETATM   12  C   UNL     1     -11.301   8.666  70.881  1.00  0.00    -0.314 A  
HETATM   13  C   UNL     1     -10.120   8.366  70.153  1.00  0.00    -0.193 A  
HETATM   14  H2  UNL     1      -7.179   7.861  69.837  1.00  0.00     0.000 HD 
HETATM   15  C   UNL     1      -9.705   6.990  69.966  1.00  0.00    -0.171 A  
HETATM   16  H1  UNL     1      -6.577   6.949  68.612  1.00  0.00     0.000 HD 
HETATM   17  C   UNL     1      -9.299   9.491  69.561  1.00  0.00    -0.199 C  
HETATM   18  C   UNL     1     -10.547   5.962  70.416  1.00  0.00    -0.286 A  
HETATM   19  N   UNL     1     -10.301   4.662  70.232  1.00  0.00    -0.134 NA 
HETATM   20  C   UNL     1     -11.699   6.283  71.109  1.00  0.00    -0.292 A  
HETATM   21  C   UNL     1     -12.067   7.602  71.367  1.00  0.00    -0.342 A  
HETATM   22  C   UNL     1      -9.179   4.331  69.605  1.00  0.00    -0.135 A  
HETATM   23  N   UNL     1      -8.244   5.190  69.217  1.00  0.00    -0.083 NA 
HETATM   24  N   UNL     1      -8.944   2.992  69.376  1.00  0.00    -0.100 NA 
HETATM   25  C   UNL     1      -8.509   6.492  69.398  1.00  0.00    -0.127 A  
HETATM   26  H2  UNL     1      -9.609   2.280  69.678  1.00  0.00     0.000 HD 
HETATM   27  H1  UNL     1      -8.082   2.738  68.895  1.00  0.00     0.000 HD 
HETATM   28  N   UNL     1      -7.439   7.308  69.021  1.00  0.00    -0.095 NA 
ENDBRANCH  11  12
ENDBRANCH   9  11
ENDBRANCH   5   9
BRANCH   8  29
HETATM   29  O   UNL     1     -12.464  15.332  71.073  1.00  0.00    -0.321 OA 
HETATM   30  C   UNL     1     -11.560  15.415  72.161  1.00  0.00    -0.462 C  
ENDBRANCH   8  29
BRANCH   7  31
HETATM   31  O   UNL     1     -11.713  15.982  68.368  1.00  0.00    -0.346 OA 
HETATM   32  C   UNL     1     -10.466  16.632  68.536  1.00  0.00    -0.319 C  
ENDBRANCH   7  31
ENDBRANCH   2   3
TORSDOF 6
ENDMDL
MODEL      110
REMARK 921   NORMALIZED FREE ENERGY PREDICTED BY IDOCK:   -5.40 KCAL/MOL
REMARK 922        TOTAL FREE ENERGY PREDICTED BY IDOCK:   -8.15 KCAL/MOL
REMARK 923 INTER-LIGAND FREE ENERGY PREDICTED BY IDOCK:   -7.52 KCAL/MOL
REMARK 924 INTRA-LIGAND FREE ENERGY PREDICTED BY IDOCK:   -0.63 KCAL/MOL
REMARK 927      BINDING AFFINITY PREDICTED BY RF-SCORE:    0.00 PKD
ROOT
HETATM    1  C   UNL     1     -10.890   6.094  68.726  1.00  0.00    -0.336 C  
HETATM    2  O   UNL     1     -10.062   6.137  67.566  1.00  0.00    -0.132 OA 
ENDROOT
BRANCH   2   3
HETATM    3  C   UNL     1      -9.806   7.379  67.039  1.00  0.00    -0.209 A  
HETATM    4  C   UNL     1     -10.330   8.533  67.648  1.00  0.00    -0.317 A  
HETATM    5  C   UNL     1     -10.072   9.814  67.163  1.00  0.00    -0.211 A  
HETATM    6  C   UNL     1      -9.298   9.912  66.011  1.00  0.00    -0.240 A  
HETATM    7  C   UNL     1      -8.973   7.498  65.903  1.00  0.00    -0.089 A  
HETATM    8  C   UNL     1      -8.726   8.788  65.391  1.00  0.00    -0.183 A  
BRANCH   5   9
HETATM    9  N   UNL     1     -10.718  10.903  67.763  1.00  0.00    -0.216 NA 
HETATM   10  H   UNL     1     -10.470  11.206  68.705  1.00  0.00     0.000 HD 
BRANCH   9  11
HETATM   11  C   UNL     1     -11.757  11.591  67.005  1.00  0.00    -0.005 C  
BRANCH  11  12
HETATM   12  C   UNL     1     -11.371  13.010  66.621  1.00  0.00    -0.366 A  
HETATM   13  C   UNL     1     -11.426  14.050  67.585  1.00  0.00    -0.362 A  
HETATM   14  H2  UNL     1     -10.352  15.739  69.821  1.00  0.00     0.000 HD 
HETATM   15  C   UNL     1     -10.981  15.387  67.245  1.00  0.00    -0.317 A  
HETATM   16  H1  UNL     1     -10.871  17.276  70.081  1.00  0.00     0.000 HD 
HETATM   17  C   UNL     1     -11.961  13.761  68.971  1.00  0.00    -0.399 C  
HETATM   18  C   UNL     1     -10.607  15.659  65.921  1.00  0.00    -0.343 A  
HETATM   19  N   UNL     1     -10.252  16.869  65.479  1.00  0.00    -0.614 NA 
HETATM   20  C   UNL     1     -10.578  14.630  64.998  1.00  0.00    -0.461 A  
HETATM   21  C   UNL     1     -10.924  13.323  65.334  1.00  0.00    -0.299 A  
HETATM   22  C   UNL     1     -10.233  17.863  66.359  1.00  0.00    -0.372 A  
HETATM   23  N   UNL     1     -10.463  17.731  67.659  1.00  0.00    -0.378 NA 
HETATM   24  N   UNL     1      -9.908  19.121  65.897  1.00  0.00    -0.462 NA 
HETATM   25  C   UNL     1     -10.828  16.514  68.086  1.00  0.00    -0.345 A  
HETATM   26  H2  UNL     1      -9.691  19.283  64.913  1.00  0.00     0.000 HD 
HETATM   27  H1  UNL     1      -9.893  19.885  66.572  1.00  0.00     0.000 HD 
HETATM   28  N   UNL     1     -10.980  16.464  69.475  1.00  0.00    -0.323 NA 
ENDBRANCH  11  12
ENDBRANCH   9  11
ENDBRANCH   5   9
BRANCH   8  29
HETATM   29  O   UNL     1      -7.977   9.160  64.300  1.00  0.00    -0.124 OA 
HETATM   30  C   UNL     1      -8.620   9.538  63.095  1.00  0.00    -0.217 C  
ENDBRANCH   8  29
BRANCH   7  31
HETATM   31  O   UNL     1      -8.387   6.462  65.225  1.00  0.00    -0.145 OA 
HETATM   32  C   UNL     1      -7.026   6.133  65.440  1.00  0.00    -0.056 C  
ENDBRANCH   7  31
ENDBRANCH   2   3
TORSDOF 6
ENDMDL
MODEL      111
REMARK 921   NORMALIZED FREE ENERGY PREDICTED BY IDOCK:   -5.39 KCAL/MOL
REMARK 922        TOTAL FREE ENERGY PREDICTED BY IDOCK:   -8.13 KCAL/MOL
REMARK 923 INTER-LIGAND FREE ENERGY PREDICTED BY IDOCK:   -7.49 KCAL/MOL
REMARK 924 INTRA-LIGAND FREE ENERGY PREDICTED BY IDOCK:   -0.63 KCAL/MOL
REMARK 927      BINDING AFFINITY PREDICTED BY RF-SCORE:    0.00 PKD
ROOT
HETATM    1  C   UNL     1      -8.208   8.523  67.912  1.00  0.00    -0.119 C  
HETATM    2  O   UNL     1      -9.625   8.390  68.005  1.00  0.00    -0.145 OA 
ENDROOT
BRANCH   2   3
HETATM    3  C   UNL     1     -10.303   9.429  68.593  1.00  0.00    -0.203 A  
HETATM    4  C   UNL     1     -10.318  10.700  67.991  1.00  0.00    -0.208 A  
HETATM    5  C   UNL     1     -11.016  11.774  68.540  1.00  0.00    -0.227 A  
HETATM    6  C   UNL     1     -11.677  11.554  69.745  1.00  0.00    -0.426 A  
HETATM    7  C   UNL     1     -11.026   9.204  69.787  1.00  0.00    -0.181 A  
HETATM    8  C   UNL     1     -11.715  10.291  70.361  1.00  0.00    -0.319 A  
BRANCH   5   9
HETATM    9  N   UNL     1     -10.894  13.033  67.937  1.00  0.00    -0.236 NA 
HETATM   10  H   UNL     1     -11.065  13.156  66.939  1.00  0.00     0.000 HD 
BRANCH   9  11
HETATM   11  C   UNL     1     -10.515  14.165  68.776  1.00  0.00    -0.247 C  
BRANCH  11  12
HETATM   12  C   UNL     1      -9.885  15.303  67.989  1.00  0.00    -0.216 A  
HETATM   13  C   UNL     1     -10.009  16.641  68.444  1.00  0.00    -0.255 A  
HETATM   14  H2  UNL     1      -9.222  19.043  70.062  1.00  0.00     0.000 HD 
HETATM   15  C   UNL     1      -9.342  17.718  67.741  1.00  0.00    -0.257 A  
HETATM   16  H1  UNL     1      -9.590  20.572  69.590  1.00  0.00     0.000 HD 
HETATM   17  C   UNL     1     -10.852  16.943  69.665  1.00  0.00    -0.101 C  
HETATM   18  C   UNL     1      -8.670  17.431  66.544  1.00  0.00    -0.260 A  
HETATM   19  N   UNL     1      -8.085  18.355  65.776  1.00  0.00    -0.471 NA 
HETATM   20  C   UNL     1      -8.578  16.120  66.115  1.00  0.00    -0.331 A  
HETATM   21  C   UNL     1      -9.146  15.065  66.826  1.00  0.00    -0.287 A  
HETATM   22  C   UNL     1      -8.125  19.615  66.192  1.00  0.00    -0.346 A  
HETATM   23  N   UNL     1      -8.635  20.017  67.349  1.00  0.00    -0.331 NA 
HETATM   24  N   UNL     1      -7.559  20.575  65.380  1.00  0.00    -0.480 NA 
HETATM   25  C   UNL     1      -9.229  19.081  68.104  1.00  0.00    -0.323 A  
HETATM   26  H2  UNL     1      -7.124  20.326  64.491  1.00  0.00     0.000 HD 
HETATM   27  H1  UNL     1      -7.590  21.543  65.699  1.00  0.00     0.000 HD 
HETATM   28  N   UNL     1      -9.671  19.590  69.328  1.00  0.00    -0.347 NA 
ENDBRANCH  11  12
ENDBRANCH   9  11
ENDBRANCH   5   9
BRANCH   8  29
HETATM   29  O   UNL     1     -12.464  10.334  71.513  1.00  0.00    -0.376 OA 
HETATM   30  C   UNL     1     -13.282  11.459  71.785  1.00  0.00    -0.367 C  
ENDBRANCH   8  29
BRANCH   7  31
HETATM   31  O   UNL     1     -11.108   8.018  70.465  1.00  0.00    -0.251 OA 
HETATM   32  C   UNL     1     -10.131   7.663  71.427  1.00  0.00    -0.182 C  
ENDBRANCH   7  31
ENDBRANCH   2   3
TORSDOF 6
ENDMDL
MODEL      112
REMARK 921   NORMALIZED FREE ENERGY PREDICTED BY IDOCK:   -5.38 KCAL/MOL
REMARK 922        TOTAL FREE ENERGY PREDICTED BY IDOCK:   -8.12 KCAL/MOL
REMARK 923 INTER-LIGAND FREE ENERGY PREDICTED BY IDOCK:   -7.46 KCAL/MOL
REMARK 924 INTRA-LIGAND FREE ENERGY PREDICTED BY IDOCK:   -0.66 KCAL/MOL
REMARK 927      BINDING AFFINITY PREDICTED BY RF-SCORE:    0.00 PKD
ROOT
HETATM    1  C   UNL     1     -10.483   5.376  66.474  1.00  0.00    -0.294 C  
HETATM    2  O   UNL     1     -10.593   5.372  67.896  1.00  0.00    -0.176 OA 
ENDROOT
BRANCH   2   3
HETATM    3  C   UNL     1      -9.784   6.249  68.577  1.00  0.00    -0.129 A  
HETATM    4  C   UNL     1     -10.131   7.608  68.674  1.00  0.00    -0.201 A  
HETATM    5  C   UNL     1      -9.354   8.525  69.379  1.00  0.00    -0.154 A  
HETATM    6  C   UNL     1      -8.182   8.051  69.961  1.00  0.00    -0.118 A  
HETATM    7  C   UNL     1      -8.621   5.769  69.222  1.00  0.00    -0.111 A  
HETATM    8  C   UNL     1      -7.817   6.694  69.918  1.00  0.00    -0.115 A  
BRANCH   5   9
HETATM    9  N   UNL     1      -9.710   9.880  69.338  1.00  0.00    -0.201 NA 
HETATM   10  H   UNL     1      -9.039  10.606  69.591  1.00  0.00     0.000 HD 
BRANCH   9  11
HETATM   11  C   UNL     1     -11.065  10.224  68.924  1.00  0.00    -0.231 C  
BRANCH  11  12
HETATM   12  C   UNL     1     -11.728  11.237  69.844  1.00  0.00    -0.430 A  
HETATM   13  C   UNL     1     -11.556  12.627  69.617  1.00  0.00    -0.321 A  
HETATM   14  H2  UNL     1     -12.206  15.274  68.360  1.00  0.00     0.000 HD 
HETATM   15  C   UNL     1     -12.252  13.594  70.442  1.00  0.00    -0.434 A  
HETATM   16  H1  UNL     1     -11.848  16.700  69.093  1.00  0.00     0.000 HD 
HETATM   17  C   UNL     1     -10.635  13.099  68.513  1.00  0.00    -0.274 C  
HETATM   18  C   UNL     1     -13.002  13.137  71.536  1.00  0.00    -0.321 A  
HETATM   19  N   UNL     1     -13.621  13.940  72.405  1.00  0.00    -0.530 NA 
HETATM   20  C   UNL     1     -13.139  11.777  71.743  1.00  0.00    -0.480 A  
HETATM   21  C   UNL     1     -12.542  10.835  70.906  1.00  0.00    -0.498 A  
HETATM   22  C   UNL     1     -13.537  15.249  72.199  1.00  0.00    -0.472 A  
HETATM   23  N   UNL     1     -12.950  15.817  71.154  1.00  0.00    -0.480 NA 
HETATM   24  N   UNL     1     -14.140  16.081  73.119  1.00  0.00    -0.562 NA 
HETATM   25  C   UNL     1     -12.323  15.000  70.296  1.00  0.00    -0.342 A  
HETATM   26  H2  UNL     1     -14.634  15.705  73.929  1.00  0.00     0.000 HD 
HETATM   27  H1  UNL     1     -14.076  17.086  72.962  1.00  0.00     0.000 HD 
HETATM   28  N   UNL     1     -11.798  15.687  69.198  1.00  0.00    -0.377 NA 
ENDBRANCH  11  12
ENDBRANCH   9  11
ENDBRANCH   5   9
BRANCH   8  29
HETATM   29  O   UNL     1      -6.643   6.483  70.600  1.00  0.00    -0.049 OA 
HETATM   30  C   UNL     1      -6.263   7.362  71.645  1.00  0.00    -0.036 C  
ENDBRANCH   8  29
BRANCH   7  31
HETATM   31  O   UNL     1      -8.179   4.473  69.221  1.00  0.00    -0.068 OA 
HETATM   32  C   UNL     1      -7.340   3.994  68.185  1.00  0.00    -0.059 C  
ENDBRANCH   7  31
ENDBRANCH   2   3
TORSDOF 6
ENDMDL
MODEL      113
REMARK 921   NORMALIZED FREE ENERGY PREDICTED BY IDOCK:   -5.36 KCAL/MOL
REMARK 922        TOTAL FREE ENERGY PREDICTED BY IDOCK:   -8.09 KCAL/MOL
REMARK 923 INTER-LIGAND FREE ENERGY PREDICTED BY IDOCK:   -7.37 KCAL/MOL
REMARK 924 INTRA-LIGAND FREE ENERGY PREDICTED BY IDOCK:   -0.71 KCAL/MOL
REMARK 927      BINDING AFFINITY PREDICTED BY RF-SCORE:    0.00 PKD
ROOT
HETATM    1  C   UNL     1     -11.880  11.437  69.441  1.00  0.00    -0.351 C  
HETATM    2  O   UNL     1     -12.101  11.952  68.130  1.00  0.00    -0.516 OA 
ENDROOT
BRANCH   2   3
HETATM    3  C   UNL     1     -11.143  11.665  67.187  1.00  0.00    -0.299 A  
HETATM    4  C   UNL     1      -9.962  10.996  67.554  1.00  0.00    -0.199 A  
HETATM    5  C   UNL     1      -8.978  10.661  66.625  1.00  0.00    -0.150 A  
HETATM    6  C   UNL     1      -9.188  11.055  65.307  1.00  0.00    -0.229 A  
HETATM    7  C   UNL     1     -11.370  12.008  65.835  1.00  0.00    -0.337 A  
HETATM    8  C   UNL     1     -10.370  11.694  64.893  1.00  0.00    -0.283 A  
BRANCH   5   9
HETATM    9  N   UNL     1      -7.785  10.091  67.087  1.00  0.00    -0.092 NA 
HETATM   10  H   UNL     1      -7.016  10.676  67.415  1.00  0.00     0.000 HD 
BRANCH   9  11
HETATM   11  C   UNL     1      -7.670   8.637  67.086  1.00  0.00    -0.096 C  
BRANCH  11  12
HETATM   12  C   UNL     1      -8.638   7.964  68.046  1.00  0.00    -0.126 A  
HETATM   13  C   UNL     1      -8.500   8.149  69.446  1.00  0.00    -0.127 A  
HETATM   14  H2  UNL     1      -8.928   9.576  72.052  1.00  0.00     0.000 HD 
HETATM   15  C   UNL     1      -9.470   7.576  70.359  1.00  0.00    -0.161 A  
HETATM   16  H1  UNL     1      -8.896   8.790  73.493  1.00  0.00     0.000 HD 
HETATM   17  C   UNL     1      -7.329   8.941  69.986  1.00  0.00    -0.056 C  
HETATM   18  C   UNL     1     -10.474   6.744  69.844  1.00  0.00    -0.211 A  
HETATM   19  N   UNL     1     -11.373   6.104  70.598  1.00  0.00    -0.324 NA 
HETATM   20  C   UNL     1     -10.575   6.568  68.477  1.00  0.00    -0.291 A  
HETATM   21  C   UNL     1      -9.699   7.180  67.583  1.00  0.00    -0.172 A  
HETATM   22  C   UNL     1     -11.319   6.294  71.911  1.00  0.00    -0.299 A  
HETATM   23  N   UNL     1     -10.491   7.129  72.525  1.00  0.00    -0.211 NA 
HETATM   24  N   UNL     1     -12.219   5.601  72.695  1.00  0.00    -0.452 NA 
HETATM   25  C   UNL     1      -9.588   7.755  71.758  1.00  0.00    -0.163 A  
HETATM   26  H2  UNL     1     -12.901   4.966  72.280  1.00  0.00     0.000 HD 
HETATM   27  H1  UNL     1     -12.178   5.746  73.703  1.00  0.00     0.000 HD 
HETATM   28  N   UNL     1      -8.811   8.661  72.485  1.00  0.00    -0.401 NA 
ENDBRANCH  11  12
ENDBRANCH   9  11
ENDBRANCH   5   9
BRANCH   8  29
HETATM   29  O   UNL     1     -10.344  11.938  63.540  1.00  0.00    -0.383 OA 
HETATM   30  C   UNL     1      -9.456  11.212  62.707  1.00  0.00    -0.329 C  
ENDBRANCH   8  29
BRANCH   7  31
HETATM   31  O   UNL     1     -12.478  12.644  65.342  1.00  0.00    -0.601 OA 
HETATM   32  C   UNL     1     -12.619  14.048  65.459  1.00  0.00    -0.516 C  
ENDBRANCH   7  31
ENDBRANCH   2   3
TORSDOF 6
ENDMDL
MODEL      114
REMARK 921   NORMALIZED FREE ENERGY PREDICTED BY IDOCK:   -5.35 KCAL/MOL
REMARK 922        TOTAL FREE ENERGY PREDICTED BY IDOCK:   -8.09 KCAL/MOL
REMARK 923 INTER-LIGAND FREE ENERGY PREDICTED BY IDOCK:   -7.30 KCAL/MOL
REMARK 924 INTRA-LIGAND FREE ENERGY PREDICTED BY IDOCK:   -0.78 KCAL/MOL
REMARK 927      BINDING AFFINITY PREDICTED BY RF-SCORE:    0.00 PKD
ROOT
HETATM    1  C   UNL     1     -11.185  14.982  68.037  1.00  0.00    -0.316 C  
HETATM    2  O   UNL     1     -12.100  13.895  67.912  1.00  0.00    -0.366 OA 
ENDROOT
BRANCH   2   3
HETATM    3  C   UNL     1     -11.558  12.633  67.911  1.00  0.00    -0.349 A  
HETATM    4  C   UNL     1     -11.484  11.890  69.102  1.00  0.00    -0.356 A  
HETATM    5  C   UNL     1     -10.968  10.595  69.140  1.00  0.00    -0.247 A  
HETATM    6  C   UNL     1     -10.483  10.069  67.946  1.00  0.00    -0.276 A  
HETATM    7  C   UNL     1     -11.116  12.064  66.694  1.00  0.00    -0.310 A  
HETATM    8  C   UNL     1     -10.571  10.765  66.728  1.00  0.00    -0.250 A  
BRANCH   5   9
HETATM    9  N   UNL     1     -10.829   9.964  70.383  1.00  0.00    -0.298 NA 
HETATM   10  H   UNL     1     -10.027  10.157  70.983  1.00  0.00     0.000 HD 
BRANCH   9  11
HETATM   11  C   UNL     1     -11.863   9.021  70.796  1.00  0.00    -0.206 C  
BRANCH  11  12
HETATM   12  C   UNL     1     -11.309   7.830  71.561  1.00  0.00    -0.289 A  
HETATM   13  C   UNL     1     -10.981   6.631  70.876  1.00  0.00    -0.315 A  
HETATM   14  H2  UNL     1      -9.196   4.806  69.298  1.00  0.00     0.000 HD 
HETATM   15  C   UNL     1     -10.377   5.523  71.589  1.00  0.00    -0.277 A  
HETATM   16  H1  UNL     1      -9.364   3.173  69.336  1.00  0.00     0.000 HD 
HETATM   17  C   UNL     1     -11.274   6.509  69.397  1.00  0.00    -0.418 C  
HETATM   18  C   UNL     1     -10.230   5.613  72.981  1.00  0.00    -0.189 A  
HETATM   19  N   UNL     1      -9.756   4.627  73.747  1.00  0.00    -0.133 NA 
HETATM   20  C   UNL     1     -10.572   6.788  73.625  1.00  0.00    -0.347 A  
HETATM   21  C   UNL     1     -11.077   7.891  72.939  1.00  0.00    -0.442 A  
HETATM   22  C   UNL     1      -9.381   3.506  73.143  1.00  0.00    -0.101 A  
HETATM   23  N   UNL     1      -9.369   3.318  71.829  1.00  0.00    -0.121 NA 
HETATM   24  N   UNL     1      -8.932   2.471  73.936  1.00  0.00    -0.074 NA 
HETATM   25  C   UNL     1      -9.858   4.312  71.074  1.00  0.00    -0.181 A  
HETATM   26  H2  UNL     1      -8.888   2.563  74.951  1.00  0.00     0.000 HD 
HETATM   27  H1  UNL     1      -8.645   1.610  73.473  1.00  0.00     0.000 HD 
HETATM   28  N   UNL     1      -9.738   4.046  69.707  1.00  0.00    -0.209 NA 
ENDBRANCH  11  12
ENDBRANCH   9  11
ENDBRANCH   5   9
BRANCH   8  29
HETATM   29  O   UNL     1     -10.060  10.011  65.698  1.00  0.00    -0.282 OA 
HETATM   30  C   UNL     1      -9.550   8.713  65.955  1.00  0.00    -0.195 C  
ENDBRANCH   8  29
BRANCH   7  31
HETATM   31  O   UNL     1     -11.146  12.669  65.467  1.00  0.00    -0.281 OA 
HETATM   32  C   UNL     1     -12.290  12.569  64.637  1.00  0.00    -0.474 C  
ENDBRANCH   7  31
ENDBRANCH   2   3
TORSDOF 6
ENDMDL
MODEL      115
REMARK 921   NORMALIZED FREE ENERGY PREDICTED BY IDOCK:   -5.35 KCAL/MOL
REMARK 922        TOTAL FREE ENERGY PREDICTED BY IDOCK:   -8.08 KCAL/MOL
REMARK 923 INTER-LIGAND FREE ENERGY PREDICTED BY IDOCK:   -8.14 KCAL/MOL
REMARK 924 INTRA-LIGAND FREE ENERGY PREDICTED BY IDOCK:    0.07 KCAL/MOL
REMARK 927      BINDING AFFINITY PREDICTED BY RF-SCORE:    0.00 PKD
ROOT
HETATM    1  C   UNL     1     -10.404  19.986  66.877  1.00  0.00    -0.436 C  
HETATM    2  O   UNL     1      -9.673  19.342  65.836  1.00  0.00    -0.411 OA 
ENDROOT
BRANCH   2   3
HETATM    3  C   UNL     1      -9.346  18.024  66.039  1.00  0.00    -0.013 A  
HETATM    4  C   UNL     1     -10.293  17.011  65.805  1.00  0.00    -0.275 A  
HETATM    5  C   UNL     1      -9.994  15.660  65.972  1.00  0.00    -0.333 A  
HETATM    6  C   UNL     1      -8.717  15.343  66.424  1.00  0.00    -0.307 A  
HETATM    7  C   UNL     1      -8.034  17.684  66.443  1.00  0.00    -0.274 A  
HETATM    8  C   UNL     1      -7.730  16.321  66.637  1.00  0.00    -0.251 A  
BRANCH   5   9
HETATM    9  N   UNL     1     -11.023  14.721  65.822  1.00  0.00    -0.324 NA 
HETATM   10  H   UNL     1     -11.669  14.771  65.033  1.00  0.00     0.000 HD 
BRANCH   9  11
HETATM   11  C   UNL     1     -11.147  13.668  66.824  1.00  0.00    -0.307 C  
BRANCH  11  12
HETATM   12  C   UNL     1     -11.518  14.198  68.199  1.00  0.00    -0.340 A  
HETATM   13  C   UNL     1     -12.020  13.317  69.193  1.00  0.00    -0.343 A  
HETATM   14  H2  UNL     1     -11.785  11.341  71.439  1.00  0.00     0.000 HD 
HETATM   15  C   UNL     1     -12.298  13.805  70.529  1.00  0.00    -0.429 A  
HETATM   16  H1  UNL     1     -12.970  11.150  72.561  1.00  0.00     0.000 HD 
HETATM   17  C   UNL     1     -12.274  11.866  68.849  1.00  0.00    -0.065 C  
HETATM   18  C   UNL     1     -12.173  15.177  70.789  1.00  0.00    -0.340 A  
HETATM   19  N   UNL     1     -12.473  15.745  71.960  1.00  0.00    -0.423 NA 
HETATM   20  C   UNL     1     -11.696  16.015  69.798  1.00  0.00    -0.267 A  
HETATM   21  C   UNL     1     -11.347  15.545  68.533  1.00  0.00    -0.356 A  
HETATM   22  C   UNL     1     -12.892  14.952  72.939  1.00  0.00    -0.452 A  
HETATM   23  N   UNL     1     -12.961  13.629  72.867  1.00  0.00    -0.297 NA 
HETATM   24  N   UNL     1     -13.244  15.542  74.135  1.00  0.00    -0.599 NA 
HETATM   25  C   UNL     1     -12.668  13.073  71.683  1.00  0.00    -0.207 A  
HETATM   26  H2  UNL     1     -13.184  16.552  74.264  1.00  0.00     0.000 HD 
HETATM   27  H1  UNL     1     -13.565  14.933  74.886  1.00  0.00     0.000 HD 
HETATM   28  N   UNL     1     -12.703  11.677  71.729  1.00  0.00    -0.281 NA 
ENDBRANCH  11  12
ENDBRANCH   9  11
ENDBRANCH   5   9
BRANCH   8  29
HETATM   29  O   UNL     1      -6.550  15.744  67.041  1.00  0.00    -0.284 OA 
HETATM   30  C   UNL     1      -6.275  15.587  68.422  1.00  0.00    -0.104 C  
ENDBRANCH   8  29
BRANCH   7  31
HETATM   31  O   UNL     1      -7.016  18.566  66.688  1.00  0.00    -0.191 OA 
HETATM   32  C   UNL     1      -6.209  19.054  65.631  1.00  0.00    -0.236 C  
ENDBRANCH   7  31
ENDBRANCH   2   3
TORSDOF 6
ENDMDL
MODEL      116
REMARK 921   NORMALIZED FREE ENERGY PREDICTED BY IDOCK:   -5.33 KCAL/MOL
REMARK 922        TOTAL FREE ENERGY PREDICTED BY IDOCK:   -8.05 KCAL/MOL
REMARK 923 INTER-LIGAND FREE ENERGY PREDICTED BY IDOCK:   -7.75 KCAL/MOL
REMARK 924 INTRA-LIGAND FREE ENERGY PREDICTED BY IDOCK:   -0.31 KCAL/MOL
REMARK 927      BINDING AFFINITY PREDICTED BY RF-SCORE:    0.00 PKD
ROOT
HETATM    1  C   UNL     1     -12.401  15.051  64.351  1.00  0.00    -0.266 C  
HETATM    2  O   UNL     1     -11.135  15.616  64.687  1.00  0.00    -0.434 OA 
ENDROOT
BRANCH   2   3
HETATM    3  C   UNL     1     -10.888  15.823  66.022  1.00  0.00    -0.255 A  
HETATM    4  C   UNL     1     -11.310  14.881  66.977  1.00  0.00    -0.345 A  
HETATM    5  C   UNL     1     -11.056  15.037  68.339  1.00  0.00    -0.278 A  
HETATM    6  C   UNL     1     -10.395  16.197  68.732  1.00  0.00    -0.248 A  
HETATM    7  C   UNL     1     -10.167  16.968  66.430  1.00  0.00    -0.326 A  
HETATM    8  C   UNL     1      -9.926  17.146  67.807  1.00  0.00    -0.290 A  
BRANCH   5   9
HETATM    9  N   UNL     1     -11.601  14.109  69.235  1.00  0.00    -0.283 NA 
HETATM   10  H   UNL     1     -11.638  14.306  70.236  1.00  0.00     0.000 HD 
BRANCH   9  11
HETATM   11  C   UNL     1     -12.116  12.854  68.700  1.00  0.00    -0.135 C  
BRANCH  11  12
HETATM   12  C   UNL     1     -11.976  11.693  69.671  1.00  0.00    -0.390 A  
HETATM   13  C   UNL     1     -10.756  10.972  69.752  1.00  0.00    -0.135 A  
HETATM   14  H2  UNL     1      -7.971  10.449  70.739  1.00  0.00     0.000 HD 
HETATM   15  C   UNL     1     -10.593   9.918  70.733  1.00  0.00    -0.309 A  
HETATM   16  H1  UNL     1      -7.327   8.939  70.777  1.00  0.00     0.000 HD 
HETATM   17  C   UNL     1      -9.627  11.301  68.800  1.00  0.00    -0.160 C  
HETATM   18  C   UNL     1     -11.694   9.547  71.518  1.00  0.00    -0.402 A  
HETATM   19  N   UNL     1     -11.679   8.543  72.399  1.00  0.00    -0.377 NA 
HETATM   20  C   UNL     1     -12.876  10.256  71.408  1.00  0.00    -0.544 A  
HETATM   21  C   UNL     1     -13.020  11.326  70.526  1.00  0.00    -0.056 A  
HETATM   22  C   UNL     1     -10.541   7.876  72.551  1.00  0.00    -0.315 A  
HETATM   23  N   UNL     1      -9.397   8.180  71.952  1.00  0.00    -0.170 NA 
HETATM   24  N   UNL     1     -10.535   6.812  73.428  1.00  0.00    -0.280 NA 
HETATM   25  C   UNL     1      -9.430   9.182  71.063  1.00  0.00    -0.274 A  
HETATM   26  H2  UNL     1     -11.375   6.546  73.942  1.00  0.00     0.000 HD 
HETATM   27  H1  UNL     1      -9.662   6.299  73.545  1.00  0.00     0.000 HD 
HETATM   28  N   UNL     1      -8.166   9.469  70.540  1.00  0.00    -0.188 NA 
ENDBRANCH  11  12
ENDBRANCH   9  11
ENDBRANCH   5   9
BRANCH   8  29
HETATM   29  O   UNL     1      -9.275  18.172  68.449  1.00  0.00    -0.291 OA 
HETATM   30  C   UNL     1      -9.995  19.324  68.855  1.00  0.00    -0.427 C  
ENDBRANCH   8  29
BRANCH   7  31
HETATM   31  O   UNL     1      -9.687  17.951  65.606  1.00  0.00    -0.487 OA 
HETATM   32  C   UNL     1     -10.276  19.239  65.594  1.00  0.00    -0.079 C  
ENDBRANCH   7  31
ENDBRANCH   2   3
TORSDOF 6
ENDMDL
MODEL      117
REMARK 921   NORMALIZED FREE ENERGY PREDICTED BY IDOCK:   -5.32 KCAL/MOL
REMARK 922        TOTAL FREE ENERGY PREDICTED BY IDOCK:   -8.03 KCAL/MOL
REMARK 923 INTER-LIGAND FREE ENERGY PREDICTED BY IDOCK:   -6.94 KCAL/MOL
REMARK 924 INTRA-LIGAND FREE ENERGY PREDICTED BY IDOCK:   -1.09 KCAL/MOL
REMARK 927      BINDING AFFINITY PREDICTED BY RF-SCORE:    0.00 PKD
ROOT
HETATM    1  C   UNL     1     -10.703  16.271  67.877  1.00  0.00    -0.329 C  
HETATM    2  O   UNL     1     -11.491  15.758  68.950  1.00  0.00    -0.334 OA 
ENDROOT
BRANCH   2   3
HETATM    3  C   UNL     1     -11.640  14.394  69.005  1.00  0.00    -0.296 A  
HETATM    4  C   UNL     1     -11.430  13.608  67.858  1.00  0.00    -0.348 A  
HETATM    5  C   UNL     1     -11.544  12.219  67.877  1.00  0.00    -0.354 A  
HETATM    6  C   UNL     1     -11.918  11.628  69.080  1.00  0.00    -0.378 A  
HETATM    7  C   UNL     1     -11.963  13.776  70.235  1.00  0.00    -0.326 A  
HETATM    8  C   UNL     1     -12.104  12.374  70.258  1.00  0.00    -0.297 A  
BRANCH   5   9
HETATM    9  N   UNL     1     -11.424  11.518  66.669  1.00  0.00    -0.444 NA 
HETATM   10  H   UNL     1     -12.205  11.467  66.014  1.00  0.00     0.000 HD 
BRANCH   9  11
HETATM   11  C   UNL     1     -10.155  10.864  66.375  1.00  0.00    -0.231 C  
BRANCH  11  12
HETATM   12  C   UNL     1      -9.850   9.708  67.314  1.00  0.00    -0.225 A  
HETATM   13  C   UNL     1      -8.799   9.816  68.262  1.00  0.00    -0.119 A  
HETATM   14  H2  UNL     1      -7.588  10.586  70.898  1.00  0.00     0.000 HD 
HETATM   15  C   UNL     1      -8.560   8.749  69.213  1.00  0.00    -0.130 A  
HETATM   16  H1  UNL     1      -6.283   9.808  71.519  1.00  0.00     0.000 HD 
HETATM   17  C   UNL     1      -7.921  11.048  68.271  1.00  0.00    -0.124 C  
HETATM   18  C   UNL     1      -9.305   7.566  69.104  1.00  0.00    -0.147 A  
HETATM   19  N   UNL     1      -9.118   6.492  69.877  1.00  0.00    -0.143 NA 
HETATM   20  C   UNL     1     -10.312   7.482  68.161  1.00  0.00    -0.244 A  
HETATM   21  C   UNL     1     -10.607   8.533  67.295  1.00  0.00    -0.315 A  
HETATM   22  C   UNL     1      -8.184   6.567  70.817  1.00  0.00    -0.125 A  
HETATM   23  N   UNL     1      -7.476   7.653  71.099  1.00  0.00    -0.077 NA 
HETATM   24  N   UNL     1      -7.959   5.445  71.588  1.00  0.00    -0.114 NA 
HETATM   25  C   UNL     1      -7.666   8.719  70.309  1.00  0.00    -0.085 A  
HETATM   26  H2  UNL     1      -8.492   4.588  71.441  1.00  0.00     0.000 HD 
HETATM   27  H1  UNL     1      -7.242   5.502  72.310  1.00  0.00     0.000 HD 
HETATM   28  N   UNL     1      -6.927   9.829  70.729  1.00  0.00    -0.285 NA 
ENDBRANCH  11  12
ENDBRANCH   9  11
ENDBRANCH   5   9
BRANCH   8  29
HETATM   29  O   UNL     1     -12.428  11.551  71.310  1.00  0.00    -0.353 OA 
HETATM   30  C   UNL     1     -12.043  10.187  71.287  1.00  0.00    -0.394 C  
ENDBRANCH   8  29
BRANCH   7  31
HETATM   31  O   UNL     1     -12.177  14.419  71.425  1.00  0.00    -0.338 OA 
HETATM   32  C   UNL     1     -13.459  14.924  71.755  1.00  0.00    -0.388 C  
ENDBRANCH   7  31
ENDBRANCH   2   3
TORSDOF 6
ENDMDL
MODEL      118
REMARK 921   NORMALIZED FREE ENERGY PREDICTED BY IDOCK:   -5.31 KCAL/MOL
REMARK 922        TOTAL FREE ENERGY PREDICTED BY IDOCK:   -8.02 KCAL/MOL
REMARK 923 INTER-LIGAND FREE ENERGY PREDICTED BY IDOCK:   -7.20 KCAL/MOL
REMARK 924 INTRA-LIGAND FREE ENERGY PREDICTED BY IDOCK:   -0.82 KCAL/MOL
REMARK 927      BINDING AFFINITY PREDICTED BY RF-SCORE:    0.00 PKD
ROOT
HETATM    1  C   UNL     1     -11.549  14.876  70.297  1.00  0.00    -0.286 C  
HETATM    2  O   UNL     1     -11.877  16.032  69.528  1.00  0.00    -0.319 OA 
ENDROOT
BRANCH   2   3
HETATM    3  C   UNL     1     -11.357  16.092  68.258  1.00  0.00    -0.316 A  
HETATM    4  C   UNL     1     -11.627  15.072  67.329  1.00  0.00    -0.285 A  
HETATM    5  C   UNL     1     -11.144  15.108  66.022  1.00  0.00    -0.312 A  
HETATM    6  C   UNL     1     -10.336  16.187  65.673  1.00  0.00    -0.405 A  
HETATM    7  C   UNL     1     -10.584  17.211  67.873  1.00  0.00    -0.376 A  
HETATM    8  C   UNL     1     -10.071  17.245  66.560  1.00  0.00    -0.309 A  
BRANCH   5   9
HETATM    9  N   UNL     1     -11.367  14.002  65.192  1.00  0.00    -0.317 NA 
HETATM   10  H   UNL     1     -11.099  14.022  64.208  1.00  0.00     0.000 HD 
BRANCH   9  11
HETATM   11  C   UNL     1     -11.995  12.820  65.772  1.00  0.00    -0.449 C  
BRANCH  11  12
HETATM   12  C   UNL     1     -11.089  11.599  65.759  1.00  0.00    -0.313 A  
HETATM   13  C   UNL     1     -10.940  10.808  66.927  1.00  0.00    -0.255 A  
HETATM   14  H2  UNL     1     -11.695   8.624  68.843  1.00  0.00     0.000 HD 
HETATM   15  C   UNL     1     -10.142   9.598  66.894  1.00  0.00    -0.290 A  
HETATM   16  H1  UNL     1     -10.589   7.893  69.813  1.00  0.00     0.000 HD 
HETATM   17  C   UNL     1     -11.610  11.236  68.214  1.00  0.00    -0.370 C  
HETATM   18  C   UNL     1      -9.430   9.288  65.726  1.00  0.00    -0.262 A  
HETATM   19  N   UNL     1      -8.608   8.242  65.608  1.00  0.00    -0.161 NA 
HETATM   20  C   UNL     1      -9.582  10.086  64.607  1.00  0.00    -0.363 A  
HETATM   21  C   UNL     1     -10.412  11.206  64.601  1.00  0.00    -0.400 A  
HETATM   22  C   UNL     1      -8.480   7.440  66.658  1.00  0.00    -0.124 A  
HETATM   23  N   UNL     1      -9.167   7.552  67.788  1.00  0.00    -0.135 NA 
HETATM   24  N   UNL     1      -7.599   6.384  66.553  1.00  0.00    -0.093 NA 
HETATM   25  C   UNL     1      -9.980   8.612  67.896  1.00  0.00    -0.188 A  
HETATM   26  H2  UNL     1      -7.064   6.225  65.699  1.00  0.00     0.000 HD 
HETATM   27  H1  UNL     1      -7.501   5.767  67.359  1.00  0.00     0.000 HD 
HETATM   28  N   UNL     1     -10.706   8.603  69.090  1.00  0.00    -0.170 NA 
ENDBRANCH  11  12
ENDBRANCH   9  11
ENDBRANCH   5   9
BRANCH   8  29
HETATM   29  O   UNL     1      -9.286  18.199  65.959  1.00  0.00    -0.507 OA 
HETATM   30  C   UNL     1      -7.881  18.021  65.890  1.00  0.00    -0.058 C  
ENDBRANCH   8  29
BRANCH   7  31
HETATM   31  O   UNL     1     -10.261  18.277  68.669  1.00  0.00    -0.380 OA 
HETATM   32  C   UNL     1      -8.981  18.373  69.268  1.00  0.00     0.241 C  
ENDBRANCH   7  31
ENDBRANCH   2   3
TORSDOF 6
ENDMDL
MODEL      119
REMARK 921   NORMALIZED FREE ENERGY PREDICTED BY IDOCK:   -5.28 KCAL/MOL
REMARK 922        TOTAL FREE ENERGY PREDICTED BY IDOCK:   -7.99 KCAL/MOL
REMARK 923 INTER-LIGAND FREE ENERGY PREDICTED BY IDOCK:   -7.20 KCAL/MOL
REMARK 924 INTRA-LIGAND FREE ENERGY PREDICTED BY IDOCK:   -0.80 KCAL/MOL
REMARK 927      BINDING AFFINITY PREDICTED BY RF-SCORE:    0.00 PKD
ROOT
HETATM    1  C   UNL     1      -9.264  15.270  68.673  1.00  0.00    -0.201 C  
HETATM    2  O   UNL     1     -10.444  15.311  67.873  1.00  0.00    -0.246 OA 
ENDROOT
BRANCH   2   3
HETATM    3  C   UNL     1     -10.792  14.148  67.231  1.00  0.00    -0.285 A  
HETATM    4  C   UNL     1     -11.153  13.008  67.970  1.00  0.00    -0.288 A  
HETATM    5  C   UNL     1     -11.539  11.816  67.359  1.00  0.00    -0.280 A  
HETATM    6  C   UNL     1     -11.517  11.780  65.967  1.00  0.00    -0.281 A  
HETATM    7  C   UNL     1     -10.830  14.115  65.818  1.00  0.00    -0.297 A  
HETATM    8  C   UNL     1     -11.197  12.907  65.191  1.00  0.00    -0.288 A  
BRANCH   5   9
HETATM    9  N   UNL     1     -11.779  10.695  68.163  1.00  0.00    -0.747 NA 
HETATM   10  H   UNL     1     -12.727  10.345  68.306  1.00  0.00     0.000 HD 
BRANCH   9  11
HETATM   11  C   UNL     1     -10.637  10.040  68.792  1.00  0.00    -0.217 C  
BRANCH  11  12
HETATM   12  C   UNL     1     -10.532   8.565  68.443  1.00  0.00    -0.215 A  
HETATM   13  C   UNL     1      -9.795   8.151  67.303  1.00  0.00    -0.259 A  
HETATM   14  H2  UNL     1      -7.312   7.355  65.817  1.00  0.00     0.000 HD 
HETATM   15  C   UNL     1      -9.625   6.741  67.014  1.00  0.00    -0.188 A  
HETATM   16  H1  UNL     1      -7.361   6.391  64.488  1.00  0.00     0.000 HD 
HETATM   17  C   UNL     1      -9.193   9.190  66.382  1.00  0.00    -0.233 C  
HETATM   18  C   UNL     1     -10.295   5.801  67.810  1.00  0.00    -0.213 A  
HETATM   19  N   UNL     1     -10.270   4.484  67.591  1.00  0.00    -0.013 NA 
HETATM   20  C   UNL     1     -11.019   6.233  68.906  1.00  0.00    -0.435 A  
HETATM   21  C   UNL     1     -11.122   7.581  69.243  1.00  0.00     0.028 A  
HETATM   22  C   UNL     1      -9.546   4.044  66.569  1.00  0.00    -0.205 A  
HETATM   23  N   UNL     1      -8.782   4.807  65.796  1.00  0.00    -0.124 NA 
HETATM   24  N   UNL     1      -9.553   2.689  66.314  1.00  0.00    -0.377 NA 
HETATM   25  C   UNL     1      -8.825   6.127  66.021  1.00  0.00    -0.153 A  
HETATM   26  H2  UNL     1     -10.096   2.046  66.891  1.00  0.00     0.000 HD 
HETATM   27  H1  UNL     1      -8.997   2.352  65.530  1.00  0.00     0.000 HD 
HETATM   28  N   UNL     1      -7.938   6.833  65.204  1.00  0.00    -0.123 NA 
ENDBRANCH  11  12
ENDBRANCH   9  11
ENDBRANCH   5   9
BRANCH   8  29
HETATM   29  O   UNL     1     -11.289  12.618  63.850  1.00  0.00    -0.377 OA 
HETATM   30  C   UNL     1     -12.447  11.979  63.341  1.00  0.00    -0.509 C  
ENDBRANCH   8  29
BRANCH   7  31
HETATM   31  O   UNL     1     -10.521  15.154  64.982  1.00  0.00    -0.398 OA 
HETATM   32  C   UNL     1     -11.523  16.053  64.541  1.00  0.00    -0.271 C  
ENDBRANCH   7  31
ENDBRANCH   2   3
TORSDOF 6
ENDMDL
MODEL      120
REMARK 921   NORMALIZED FREE ENERGY PREDICTED BY IDOCK:   -5.28 KCAL/MOL
REMARK 922        TOTAL FREE ENERGY PREDICTED BY IDOCK:   -7.98 KCAL/MOL
REMARK 923 INTER-LIGAND FREE ENERGY PREDICTED BY IDOCK:   -7.08 KCAL/MOL
REMARK 924 INTRA-LIGAND FREE ENERGY PREDICTED BY IDOCK:   -0.90 KCAL/MOL
REMARK 927      BINDING AFFINITY PREDICTED BY RF-SCORE:    0.00 PKD
ROOT
HETATM    1  C   UNL     1     -11.682  15.637  63.955  1.00  0.00     0.070 C  
HETATM    2  O   UNL     1     -10.944  16.730  64.500  1.00  0.00    -0.921 OA 
ENDROOT
BRANCH   2   3
HETATM    3  C   UNL     1     -10.768  16.735  65.862  1.00  0.00    -0.163 A  
HETATM    4  C   UNL     1     -11.106  15.604  66.627  1.00  0.00    -0.147 A  
HETATM    5  C   UNL     1     -10.918  15.557  68.007  1.00  0.00    -0.311 A  
HETATM    6  C   UNL     1     -10.412  16.701  68.619  1.00  0.00    -0.323 A  
HETATM    7  C   UNL     1     -10.202  17.868  66.488  1.00  0.00    -0.379 A  
HETATM    8  C   UNL     1     -10.030  17.838  67.887  1.00  0.00    -0.322 A  
BRANCH   5   9
HETATM    9  N   UNL     1     -11.379  14.436  68.710  1.00  0.00    -0.257 NA 
HETATM   10  H   UNL     1     -11.317  14.394  69.728  1.00  0.00     0.000 HD 
BRANCH   9  11
HETATM   11  C   UNL     1     -11.949  13.331  67.949  1.00  0.00    -0.309 C  
BRANCH  11  12
HETATM   12  C   UNL     1     -10.920  12.278  67.570  1.00  0.00    -0.298 A  
HETATM   13  C   UNL     1     -10.856  11.787  66.240  1.00  0.00    -0.325 A  
HETATM   14  H2  UNL     1      -9.974  11.822  63.371  1.00  0.00     0.000 HD 
HETATM   15  C   UNL     1      -9.824  10.844  65.857  1.00  0.00    -0.285 A  
HETATM   16  H1  UNL     1      -9.880  10.453  62.470  1.00  0.00     0.000 HD 
HETATM   17  C   UNL     1     -11.878  12.245  65.222  1.00  0.00    -0.411 C  
HETATM   18  C   UNL     1      -8.967  10.340  66.846  1.00  0.00    -0.136 A  
HETATM   19  N   UNL     1      -8.031   9.413  66.621  1.00  0.00    -0.108 NA 
HETATM   20  C   UNL     1      -9.062  10.824  68.137  1.00  0.00    -0.151 A  
HETATM   21  C   UNL     1      -9.996  11.792  68.500  1.00  0.00    -0.203 A  
HETATM   22  C   UNL     1      -7.896   8.966  65.379  1.00  0.00    -0.102 A  
HETATM   23  N   UNL     1      -8.565   9.424  64.329  1.00  0.00    -0.187 NA 
HETATM   24  N   UNL     1      -6.960   7.978  65.152  1.00  0.00    -0.062 NA 
HETATM   25  C   UNL     1      -9.509  10.345  64.571  1.00  0.00    -0.286 A  
HETATM   26  H2  UNL     1      -6.391   7.605  65.913  1.00  0.00     0.000 HD 
HETATM   27  H1  UNL     1      -6.855   7.634  64.199  1.00  0.00     0.000 HD 
HETATM   28  N   UNL     1     -10.107  10.812  63.397  1.00  0.00    -0.325 NA 
ENDBRANCH  11  12
ENDBRANCH   9  11
ENDBRANCH   5   9
BRANCH   8  29
HETATM   29  O   UNL     1      -9.526  18.808  68.721  1.00  0.00    -0.344 OA 
HETATM   30  C   UNL     1      -8.136  18.858  68.991  1.00  0.00    -0.170 C  
ENDBRANCH   8  29
BRANCH   7  31
HETATM   31  O   UNL     1      -9.815  19.023  65.863  1.00  0.00    -0.472 OA 
HETATM   32  C   UNL     1     -10.772  19.991  65.471  1.00  0.00    -0.154 C  
ENDBRANCH   7  31
ENDBRANCH   2   3
TORSDOF 6
ENDMDL
MODEL      121
REMARK 921   NORMALIZED FREE ENERGY PREDICTED BY IDOCK:   -5.26 KCAL/MOL
REMARK 922        TOTAL FREE ENERGY PREDICTED BY IDOCK:   -7.96 KCAL/MOL
REMARK 923 INTER-LIGAND FREE ENERGY PREDICTED BY IDOCK:   -7.21 KCAL/MOL
REMARK 924 INTRA-LIGAND FREE ENERGY PREDICTED BY IDOCK:   -0.75 KCAL/MOL
REMARK 927      BINDING AFFINITY PREDICTED BY RF-SCORE:    0.00 PKD
ROOT
HETATM    1  C   UNL     1     -11.695  14.837  67.335  1.00  0.00    -0.350 C  
HETATM    2  O   UNL     1     -12.364  13.658  66.893  1.00  0.00    -0.365 OA 
ENDROOT
BRANCH   2   3
HETATM    3  C   UNL     1     -11.632  12.495  66.905  1.00  0.00    -0.370 A  
HETATM    4  C   UNL     1     -11.347  11.847  68.119  1.00  0.00    -0.350 A  
HETATM    5  C   UNL     1     -10.633  10.651  68.174  1.00  0.00    -0.202 A  
HETATM    6  C   UNL     1     -10.168  10.132  66.969  1.00  0.00    -0.290 A  
HETATM    7  C   UNL     1     -11.204  11.927  65.683  1.00  0.00    -0.306 A  
HETATM    8  C   UNL     1     -10.461  10.730  65.731  1.00  0.00    -0.188 A  
BRANCH   5   9
HETATM    9  N   UNL     1     -10.298  10.125  69.429  1.00  0.00    -0.216 NA 
HETATM   10  H   UNL     1      -9.397  10.333  69.862  1.00  0.00     0.000 HD 
BRANCH   9  11
HETATM   11  C   UNL     1     -11.271   9.272  70.101  1.00  0.00    -0.208 C  
BRANCH  11  12
HETATM   12  C   UNL     1     -10.857   7.810  70.132  1.00  0.00    -0.248 A  
HETATM   13  C   UNL     1     -10.708   7.136  71.372  1.00  0.00    -0.245 A  
HETATM   14  H2  UNL     1     -11.672   5.576  73.749  1.00  0.00     0.000 HD 
HETATM   15  C   UNL     1     -10.393   5.721  71.403  1.00  0.00    -0.279 A  
HETATM   16  H1  UNL     1     -10.678   4.590  74.607  1.00  0.00     0.000 HD 
HETATM   17  C   UNL     1     -10.870   7.903  72.667  1.00  0.00    -0.428 C  
HETATM   18  C   UNL     1     -10.126   5.061  70.195  1.00  0.00    -0.268 A  
HETATM   19  N   UNL     1      -9.753   3.781  70.111  1.00  0.00    -0.189 NA 
HETATM   20  C   UNL     1     -10.263   5.746  69.002  1.00  0.00    -0.282 A  
HETATM   21  C   UNL     1     -10.646   7.085  68.955  1.00  0.00    -0.234 A  
HETATM   22  C   UNL     1      -9.657   3.093  71.242  1.00  0.00    -0.159 A  
HETATM   23  N   UNL     1      -9.976   3.558  72.443  1.00  0.00    -0.160 NA 
HETATM   24  N   UNL     1      -9.231   1.783  71.161  1.00  0.00    -0.089 NA 
HETATM   25  C   UNL     1     -10.337   4.847  72.514  1.00  0.00    -0.201 A  
HETATM   26  H2  UNL     1      -8.999   1.358  70.263  1.00  0.00     0.000 HD 
HETATM   27  H1  UNL     1      -9.157   1.255  72.029  1.00  0.00     0.000 HD 
HETATM   28  N   UNL     1     -10.718   5.220  73.806  1.00  0.00    -0.287 NA 
ENDBRANCH  11  12
ENDBRANCH   9  11
ENDBRANCH   5   9
BRANCH   8  29
HETATM   29  O   UNL     1      -9.922  10.001  64.698  1.00  0.00    -0.309 OA 
HETATM   30  C   UNL     1      -8.519   9.813  64.621  1.00  0.00    -0.172 C  
ENDBRANCH   8  29
BRANCH   7  31
HETATM   31  O   UNL     1     -11.427  12.444  64.435  1.00  0.00    -0.316 OA 
HETATM   32  C   UNL     1     -12.591  12.099  63.704  1.00  0.00    -0.504 C  
ENDBRANCH   7  31
ENDBRANCH   2   3
TORSDOF 6
ENDMDL
MODEL      122
REMARK 921   NORMALIZED FREE ENERGY PREDICTED BY IDOCK:   -5.23 KCAL/MOL
REMARK 922        TOTAL FREE ENERGY PREDICTED BY IDOCK:   -7.92 KCAL/MOL
REMARK 923 INTER-LIGAND FREE ENERGY PREDICTED BY IDOCK:   -7.20 KCAL/MOL
REMARK 924 INTRA-LIGAND FREE ENERGY PREDICTED BY IDOCK:   -0.72 KCAL/MOL
REMARK 927      BINDING AFFINITY PREDICTED BY RF-SCORE:    0.00 PKD
ROOT
HETATM    1  C   UNL     1     -11.505  15.236  64.620  1.00  0.00    -0.354 C  
HETATM    2  O   UNL     1     -10.648  16.348  64.865  1.00  0.00    -0.677 OA 
ENDROOT
BRANCH   2   3
HETATM    3  C   UNL     1      -9.939  16.330  66.042  1.00  0.00    -0.345 A  
HETATM    4  C   UNL     1      -9.833  15.144  66.790  1.00  0.00    -0.251 A  
HETATM    5  C   UNL     1      -9.101  15.075  67.975  1.00  0.00    -0.178 A  
HETATM    6  C   UNL     1      -8.501  16.249  68.421  1.00  0.00    -0.195 A  
HETATM    7  C   UNL     1      -9.277  17.501  66.477  1.00  0.00    -0.267 A  
HETATM    8  C   UNL     1      -8.554  17.446  67.686  1.00  0.00    -0.217 A  
BRANCH   5   9
HETATM    9  N   UNL     1      -9.133  13.886  68.716  1.00  0.00    -0.376 NA 
HETATM   10  H   UNL     1      -9.823  13.748  69.455  1.00  0.00     0.000 HD 
BRANCH   9  11
HETATM   11  C   UNL     1      -8.153  12.852  68.403  1.00  0.00    -0.130 C  
BRANCH  11  12
HETATM   12  C   UNL     1      -8.789  11.561  67.914  1.00  0.00    -0.152 A  
HETATM   13  C   UNL     1      -8.604  10.355  68.639  1.00  0.00    -0.133 A  
HETATM   14  H2  UNL     1      -9.242   8.346  70.776  1.00  0.00     0.000 HD 
HETATM   15  C   UNL     1      -9.275   9.140  68.221  1.00  0.00    -0.135 A  
HETATM   16  H1  UNL     1      -8.855   6.757  70.624  1.00  0.00     0.000 HD 
HETATM   17  C   UNL     1      -7.694  10.338  69.848  1.00  0.00    -0.139 C  
HETATM   18  C   UNL     1     -10.013   9.150  67.029  1.00  0.00    -0.230 A  
HETATM   19  N   UNL     1     -10.609   8.072  66.511  1.00  0.00    -0.025 NA 
HETATM   20  C   UNL     1     -10.163  10.335  66.334  1.00  0.00    -0.290 A  
HETATM   21  C   UNL     1      -9.591  11.529  66.770  1.00  0.00    -0.203 A  
HETATM   22  C   UNL     1     -10.512   6.933  67.185  1.00  0.00    -0.303 A  
HETATM   23  N   UNL     1      -9.935   6.799  68.372  1.00  0.00    -0.147 NA 
HETATM   24  N   UNL     1     -11.091   5.810  66.630  1.00  0.00    -0.684 NA 
HETATM   25  C   UNL     1      -9.331   7.885  68.874  1.00  0.00    -0.150 A  
HETATM   26  H2  UNL     1     -11.576   5.854  65.734  1.00  0.00     0.000 HD 
HETATM   27  H1  UNL     1     -11.017   4.935  67.148  1.00  0.00     0.000 HD 
HETATM   28  N   UNL     1      -8.815   7.661  70.153  1.00  0.00    -0.145 NA 
ENDBRANCH  11  12
ENDBRANCH   9  11
ENDBRANCH   5   9
BRANCH   8  29
HETATM   29  O   UNL     1      -7.850  18.441  68.322  1.00  0.00    -0.279 OA 
HETATM   30  C   UNL     1      -6.475  18.629  68.037  1.00  0.00    -0.214 C  
ENDBRANCH   8  29
BRANCH   7  31
HETATM   31  O   UNL     1      -9.285  18.712  65.838  1.00  0.00    -0.472 OA 
HETATM   32  C   UNL     1     -10.257  19.693  66.155  1.00  0.00    -0.508 C  
ENDBRANCH   7  31
ENDBRANCH   2   3
TORSDOF 6
ENDMDL
MODEL      123
REMARK 921   NORMALIZED FREE ENERGY PREDICTED BY IDOCK:   -5.22 KCAL/MOL
REMARK 922        TOTAL FREE ENERGY PREDICTED BY IDOCK:   -7.90 KCAL/MOL
REMARK 923 INTER-LIGAND FREE ENERGY PREDICTED BY IDOCK:   -7.07 KCAL/MOL
REMARK 924 INTRA-LIGAND FREE ENERGY PREDICTED BY IDOCK:   -0.83 KCAL/MOL
REMARK 927      BINDING AFFINITY PREDICTED BY RF-SCORE:    0.00 PKD
ROOT
HETATM    1  C   UNL     1      -6.787  14.053  68.397  1.00  0.00    -0.099 C  
HETATM    2  O   UNL     1      -6.958  15.383  68.883  1.00  0.00    -0.114 OA 
ENDROOT
BRANCH   2   3
HETATM    3  C   UNL     1      -8.250  15.835  68.994  1.00  0.00    -0.234 A  
HETATM    4  C   UNL     1      -9.171  15.164  69.817  1.00  0.00     0.005 A  
HETATM    5  C   UNL     1     -10.484  15.605  69.979  1.00  0.00    -0.323 A  
HETATM    6  C   UNL     1     -10.870  16.729  69.255  1.00  0.00    -0.275 A  
HETATM    7  C   UNL     1      -8.639  17.009  68.309  1.00  0.00    -0.234 A  
HETATM    8  C   UNL     1      -9.971  17.450  68.449  1.00  0.00    -0.329 A  
BRANCH   5   9
HETATM    9  N   UNL     1     -11.368  14.821  70.731  1.00  0.00    -0.470 NA 
HETATM   10  H   UNL     1     -11.288  14.767  71.747  1.00  0.00     0.000 HD 
BRANCH   9  11
HETATM   11  C   UNL     1     -12.407  14.082  70.023  1.00  0.00    -0.337 C  
BRANCH  11  12
HETATM   12  C   UNL     1     -11.848  13.067  69.039  1.00  0.00    -0.362 A  
HETATM   13  C   UNL     1     -11.560  11.744  69.465  1.00  0.00    -0.398 A  
HETATM   14  H2  UNL     1     -12.222   8.877  70.061  1.00  0.00     0.000 HD 
HETATM   15  C   UNL     1     -11.104  10.751  68.512  1.00  0.00    -0.317 A  
HETATM   16  H1  UNL     1     -11.086   7.692  70.018  1.00  0.00     0.000 HD 
HETATM   17  C   UNL     1     -11.721  11.374  70.923  1.00  0.00     0.087 C  
HETATM   18  C   UNL     1     -10.844  11.149  67.193  1.00  0.00    -0.273 A  
HETATM   19  N   UNL     1     -10.351  10.339  66.252  1.00  0.00    -0.215 NA 
HETATM   20  C   UNL     1     -11.119  12.449  66.809  1.00  0.00    -0.333 A  
HETATM   21  C   UNL     1     -11.636  13.391  67.696  1.00  0.00    -0.377 A  
HETATM   22  C   UNL     1     -10.120   9.076  66.589  1.00  0.00    -0.285 A  
HETATM   23  N   UNL     1     -10.413   8.538  67.766  1.00  0.00    -0.239 NA 
HETATM   24  N   UNL     1      -9.572   8.248  65.631  1.00  0.00    -0.410 NA 
HETATM   25  C   UNL     1     -10.896   9.365  68.703  1.00  0.00    -0.109 A  
HETATM   26  H2  UNL     1      -9.352   8.594  64.697  1.00  0.00     0.000 HD 
HETATM   27  H1  UNL     1      -9.394   7.279  65.889  1.00  0.00     0.000 HD 
HETATM   28  N   UNL     1     -11.236   8.691  69.880  1.00  0.00    -0.117 NA 
ENDBRANCH  11  12
ENDBRANCH   9  11
ENDBRANCH   5   9
BRANCH   8  29
HETATM   29  O   UNL     1     -10.591  18.536  67.879  1.00  0.00    -0.392 OA 
HETATM   30  C   UNL     1     -10.212  19.848  68.258  1.00  0.00    -0.434 C  
ENDBRANCH   8  29
BRANCH   7  31
HETATM   31  O   UNL     1      -7.842  17.765  67.492  1.00  0.00    -0.203 OA 
HETATM   32  C   UNL     1      -7.622  17.390  66.144  1.00  0.00    -0.286 C  
ENDBRANCH   7  31
ENDBRANCH   2   3
TORSDOF 6
ENDMDL
MODEL      124
REMARK 921   NORMALIZED FREE ENERGY PREDICTED BY IDOCK:   -5.20 KCAL/MOL
REMARK 922        TOTAL FREE ENERGY PREDICTED BY IDOCK:   -7.88 KCAL/MOL
REMARK 923 INTER-LIGAND FREE ENERGY PREDICTED BY IDOCK:   -7.28 KCAL/MOL
REMARK 924 INTRA-LIGAND FREE ENERGY PREDICTED BY IDOCK:   -0.60 KCAL/MOL
REMARK 927      BINDING AFFINITY PREDICTED BY RF-SCORE:    0.00 PKD
ROOT
HETATM    1  C   UNL     1      -5.845   6.167  69.535  1.00  0.00    -0.017 C  
HETATM    2  O   UNL     1      -5.843   7.440  70.178  1.00  0.00    -0.024 OA 
ENDROOT
BRANCH   2   3
HETATM    3  C   UNL     1      -7.011   7.819  70.794  1.00  0.00    -0.046 A  
HETATM    4  C   UNL     1      -7.945   8.623  70.117  1.00  0.00    -0.103 A  
HETATM    5  C   UNL     1      -9.154   9.007  70.695  1.00  0.00    -0.235 A  
HETATM    6  C   UNL     1      -9.393   8.593  72.002  1.00  0.00    -0.362 A  
HETATM    7  C   UNL     1      -7.292   7.357  72.100  1.00  0.00    -0.072 A  
HETATM    8  C   UNL     1      -8.502   7.760  72.702  1.00  0.00    -0.135 A  
BRANCH   5   9
HETATM    9  N   UNL     1      -9.980   9.897  69.996  1.00  0.00    -0.262 NA 
HETATM   10  H   UNL     1     -10.371  10.720  70.455  1.00  0.00     0.000 HD 
BRANCH   9  11
HETATM   11  C   UNL     1     -10.268   9.614  68.594  1.00  0.00    -0.189 C  
BRANCH  11  12
HETATM   12  C   UNL     1     -10.763  10.833  67.833  1.00  0.00    -0.282 A  
HETATM   13  C   UNL     1     -10.558  10.931  66.431  1.00  0.00    -0.289 A  
HETATM   14  H2  UNL     1     -11.240  10.456  63.547  1.00  0.00     0.000 HD 
HETATM   15  C   UNL     1     -11.100  12.053  65.690  1.00  0.00    -0.361 A  
HETATM   16  H1  UNL     1     -10.728  11.460  62.353  1.00  0.00     0.000 HD 
HETATM   17  C   UNL     1      -9.762   9.864  65.713  1.00  0.00    -0.332 C  
HETATM   18  C   UNL     1     -11.726  13.091  66.395  1.00  0.00    -0.390 A  
HETATM   19  N   UNL     1     -12.195  14.204  65.823  1.00  0.00    -0.431 NA 
HETATM   20  C   UNL     1     -11.898  12.976  67.761  1.00  0.00    -0.395 A  
HETATM   21  C   UNL     1     -11.455  11.864  68.475  1.00  0.00    -0.349 A  
HETATM   22  C   UNL     1     -12.078  14.315  64.506  1.00  0.00    -0.480 A  
HETATM   23  N   UNL     1     -11.601  13.371  63.704  1.00  0.00    -0.322 NA 
HETATM   24  N   UNL     1     -12.522  15.482  63.920  1.00  0.00    -0.911 NA 
HETATM   25  C   UNL     1     -11.124  12.265  64.291  1.00  0.00    -0.348 A  
HETATM   26  H2  UNL     1     -12.926  16.233  64.478  1.00  0.00     0.000 HD 
HETATM   27  H1  UNL     1     -12.432  15.567  62.908  1.00  0.00     0.000 HD 
HETATM   28  N   UNL     1     -10.711  11.307  63.361  1.00  0.00    -0.340 NA 
ENDBRANCH  11  12
ENDBRANCH   9  11
ENDBRANCH   5   9
BRANCH   8  29
HETATM   29  O   UNL     1      -8.990   7.466  73.952  1.00  0.00    -0.196 OA 
HETATM   30  C   UNL     1     -10.285   6.907  74.094  1.00  0.00    -0.296 C  
ENDBRANCH   8  29
BRANCH   7  31
HETATM   31  O   UNL     1      -6.482   6.559  72.863  1.00  0.00    -0.065 OA 
HETATM   32  C   UNL     1      -5.535   7.125  73.751  1.00  0.00    -0.046 C  
ENDBRANCH   7  31
ENDBRANCH   2   3
TORSDOF 6
ENDMDL
MODEL      125
REMARK 921   NORMALIZED FREE ENERGY PREDICTED BY IDOCK:   -5.16 KCAL/MOL
REMARK 922        TOTAL FREE ENERGY PREDICTED BY IDOCK:   -7.83 KCAL/MOL
REMARK 923 INTER-LIGAND FREE ENERGY PREDICTED BY IDOCK:   -6.94 KCAL/MOL
REMARK 924 INTRA-LIGAND FREE ENERGY PREDICTED BY IDOCK:   -0.89 KCAL/MOL
REMARK 927      BINDING AFFINITY PREDICTED BY RF-SCORE:    0.00 PKD
ROOT
HETATM    1  C   UNL     1     -11.628   8.833  72.017  1.00  0.00    -0.366 C  
HETATM    2  O   UNL     1     -11.613   9.056  70.608  1.00  0.00    -0.269 OA 
ENDROOT
BRANCH   2   3
HETATM    3  C   UNL     1     -10.435   8.785  69.955  1.00  0.00    -0.212 A  
HETATM    4  C   UNL     1      -9.445   9.776  69.834  1.00  0.00    -0.264 A  
HETATM    5  C   UNL     1      -8.225   9.535  69.204  1.00  0.00    -0.111 A  
HETATM    6  C   UNL     1      -8.032   8.271  68.655  1.00  0.00    -0.122 A  
HETATM    7  C   UNL     1     -10.203   7.488  69.444  1.00  0.00    -0.204 A  
HETATM    8  C   UNL     1      -8.981   7.242  68.785  1.00  0.00    -0.129 A  
BRANCH   5   9
HETATM    9  N   UNL     1      -7.336  10.604  69.030  1.00  0.00    -0.097 NA 
HETATM   10  H   UNL     1      -6.342  10.497  69.233  1.00  0.00     0.000 HD 
BRANCH   9  11
HETATM   11  C   UNL     1      -7.870  11.873  68.550  1.00  0.00    -0.136 C  
BRANCH  11  12
HETATM   12  C   UNL     1      -8.771  11.717  67.335  1.00  0.00    -0.162 A  
HETATM   13  C   UNL     1     -10.038  12.356  67.298  1.00  0.00    -0.214 A  
HETATM   14  H2  UNL     1     -11.912  14.643  66.784  1.00  0.00     0.000 HD 
HETATM   15  C   UNL     1     -10.863  12.276  66.110  1.00  0.00    -0.314 A  
HETATM   16  H1  UNL     1     -13.501  14.410  66.445  1.00  0.00     0.000 HD 
HETATM   17  C   UNL     1     -10.530  13.115  68.511  1.00  0.00    -0.262 C  
HETATM   18  C   UNL     1     -10.442  11.465  65.046  1.00  0.00    -0.303 A  
HETATM   19  N   UNL     1     -11.156  11.258  63.936  1.00  0.00    -0.334 NA 
HETATM   20  C   UNL     1      -9.210  10.841  65.115  1.00  0.00    -0.239 A  
HETATM   21  C   UNL     1      -8.370  10.977  66.219  1.00  0.00    -0.166 A  
HETATM   22  C   UNL     1     -12.323  11.882  63.832  1.00  0.00    -0.383 A  
HETATM   23  N   UNL     1     -12.799  12.755  64.710  1.00  0.00    -0.796 NA 
HETATM   24  N   UNL     1     -13.081  11.637  62.706  1.00  0.00    -0.592 NA 
HETATM   25  C   UNL     1     -12.078  12.944  65.824  1.00  0.00    -0.457 A  
HETATM   26  H2  UNL     1     -12.757  10.999  61.979  1.00  0.00     0.000 HD 
HETATM   27  H1  UNL     1     -13.977  12.116  62.625  1.00  0.00     0.000 HD 
HETATM   28  N   UNL     1     -12.626  13.928  66.650  1.00  0.00    -0.265 NA 
ENDBRANCH  11  12
ENDBRANCH   9  11
ENDBRANCH   5   9
BRANCH   8  29
HETATM   29  O   UNL     1      -8.532   6.086  68.191  1.00  0.00    -0.115 OA 
HETATM   30  C   UNL     1      -7.499   5.332  68.802  1.00  0.00    -0.074 C  
ENDBRANCH   8  29
BRANCH   7  31
HETATM   31  O   UNL     1     -11.072   6.431  69.508  1.00  0.00    -0.325 OA 
HETATM   32  C   UNL     1     -10.951   5.454  70.527  1.00  0.00    -0.031 C  
ENDBRANCH   7  31
ENDBRANCH   2   3
TORSDOF 6
ENDMDL
MODEL      126
REMARK 921   NORMALIZED FREE ENERGY PREDICTED BY IDOCK:   -5.15 KCAL/MOL
REMARK 922        TOTAL FREE ENERGY PREDICTED BY IDOCK:   -7.80 KCAL/MOL
REMARK 923 INTER-LIGAND FREE ENERGY PREDICTED BY IDOCK:   -7.15 KCAL/MOL
REMARK 924 INTRA-LIGAND FREE ENERGY PREDICTED BY IDOCK:   -0.65 KCAL/MOL
REMARK 927      BINDING AFFINITY PREDICTED BY RF-SCORE:    0.00 PKD
ROOT
HETATM    1  C   UNL     1     -10.739   6.938  67.005  1.00  0.00    -0.362 C  
HETATM    2  O   UNL     1      -9.818   7.523  67.922  1.00  0.00    -0.145 OA 
ENDROOT
BRANCH   2   3
HETATM    3  C   UNL     1     -10.357   8.167  69.009  1.00  0.00    -0.218 A  
HETATM    4  C   UNL     1     -10.554   9.559  68.987  1.00  0.00    -0.238 A  
HETATM    5  C   UNL     1     -11.124  10.247  70.057  1.00  0.00    -0.311 A  
HETATM    6  C   UNL     1     -11.460   9.502  71.184  1.00  0.00    -0.430 A  
HETATM    7  C   UNL     1     -10.757   7.415  70.137  1.00  0.00    -0.242 A  
HETATM    8  C   UNL     1     -11.312   8.105  71.234  1.00  0.00    -0.265 A  
BRANCH   5   9
HETATM    9  N   UNL     1     -11.187  11.645  69.999  1.00  0.00    -0.489 NA 
HETATM   10  H   UNL     1     -11.010  12.212  70.829  1.00  0.00     0.000 HD 
BRANCH   9  11
HETATM   11  C   UNL     1     -11.513  12.269  68.722  1.00  0.00    -0.311 C  
BRANCH  11  12
HETATM   12  C   UNL     1     -11.254  13.766  68.709  1.00  0.00    -0.303 A  
HETATM   13  C   UNL     1     -10.077  14.283  68.107  1.00  0.00    -0.232 A  
HETATM   14  H2  UNL     1      -8.411  15.280  65.818  1.00  0.00     0.000 HD 
HETATM   15  C   UNL     1      -9.867  15.714  68.021  1.00  0.00    -0.209 A  
HETATM   16  H1  UNL     1      -7.160  16.321  66.038  1.00  0.00     0.000 HD 
HETATM   17  C   UNL     1      -9.035  13.331  67.561  1.00  0.00    -0.208 C  
HETATM   18  C   UNL     1     -10.786  16.572  68.643  1.00  0.00    -0.334 A  
HETATM   19  N   UNL     1     -10.652  17.900  68.691  1.00  0.00    -0.243 NA 
HETATM   20  C   UNL     1     -11.916  16.041  69.236  1.00  0.00    -0.188 A  
HETATM   21  C   UNL     1     -12.171  14.671  69.253  1.00  0.00    -0.247 A  
HETATM   22  C   UNL     1      -9.596  18.434  68.091  1.00  0.00    -0.316 A  
HETATM   23  N   UNL     1      -8.703  17.756  67.379  1.00  0.00    -0.233 NA 
HETATM   24  N   UNL     1      -9.434  19.801  68.176  1.00  0.00    -0.354 NA 
HETATM   25  C   UNL     1      -8.843  16.424  67.349  1.00  0.00    -0.183 A  
HETATM   26  H2  UNL     1     -10.102  20.382  68.682  1.00  0.00     0.000 HD 
HETATM   27  H1  UNL     1      -8.622  20.211  67.715  1.00  0.00     0.000 HD 
HETATM   28  N   UNL     1      -7.898  15.810  66.522  1.00  0.00    -0.166 NA 
ENDBRANCH  11  12
ENDBRANCH   9  11
ENDBRANCH   5   9
BRANCH   8  29
HETATM   29  O   UNL     1     -11.754   7.611  72.437  1.00  0.00    -0.311 OA 
HETATM   30  C   UNL     1     -10.843   7.434  73.508  1.00  0.00    -0.219 C  
ENDBRANCH   8  29
BRANCH   7  31
HETATM   31  O   UNL     1     -10.638   6.058  70.282  1.00  0.00    -0.229 OA 
HETATM   32  C   UNL     1      -9.436   5.484  70.763  1.00  0.00    -0.166 C  
ENDBRANCH   7  31
ENDBRANCH   2   3
TORSDOF 6
ENDMDL
MODEL      127
REMARK 921   NORMALIZED FREE ENERGY PREDICTED BY IDOCK:   -5.13 KCAL/MOL
REMARK 922        TOTAL FREE ENERGY PREDICTED BY IDOCK:   -7.79 KCAL/MOL
REMARK 923 INTER-LIGAND FREE ENERGY PREDICTED BY IDOCK:   -6.99 KCAL/MOL
REMARK 924 INTRA-LIGAND FREE ENERGY PREDICTED BY IDOCK:   -0.80 KCAL/MOL
REMARK 927      BINDING AFFINITY PREDICTED BY RF-SCORE:    0.00 PKD
ROOT
HETATM    1  C   UNL     1     -12.313   8.201  72.076  1.00  0.00    -0.338 C  
HETATM    2  O   UNL     1     -11.261   7.239  72.119  1.00  0.00    -0.236 OA 
ENDROOT
BRANCH   2   3
HETATM    3  C   UNL     1     -10.118   7.546  71.422  1.00  0.00    -0.186 A  
HETATM    4  C   UNL     1      -9.850   8.873  71.043  1.00  0.00    -0.321 A  
HETATM    5  C   UNL     1      -8.690   9.232  70.360  1.00  0.00    -0.229 A  
HETATM    6  C   UNL     1      -7.809   8.209  70.023  1.00  0.00    -0.103 A  
HETATM    7  C   UNL     1      -9.187   6.525  71.124  1.00  0.00    -0.156 A  
HETATM    8  C   UNL     1      -8.022   6.875  70.412  1.00  0.00    -0.114 A  
BRANCH   5   9
HETATM    9  N   UNL     1      -8.548  10.557  69.925  1.00  0.00    -0.338 NA 
HETATM   10  H   UNL     1      -8.845  11.336  70.513  1.00  0.00     0.000 HD 
BRANCH   9  11
HETATM   11  C   UNL     1      -7.966  10.791  68.608  1.00  0.00    -0.133 C  
BRANCH  11  12
HETATM   12  C   UNL     1      -8.902  11.534  67.669  1.00  0.00    -0.152 A  
HETATM   13  C   UNL     1      -8.981  11.166  66.300  1.00  0.00    -0.202 A  
HETATM   14  H2  UNL     1      -9.999   9.570  63.972  1.00  0.00     0.000 HD 
HETATM   15  C   UNL     1      -9.932  11.818  65.421  1.00  0.00    -0.284 A  
HETATM   16  H1  UNL     1     -10.001  10.163  62.440  1.00  0.00     0.000 HD 
HETATM   17  C   UNL     1      -8.060  10.095  65.758  1.00  0.00    -0.142 C  
HETATM   18  C   UNL     1     -10.686  12.891  65.916  1.00  0.00    -0.271 A  
HETATM   19  N   UNL     1     -11.535  13.611  65.177  1.00  0.00    -0.309 NA 
HETATM   20  C   UNL     1     -10.578  13.239  67.250  1.00  0.00    -0.250 A  
HETATM   21  C   UNL     1      -9.728  12.566  68.126  1.00  0.00    -0.222 A  
HETATM   22  C   UNL     1     -11.685  13.267  63.904  1.00  0.00    -0.431 A  
HETATM   23  N   UNL     1     -11.116  12.215  63.329  1.00  0.00    -0.388 NA 
HETATM   24  N   UNL     1     -12.528  14.034  63.128  1.00  0.00    -1.070 NA 
HETATM   25  C   UNL     1     -10.258  11.509  64.079  1.00  0.00    -0.345 A  
HETATM   26  H2  UNL     1     -13.020  14.838  63.519  1.00  0.00     0.000 HD 
HETATM   27  H1  UNL     1     -12.644  13.770  62.151  1.00  0.00     0.000 HD 
HETATM   28  N   UNL     1      -9.766  10.386  63.407  1.00  0.00    -0.305 NA 
ENDBRANCH  11  12
ENDBRANCH   9  11
ENDBRANCH   5   9
BRANCH   8  29
HETATM   29  O   UNL     1      -6.988   6.073  69.991  1.00  0.00    -0.064 OA 
HETATM   30  C   UNL     1      -6.828   5.790  68.611  1.00  0.00    -0.062 C  
ENDBRANCH   8  29
BRANCH   7  31
HETATM   31  O   UNL     1      -9.316   5.201  71.447  1.00  0.00    -0.142 OA 
HETATM   32  C   UNL     1      -9.856   4.277  70.519  1.00  0.00    -0.198 C  
ENDBRANCH   7  31
ENDBRANCH   2   3
TORSDOF 6
ENDMDL
MODEL      128
REMARK 921   NORMALIZED FREE ENERGY PREDICTED BY IDOCK:   -5.13 KCAL/MOL
REMARK 922        TOTAL FREE ENERGY PREDICTED BY IDOCK:   -7.79 KCAL/MOL
REMARK 923 INTER-LIGAND FREE ENERGY PREDICTED BY IDOCK:   -7.03 KCAL/MOL
REMARK 924 INTRA-LIGAND FREE ENERGY PREDICTED BY IDOCK:   -0.75 KCAL/MOL
REMARK 927      BINDING AFFINITY PREDICTED BY RF-SCORE:    0.00 PKD
ROOT
HETATM    1  C   UNL     1     -10.785  16.452  68.576  1.00  0.00    -0.320 C  
HETATM    2  O   UNL     1     -11.938  16.033  69.302  1.00  0.00    -0.324 OA 
ENDROOT
BRANCH   2   3
HETATM    3  C   UNL     1     -12.018  14.697  69.611  1.00  0.00    -0.323 A  
HETATM    4  C   UNL     1     -11.520  13.730  68.720  1.00  0.00    -0.338 A  
HETATM    5  C   UNL     1     -11.556  12.366  69.006  1.00  0.00    -0.311 A  
HETATM    6  C   UNL     1     -12.148  11.984  70.206  1.00  0.00    -0.395 A  
HETATM    7  C   UNL     1     -12.565  14.299  70.852  1.00  0.00    -0.356 A  
HETATM    8  C   UNL     1     -12.627  12.920  71.140  1.00  0.00    -0.281 A  
BRANCH   5   9
HETATM    9  N   UNL     1     -11.138  11.462  68.021  1.00  0.00    -0.236 NA 
HETATM   10  H   UNL     1     -11.748  11.217  67.241  1.00  0.00     0.000 HD 
BRANCH   9  11
HETATM   11  C   UNL     1      -9.806  10.879  68.141  1.00  0.00    -0.175 C  
BRANCH  11  12
HETATM   12  C   UNL     1      -9.787   9.610  68.978  1.00  0.00    -0.183 A  
HETATM   13  C   UNL     1     -10.073   8.355  68.380  1.00  0.00    -0.224 A  
HETATM   14  H2  UNL     1      -9.398   5.840  66.888  1.00  0.00     0.000 HD 
HETATM   15  C   UNL     1      -9.976   7.135  69.157  1.00  0.00    -0.168 A  
HETATM   16  H1  UNL     1     -10.270   4.460  67.063  1.00  0.00     0.000 HD 
HETATM   17  C   UNL     1     -10.492   8.295  66.927  1.00  0.00    -0.365 C  
HETATM   18  C   UNL     1      -9.708   7.227  70.530  1.00  0.00    -0.176 A  
HETATM   19  N   UNL     1      -9.669   6.177  71.355  1.00  0.00    -0.166 NA 
HETATM   20  C   UNL     1      -9.448   8.464  71.090  1.00  0.00    -0.227 A  
HETATM   21  C   UNL     1      -9.457   9.636  70.336  1.00  0.00    -0.280 A  
HETATM   22  C   UNL     1      -9.874   4.975  70.829  1.00  0.00    -0.208 A  
HETATM   23  N   UNL     1     -10.037   4.729  69.535  1.00  0.00    -0.220 NA 
HETATM   24  N   UNL     1      -9.877   3.894  71.686  1.00  0.00    -0.180 NA 
HETATM   25  C   UNL     1     -10.085   5.793  68.721  1.00  0.00    -0.177 A  
HETATM   26  H2  UNL     1      -9.726   4.013  72.688  1.00  0.00     0.000 HD 
HETATM   27  H1  UNL     1     -10.034   2.971  71.283  1.00  0.00     0.000 HD 
HETATM   28  N   UNL     1     -10.191   5.427  67.377  1.00  0.00    -0.192 NA 
ENDBRANCH  11  12
ENDBRANCH   9  11
ENDBRANCH   5   9
BRANCH   8  29
HETATM   29  O   UNL     1     -13.124  12.287  72.254  1.00  0.00    -0.396 OA 
HETATM   30  C   UNL     1     -13.218  10.873  72.282  1.00  0.00    -0.034 C  
ENDBRANCH   8  29
BRANCH   7  31
HETATM   31  O   UNL     1     -13.068  15.134  71.813  1.00  0.00    -0.326 OA 
HETATM   32  C   UNL     1     -12.224  15.690  72.805  1.00  0.00    -0.453 C  
ENDBRANCH   7  31
ENDBRANCH   2   3
TORSDOF 6
ENDMDL
MODEL      129
REMARK 921   NORMALIZED FREE ENERGY PREDICTED BY IDOCK:   -5.12 KCAL/MOL
REMARK 922        TOTAL FREE ENERGY PREDICTED BY IDOCK:   -7.77 KCAL/MOL
REMARK 923 INTER-LIGAND FREE ENERGY PREDICTED BY IDOCK:   -6.81 KCAL/MOL
REMARK 924 INTRA-LIGAND FREE ENERGY PREDICTED BY IDOCK:   -0.97 KCAL/MOL
REMARK 927      BINDING AFFINITY PREDICTED BY RF-SCORE:    0.00 PKD
ROOT
HETATM    1  C   UNL     1      -9.959  10.278  64.368  1.00  0.00    -0.261 C  
HETATM    2  O   UNL     1     -10.256  11.660  64.553  1.00  0.00    -0.260 OA 
ENDROOT
BRANCH   2   3
HETATM    3  C   UNL     1     -10.266  12.119  65.847  1.00  0.00    -0.244 A  
HETATM    4  C   UNL     1      -9.309  11.665  66.771  1.00  0.00    -0.193 A  
HETATM    5  C   UNL     1      -9.266  12.125  68.086  1.00  0.00    -0.197 A  
HETATM    6  C   UNL     1     -10.245  13.037  68.472  1.00  0.00    -0.218 A  
HETATM    7  C   UNL     1     -11.219  13.089  66.236  1.00  0.00    -0.301 A  
HETATM    8  C   UNL     1     -11.198  13.543  67.571  1.00  0.00    -0.283 A  
BRANCH   5   9
HETATM    9  N   UNL     1      -8.350  11.544  68.972  1.00  0.00    -0.368 NA 
HETATM   10  H   UNL     1      -7.926  12.091  69.722  1.00  0.00     0.000 HD 
BRANCH   9  11
HETATM   11  C   UNL     1      -8.019  10.135  68.795  1.00  0.00    -0.104 C  
BRANCH  11  12
HETATM   12  C   UNL     1      -8.442   9.273  69.973  1.00  0.00    -0.185 A  
HETATM   13  C   UNL     1      -9.638   8.510  69.907  1.00  0.00    -0.171 A  
HETATM   14  H2  UNL     1     -11.288   6.102  69.211  1.00  0.00     0.000 HD 
HETATM   15  C   UNL     1     -10.002   7.625  70.996  1.00  0.00    -0.188 A  
HETATM   16  H1  UNL     1     -12.657   5.715  70.031  1.00  0.00     0.000 HD 
HETATM   17  C   UNL     1     -10.539   8.632  68.697  1.00  0.00    -0.165 C  
HETATM   18  C   UNL     1      -9.218   7.623  72.158  1.00  0.00    -0.141 A  
HETATM   19  N   UNL     1      -9.501   6.905  73.248  1.00  0.00    -0.147 NA 
HETATM   20  C   UNL     1      -8.067   8.387  72.201  1.00  0.00    -0.192 A  
HETATM   21  C   UNL     1      -7.661   9.180  71.129  1.00  0.00    -0.116 A  
HETATM   22  C   UNL     1     -10.579   6.131  73.212  1.00  0.00    -0.258 A  
HETATM   23  N   UNL     1     -11.353   5.957  72.148  1.00  0.00    -0.292 NA 
HETATM   24  N   UNL     1     -10.897   5.422  74.351  1.00  0.00    -0.404 NA 
HETATM   25  C   UNL     1     -11.064   6.692  71.065  1.00  0.00    -0.282 A  
HETATM   26  H2  UNL     1     -10.324   5.489  75.192  1.00  0.00     0.000 HD 
HETATM   27  H1  UNL     1     -11.725   4.828  74.323  1.00  0.00     0.000 HD 
HETATM   28  N   UNL     1     -11.892   6.387  69.981  1.00  0.00    -0.309 NA 
ENDBRANCH  11  12
ENDBRANCH   9  11
ENDBRANCH   5   9
BRANCH   8  29
HETATM   29  O   UNL     1     -12.020  14.453  68.191  1.00  0.00    -0.328 OA 
HETATM   30  C   UNL     1     -11.502  15.705  68.608  1.00  0.00    -0.375 C  
ENDBRANCH   8  29
BRANCH   7  31
HETATM   31  O   UNL     1     -12.191  13.626  65.437  1.00  0.00    -0.390 OA 
HETATM   32  C   UNL     1     -11.900  14.705  64.567  1.00  0.00    -0.431 C  
ENDBRANCH   7  31
ENDBRANCH   2   3
TORSDOF 6
ENDMDL
MODEL      130
REMARK 921   NORMALIZED FREE ENERGY PREDICTED BY IDOCK:   -5.12 KCAL/MOL
REMARK 922        TOTAL FREE ENERGY PREDICTED BY IDOCK:   -7.77 KCAL/MOL
REMARK 923 INTER-LIGAND FREE ENERGY PREDICTED BY IDOCK:   -6.88 KCAL/MOL
REMARK 924 INTRA-LIGAND FREE ENERGY PREDICTED BY IDOCK:   -0.89 KCAL/MOL
REMARK 927      BINDING AFFINITY PREDICTED BY RF-SCORE:    0.00 PKD
ROOT
HETATM    1  C   UNL     1      -5.827  15.513  68.812  1.00  0.00    -0.096 C  
HETATM    2  O   UNL     1      -5.824  16.222  67.575  1.00  0.00    -0.135 OA 
ENDROOT
BRANCH   2   3
HETATM    3  C   UNL     1      -7.000  16.833  67.213  1.00  0.00    -0.177 A  
HETATM    4  C   UNL     1      -8.034  16.089  66.618  1.00  0.00    -0.291 A  
HETATM    5  C   UNL     1      -9.253  16.663  66.261  1.00  0.00    -0.294 A  
HETATM    6  C   UNL     1      -9.400  18.030  66.481  1.00  0.00    -0.294 A  
HETATM    7  C   UNL     1      -7.184  18.208  67.483  1.00  0.00    -0.200 A  
HETATM    8  C   UNL     1      -8.405  18.802  67.104  1.00  0.00    -0.271 A  
BRANCH   5   9
HETATM    9  N   UNL     1     -10.190  15.879  65.576  1.00  0.00    -0.391 NA 
HETATM   10  H   UNL     1     -10.497  16.130  64.636  1.00  0.00     0.000 HD 
BRANCH   9  11
HETATM   11  C   UNL     1     -10.717  14.693  66.243  1.00  0.00    -0.316 C  
BRANCH  11  12
HETATM   12  C   UNL     1     -10.324  13.399  65.551  1.00  0.00    -0.302 A  
HETATM   13  C   UNL     1      -9.510  12.448  66.221  1.00  0.00    -0.220 A  
HETATM   14  H2  UNL     1      -8.994  10.120  68.043  1.00  0.00     0.000 HD 
HETATM   15  C   UNL     1      -9.202  11.178  65.594  1.00  0.00    -0.238 A  
HETATM   16  H1  UNL     1      -7.674   9.157  67.876  1.00  0.00     0.000 HD 
HETATM   17  C   UNL     1      -8.956  12.769  67.591  1.00  0.00    -0.191 C  
HETATM   18  C   UNL     1      -9.623  10.954  64.275  1.00  0.00    -0.272 A  
HETATM   19  N   UNL     1      -9.332   9.854  63.575  1.00  0.00    -0.250 NA 
HETATM   20  C   UNL     1     -10.401  11.904  63.641  1.00  0.00    -0.477 A  
HETATM   21  C   UNL     1     -10.774  13.094  64.263  1.00  0.00    -0.431 A  
HETATM   22  C   UNL     1      -8.621   8.910  64.181  1.00  0.00    -0.106 A  
HETATM   23  N   UNL     1      -8.244   8.942  65.453  1.00  0.00    -0.122 NA 
HETATM   24  N   UNL     1      -8.283   7.793  63.447  1.00  0.00    -0.350 NA 
HETATM   25  C   UNL     1      -8.533  10.057  66.140  1.00  0.00    -0.127 A  
HETATM   26  H2  UNL     1      -8.569   7.694  62.473  1.00  0.00     0.000 HD 
HETATM   27  H1  UNL     1      -7.737   7.068  63.912  1.00  0.00     0.000 HD 
HETATM   28  N   UNL     1      -8.156   9.965  67.482  1.00  0.00    -0.110 NA 
ENDBRANCH  11  12
ENDBRANCH   9  11
ENDBRANCH   5   9
BRANCH   8  29
HETATM   29  O   UNL     1      -8.813  20.108  67.238  1.00  0.00    -0.330 OA 
HETATM   30  C   UNL     1     -10.160  20.459  66.970  1.00  0.00    -0.366 C  
ENDBRANCH   8  29
BRANCH   7  31
HETATM   31  O   UNL     1      -6.269  19.041  68.070  1.00  0.00    -0.211 OA 
HETATM   32  C   UNL     1      -6.351  19.350  69.449  1.00  0.00    -0.314 C  
ENDBRANCH   7  31
ENDBRANCH   2   3
TORSDOF 6
ENDMDL
MODEL      131
REMARK 921   NORMALIZED FREE ENERGY PREDICTED BY IDOCK:   -5.11 KCAL/MOL
REMARK 922        TOTAL FREE ENERGY PREDICTED BY IDOCK:   -7.75 KCAL/MOL
REMARK 923 INTER-LIGAND FREE ENERGY PREDICTED BY IDOCK:   -6.86 KCAL/MOL
REMARK 924 INTRA-LIGAND FREE ENERGY PREDICTED BY IDOCK:   -0.89 KCAL/MOL
REMARK 927      BINDING AFFINITY PREDICTED BY RF-SCORE:    0.00 PKD
ROOT
HETATM    1  C   UNL     1     -10.582  19.813  65.604  1.00  0.00    -0.355 C  
HETATM    2  O   UNL     1      -9.534  18.876  65.844  1.00  0.00    -0.458 OA 
ENDROOT
BRANCH   2   3
HETATM    3  C   UNL     1      -9.884  17.712  66.483  1.00  0.00    -0.319 A  
HETATM    4  C   UNL     1     -10.383  16.620  65.750  1.00  0.00    -0.338 A  
HETATM    5  C   UNL     1     -10.724  15.412  66.355  1.00  0.00    -0.311 A  
HETATM    6  C   UNL     1     -10.590  15.333  67.738  1.00  0.00    -0.266 A  
HETATM    7  C   UNL     1      -9.698  17.599  67.880  1.00  0.00    -0.295 A  
HETATM    8  C   UNL     1     -10.062  16.388  68.503  1.00  0.00    -0.248 A  
BRANCH   5   9
HETATM    9  N   UNL     1     -11.315  14.411  65.572  1.00  0.00    -0.326 NA 
HETATM   10  H   UNL     1     -11.745  14.634  64.674  1.00  0.00     0.000 HD 
BRANCH   9  11
HETATM   11  C   UNL     1     -11.298  13.042  66.075  1.00  0.00    -0.310 C  
BRANCH  11  12
HETATM   12  C   UNL     1     -10.471  12.103  65.212  1.00  0.00    -0.311 A  
HETATM   13  C   UNL     1      -9.269  11.542  65.717  1.00  0.00    -0.210 A  
HETATM   14  H2  UNL     1      -7.636   9.520  67.217  1.00  0.00     0.000 HD 
HETATM   15  C   UNL     1      -8.522  10.583  64.927  1.00  0.00    -0.161 A  
HETATM   16  H1  UNL     1      -6.059   9.234  66.861  1.00  0.00     0.000 HD 
HETATM   17  C   UNL     1      -8.763  11.957  67.081  1.00  0.00    -0.176 C  
HETATM   18  C   UNL     1      -8.943  10.309  63.618  1.00  0.00    -0.240 A  
HETATM   19  N   UNL     1      -8.291   9.501  62.778  1.00  0.00    -0.156 NA 
HETATM   20  C   UNL     1     -10.110  10.881  63.147  1.00  0.00    -0.317 A  
HETATM   21  C   UNL     1     -10.882  11.741  63.926  1.00  0.00    -0.468 A  
HETATM   22  C   UNL     1      -7.191   8.908  63.225  1.00  0.00    -0.093 A  
HETATM   23  N   UNL     1      -6.733   8.994  64.468  1.00  0.00    -0.077 NA 
HETATM   24  N   UNL     1      -6.492   8.108  62.345  1.00  0.00    -0.087 NA 
HETATM   25  C   UNL     1      -7.391   9.817  65.297  1.00  0.00    -0.120 A  
HETATM   26  H2  UNL     1      -6.809   7.976  61.385  1.00  0.00     0.000 HD 
HETATM   27  H1  UNL     1      -5.647   7.652  62.689  1.00  0.00     0.000 HD 
HETATM   28  N   UNL     1      -6.874   9.786  66.595  1.00  0.00    -0.083 NA 
ENDBRANCH  11  12
ENDBRANCH   9  11
ENDBRANCH   5   9
BRANCH   8  29
HETATM   29  O   UNL     1      -9.998  16.042  69.832  1.00  0.00    -0.229 OA 
HETATM   30  C   UNL     1     -11.181  15.996  70.610  1.00  0.00    -0.372 C  
ENDBRANCH   8  29
BRANCH   7  31
HETATM   31  O   UNL     1      -9.208  18.574  68.706  1.00  0.00    -0.319 OA 
HETATM   32  C   UNL     1     -10.057  19.587  69.215  1.00  0.00    -0.214 C  
ENDBRANCH   7  31
ENDBRANCH   2   3
TORSDOF 6
ENDMDL
MODEL      132
REMARK 921   NORMALIZED FREE ENERGY PREDICTED BY IDOCK:   -5.11 KCAL/MOL
REMARK 922        TOTAL FREE ENERGY PREDICTED BY IDOCK:   -7.75 KCAL/MOL
REMARK 923 INTER-LIGAND FREE ENERGY PREDICTED BY IDOCK:   -6.90 KCAL/MOL
REMARK 924 INTRA-LIGAND FREE ENERGY PREDICTED BY IDOCK:   -0.85 KCAL/MOL
REMARK 927      BINDING AFFINITY PREDICTED BY RF-SCORE:    0.00 PKD
ROOT
HETATM    1  C   UNL     1      -7.336  14.821  69.143  1.00  0.00    -0.151 C  
HETATM    2  O   UNL     1      -8.491  15.246  68.423  1.00  0.00    -0.148 OA 
ENDROOT
BRANCH   2   3
HETATM    3  C   UNL     1      -9.118  14.299  67.651  1.00  0.00    -0.192 A  
HETATM    4  C   UNL     1      -8.437  13.131  67.266  1.00  0.00    -0.199 A  
HETATM    5  C   UNL     1      -9.044  12.132  66.506  1.00  0.00    -0.199 A  
HETATM    6  C   UNL     1     -10.357  12.352  66.100  1.00  0.00    -0.271 A  
HETATM    7  C   UNL     1     -10.470  14.483  67.280  1.00  0.00    -0.266 A  
HETATM    8  C   UNL     1     -11.084  13.489  66.492  1.00  0.00    -0.300 A  
BRANCH   5   9
HETATM    9  N   UNL     1      -8.265  11.050  66.073  1.00  0.00    -0.240 NA 
HETATM   10  H   UNL     1      -8.216  10.802  65.085  1.00  0.00     0.000 HD 
BRANCH   9  11
HETATM   11  C   UNL     1      -7.528  10.288  67.075  1.00  0.00    -0.093 C  
BRANCH  11  12
HETATM   12  C   UNL     1      -8.426   9.686  68.143  1.00  0.00    -0.118 A  
HETATM   13  C   UNL     1      -9.272   8.590  67.831  1.00  0.00    -0.148 A  
HETATM   14  H2  UNL     1      -9.929   5.683  67.473  1.00  0.00     0.000 HD 
HETATM   15  C   UNL     1     -10.068   7.962  68.867  1.00  0.00    -0.203 A  
HETATM   16  H1  UNL     1     -11.460   5.110  67.622  1.00  0.00     0.000 HD 
HETATM   17  C   UNL     1      -9.347   8.082  66.408  1.00  0.00    -0.259 C  
HETATM   18  C   UNL     1     -10.076   8.528  70.150  1.00  0.00    -0.190 A  
HETATM   19  N   UNL     1     -10.828   8.079  71.159  1.00  0.00    -0.234 NA 
HETATM   20  C   UNL     1      -9.255   9.606  70.422  1.00  0.00    -0.258 A  
HETATM   21  C   UNL     1      -8.422  10.167  69.456  1.00  0.00    -0.179 A  
HETATM   22  C   UNL     1     -11.593   7.018  70.931  1.00  0.00    -0.328 A  
HETATM   23  N   UNL     1     -11.609   6.323  69.801  1.00  0.00    -0.389 NA 
HETATM   24  N   UNL     1     -12.402   6.579  71.958  1.00  0.00    -0.476 NA 
HETATM   25  C   UNL     1     -10.859   6.791  68.794  1.00  0.00    -0.231 A  
HETATM   26  H2  UNL     1     -12.413   7.053  72.862  1.00  0.00     0.000 HD 
HETATM   27  H1  UNL     1     -12.989   5.765  71.783  1.00  0.00     0.000 HD 
HETATM   28  N   UNL     1     -10.890   5.954  67.675  1.00  0.00    -0.276 NA 
ENDBRANCH  11  12
ENDBRANCH   9  11
ENDBRANCH   5   9
BRANCH   8  29
HETATM   29  O   UNL     1     -12.364  13.445  65.993  1.00  0.00    -0.430 OA 
HETATM   30  C   UNL     1     -12.647  12.677  64.835  1.00  0.00    -0.450 C  
ENDBRANCH   8  29
BRANCH   7  31
HETATM   31  O   UNL     1     -11.251  15.561  67.600  1.00  0.00    -0.323 OA 
HETATM   32  C   UNL     1     -11.863  15.660  68.874  1.00  0.00    -0.352 C  
ENDBRANCH   7  31
ENDBRANCH   2   3
TORSDOF 6
ENDMDL
MODEL      133
REMARK 921   NORMALIZED FREE ENERGY PREDICTED BY IDOCK:   -5.10 KCAL/MOL
REMARK 922        TOTAL FREE ENERGY PREDICTED BY IDOCK:   -7.74 KCAL/MOL
REMARK 923 INTER-LIGAND FREE ENERGY PREDICTED BY IDOCK:   -7.29 KCAL/MOL
REMARK 924 INTRA-LIGAND FREE ENERGY PREDICTED BY IDOCK:   -0.45 KCAL/MOL
REMARK 927      BINDING AFFINITY PREDICTED BY RF-SCORE:    0.00 PKD
ROOT
HETATM    1  C   UNL     1     -10.713  19.133  65.582  1.00  0.00    -0.220 C  
HETATM    2  O   UNL     1      -9.883  17.998  65.819  1.00  0.00    -0.539 OA 
ENDROOT
BRANCH   2   3
HETATM    3  C   UNL     1     -10.402  17.014  66.625  1.00  0.00    -0.299 A  
HETATM    4  C   UNL     1     -10.778  15.773  66.081  1.00  0.00    -0.293 A  
HETATM    5  C   UNL     1     -11.283  14.738  66.867  1.00  0.00    -0.347 A  
HETATM    6  C   UNL     1     -11.443  14.992  68.226  1.00  0.00    -0.349 A  
HETATM    7  C   UNL     1     -10.516  17.238  68.016  1.00  0.00    -0.375 A  
HETATM    8  C   UNL     1     -11.047  16.206  68.815  1.00  0.00    -0.354 A  
BRANCH   5   9
HETATM    9  N   UNL     1     -11.734  13.572  66.234  1.00  0.00    -0.349 NA 
HETATM   10  H   UNL     1     -11.780  13.512  65.216  1.00  0.00     0.000 HD 
BRANCH   9  11
HETATM   11  C   UNL     1     -12.137  12.446  67.069  1.00  0.00    -0.011 C  
BRANCH  11  12
HETATM   12  C   UNL     1     -10.966  11.778  67.771  1.00  0.00    -0.277 A  
HETATM   13  C   UNL     1     -11.159  11.118  69.012  1.00  0.00    -0.299 A  
HETATM   14  H2  UNL     1     -11.869   8.791  70.769  1.00  0.00     0.000 HD 
HETATM   15  C   UNL     1     -10.062  10.411  69.643  1.00  0.00    -0.226 A  
HETATM   16  H1  UNL     1     -11.266   8.628  72.288  1.00  0.00     0.000 HD 
HETATM   17  C   UNL     1     -12.514  11.164  69.683  1.00  0.00    -0.195 C  
HETATM   18  C   UNL     1      -8.786  10.488  69.066  1.00  0.00    -0.169 A  
HETATM   19  N   UNL     1      -7.691   9.939  69.600  1.00  0.00    -0.131 NA 
HETATM   20  C   UNL     1      -8.623  11.151  67.864  1.00  0.00    -0.135 A  
HETATM   21  C   UNL     1      -9.687  11.765  67.205  1.00  0.00    -0.188 A  
HETATM   22  C   UNL     1      -7.833   9.262  70.733  1.00  0.00    -0.145 A  
HETATM   23  N   UNL     1      -8.992   9.022  71.334  1.00  0.00    -0.297 NA 
HETATM   24  N   UNL     1      -6.698   8.731  71.308  1.00  0.00    -0.072 NA 
HETATM   25  C   UNL     1     -10.080   9.588  70.794  1.00  0.00    -0.282 A  
HETATM   26  H2  UNL     1      -5.781   8.854  70.878  1.00  0.00     0.000 HD 
HETATM   27  H1  UNL     1      -6.806   8.211  72.178  1.00  0.00     0.000 HD 
HETATM   28  N   UNL     1     -11.253   9.221  71.459  1.00  0.00    -0.364 NA 
ENDBRANCH  11  12
ENDBRANCH   9  11
ENDBRANCH   5   9
BRANCH   8  29
HETATM   29  O   UNL     1     -11.274  16.186  70.171  1.00  0.00    -0.343 OA 
HETATM   30  C   UNL     1     -11.691  14.987  70.802  1.00  0.00    -0.320 C  
ENDBRANCH   8  29
BRANCH   7  31
HETATM   31  O   UNL     1     -10.173  18.389  68.675  1.00  0.00    -0.379 OA 
HETATM   32  C   UNL     1      -8.833  18.847  68.684  1.00  0.00    -0.338 C  
ENDBRANCH   7  31
ENDBRANCH   2   3
TORSDOF 6
ENDMDL
MODEL      134
REMARK 921   NORMALIZED FREE ENERGY PREDICTED BY IDOCK:   -5.08 KCAL/MOL
REMARK 922        TOTAL FREE ENERGY PREDICTED BY IDOCK:   -7.72 KCAL/MOL
REMARK 923 INTER-LIGAND FREE ENERGY PREDICTED BY IDOCK:   -7.39 KCAL/MOL
REMARK 924 INTRA-LIGAND FREE ENERGY PREDICTED BY IDOCK:   -0.33 KCAL/MOL
REMARK 927      BINDING AFFINITY PREDICTED BY RF-SCORE:    0.00 PKD
ROOT
HETATM    1  C   UNL     1      -9.146  16.734  68.911  1.00  0.00    -0.230 C  
HETATM    2  O   UNL     1     -10.481  16.738  69.412  1.00  0.00    -0.321 OA 
ENDROOT
BRANCH   2   3
HETATM    3  C   UNL     1     -11.067  15.512  69.611  1.00  0.00    -0.279 A  
HETATM    4  C   UNL     1     -10.784  14.440  68.745  1.00  0.00    -0.258 A  
HETATM    5  C   UNL     1     -11.335  13.172  68.927  1.00  0.00    -0.289 A  
HETATM    6  C   UNL     1     -12.220  13.010  69.988  1.00  0.00    -0.306 A  
HETATM    7  C   UNL     1     -11.923  15.318  70.719  1.00  0.00    -0.339 A  
HETATM    8  C   UNL     1     -12.503  14.045  70.897  1.00  0.00    -0.369 A  
BRANCH   5   9
HETATM    9  N   UNL     1     -11.088  12.188  67.960  1.00  0.00    -0.227 NA 
HETATM   10  H   UNL     1     -11.836  11.851  67.353  1.00  0.00     0.000 HD 
BRANCH   9  11
HETATM   11  C   UNL     1      -9.734  11.658  67.846  1.00  0.00    -0.179 C  
BRANCH  11  12
HETATM   12  C   UNL     1      -9.704  10.184  67.476  1.00  0.00    -0.190 A  
HETATM   13  C   UNL     1     -10.136   9.204  68.409  1.00  0.00    -0.220 A  
HETATM   14  H2  UNL     1     -12.168   7.488  69.798  1.00  0.00     0.000 HD 
HETATM   15  C   UNL     1     -10.185   7.806  68.031  1.00  0.00    -0.249 A  
HETATM   16  H1  UNL     1     -11.773   6.049  70.483  1.00  0.00     0.000 HD 
HETATM   17  C   UNL     1     -10.538   9.625  69.805  1.00  0.00    -0.267 C  
HETATM   18  C   UNL     1      -9.690   7.427  66.774  1.00  0.00    -0.207 A  
HETATM   19  N   UNL     1      -9.617   6.161  66.352  1.00  0.00    -0.151 NA 
HETATM   20  C   UNL     1      -9.260   8.400  65.892  1.00  0.00    -0.217 A  
HETATM   21  C   UNL     1      -9.286   9.756  66.213  1.00  0.00    -0.207 A  
HETATM   22  C   UNL     1     -10.064   5.214  67.168  1.00  0.00    -0.206 A  
HETATM   23  N   UNL     1     -10.649   5.434  68.338  1.00  0.00    -0.129 NA 
HETATM   24  N   UNL     1      -9.950   3.905  66.751  1.00  0.00    -0.350 NA 
HETATM   25  C   UNL     1     -10.705   6.707  68.755  1.00  0.00    -0.258 A  
HETATM   26  H2  UNL     1      -9.538   3.671  65.848  1.00  0.00     0.000 HD 
HETATM   27  H1  UNL     1     -10.293   3.177  67.377  1.00  0.00     0.000 HD 
HETATM   28  N   UNL     1     -11.398   6.840  69.961  1.00  0.00    -0.337 NA 
ENDBRANCH  11  12
ENDBRANCH   9  11
ENDBRANCH   5   9
BRANCH   8  29
HETATM   29  O   UNL     1     -13.372  13.615  71.871  1.00  0.00    -0.370 OA 
HETATM   30  C   UNL     1     -13.489  12.232  72.155  1.00  0.00    -0.327 C  
ENDBRANCH   8  29
BRANCH   7  31
HETATM   31  O   UNL     1     -12.267  16.267  71.644  1.00  0.00    -0.418 OA 
HETATM   32  C   UNL     1     -11.955  16.091  73.014  1.00  0.00    -0.492 C  
ENDBRANCH   7  31
ENDBRANCH   2   3
TORSDOF 6
ENDMDL
MODEL      135
REMARK 921   NORMALIZED FREE ENERGY PREDICTED BY IDOCK:   -5.07 KCAL/MOL
REMARK 922        TOTAL FREE ENERGY PREDICTED BY IDOCK:   -7.70 KCAL/MOL
REMARK 923 INTER-LIGAND FREE ENERGY PREDICTED BY IDOCK:   -7.03 KCAL/MOL
REMARK 924 INTRA-LIGAND FREE ENERGY PREDICTED BY IDOCK:   -0.67 KCAL/MOL
REMARK 927      BINDING AFFINITY PREDICTED BY RF-SCORE:    0.00 PKD
ROOT
HETATM    1  C   UNL     1     -13.119   9.867  71.695  1.00  0.00    -0.437 C  
HETATM    2  O   UNL     1     -13.272  11.255  71.981  1.00  0.00    -0.506 OA 
ENDROOT
BRANCH   2   3
HETATM    3  C   UNL     1     -12.689  12.133  71.099  1.00  0.00    -0.253 A  
HETATM    4  C   UNL     1     -11.999  11.654  69.971  1.00  0.00    -0.429 A  
HETATM    5  C   UNL     1     -11.416  12.509  69.038  1.00  0.00    -0.304 A  
HETATM    6  C   UNL     1     -11.507  13.876  69.284  1.00  0.00    -0.348 A  
HETATM    7  C   UNL     1     -12.823  13.524  71.307  1.00  0.00    -0.338 A  
HETATM    8  C   UNL     1     -12.217  14.397  70.381  1.00  0.00    -0.338 A  
BRANCH   5   9
HETATM    9  N   UNL     1     -10.656  11.954  68.000  1.00  0.00    -0.200 NA 
HETATM   10  H   UNL     1      -9.726  12.314  67.781  1.00  0.00     0.000 HD 
BRANCH   9  11
HETATM   11  C   UNL     1     -11.229  10.848  67.241  1.00  0.00    -0.233 C  
BRANCH  11  12
HETATM   12  C   UNL     1     -10.177   9.988  66.560  1.00  0.00    -0.291 A  
HETATM   13  C   UNL     1      -9.739   8.782  67.166  1.00  0.00    -0.248 A  
HETATM   14  H2  UNL     1      -9.876   5.849  67.788  1.00  0.00     0.000 HD 
HETATM   15  C   UNL     1      -8.797   7.919  66.481  1.00  0.00    -0.175 A  
HETATM   16  H1  UNL     1      -8.542   4.978  68.187  1.00  0.00     0.000 HD 
HETATM   17  C   UNL     1     -10.252   8.403  68.538  1.00  0.00    -0.228 C  
HETATM   18  C   UNL     1      -8.241   8.352  65.268  1.00  0.00    -0.151 A  
HETATM   19  N   UNL     1      -7.311   7.674  64.590  1.00  0.00    -0.079 NA 
HETATM   20  C   UNL     1      -8.675   9.539  64.708  1.00  0.00    -0.225 A  
HETATM   21  C   UNL     1      -9.641  10.337  65.316  1.00  0.00    -0.324 A  
HETATM   22  C   UNL     1      -6.911   6.511  65.089  1.00  0.00    -0.052 A  
HETATM   23  N   UNL     1      -7.421   5.932  66.169  1.00  0.00    -0.084 NA 
HETATM   24  N   UNL     1      -5.920   5.830  64.413  1.00  0.00    -0.024 NA 
HETATM   25  C   UNL     1      -8.345   6.629  66.846  1.00  0.00    -0.114 A  
HETATM   26  H2  UNL     1      -5.509   6.207  63.559  1.00  0.00     0.000 HD 
HETATM   27  H1  UNL     1      -5.613   4.937  64.796  1.00  0.00     0.000 HD 
HETATM   28  N   UNL     1      -8.867   5.908  67.924  1.00  0.00    -0.107 NA 
ENDBRANCH  11  12
ENDBRANCH   9  11
ENDBRANCH   5   9
BRANCH   8  29
HETATM   29  O   UNL     1     -12.188  15.771  70.373  1.00  0.00    -0.392 OA 
HETATM   30  C   UNL     1     -10.988  16.452  70.048  1.00  0.00    -0.318 C  
ENDBRANCH   8  29
BRANCH   7  31
HETATM   31  O   UNL     1     -13.480  14.121  72.350  1.00  0.00    -0.430 OA 
HETATM   32  C   UNL     1     -12.762  14.644  73.454  1.00  0.00    -0.408 C  
ENDBRANCH   7  31
ENDBRANCH   2   3
TORSDOF 6
ENDMDL
MODEL      136
REMARK 921   NORMALIZED FREE ENERGY PREDICTED BY IDOCK:   -5.06 KCAL/MOL
REMARK 922        TOTAL FREE ENERGY PREDICTED BY IDOCK:   -7.69 KCAL/MOL
REMARK 923 INTER-LIGAND FREE ENERGY PREDICTED BY IDOCK:   -7.01 KCAL/MOL
REMARK 924 INTRA-LIGAND FREE ENERGY PREDICTED BY IDOCK:   -0.68 KCAL/MOL
REMARK 927      BINDING AFFINITY PREDICTED BY RF-SCORE:    0.00 PKD
ROOT
HETATM    1  C   UNL     1     -12.384  11.991  63.484  1.00  0.00    -0.551 C  
HETATM    2  O   UNL     1     -11.299  12.613  64.170  1.00  0.00    -0.333 OA 
ENDROOT
BRANCH   2   3
HETATM    3  C   UNL     1     -11.494  12.896  65.500  1.00  0.00    -0.326 A  
HETATM    4  C   UNL     1     -11.646  11.856  66.434  1.00  0.00    -0.315 A  
HETATM    5  C   UNL     1     -11.818  12.098  67.796  1.00  0.00    -0.257 A  
HETATM    6  C   UNL     1     -11.875  13.428  68.202  1.00  0.00    -0.396 A  
HETATM    7  C   UNL     1     -11.497  14.241  65.934  1.00  0.00    -0.335 A  
HETATM    8  C   UNL     1     -11.694  14.497  67.307  1.00  0.00    -0.406 A  
BRANCH   5   9
HETATM    9  N   UNL     1     -12.069  11.013  68.645  1.00  0.00    -0.748 NA 
HETATM   10  H   UNL     1     -12.969  10.532  68.630  1.00  0.00     0.000 HD 
BRANCH   9  11
HETATM   11  C   UNL     1     -11.009  10.588  69.553  1.00  0.00    -0.264 C  
BRANCH  11  12
HETATM   12  C   UNL     1     -10.816   9.081  69.577  1.00  0.00    -0.177 A  
HETATM   13  C   UNL     1      -9.950   8.457  68.641  1.00  0.00    -0.197 A  
HETATM   14  H2  UNL     1      -7.300   7.484  67.622  1.00  0.00     0.000 HD 
HETATM   15  C   UNL     1      -9.701   7.031  68.712  1.00  0.00    -0.143 A  
HETATM   16  H1  UNL     1      -7.177   6.236  66.562  1.00  0.00     0.000 HD 
HETATM   17  C   UNL     1      -9.294   9.286  67.558  1.00  0.00    -0.148 C  
HETATM   18  C   UNL     1     -10.416   6.265  69.644  1.00  0.00    -0.238 A  
HETATM   19  N   UNL     1     -10.322   4.936  69.748  1.00  0.00    -0.223 NA 
HETATM   20  C   UNL     1     -11.265   6.897  70.534  1.00  0.00    -0.353 A  
HETATM   21  C   UNL     1     -11.450   8.278  70.529  1.00  0.00    -0.180 A  
HETATM   22  C   UNL     1      -9.480   4.314  68.931  1.00  0.00    -0.168 A  
HETATM   23  N   UNL     1      -8.668   4.919  68.073  1.00  0.00    -0.102 NA 
HETATM   24  N   UNL     1      -9.413   2.939  69.007  1.00  0.00    -0.146 NA 
HETATM   25  C   UNL     1      -8.782   6.251  67.972  1.00  0.00    -0.114 A  
HETATM   26  H2  UNL     1      -9.990   2.417  69.667  1.00  0.00     0.000 HD 
HETATM   27  H1  UNL     1      -8.767   2.461  68.380  1.00  0.00     0.000 HD 
HETATM   28  N   UNL     1      -7.840   6.798  67.096  1.00  0.00    -0.110 NA 
ENDBRANCH  11  12
ENDBRANCH   9  11
ENDBRANCH   5   9
BRANCH   8  29
HETATM   29  O   UNL     1     -11.756  15.701  67.965  1.00  0.00    -0.306 OA 
HETATM   30  C   UNL     1     -10.613  16.200  68.639  1.00  0.00    -0.283 C  
ENDBRANCH   8  29
BRANCH   7  31
HETATM   31  O   UNL     1     -11.344  15.343  65.136  1.00  0.00    -0.340 OA 
HETATM   32  C   UNL     1     -12.325  15.681  64.172  1.00  0.00     0.149 C  
ENDBRANCH   7  31
ENDBRANCH   2   3
TORSDOF 6
ENDMDL
MODEL      137
REMARK 921   NORMALIZED FREE ENERGY PREDICTED BY IDOCK:   -5.05 KCAL/MOL
REMARK 922        TOTAL FREE ENERGY PREDICTED BY IDOCK:   -7.67 KCAL/MOL
REMARK 923 INTER-LIGAND FREE ENERGY PREDICTED BY IDOCK:   -7.03 KCAL/MOL
REMARK 924 INTRA-LIGAND FREE ENERGY PREDICTED BY IDOCK:   -0.64 KCAL/MOL
REMARK 927      BINDING AFFINITY PREDICTED BY RF-SCORE:    0.00 PKD
ROOT
HETATM    1  C   UNL     1      -6.829   7.694  69.868  1.00  0.00    -0.047 C  
HETATM    2  O   UNL     1      -8.170   7.316  70.171  1.00  0.00    -0.129 OA 
ENDROOT
BRANCH   2   3
HETATM    3  C   UNL     1      -9.041   7.235  69.111  1.00  0.00    -0.137 A  
HETATM    4  C   UNL     1      -9.625   8.398  68.580  1.00  0.00    -0.153 A  
HETATM    5  C   UNL     1     -10.491   8.364  67.489  1.00  0.00    -0.257 A  
HETATM    6  C   UNL     1     -10.794   7.113  66.957  1.00  0.00    -0.382 A  
HETATM    7  C   UNL     1      -9.312   5.977  68.526  1.00  0.00    -0.117 A  
HETATM    8  C   UNL     1     -10.205   5.930  67.436  1.00  0.00    -0.194 A  
BRANCH   5   9
HETATM    9  N   UNL     1     -11.115   9.552  67.088  1.00  0.00    -0.218 NA 
HETATM   10  H   UNL     1     -11.485   9.658  66.142  1.00  0.00     0.000 HD 
BRANCH   9  11
HETATM   11  C   UNL     1     -11.223  10.636  68.058  1.00  0.00    -0.307 C  
BRANCH  11  12
HETATM   12  C   UNL     1     -11.007  12.008  67.442  1.00  0.00    -0.311 A  
HETATM   13  C   UNL     1     -11.268  13.180  68.199  1.00  0.00    -0.304 A  
HETATM   14  H2  UNL     1     -10.588  15.368  70.137  1.00  0.00     0.000 HD 
HETATM   15  C   UNL     1     -10.986  14.489  67.642  1.00  0.00    -0.293 A  
HETATM   16  H1  UNL     1     -11.327  16.834  70.093  1.00  0.00     0.000 HD 
HETATM   17  C   UNL     1     -11.852  13.060  69.589  1.00  0.00    -0.385 C  
HETATM   18  C   UNL     1     -10.563  14.580  66.308  1.00  0.00    -0.304 A  
HETATM   19  N   UNL     1     -10.347  15.734  65.671  1.00  0.00    -0.363 NA 
HETATM   20  C   UNL     1     -10.332  13.422  65.589  1.00  0.00    -0.295 A  
HETATM   21  C   UNL     1     -10.520  12.156  66.140  1.00  0.00    -0.281 A  
HETATM   22  C   UNL     1     -10.522  16.857  66.357  1.00  0.00    -0.252 A  
HETATM   23  N   UNL     1     -10.820  16.919  67.648  1.00  0.00    -0.293 NA 
HETATM   24  N   UNL     1     -10.341  18.050  65.689  1.00  0.00    -0.615 NA 
HETATM   25  C   UNL     1     -11.046  15.754  68.272  1.00  0.00    -0.342 A  
HETATM   26  H2  UNL     1     -10.080  18.069  64.703  1.00  0.00     0.000 HD 
HETATM   27  H1  UNL     1     -10.475  18.912  66.215  1.00  0.00     0.000 HD 
HETATM   28  N   UNL     1     -11.284  15.922  69.639  1.00  0.00    -0.305 NA 
ENDBRANCH  11  12
ENDBRANCH   9  11
ENDBRANCH   5   9
BRANCH   8  29
HETATM   29  O   UNL     1     -10.640   4.843  66.717  1.00  0.00    -0.226 OA 
HETATM   30  C   UNL     1      -9.917   4.412  65.576  1.00  0.00    -0.230 C  
ENDBRANCH   8  29
BRANCH   7  31
HETATM   31  O   UNL     1      -8.799   4.774  68.932  1.00  0.00    -0.091 OA 
HETATM   32  C   UNL     1      -9.577   3.879  69.705  1.00  0.00    -0.201 C  
ENDBRANCH   7  31
ENDBRANCH   2   3
TORSDOF 6
ENDMDL
MODEL      138
REMARK 921   NORMALIZED FREE ENERGY PREDICTED BY IDOCK:   -5.04 KCAL/MOL
REMARK 922        TOTAL FREE ENERGY PREDICTED BY IDOCK:   -7.66 KCAL/MOL
REMARK 923 INTER-LIGAND FREE ENERGY PREDICTED BY IDOCK:   -6.89 KCAL/MOL
REMARK 924 INTRA-LIGAND FREE ENERGY PREDICTED BY IDOCK:   -0.76 KCAL/MOL
REMARK 927      BINDING AFFINITY PREDICTED BY RF-SCORE:    0.00 PKD
ROOT
HETATM    1  C   UNL     1     -11.770  12.845  63.546  1.00  0.00    -0.512 C  
HETATM    2  O   UNL     1     -11.988  13.930  64.445  1.00  0.00    -0.412 OA 
ENDROOT
BRANCH   2   3
HETATM    3  C   UNL     1     -11.737  13.688  65.774  1.00  0.00    -0.348 A  
HETATM    4  C   UNL     1     -11.973  12.415  66.322  1.00  0.00    -0.369 A  
HETATM    5  C   UNL     1     -11.706  12.118  67.657  1.00  0.00    -0.316 A  
HETATM    6  C   UNL     1     -11.227  13.154  68.454  1.00  0.00    -0.305 A  
HETATM    7  C   UNL     1     -11.195  14.715  66.580  1.00  0.00    -0.349 A  
HETATM    8  C   UNL     1     -10.944  14.431  67.938  1.00  0.00    -0.262 A  
BRANCH   5   9
HETATM    9  N   UNL     1     -12.070  10.859  68.152  1.00  0.00    -0.790 NA 
HETATM   10  H   UNL     1     -12.924  10.399  67.837  1.00  0.00     0.000 HD 
BRANCH   9  11
HETATM   11  C   UNL     1     -11.193  10.223  69.130  1.00  0.00    -0.215 C  
BRANCH  11  12
HETATM   12  C   UNL     1     -10.410   9.055  68.553  1.00  0.00    -0.233 A  
HETATM   13  C   UNL     1      -9.857   8.071  69.414  1.00  0.00    -0.181 A  
HETATM   14  H2  UNL     1      -9.908   5.555  71.049  1.00  0.00     0.000 HD 
HETATM   15  C   UNL     1      -9.179   6.915  68.863  1.00  0.00    -0.132 A  
HETATM   16  H1  UNL     1      -8.546   4.698  71.375  1.00  0.00     0.000 HD 
HETATM   17  C   UNL     1      -9.969   8.239  70.914  1.00  0.00    -0.223 C  
HETATM   18  C   UNL     1      -8.979   6.844  67.477  1.00  0.00    -0.116 A  
HETATM   19  N   UNL     1      -8.305   5.864  66.869  1.00  0.00    -0.109 NA 
HETATM   20  C   UNL     1      -9.515   7.825  66.663  1.00  0.00    -0.263 A  
HETATM   21  C   UNL     1     -10.240   8.899  67.174  1.00  0.00    -0.339 A  
HETATM   22  C   UNL     1      -7.818   4.890  67.628  1.00  0.00    -0.094 A  
HETATM   23  N   UNL     1      -8.017   4.774  68.935  1.00  0.00    -0.075 NA 
HETATM   24  N   UNL     1      -7.085   3.900  67.008  1.00  0.00    -0.062 NA 
HETATM   25  C   UNL     1      -8.686   5.770  69.534  1.00  0.00    -0.111 A  
HETATM   26  H2  UNL     1      -6.923   3.915  66.001  1.00  0.00     0.000 HD 
HETATM   27  H1  UNL     1      -6.712   3.152  67.591  1.00  0.00     0.000 HD 
HETATM   28  N   UNL     1      -8.902   5.523  70.892  1.00  0.00    -0.137 NA 
ENDBRANCH  11  12
ENDBRANCH   9  11
ENDBRANCH   5   9
BRANCH   8  29
HETATM   29  O   UNL     1     -10.445  15.253  68.920  1.00  0.00    -0.225 OA 
HETATM   30  C   UNL     1      -9.089  15.140  69.318  1.00  0.00    -0.201 C  
ENDBRANCH   8  29
BRANCH   7  31
HETATM   31  O   UNL     1     -10.903  15.988  66.171  1.00  0.00    -0.281 OA 
HETATM   32  C   UNL     1      -9.596  16.331  65.747  1.00  0.00    -0.231 C  
ENDBRANCH   7  31
ENDBRANCH   2   3
TORSDOF 6
ENDMDL
MODEL      139
REMARK 921   NORMALIZED FREE ENERGY PREDICTED BY IDOCK:   -5.03 KCAL/MOL
REMARK 922        TOTAL FREE ENERGY PREDICTED BY IDOCK:   -7.65 KCAL/MOL
REMARK 923 INTER-LIGAND FREE ENERGY PREDICTED BY IDOCK:   -6.59 KCAL/MOL
REMARK 924 INTRA-LIGAND FREE ENERGY PREDICTED BY IDOCK:   -1.05 KCAL/MOL
REMARK 927      BINDING AFFINITY PREDICTED BY RF-SCORE:    0.00 PKD
ROOT
HETATM    1  C   UNL     1     -11.997  12.102  69.848  1.00  0.00    -0.309 C  
HETATM    2  O   UNL     1     -12.256  11.925  68.457  1.00  0.00    -0.391 OA 
ENDROOT
BRANCH   2   3
HETATM    3  C   UNL     1     -11.160  11.838  67.633  1.00  0.00    -0.252 A  
HETATM    4  C   UNL     1      -9.904  11.481  68.156  1.00  0.00    -0.197 A  
HETATM    5  C   UNL     1      -8.773  11.354  67.352  1.00  0.00    -0.145 A  
HETATM    6  C   UNL     1      -8.921  11.635  65.997  1.00  0.00    -0.149 A  
HETATM    7  C   UNL     1     -11.309  12.064  66.246  1.00  0.00    -0.357 A  
HETATM    8  C   UNL     1     -10.165  11.960  65.429  1.00  0.00    -0.263 A  
BRANCH   5   9
HETATM    9  N   UNL     1      -7.538  11.101  67.964  1.00  0.00    -0.097 NA 
HETATM   10  H   UNL     1      -6.937  11.867  68.269  1.00  0.00     0.000 HD 
BRANCH   9  11
HETATM   11  C   UNL     1      -7.135   9.712  68.155  1.00  0.00    -0.079 C  
BRANCH  11  12
HETATM   12  C   UNL     1      -7.883   9.026  69.286  1.00  0.00    -0.095 A  
HETATM   13  C   UNL     1      -8.845   8.022  69.001  1.00  0.00    -0.145 A  
HETATM   14  H2  UNL     1      -9.760   5.222  68.427  1.00  0.00     0.000 HD 
HETATM   15  C   UNL     1      -9.501   7.310  70.080  1.00  0.00    -0.165 A  
HETATM   16  H1  UNL     1     -11.282   4.713  68.774  1.00  0.00     0.000 HD 
HETATM   17  C   UNL     1      -9.194   7.704  67.563  1.00  0.00    -0.145 C  
HETATM   18  C   UNL     1      -9.254   7.708  71.402  1.00  0.00    -0.136 A  
HETATM   19  N   UNL     1      -9.858   7.173  72.467  1.00  0.00    -0.153 NA 
HETATM   20  C   UNL     1      -8.323   8.699  71.650  1.00  0.00    -0.216 A  
HETATM   21  C   UNL     1      -7.625   9.335  70.625  1.00  0.00    -0.161 A  
HETATM   22  C   UNL     1     -10.724   6.190  72.254  1.00  0.00    -0.229 A  
HETATM   23  N   UNL     1     -10.978   5.645  71.071  1.00  0.00    -0.221 NA 
HETATM   24  N   UNL     1     -11.379   5.666  73.348  1.00  0.00    -0.473 NA 
HETATM   25  C   UNL     1     -10.375   6.199  70.010  1.00  0.00    -0.209 A  
HETATM   26  H2  UNL     1     -11.205   6.021  74.289  1.00  0.00     0.000 HD 
HETATM   27  H1  UNL     1     -12.045   4.911  73.185  1.00  0.00     0.000 HD 
HETATM   28  N   UNL     1     -10.653   5.513  68.824  1.00  0.00    -0.197 NA 
ENDBRANCH  11  12
ENDBRANCH   9  11
ENDBRANCH   5   9
BRANCH   8  29
HETATM   29  O   UNL     1     -10.047  12.150  64.073  1.00  0.00    -0.328 OA 
HETATM   30  C   UNL     1      -9.880  11.036  63.213  1.00  0.00    -0.368 C  
ENDBRANCH   8  29
BRANCH   7  31
HETATM   31  O   UNL     1     -12.473  12.400  65.607  1.00  0.00    -0.640 OA 
HETATM   32  C   UNL     1     -12.785  13.754  65.334  1.00  0.00    -0.472 C  
ENDBRANCH   7  31
ENDBRANCH   2   3
TORSDOF 6
ENDMDL
MODEL      140
REMARK 921   NORMALIZED FREE ENERGY PREDICTED BY IDOCK:   -5.03 KCAL/MOL
REMARK 922        TOTAL FREE ENERGY PREDICTED BY IDOCK:   -7.64 KCAL/MOL
REMARK 923 INTER-LIGAND FREE ENERGY PREDICTED BY IDOCK:   -6.92 KCAL/MOL
REMARK 924 INTRA-LIGAND FREE ENERGY PREDICTED BY IDOCK:   -0.72 KCAL/MOL
REMARK 927      BINDING AFFINITY PREDICTED BY RF-SCORE:    0.00 PKD
ROOT
HETATM    1  C   UNL     1     -12.780  11.358  71.791  1.00  0.00    -0.254 C  
HETATM    2  O   UNL     1     -12.390  12.507  71.041  1.00  0.00    -0.351 OA 
ENDROOT
BRANCH   2   3
HETATM    3  C   UNL     1     -12.060  12.298  69.724  1.00  0.00    -0.229 A  
HETATM    4  C   UNL     1     -11.667  11.022  69.282  1.00  0.00    -0.397 A  
HETATM    5  C   UNL     1     -11.351  10.761  67.950  1.00  0.00    -0.299 A  
HETATM    6  C   UNL     1     -11.400  11.832  67.063  1.00  0.00    -0.387 A  
HETATM    7  C   UNL     1     -12.162  13.364  68.801  1.00  0.00    -0.115 A  
HETATM    8  C   UNL     1     -11.821  13.115  67.456  1.00  0.00    -0.360 A  
BRANCH   5   9
HETATM    9  N   UNL     1     -10.865   9.491  67.611  1.00  0.00    -0.444 NA 
HETATM   10  H   UNL     1     -11.327   8.926  66.898  1.00  0.00     0.000 HD 
BRANCH   9  11
HETATM   11  C   UNL     1      -9.681   8.998  68.306  1.00  0.00    -0.152 C  
BRANCH  11  12
HETATM   12  C   UNL     1     -10.004   7.957  69.365  1.00  0.00    -0.189 A  
HETATM   13  C   UNL     1      -9.387   8.021  70.642  1.00  0.00    -0.162 A  
HETATM   14  H2  UNL     1      -9.115   8.949  73.483  1.00  0.00     0.000 HD 
HETATM   15  C   UNL     1      -9.755   7.078  71.680  1.00  0.00    -0.164 A  
HETATM   16  H1  UNL     1      -8.335   8.058  74.621  1.00  0.00     0.000 HD 
HETATM   17  C   UNL     1      -8.334   9.073  70.914  1.00  0.00    -0.238 C  
HETATM   18  C   UNL     1     -10.640   6.037  71.366  1.00  0.00    -0.246 A  
HETATM   19  N   UNL     1     -10.989   5.072  72.221  1.00  0.00    -0.145 NA 
HETATM   20  C   UNL     1     -11.214   5.990  70.110  1.00  0.00    -0.412 A  
HETATM   21  C   UNL     1     -10.932   6.938  69.129  1.00  0.00    -0.240 A  
HETATM   22  C   UNL     1     -10.482   5.122  73.447  1.00  0.00    -0.232 A  
HETATM   23  N   UNL     1      -9.716   6.101  73.911  1.00  0.00    -0.170 NA 
HETATM   24  N   UNL     1     -10.807   4.104  74.317  1.00  0.00    -0.198 NA 
HETATM   25  C   UNL     1      -9.364   7.057  73.040  1.00  0.00    -0.147 A  
HETATM   26  H2  UNL     1     -11.417   3.338  74.030  1.00  0.00     0.000 HD 
HETATM   27  H1  UNL     1     -10.418   4.142  75.258  1.00  0.00     0.000 HD 
HETATM   28  N   UNL     1      -8.617   8.074  73.641  1.00  0.00    -0.248 NA 
ENDBRANCH  11  12
ENDBRANCH   9  11
ENDBRANCH   5   9
BRANCH   8  29
HETATM   29  O   UNL     1     -11.818  13.978  66.387  1.00  0.00    -0.377 OA 
HETATM   30  C   UNL     1     -10.734  13.970  65.474  1.00  0.00    -0.313 C  
ENDBRANCH   8  29
BRANCH   7  31
HETATM   31  O   UNL     1     -12.546  14.646  69.093  1.00  0.00    -0.054 OA 
HETATM   32  C   UNL     1     -11.628  15.719  68.992  1.00  0.00    -0.400 C  
ENDBRANCH   7  31
ENDBRANCH   2   3
TORSDOF 6
ENDMDL
MODEL      141
REMARK 921   NORMALIZED FREE ENERGY PREDICTED BY IDOCK:   -5.03 KCAL/MOL
REMARK 922        TOTAL FREE ENERGY PREDICTED BY IDOCK:   -7.64 KCAL/MOL
REMARK 923 INTER-LIGAND FREE ENERGY PREDICTED BY IDOCK:   -7.01 KCAL/MOL
REMARK 924 INTRA-LIGAND FREE ENERGY PREDICTED BY IDOCK:   -0.63 KCAL/MOL
REMARK 927      BINDING AFFINITY PREDICTED BY RF-SCORE:    0.00 PKD
ROOT
HETATM    1  C   UNL     1     -10.485   5.377  66.474  1.00  0.00    -0.294 C  
HETATM    2  O   UNL     1     -10.568   5.366  67.898  1.00  0.00    -0.176 OA 
ENDROOT
BRANCH   2   3
HETATM    3  C   UNL     1      -9.764   6.256  68.567  1.00  0.00    -0.129 A  
HETATM    4  C   UNL     1     -10.144   7.605  68.690  1.00  0.00    -0.201 A  
HETATM    5  C   UNL     1      -9.372   8.535  69.384  1.00  0.00    -0.154 A  
HETATM    6  C   UNL     1      -8.171   8.086  69.927  1.00  0.00    -0.119 A  
HETATM    7  C   UNL     1      -8.570   5.801  69.172  1.00  0.00    -0.110 A  
HETATM    8  C   UNL     1      -7.771   6.740  69.856  1.00  0.00    -0.109 A  
BRANCH   5   9
HETATM    9  N   UNL     1      -9.766   9.879  69.370  1.00  0.00    -0.201 NA 
HETATM   10  H   UNL     1      -9.106  10.621  69.606  1.00  0.00     0.000 HD 
BRANCH   9  11
HETATM   11  C   UNL     1     -11.144  10.190  69.010  1.00  0.00    -0.205 C  
BRANCH  11  12
HETATM   12  C   UNL     1     -11.271  11.468  68.195  1.00  0.00    -0.335 A  
HETATM   13  C   UNL     1     -11.150  11.429  66.782  1.00  0.00    -0.343 A  
HETATM   14  H2  UNL     1     -12.159  11.072  63.978  1.00  0.00     0.000 HD 
HETATM   15  C   UNL     1     -11.351  12.631  65.997  1.00  0.00    -0.369 A  
HETATM   16  H1  UNL     1     -11.438  11.796  62.692  1.00  0.00     0.000 HD 
HETATM   17  C   UNL     1     -10.798  10.127  66.095  1.00  0.00     0.097 C  
HETATM   18  C   UNL     1     -11.552  13.848  66.663  1.00  0.00    -0.374 A  
HETATM   19  N   UNL     1     -11.674  15.026  66.044  1.00  0.00    -0.176 NA 
HETATM   20  C   UNL     1     -11.651  13.859  68.042  1.00  0.00    -0.368 A  
HETATM   21  C   UNL     1     -11.542  12.697  68.803  1.00  0.00    -0.355 A  
HETATM   22  C   UNL     1     -11.625  15.032  64.718  1.00  0.00    -0.395 A  
HETATM   23  N   UNL     1     -11.542  13.948  63.956  1.00  0.00    -0.293 NA 
HETATM   24  N   UNL     1     -11.708  16.251  64.079  1.00  0.00    -1.427 NA 
HETATM   25  C   UNL     1     -11.408  12.774  64.590  1.00  0.00    -0.321 A  
HETATM   26  H2  UNL     1     -11.804  17.119  64.607  1.00  0.00     0.000 HD 
HETATM   27  H1  UNL     1     -11.670  16.256  63.061  1.00  0.00     0.000 HD 
HETATM   28  N   UNL     1     -11.397  11.692  63.706  1.00  0.00    -0.411 NA 
ENDBRANCH  11  12
ENDBRANCH   9  11
ENDBRANCH   5   9
BRANCH   8  29
HETATM   29  O   UNL     1      -6.573   6.553  70.502  1.00  0.00    -0.046 OA 
HETATM   30  C   UNL     1      -6.019   7.597  71.284  1.00  0.00    -0.035 C  
ENDBRANCH   8  29
BRANCH   7  31
HETATM   31  O   UNL     1      -8.094   4.518  69.143  1.00  0.00    -0.069 OA 
HETATM   32  C   UNL     1      -8.799   3.467  69.779  1.00  0.00    -0.090 C  
ENDBRANCH   7  31
ENDBRANCH   2   3
TORSDOF 6
ENDMDL
MODEL      142
REMARK 921   NORMALIZED FREE ENERGY PREDICTED BY IDOCK:   -5.01 KCAL/MOL
REMARK 922        TOTAL FREE ENERGY PREDICTED BY IDOCK:   -7.62 KCAL/MOL
REMARK 923 INTER-LIGAND FREE ENERGY PREDICTED BY IDOCK:   -7.04 KCAL/MOL
REMARK 924 INTRA-LIGAND FREE ENERGY PREDICTED BY IDOCK:   -0.58 KCAL/MOL
REMARK 927      BINDING AFFINITY PREDICTED BY RF-SCORE:    0.00 PKD
ROOT
HETATM    1  C   UNL     1     -14.316   8.518  71.890  1.00  0.00    -0.448 C  
HETATM    2  O   UNL     1     -13.167   8.417  72.728  1.00  0.00    -0.151 OA 
ENDROOT
BRANCH   2   3
HETATM    3  C   UNL     1     -11.955   8.707  72.149  1.00  0.00    -0.379 A  
HETATM    4  C   UNL     1     -11.856   9.713  71.172  1.00  0.00    -0.448 A  
HETATM    5  C   UNL     1     -10.643  10.058  70.579  1.00  0.00    -0.246 A  
HETATM    6  C   UNL     1      -9.519   9.332  70.964  1.00  0.00    -0.313 A  
HETATM    7  C   UNL     1     -10.796   8.017  72.573  1.00  0.00    -0.349 A  
HETATM    8  C   UNL     1      -9.568   8.343  71.961  1.00  0.00    -0.274 A  
BRANCH   5   9
HETATM    9  N   UNL     1     -10.646  10.996  69.538  1.00  0.00    -0.409 NA 
HETATM   10  H   UNL     1     -10.135  11.875  69.623  1.00  0.00     0.000 HD 
BRANCH   9  11
HETATM   11  C   UNL     1     -11.398  10.681  68.329  1.00  0.00    -0.289 C  
BRANCH  11  12
HETATM   12  C   UNL     1     -10.578   9.920  67.300  1.00  0.00    -0.316 A  
HETATM   13  C   UNL     1     -10.366  10.469  66.008  1.00  0.00    -0.279 A  
HETATM   14  H2  UNL     1      -8.954  12.169  63.977  1.00  0.00     0.000 HD 
HETATM   15  C   UNL     1      -9.517   9.784  65.053  1.00  0.00    -0.337 A  
HETATM   16  H1  UNL     1      -8.994  11.825  62.372  1.00  0.00     0.000 HD 
HETATM   17  C   UNL     1     -11.039  11.769  65.626  1.00  0.00    -0.340 C  
HETATM   18  C   UNL     1      -9.005   8.522  65.385  1.00  0.00    -0.099 A  
HETATM   19  N   UNL     1      -8.275   7.770  64.556  1.00  0.00    -0.103 NA 
HETATM   20  C   UNL     1      -9.240   8.004  66.646  1.00  0.00    -0.225 A  
HETATM   21  C   UNL     1      -9.987   8.690  67.602  1.00  0.00    -0.248 A  
HETATM   22  C   UNL     1      -8.003   8.267  63.356  1.00  0.00    -0.155 A  
HETATM   23  N   UNL     1      -8.333   9.485  62.945  1.00  0.00    -0.159 NA 
HETATM   24  N   UNL     1      -7.286   7.476  62.483  1.00  0.00    -0.080 NA 
HETATM   25  C   UNL     1      -9.075  10.223  63.782  1.00  0.00    -0.256 A  
HETATM   26  H2  UNL     1      -6.975   6.541  62.750  1.00  0.00     0.000 HD 
HETATM   27  H1  UNL     1      -7.076   7.857  61.561  1.00  0.00     0.000 HD 
HETATM   28  N   UNL     1      -9.312  11.508  63.287  1.00  0.00    -0.253 NA 
ENDBRANCH  11  12
ENDBRANCH   9  11
ENDBRANCH   5   9
BRANCH   8  29
HETATM   29  O   UNL     1      -8.321   7.810  72.181  1.00  0.00    -0.104 OA 
HETATM   30  C   UNL     1      -7.602   8.150  73.354  1.00  0.00    -0.150 C  
ENDBRANCH   8  29
BRANCH   7  31
HETATM   31  O   UNL     1     -10.749   7.032  73.522  1.00  0.00    -0.349 OA 
HETATM   32  C   UNL     1     -10.846   5.667  73.155  1.00  0.00    -0.281 C  
ENDBRANCH   7  31
ENDBRANCH   2   3
TORSDOF 6
ENDMDL
MODEL      143
REMARK 921   NORMALIZED FREE ENERGY PREDICTED BY IDOCK:   -5.01 KCAL/MOL
REMARK 922        TOTAL FREE ENERGY PREDICTED BY IDOCK:   -7.62 KCAL/MOL
REMARK 923 INTER-LIGAND FREE ENERGY PREDICTED BY IDOCK:   -6.76 KCAL/MOL
REMARK 924 INTRA-LIGAND FREE ENERGY PREDICTED BY IDOCK:   -0.85 KCAL/MOL
REMARK 927      BINDING AFFINITY PREDICTED BY RF-SCORE:    0.00 PKD
ROOT
HETATM    1  C   UNL     1      -8.929   5.671  65.072  1.00  0.00     0.061 C  
HETATM    2  O   UNL     1      -8.884   5.807  66.491  1.00  0.00    -0.120 OA 
ENDROOT
BRANCH   2   3
HETATM    3  C   UNL     1      -9.249   7.028  67.003  1.00  0.00    -0.147 A  
HETATM    4  C   UNL     1      -9.493   8.115  66.145  1.00  0.00    -0.217 A  
HETATM    5  C   UNL     1      -9.893   9.363  66.621  1.00  0.00    -0.245 A  
HETATM    6  C   UNL     1     -10.005   9.511  68.000  1.00  0.00    -0.198 A  
HETATM    7  C   UNL     1      -9.423   7.176  68.398  1.00  0.00    -0.138 A  
HETATM    8  C   UNL     1      -9.804   8.441  68.890  1.00  0.00    -0.180 A  
BRANCH   5   9
HETATM    9  N   UNL     1     -10.011  10.422  65.712  1.00  0.00    -0.255 NA 
HETATM   10  H   UNL     1      -9.251  10.651  65.071  1.00  0.00     0.000 HD 
BRANCH   9  11
HETATM   11  C   UNL     1     -11.252  11.190  65.705  1.00  0.00     0.069 C  
BRANCH  11  12
HETATM   12  C   UNL     1     -11.021  12.691  65.761  1.00  0.00    -0.313 A  
HETATM   13  C   UNL     1     -11.264  13.407  66.962  1.00  0.00    -0.328 A  
HETATM   14  H2  UNL     1     -10.550  14.499  69.665  1.00  0.00     0.000 HD 
HETATM   15  C   UNL     1     -10.968  14.824  67.043  1.00  0.00    -0.324 A  
HETATM   16  H1  UNL     1     -11.270  15.839  70.283  1.00  0.00     0.000 HD 
HETATM   17  C   UNL     1     -11.845  12.687  68.160  1.00  0.00    -0.366 C  
HETATM   18  C   UNL     1     -10.548  15.494  65.884  1.00  0.00    -0.339 A  
HETATM   19  N   UNL     1     -10.319  16.809  65.824  1.00  0.00    -0.505 NA 
HETATM   20  C   UNL     1     -10.334  14.775  64.723  1.00  0.00    -0.260 A  
HETATM   21  C   UNL     1     -10.537  13.397  64.656  1.00  0.00    -0.431 A  
HETATM   22  C   UNL     1     -10.478  17.512  66.939  1.00  0.00    -0.285 A  
HETATM   23  N   UNL     1     -10.771  16.996  68.127  1.00  0.00    -0.371 NA 
HETATM   24  N   UNL     1     -10.284  18.875  66.870  1.00  0.00    -0.360 NA 
HETATM   25  C   UNL     1     -11.009  15.678  68.170  1.00  0.00    -0.314 A  
HETATM   26  H2  UNL     1     -10.027  19.329  65.992  1.00  0.00     0.000 HD 
HETATM   27  H1  UNL     1     -10.406  19.415  67.726  1.00  0.00     0.000 HD 
HETATM   28  N   UNL     1     -11.240  15.224  69.471  1.00  0.00    -0.261 NA 
ENDBRANCH  11  12
ENDBRANCH   9  11
ENDBRANCH   5   9
BRANCH   8  29
HETATM   29  O   UNL     1     -10.016   8.840  70.188  1.00  0.00    -0.176 OA 
HETATM   30  C   UNL     1     -11.032   9.783  70.483  1.00  0.00    -0.321 C  
ENDBRANCH   8  29
BRANCH   7  31
HETATM   31  O   UNL     1      -9.236   6.200  69.339  1.00  0.00    -0.133 OA 
HETATM   32  C   UNL     1     -10.322   5.412  69.793  1.00  0.00    -0.305 C  
ENDBRANCH   7  31
ENDBRANCH   2   3
TORSDOF 6
ENDMDL
MODEL      144
REMARK 921   NORMALIZED FREE ENERGY PREDICTED BY IDOCK:   -5.00 KCAL/MOL
REMARK 922        TOTAL FREE ENERGY PREDICTED BY IDOCK:   -7.61 KCAL/MOL
REMARK 923 INTER-LIGAND FREE ENERGY PREDICTED BY IDOCK:   -6.99 KCAL/MOL
REMARK 924 INTRA-LIGAND FREE ENERGY PREDICTED BY IDOCK:   -0.62 KCAL/MOL
REMARK 927      BINDING AFFINITY PREDICTED BY RF-SCORE:    0.00 PKD
ROOT
HETATM    1  C   UNL     1     -12.118  13.087  63.494  1.00  0.00    -0.542 C  
HETATM    2  O   UNL     1     -12.356  14.019  64.547  1.00  0.00    -0.525 OA 
ENDROOT
BRANCH   2   3
HETATM    3  C   UNL     1     -11.936  13.649  65.801  1.00  0.00    -0.395 A  
HETATM    4  C   UNL     1     -11.904  12.292  66.169  1.00  0.00    -0.398 A  
HETATM    5  C   UNL     1     -11.459  11.871  67.421  1.00  0.00    -0.323 A  
HETATM    6  C   UNL     1     -11.079  12.859  68.325  1.00  0.00    -0.294 A  
HETATM    7  C   UNL     1     -11.493  14.638  66.709  1.00  0.00    -0.364 A  
HETATM    8  C   UNL     1     -11.064  14.223  67.986  1.00  0.00    -0.269 A  
BRANCH   5   9
HETATM    9  N   UNL     1     -11.558  10.513  67.748  1.00  0.00    -0.667 NA 
HETATM   10  H   UNL     1     -12.454  10.026  67.702  1.00  0.00     0.000 HD 
BRANCH   9  11
HETATM   11  C   UNL     1     -10.347   9.811  68.158  1.00  0.00    -0.202 C  
BRANCH  11  12
HETATM   12  C   UNL     1     -10.287   8.381  67.647  1.00  0.00    -0.317 A  
HETATM   13  C   UNL     1      -9.458   8.050  66.544  1.00  0.00    -0.278 A  
HETATM   14  H2  UNL     1      -6.881   7.261  65.224  1.00  0.00     0.000 HD 
HETATM   15  C   UNL     1      -9.337   6.673  66.107  1.00  0.00    -0.097 A  
HETATM   16  H1  UNL     1      -6.843   6.460  63.791  1.00  0.00     0.000 HD 
HETATM   17  C   UNL     1      -8.706   9.143  65.816  1.00  0.00    -0.192 C  
HETATM   18  C   UNL     1     -10.138   5.697  66.716  1.00  0.00    -0.197 A  
HETATM   19  N   UNL     1     -10.164   4.414  66.344  1.00  0.00    -0.215 NA 
HETATM   20  C   UNL     1     -10.949   6.050  67.779  1.00  0.00    -0.333 A  
HETATM   21  C   UNL     1     -11.012   7.356  68.262  1.00  0.00     0.006 A  
HETATM   22  C   UNL     1      -9.361   4.045  65.353  1.00  0.00    -0.162 A  
HETATM   23  N   UNL     1      -8.479   4.837  64.756  1.00  0.00    -0.135 NA 
HETATM   24  N   UNL     1      -9.417   2.731  64.939  1.00  0.00    -0.246 NA 
HETATM   25  C   UNL     1      -8.473   6.124  65.130  1.00  0.00    -0.100 A  
HETATM   26  H2  UNL     1     -10.052   2.065  65.379  1.00  0.00     0.000 HD 
HETATM   27  H1  UNL     1      -8.801   2.448  64.178  1.00  0.00     0.000 HD 
HETATM   28  N   UNL     1      -7.466   6.856  64.494  1.00  0.00    -0.091 NA 
ENDBRANCH  11  12
ENDBRANCH   9  11
ENDBRANCH   5   9
BRANCH   8  29
HETATM   29  O   UNL     1     -10.611  14.983  69.038  1.00  0.00    -0.229 OA 
HETATM   30  C   UNL     1      -9.232  15.289  69.150  1.00  0.00    -0.234 C  
ENDBRANCH   8  29
BRANCH   7  31
HETATM   31  O   UNL     1     -11.457  15.986  66.474  1.00  0.00     0.163 OA 
HETATM   32  C   UNL     1     -10.256  16.621  66.075  1.00  0.00    -0.351 C  
ENDBRANCH   7  31
ENDBRANCH   2   3
TORSDOF 6
ENDMDL
MODEL      145
REMARK 921   NORMALIZED FREE ENERGY PREDICTED BY IDOCK:   -4.99 KCAL/MOL
REMARK 922        TOTAL FREE ENERGY PREDICTED BY IDOCK:   -7.59 KCAL/MOL
REMARK 923 INTER-LIGAND FREE ENERGY PREDICTED BY IDOCK:   -6.76 KCAL/MOL
REMARK 924 INTRA-LIGAND FREE ENERGY PREDICTED BY IDOCK:   -0.82 KCAL/MOL
REMARK 927      BINDING AFFINITY PREDICTED BY RF-SCORE:    0.00 PKD
ROOT
HETATM    1  C   UNL     1     -12.508  13.345  70.611  1.00  0.00    -0.311 C  
HETATM    2  O   UNL     1     -12.869  11.969  70.708  1.00  0.00    -0.174 OA 
ENDROOT
BRANCH   2   3
HETATM    3  C   UNL     1     -11.897  11.054  70.383  1.00  0.00    -0.367 A  
HETATM    4  C   UNL     1     -10.710  11.471  69.755  1.00  0.00     0.161 A  
HETATM    5  C   UNL     1      -9.686  10.581  69.434  1.00  0.00    -0.164 A  
HETATM    6  C   UNL     1      -9.899   9.236  69.723  1.00  0.00    -0.202 A  
HETATM    7  C   UNL     1     -12.076   9.694  70.724  1.00  0.00    -0.248 A  
HETATM    8  C   UNL     1     -11.056   8.783  70.381  1.00  0.00    -0.236 A  
BRANCH   5   9
HETATM    9  N   UNL     1      -8.583  11.057  68.714  1.00  0.00    -0.192 NA 
HETATM   10  H   UNL     1      -7.650  11.066  69.128  1.00  0.00     0.000 HD 
BRANCH   9  11
HETATM   11  C   UNL     1      -8.803  11.541  67.355  1.00  0.00    -0.157 C  
BRANCH  11  12
HETATM   12  C   UNL     1      -8.876  13.057  67.270  1.00  0.00    -0.208 A  
HETATM   13  C   UNL     1      -9.672  13.678  66.272  1.00  0.00    -0.295 A  
HETATM   14  H2  UNL     1     -12.218  14.780  65.126  1.00  0.00     0.000 HD 
HETATM   15  C   UNL     1      -9.809  15.121  66.240  1.00  0.00    -0.317 A  
HETATM   16  H1  UNL     1     -12.222  15.955  63.979  1.00  0.00     0.000 HD 
HETATM   17  C   UNL     1     -10.372  12.828  65.235  1.00  0.00    -0.313 C  
HETATM   18  C   UNL     1      -9.053  15.893  67.133  1.00  0.00    -0.209 A  
HETATM   19  N   UNL     1      -9.044  17.229  67.142  1.00  0.00    -0.223 NA 
HETATM   20  C   UNL     1      -8.274  15.262  68.084  1.00  0.00    -0.141 A  
HETATM   21  C   UNL     1      -8.198  13.873  68.180  1.00  0.00    -0.158 A  
HETATM   22  C   UNL     1      -9.818  17.855  66.265  1.00  0.00    -0.301 A  
HETATM   23  N   UNL     1     -10.660  17.256  65.431  1.00  0.00    -0.631 NA 
HETATM   24  N   UNL     1      -9.778  19.233  66.244  1.00  0.00    -0.364 NA 
HETATM   25  C   UNL     1     -10.650  15.916  65.425  1.00  0.00    -0.419 A  
HETATM   26  H2  UNL     1      -9.174  19.754  66.880  1.00  0.00     0.000 HD 
HETATM   27  H1  UNL     1     -10.372  19.714  65.570  1.00  0.00     0.000 HD 
HETATM   28  N   UNL     1     -11.616  15.383  64.567  1.00  0.00    -0.361 NA 
ENDBRANCH  11  12
ENDBRANCH   9  11
ENDBRANCH   5   9
BRANCH   8  29
HETATM   29  O   UNL     1     -11.002   7.425  70.583  1.00  0.00    -0.245 OA 
HETATM   30  C   UNL     1     -10.317   6.598  69.658  1.00  0.00    -0.194 C  
ENDBRANCH   8  29
BRANCH   7  31
HETATM   31  O   UNL     1     -13.171   9.160  71.348  1.00  0.00    -0.334 OA 
HETATM   32  C   UNL     1     -13.182   8.964  72.751  1.00  0.00    -0.162 C  
ENDBRANCH   7  31
ENDBRANCH   2   3
TORSDOF 6
ENDMDL
MODEL      146
REMARK 921   NORMALIZED FREE ENERGY PREDICTED BY IDOCK:   -4.96 KCAL/MOL
REMARK 922        TOTAL FREE ENERGY PREDICTED BY IDOCK:   -7.56 KCAL/MOL
REMARK 923 INTER-LIGAND FREE ENERGY PREDICTED BY IDOCK:   -7.06 KCAL/MOL
REMARK 924 INTRA-LIGAND FREE ENERGY PREDICTED BY IDOCK:   -0.50 KCAL/MOL
REMARK 927      BINDING AFFINITY PREDICTED BY RF-SCORE:    0.00 PKD
ROOT
HETATM    1  C   UNL     1      -6.618  15.493  69.630  1.00  0.00    -0.179 C  
HETATM    2  O   UNL     1      -6.477  15.086  68.270  1.00  0.00    -0.098 OA 
ENDROOT
BRANCH   2   3
HETATM    3  C   UNL     1      -7.621  14.674  67.631  1.00  0.00    -0.180 A  
HETATM    4  C   UNL     1      -8.075  13.350  67.766  1.00  0.00    -0.173 A  
HETATM    5  C   UNL     1      -9.245  12.899  67.157  1.00  0.00    -0.225 A  
HETATM    6  C   UNL     1      -9.940  13.808  66.364  1.00  0.00    -0.301 A  
HETATM    7  C   UNL     1      -8.368  15.603  66.870  1.00  0.00    -0.252 A  
HETATM    8  C   UNL     1      -9.540  15.149  66.231  1.00  0.00    -0.297 A  
BRANCH   5   9
HETATM    9  N   UNL     1      -9.570  11.540  67.252  1.00  0.00    -0.172 NA 
HETATM   10  H   UNL     1      -8.867  10.819  67.086  1.00  0.00     0.000 HD 
BRANCH   9  11
HETATM   11  C   UNL     1     -10.942  11.182  67.596  1.00  0.00    -0.269 C  
BRANCH  11  12
HETATM   12  C   UNL     1     -11.046  10.415  68.904  1.00  0.00    -0.296 A  
HETATM   13  C   UNL     1     -10.524   9.098  69.004  1.00  0.00    -0.238 A  
HETATM   14  H2  UNL     1      -8.375   7.057  69.472  1.00  0.00     0.000 HD 
HETATM   15  C   UNL     1     -10.549   8.396  70.271  1.00  0.00    -0.234 A  
HETATM   16  H1  UNL     1      -8.713   5.537  69.991  1.00  0.00     0.000 HD 
HETATM   17  C   UNL     1      -9.950   8.425  67.776  1.00  0.00    -0.236 C  
HETATM   18  C   UNL     1     -11.198   8.991  71.363  1.00  0.00    -0.324 A  
HETATM   19  N   UNL     1     -11.345   8.405  72.554  1.00  0.00    -0.374 NA 
HETATM   20  C   UNL     1     -11.710  10.269  71.233  1.00  0.00    -0.378 A  
HETATM   21  C   UNL     1     -11.620  10.988  70.043  1.00  0.00    -0.427 A  
HETATM   22  C   UNL     1     -10.823   7.195  72.712  1.00  0.00    -0.300 A  
HETATM   23  N   UNL     1     -10.097   6.556  71.803  1.00  0.00    -0.184 NA 
HETATM   24  N   UNL     1     -11.011   6.570  73.927  1.00  0.00    -0.397 NA 
HETATM   25  C   UNL     1      -9.967   7.151  70.609  1.00  0.00    -0.190 A  
HETATM   26  H2  UNL     1     -11.533   7.022  74.678  1.00  0.00     0.000 HD 
HETATM   27  H1  UNL     1     -10.610   5.641  74.049  1.00  0.00     0.000 HD 
HETATM   28  N   UNL     1      -9.132   6.434  69.748  1.00  0.00    -0.141 NA 
ENDBRANCH  11  12
ENDBRANCH   9  11
ENDBRANCH   5   9
BRANCH   8  29
HETATM   29  O   UNL     1     -10.416  15.842  65.431  1.00  0.00    -0.368 OA 
HETATM   30  C   UNL     1     -11.428  15.147  64.721  1.00  0.00    -0.383 C  
ENDBRANCH   8  29
BRANCH   7  31
HETATM   31  O   UNL     1      -8.050  16.919  66.671  1.00  0.00    -0.208 OA 
HETATM   32  C   UNL     1      -8.438  17.908  67.607  1.00  0.00    -0.234 C  
ENDBRANCH   7  31
ENDBRANCH   2   3
TORSDOF 6
ENDMDL
MODEL      147
REMARK 921   NORMALIZED FREE ENERGY PREDICTED BY IDOCK:   -4.93 KCAL/MOL
REMARK 922        TOTAL FREE ENERGY PREDICTED BY IDOCK:   -7.51 KCAL/MOL
REMARK 923 INTER-LIGAND FREE ENERGY PREDICTED BY IDOCK:   -6.63 KCAL/MOL
REMARK 924 INTRA-LIGAND FREE ENERGY PREDICTED BY IDOCK:   -0.88 KCAL/MOL
REMARK 927      BINDING AFFINITY PREDICTED BY RF-SCORE:    0.00 PKD
ROOT
HETATM    1  C   UNL     1      -8.777   7.981  65.764  1.00  0.00    -0.146 C  
HETATM    2  O   UNL     1      -9.151   9.246  65.222  1.00  0.00    -0.206 OA 
ENDROOT
BRANCH   2   3
HETATM    3  C   UNL     1      -9.878  10.075  66.042  1.00  0.00    -0.257 A  
HETATM    4  C   UNL     1      -9.672  10.060  67.433  1.00  0.00    -0.196 A  
HETATM    5  C   UNL     1     -10.367  10.904  68.297  1.00  0.00    -0.173 A  
HETATM    6  C   UNL     1     -11.319  11.748  67.732  1.00  0.00    -0.358 A  
HETATM    7  C   UNL     1     -10.806  10.978  65.475  1.00  0.00    -0.088 A  
HETATM    8  C   UNL     1     -11.532  11.819  66.344  1.00  0.00    -0.239 A  
BRANCH   5   9
HETATM    9  N   UNL     1     -10.182  10.753  69.677  1.00  0.00    -0.436 NA 
HETATM   10  H   UNL     1     -10.782  11.241  70.343  1.00  0.00     0.000 HD 
BRANCH   9  11
HETATM   11  C   UNL     1      -9.109   9.879  70.138  1.00  0.00    -0.124 C  
BRANCH  11  12
HETATM   12  C   UNL     1      -9.615   8.679  70.921  1.00  0.00    -0.252 A  
HETATM   13  C   UNL     1      -9.075   7.389  70.680  1.00  0.00    -0.156 A  
HETATM   14  H2  UNL     1      -7.096   5.162  71.043  1.00  0.00     0.000 HD 
HETATM   15  C   UNL     1      -9.497   6.258  71.482  1.00  0.00    -0.162 A  
HETATM   16  H1  UNL     1      -7.493   3.590  70.779  1.00  0.00     0.000 HD 
HETATM   17  C   UNL     1      -8.062   7.195  69.573  1.00  0.00    -0.130 C  
HETATM   18  C   UNL     1     -10.527   6.437  72.417  1.00  0.00    -0.198 A  
HETATM   19  N   UNL     1     -11.045   5.452  73.155  1.00  0.00    -0.299 NA 
HETATM   20  C   UNL     1     -11.046   7.702  72.620  1.00  0.00    -0.412 A  
HETATM   21  C   UNL     1     -10.590   8.814  71.914  1.00  0.00    -0.425 A  
HETATM   22  C   UNL     1     -10.532   4.237  73.005  1.00  0.00    -0.180 A  
HETATM   23  N   UNL     1      -9.492   3.941  72.236  1.00  0.00    -0.122 NA 
HETATM   24  N   UNL     1     -11.094   3.210  73.735  1.00  0.00    -0.218 NA 
HETATM   25  C   UNL     1      -8.990   4.937  71.492  1.00  0.00    -0.135 A  
HETATM   26  H2  UNL     1     -11.876   3.378  74.368  1.00  0.00     0.000 HD 
HETATM   27  H1  UNL     1     -10.700   2.277  73.620  1.00  0.00     0.000 HD 
HETATM   28  N   UNL     1      -7.859   4.542  70.772  1.00  0.00    -0.063 NA 
ENDBRANCH  11  12
ENDBRANCH   9  11
ENDBRANCH   5   9
BRANCH   8  29
HETATM   29  O   UNL     1     -12.492  12.755  66.044  1.00  0.00    -0.540 OA 
HETATM   30  C   UNL     1     -12.287  14.115  66.389  1.00  0.00    -0.400 C  
ENDBRANCH   8  29
BRANCH   7  31
HETATM   31  O   UNL     1     -11.091  11.106  64.142  1.00  0.00    -0.317 OA 
HETATM   32  C   UNL     1     -10.250  11.864  63.291  1.00  0.00    -0.395 C  
ENDBRANCH   7  31
ENDBRANCH   2   3
TORSDOF 6
ENDMDL
MODEL      148
REMARK 921   NORMALIZED FREE ENERGY PREDICTED BY IDOCK:   -4.92 KCAL/MOL
REMARK 922        TOTAL FREE ENERGY PREDICTED BY IDOCK:   -7.50 KCAL/MOL
REMARK 923 INTER-LIGAND FREE ENERGY PREDICTED BY IDOCK:   -6.83 KCAL/MOL
REMARK 924 INTRA-LIGAND FREE ENERGY PREDICTED BY IDOCK:   -0.67 KCAL/MOL
REMARK 927      BINDING AFFINITY PREDICTED BY RF-SCORE:    0.00 PKD
ROOT
HETATM    1  C   UNL     1     -10.641   5.611  70.124  1.00  0.00    -0.309 C  
HETATM    2  O   UNL     1      -9.724   5.354  69.063  1.00  0.00    -0.131 OA 
ENDROOT
BRANCH   2   3
HETATM    3  C   UNL     1      -9.419   6.413  68.243  1.00  0.00    -0.121 A  
HETATM    4  C   UNL     1      -9.522   7.732  68.718  1.00  0.00    -0.149 A  
HETATM    5  C   UNL     1      -9.196   8.835  67.929  1.00  0.00    -0.139 A  
HETATM    6  C   UNL     1      -8.795   8.583  66.620  1.00  0.00    -0.157 A  
HETATM    7  C   UNL     1      -8.955   6.169  66.930  1.00  0.00    -0.118 A  
HETATM    8  C   UNL     1      -8.645   7.278  66.118  1.00  0.00    -0.149 A  
BRANCH   5   9
HETATM    9  N   UNL     1      -9.428  10.118  68.439  1.00  0.00    -0.141 NA 
HETATM   10  H   UNL     1      -8.843  10.501  69.183  1.00  0.00     0.000 HD 
BRANCH   9  11
HETATM   11  C   UNL     1     -10.530  10.894  67.880  1.00  0.00    -0.195 C  
BRANCH  11  12
HETATM   12  C   UNL     1     -11.287  11.692  68.928  1.00  0.00    -0.328 A  
HETATM   13  C   UNL     1     -11.245  13.110  68.915  1.00  0.00    -0.324 A  
HETATM   14  H2  UNL     1     -12.133  15.846  68.056  1.00  0.00     0.000 HD 
HETATM   15  C   UNL     1     -12.031  13.875  69.863  1.00  0.00    -0.405 A  
HETATM   16  H1  UNL     1     -11.912  17.171  69.000  1.00  0.00     0.000 HD 
HETATM   17  C   UNL     1     -10.366  13.825  67.911  1.00  0.00    -0.244 C  
HETATM   18  C   UNL     1     -12.739  13.191  70.862  1.00  0.00    -0.233 A  
HETATM   19  N   UNL     1     -13.434  13.794  71.830  1.00  0.00    -0.400 NA 
HETATM   20  C   UNL     1     -12.750  11.809  70.861  1.00  0.00    -0.328 A  
HETATM   21  C   UNL     1     -12.065  11.062  69.904  1.00  0.00    -0.435 A  
HETATM   22  C   UNL     1     -13.471  15.121  71.824  1.00  0.00    -0.433 A  
HETATM   23  N   UNL     1     -12.936  15.892  70.886  1.00  0.00    -0.417 NA 
HETATM   24  N   UNL     1     -14.153  15.747  72.847  1.00  0.00    -0.578 NA 
HETATM   25  C   UNL     1     -12.232  15.274  69.928  1.00  0.00    -0.323 A  
HETATM   26  H2  UNL     1     -14.613  15.210  73.582  1.00  0.00     0.000 HD 
HETATM   27  H1  UNL     1     -14.182  16.766  72.843  1.00  0.00     0.000 HD 
HETATM   28  N   UNL     1     -11.768  16.163  68.954  1.00  0.00    -0.323 NA 
ENDBRANCH  11  12
ENDBRANCH   9  11
ENDBRANCH   5   9
BRANCH   8  29
HETATM   29  O   UNL     1      -8.201   7.305  64.817  1.00  0.00    -0.124 OA 
HETATM   30  C   UNL     1      -7.621   8.486  64.291  1.00  0.00    -0.122 C  
ENDBRANCH   8  29
BRANCH   7  31
HETATM   31  O   UNL     1      -8.793   4.939  66.351  1.00  0.00    -0.113 OA 
HETATM   32  C   UNL     1      -7.554   4.257  66.433  1.00  0.00    -0.089 C  
ENDBRANCH   7  31
ENDBRANCH   2   3
TORSDOF 6
ENDMDL
MODEL      149
REMARK 921   NORMALIZED FREE ENERGY PREDICTED BY IDOCK:   -4.92 KCAL/MOL
REMARK 922        TOTAL FREE ENERGY PREDICTED BY IDOCK:   -7.49 KCAL/MOL
REMARK 923 INTER-LIGAND FREE ENERGY PREDICTED BY IDOCK:   -6.68 KCAL/MOL
REMARK 924 INTRA-LIGAND FREE ENERGY PREDICTED BY IDOCK:   -0.81 KCAL/MOL
REMARK 927      BINDING AFFINITY PREDICTED BY RF-SCORE:    0.00 PKD
ROOT
HETATM    1  C   UNL     1     -12.007  14.422  68.511  1.00  0.00    -0.298 C  
HETATM    2  O   UNL     1     -11.050  14.691  67.489  1.00  0.00    -0.292 OA 
ENDROOT
BRANCH   2   3
HETATM    3  C   UNL     1      -9.945  13.876  67.450  1.00  0.00    -0.240 A  
HETATM    4  C   UNL     1     -10.095  12.478  67.406  1.00  0.00    -0.211 A  
HETATM    5  C   UNL     1      -9.002  11.615  67.339  1.00  0.00    -0.166 A  
HETATM    6  C   UNL     1      -7.735  12.192  67.357  1.00  0.00    -0.165 A  
HETATM    7  C   UNL     1      -8.655  14.450  67.410  1.00  0.00    -0.202 A  
HETATM    8  C   UNL     1      -7.543  13.584  67.365  1.00  0.00    -0.128 A  
BRANCH   5   9
HETATM    9  N   UNL     1      -9.231  10.235  67.407  1.00  0.00    -0.141 NA 
HETATM   10  H   UNL     1      -8.480   9.569  67.219  1.00  0.00     0.000 HD 
BRANCH   9  11
HETATM   11  C   UNL     1     -10.571   9.774  67.752  1.00  0.00    -0.266 C  
BRANCH  11  12
HETATM   12  C   UNL     1     -10.644   9.143  69.133  1.00  0.00    -0.224 A  
HETATM   13  C   UNL     1     -10.637   7.731  69.274  1.00  0.00    -0.199 A  
HETATM   14  H2  UNL     1      -9.345   5.033  69.527  1.00  0.00     0.000 HD 
HETATM   15  C   UNL     1     -10.625   7.128  70.592  1.00  0.00    -0.243 A  
HETATM   16  H1  UNL     1     -10.090   3.775  70.274  1.00  0.00     0.000 HD 
HETATM   17  C   UNL     1     -10.652   6.853  68.041  1.00  0.00    -0.273 C  
HETATM   18  C   UNL     1     -10.737   7.957  71.717  1.00  0.00    -0.232 A  
HETATM   19  N   UNL     1     -10.811   7.507  72.973  1.00  0.00    -0.365 NA 
HETATM   20  C   UNL     1     -10.758   9.330  71.549  1.00  0.00    -0.425 A  
HETATM   21  C   UNL     1     -10.687   9.924  70.291  1.00  0.00    -0.367 A  
HETATM   22  C   UNL     1     -10.749   6.194  73.159  1.00  0.00    -0.260 A  
HETATM   23  N   UNL     1     -10.542   5.300  72.201  1.00  0.00    -0.220 NA 
HETATM   24  N   UNL     1     -10.868   5.724  74.450  1.00  0.00    -0.365 NA 
HETATM   25  C   UNL     1     -10.481   5.765  70.945  1.00  0.00    -0.252 A  
HETATM   26  H2  UNL     1     -10.998   6.363  75.235  1.00  0.00     0.000 HD 
HETATM   27  H1  UNL     1     -10.821   4.716  74.594  1.00  0.00     0.000 HD 
HETATM   28  N   UNL     1     -10.194   4.757  70.020  1.00  0.00    -0.239 NA 
ENDBRANCH  11  12
ENDBRANCH   9  11
ENDBRANCH   5   9
BRANCH   8  29
HETATM   29  O   UNL     1      -6.204  13.892  67.340  1.00  0.00    -0.335 OA 
HETATM   30  C   UNL     1      -5.375  13.539  68.435  1.00  0.00    -0.095 C  
ENDBRANCH   8  29
BRANCH   7  31
HETATM   31  O   UNL     1      -8.370  15.789  67.430  1.00  0.00    -0.151 OA 
HETATM   32  C   UNL     1      -8.172  16.507  66.225  1.00  0.00    -0.325 C  
ENDBRANCH   7  31
ENDBRANCH   2   3
TORSDOF 6
ENDMDL
MODEL      150
REMARK 921   NORMALIZED FREE ENERGY PREDICTED BY IDOCK:   -4.90 KCAL/MOL
REMARK 922        TOTAL FREE ENERGY PREDICTED BY IDOCK:   -7.47 KCAL/MOL
REMARK 923 INTER-LIGAND FREE ENERGY PREDICTED BY IDOCK:   -6.80 KCAL/MOL
REMARK 924 INTRA-LIGAND FREE ENERGY PREDICTED BY IDOCK:   -0.67 KCAL/MOL
REMARK 927      BINDING AFFINITY PREDICTED BY RF-SCORE:    0.00 PKD
ROOT
HETATM    1  C   UNL     1     -11.660   9.915  71.323  1.00  0.00    -0.379 C  
HETATM    2  O   UNL     1     -10.646   8.963  71.010  1.00  0.00    -0.212 OA 
ENDROOT
BRANCH   2   3
HETATM    3  C   UNL     1     -10.318   8.828  69.683  1.00  0.00    -0.213 A  
HETATM    4  C   UNL     1     -10.766   9.771  68.740  1.00  0.00    -0.243 A  
HETATM    5  C   UNL     1     -10.433   9.688  67.389  1.00  0.00    -0.257 A  
HETATM    6  C   UNL     1      -9.664   8.599  66.990  1.00  0.00    -0.262 A  
HETATM    7  C   UNL     1      -9.489   7.759  69.273  1.00  0.00    -0.155 A  
HETATM    8  C   UNL     1      -9.167   7.654  67.905  1.00  0.00    -0.136 A  
BRANCH   5   9
HETATM    9  N   UNL     1     -11.006  10.605  66.498  1.00  0.00    -0.100 NA 
HETATM   10  H   UNL     1     -12.004  10.816  66.533  1.00  0.00     0.000 HD 
BRANCH   9  11
HETATM   11  C   UNL     1     -10.139  11.249  65.519  1.00  0.00    -0.257 C  
BRANCH  11  12
HETATM   12  C   UNL     1     -10.313  12.758  65.474  1.00  0.00    -0.301 A  
HETATM   13  C   UNL     1      -9.555  13.592  66.337  1.00  0.00    -0.268 A  
HETATM   14  H2  UNL     1      -7.146  15.190  67.143  1.00  0.00     0.000 HD 
HETATM   15  C   UNL     1      -9.659  15.034  66.239  1.00  0.00    -0.335 A  
HETATM   16  H1  UNL     1      -7.246  16.455  68.184  1.00  0.00     0.000 HD 
HETATM   17  C   UNL     1      -8.641  12.968  67.369  1.00  0.00    -0.199 C  
HETATM   18  C   UNL     1     -10.603  15.586  65.362  1.00  0.00    -0.408 A  
HETATM   19  N   UNL     1     -10.837  16.897  65.245  1.00  0.00    -0.524 NA 
HETATM   20  C   UNL     1     -11.340  14.751  64.543  1.00  0.00    -0.309 A  
HETATM   21  C   UNL     1     -11.189  13.365  64.569  1.00  0.00    -0.393 A  
HETATM   22  C   UNL     1     -10.110  17.719  65.991  1.00  0.00    -0.247 A  
HETATM   23  N   UNL     1      -9.116  17.345  66.787  1.00  0.00    -0.251 NA 
HETATM   24  N   UNL     1     -10.379  19.069  65.904  1.00  0.00    -0.545 NA 
HETATM   25  C   UNL     1      -8.900  16.027  66.903  1.00  0.00    -0.231 A  
HETATM   26  H2  UNL     1     -11.110  19.424  65.287  1.00  0.00     0.000 HD 
HETATM   27  H1  UNL     1      -9.821  19.701  66.477  1.00  0.00     0.000 HD 
HETATM   28  N   UNL     1      -7.793  15.740  67.706  1.00  0.00    -0.134 NA 
ENDBRANCH  11  12
ENDBRANCH   9  11
ENDBRANCH   5   9
BRANCH   8  29
HETATM   29  O   UNL     1      -8.406   6.707  67.263  1.00  0.00    -0.119 OA 
HETATM   30  C   UNL     1      -6.996   6.713  67.410  1.00  0.00    -0.078 C  
ENDBRANCH   8  29
BRANCH   7  31
HETATM   31  O   UNL     1      -8.973   6.786  70.086  1.00  0.00    -0.147 OA 
HETATM   32  C   UNL     1      -7.820   7.032  70.871  1.00  0.00    -0.096 C  
ENDBRANCH   7  31
ENDBRANCH   2   3
TORSDOF 6
ENDMDL
MODEL      151
REMARK 921   NORMALIZED FREE ENERGY PREDICTED BY IDOCK:   -4.90 KCAL/MOL
REMARK 922        TOTAL FREE ENERGY PREDICTED BY IDOCK:   -7.47 KCAL/MOL
REMARK 923 INTER-LIGAND FREE ENERGY PREDICTED BY IDOCK:   -6.76 KCAL/MOL
REMARK 924 INTRA-LIGAND FREE ENERGY PREDICTED BY IDOCK:   -0.71 KCAL/MOL
REMARK 927      BINDING AFFINITY PREDICTED BY RF-SCORE:    0.00 PKD
ROOT
HETATM    1  C   UNL     1      -8.788   6.559  68.616  1.00  0.00    -0.121 C  
HETATM    2  O   UNL     1      -8.858   7.362  69.793  1.00  0.00    -0.141 OA 
ENDROOT
BRANCH   2   3
HETATM    3  C   UNL     1      -9.809   8.354  69.804  1.00  0.00    -0.187 A  
HETATM    4  C   UNL     1      -9.814   9.345  68.807  1.00  0.00    -0.172 A  
HETATM    5  C   UNL     1     -10.776  10.353  68.765  1.00  0.00    -0.225 A  
HETATM    6  C   UNL     1     -11.725  10.368  69.784  1.00  0.00    -0.310 A  
HETATM    7  C   UNL     1     -10.812   8.347  70.800  1.00  0.00    -0.224 A  
HETATM    8  C   UNL     1     -11.775   9.376  70.779  1.00  0.00    -0.282 A  
BRANCH   5   9
HETATM    9  N   UNL     1     -10.650  11.364  67.804  1.00  0.00    -0.187 NA 
HETATM   10  H   UNL     1     -10.444  11.138  66.830  1.00  0.00     0.000 HD 
BRANCH   9  11
HETATM   11  C   UNL     1     -10.819  12.748  68.232  1.00  0.00    -0.248 C  
BRANCH  11  12
HETATM   12  C   UNL     1      -9.609  13.616  67.928  1.00  0.00    -0.223 A  
HETATM   13  C   UNL     1      -9.755  14.804  67.166  1.00  0.00    -0.234 A  
HETATM   14  H2  UNL     1     -10.332  17.722  66.768  1.00  0.00     0.000 HD 
HETATM   15  C   UNL     1      -8.618  15.675  66.944  1.00  0.00    -0.281 A  
HETATM   16  H1  UNL     1      -9.704  18.573  65.512  1.00  0.00     0.000 HD 
HETATM   17  C   UNL     1     -11.103  15.154  66.574  1.00  0.00    -0.305 C  
HETATM   18  C   UNL     1      -7.355  15.267  67.395  1.00  0.00    -0.210 A  
HETATM   19  N   UNL     1      -6.229  15.953  67.181  1.00  0.00    -0.323 NA 
HETATM   20  C   UNL     1      -7.239  14.097  68.122  1.00  0.00    -0.128 A  
HETATM   21  C   UNL     1      -8.338  13.292  68.413  1.00  0.00    -0.131 A  
HETATM   22  C   UNL     1      -6.324  17.101  66.521  1.00  0.00    -0.218 A  
HETATM   23  N   UNL     1      -7.462  17.658  66.126  1.00  0.00    -0.386 NA 
HETATM   24  N   UNL     1      -5.158  17.790  66.262  1.00  0.00    -0.160 NA 
HETATM   25  C   UNL     1      -8.583  16.953  66.337  1.00  0.00    -0.293 A  
HETATM   26  H2  UNL     1      -4.253  17.430  66.567  1.00  0.00     0.000 HD 
HETATM   27  H1  UNL     1      -5.231  18.671  65.756  1.00  0.00     0.000 HD 
HETATM   28  N   UNL     1      -9.729  17.652  65.949  1.00  0.00    -0.542 NA 
ENDBRANCH  11  12
ENDBRANCH   9  11
ENDBRANCH   5   9
BRANCH   8  29
HETATM   29  O   UNL     1     -12.826   9.599  71.637  1.00  0.00    -0.345 OA 
HETATM   30  C   UNL     1     -13.998   8.809  71.541  1.00  0.00    -0.334 C  
ENDBRANCH   8  29
BRANCH   7  31
HETATM   31  O   UNL     1     -10.932   7.435  71.814  1.00  0.00    -0.230 OA 
HETATM   32  C   UNL     1     -10.228   7.608  73.031  1.00  0.00    -0.320 C  
ENDBRANCH   7  31
ENDBRANCH   2   3
TORSDOF 6
ENDMDL
MODEL      152
REMARK 921   NORMALIZED FREE ENERGY PREDICTED BY IDOCK:   -4.90 KCAL/MOL
REMARK 922        TOTAL FREE ENERGY PREDICTED BY IDOCK:   -7.46 KCAL/MOL
REMARK 923 INTER-LIGAND FREE ENERGY PREDICTED BY IDOCK:   -6.87 KCAL/MOL
REMARK 924 INTRA-LIGAND FREE ENERGY PREDICTED BY IDOCK:   -0.59 KCAL/MOL
REMARK 927      BINDING AFFINITY PREDICTED BY RF-SCORE:    0.00 PKD
ROOT
HETATM    1  C   UNL     1     -10.771   6.598  67.026  1.00  0.00    -0.366 C  
HETATM    2  O   UNL     1     -10.415   7.712  67.842  1.00  0.00    -0.213 OA 
ENDROOT
BRANCH   2   3
HETATM    3  C   UNL     1      -9.775   8.754  67.216  1.00  0.00    -0.183 A  
HETATM    4  C   UNL     1     -10.477   9.592  66.332  1.00  0.00    -0.181 A  
HETATM    5  C   UNL     1      -9.873  10.677  65.697  1.00  0.00    -0.251 A  
HETATM    6  C   UNL     1      -8.517  10.881  65.941  1.00  0.00    -0.158 A  
HETATM    7  C   UNL     1      -8.413   9.007  67.499  1.00  0.00    -0.116 A  
HETATM    8  C   UNL     1      -7.788  10.087  66.843  1.00  0.00    -0.106 A  
BRANCH   5   9
HETATM    9  N   UNL     1     -10.611  11.398  64.750  1.00  0.00    -0.307 NA 
HETATM   10  H   UNL     1     -11.133  10.918  64.016  1.00  0.00     0.000 HD 
BRANCH   9  11
HETATM   11  C   UNL     1     -10.615  12.854  64.842  1.00  0.00    -0.323 C  
BRANCH  11  12
HETATM   12  C   UNL     1     -10.963  13.360  66.233  1.00  0.00    -0.296 A  
HETATM   13  C   UNL     1     -10.424  14.587  66.702  1.00  0.00    -0.274 A  
HETATM   14  H2  UNL     1     -10.353  17.568  67.040  1.00  0.00     0.000 HD 
HETATM   15  C   UNL     1     -10.818  15.112  67.994  1.00  0.00    -0.284 A  
HETATM   16  H1  UNL     1      -9.609  18.284  68.318  1.00  0.00     0.000 HD 
HETATM   17  C   UNL     1      -9.428  15.342  65.850  1.00  0.00    -0.369 C  
HETATM   18  C   UNL     1     -11.645  14.334  68.817  1.00  0.00    -0.322 A  
HETATM   19  N   UNL     1     -12.009  14.684  70.054  1.00  0.00    -0.301 NA 
HETATM   20  C   UNL     1     -12.143  13.135  68.341  1.00  0.00    -0.216 A  
HETATM   21  C   UNL     1     -11.838  12.659  67.067  1.00  0.00    -0.415 A  
HETATM   22  C   UNL     1     -11.577  15.852  70.514  1.00  0.00    -0.381 A  
HETATM   23  N   UNL     1     -10.875  16.733  69.812  1.00  0.00    -0.265 NA 
HETATM   24  N   UNL     1     -11.916  16.196  71.806  1.00  0.00    -0.584 NA 
HETATM   25  C   UNL     1     -10.507  16.363  68.577  1.00  0.00    -0.291 A  
HETATM   26  H2  UNL     1     -12.480  15.576  72.388  1.00  0.00     0.000 HD 
HETATM   27  H1  UNL     1     -11.584  17.092  72.160  1.00  0.00     0.000 HD 
HETATM   28  N   UNL     1      -9.834  17.382  67.898  1.00  0.00    -0.276 NA 
ENDBRANCH  11  12
ENDBRANCH   9  11
ENDBRANCH   5   9
BRANCH   8  29
HETATM   29  O   UNL     1      -6.487  10.521  66.932  1.00  0.00    -0.071 OA 
HETATM   30  C   UNL     1      -5.764  10.839  65.755  1.00  0.00    -0.144 C  
ENDBRANCH   8  29
BRANCH   7  31
HETATM   31  O   UNL     1      -7.620   8.282  68.347  1.00  0.00    -0.097 OA 
HETATM   32  C   UNL     1      -7.552   8.601  69.726  1.00  0.00    -0.079 C  
ENDBRANCH   7  31
ENDBRANCH   2   3
TORSDOF 6
ENDMDL
MODEL      153
REMARK 921   NORMALIZED FREE ENERGY PREDICTED BY IDOCK:   -4.89 KCAL/MOL
REMARK 922        TOTAL FREE ENERGY PREDICTED BY IDOCK:   -7.46 KCAL/MOL
REMARK 923 INTER-LIGAND FREE ENERGY PREDICTED BY IDOCK:   -6.91 KCAL/MOL
REMARK 924 INTRA-LIGAND FREE ENERGY PREDICTED BY IDOCK:   -0.56 KCAL/MOL
REMARK 927      BINDING AFFINITY PREDICTED BY RF-SCORE:    0.00 PKD
ROOT
HETATM    1  C   UNL     1     -10.783  15.760  69.551  1.00  0.00    -0.278 C  
HETATM    2  O   UNL     1     -11.558  15.701  68.355  1.00  0.00    -0.365 OA 
ENDROOT
BRANCH   2   3
HETATM    3  C   UNL     1     -11.591  14.492  67.704  1.00  0.00    -0.378 A  
HETATM    4  C   UNL     1     -11.800  13.302  68.424  1.00  0.00    -0.395 A  
HETATM    5  C   UNL     1     -11.869  12.058  67.799  1.00  0.00    -0.238 A  
HETATM    6  C   UNL     1     -11.681  12.027  66.420  1.00  0.00    -0.326 A  
HETATM    7  C   UNL     1     -11.460  14.453  66.297  1.00  0.00    -0.359 A  
HETATM    8  C   UNL     1     -11.505  13.196  65.660  1.00  0.00    -0.323 A  
BRANCH   5   9
HETATM    9  N   UNL     1     -11.972  10.910  68.597  1.00  0.00    -0.727 NA 
HETATM   10  H   UNL     1     -12.494  10.094  68.276  1.00  0.00     0.000 HD 
BRANCH   9  11
HETATM   11  C   UNL     1     -11.314  10.914  69.898  1.00  0.00    -0.305 C  
BRANCH  11  12
HETATM   12  C   UNL     1     -10.600   9.608  70.206  1.00  0.00    -0.333 A  
HETATM   13  C   UNL     1      -9.318   9.347  69.656  1.00  0.00    -0.199 A  
HETATM   14  H2  UNL     1      -6.321   9.469  69.577  1.00  0.00     0.000 HD 
HETATM   15  C   UNL     1      -8.601   8.139  70.012  1.00  0.00    -0.129 A  
HETATM   16  H1  UNL     1      -5.421   8.337  68.798  1.00  0.00     0.000 HD 
HETATM   17  C   UNL     1      -8.705  10.332  68.684  1.00  0.00    -0.133 C  
HETATM   18  C   UNL     1      -9.241   7.183  70.815  1.00  0.00    -0.157 A  
HETATM   19  N   UNL     1      -8.705   6.005  71.144  1.00  0.00    -0.132 NA 
HETATM   20  C   UNL     1     -10.497   7.457  71.325  1.00  0.00    -0.221 A  
HETATM   21  C   UNL     1     -11.163   8.651  71.057  1.00  0.00    -0.321 A  
HETATM   22  C   UNL     1      -7.483   5.740  70.699  1.00  0.00    -0.086 A  
HETATM   23  N   UNL     1      -6.722   6.588  70.019  1.00  0.00    -0.048 NA 
HETATM   24  N   UNL     1      -6.944   4.507  71.002  1.00  0.00    -0.036 NA 
HETATM   25  C   UNL     1      -7.277   7.762  69.686  1.00  0.00    -0.075 A  
HETATM   26  H2  UNL     1      -7.467   3.822  71.548  1.00  0.00     0.000 HD 
HETATM   27  H1  UNL     1      -6.006   4.304  70.660  1.00  0.00     0.000 HD 
HETATM   28  N   UNL     1      -6.376   8.608  69.033  1.00  0.00    -0.043 NA 
ENDBRANCH  11  12
ENDBRANCH   9  11
ENDBRANCH   5   9
BRANCH   8  29
HETATM   29  O   UNL     1     -11.383  12.895  64.324  1.00  0.00    -0.333 OA 
HETATM   30  C   UNL     1     -10.182  12.324  63.833  1.00  0.00    -0.395 C  
ENDBRANCH   8  29
BRANCH   7  31
HETATM   31  O   UNL     1     -11.269  15.533  65.478  1.00  0.00    -0.286 OA 
HETATM   32  C   UNL     1     -10.142  16.376  65.639  1.00  0.00    -0.286 C  
ENDBRANCH   7  31
ENDBRANCH   2   3
TORSDOF 6
ENDMDL
MODEL      154
REMARK 921   NORMALIZED FREE ENERGY PREDICTED BY IDOCK:   -4.89 KCAL/MOL
REMARK 922        TOTAL FREE ENERGY PREDICTED BY IDOCK:   -7.46 KCAL/MOL
REMARK 923 INTER-LIGAND FREE ENERGY PREDICTED BY IDOCK:   -6.72 KCAL/MOL
REMARK 924 INTRA-LIGAND FREE ENERGY PREDICTED BY IDOCK:   -0.74 KCAL/MOL
REMARK 927      BINDING AFFINITY PREDICTED BY RF-SCORE:    0.00 PKD
ROOT
HETATM    1  C   UNL     1      -9.095  14.776  68.529  1.00  0.00    -0.187 C  
HETATM    2  O   UNL     1     -10.353  14.120  68.381  1.00  0.00    -0.236 OA 
ENDROOT
BRANCH   2   3
HETATM    3  C   UNL     1     -10.436  13.165  67.396  1.00  0.00    -0.242 A  
HETATM    4  C   UNL     1      -9.942  11.868  67.619  1.00  0.00    -0.197 A  
HETATM    5  C   UNL     1     -10.032  10.863  66.658  1.00  0.00    -0.208 A  
HETATM    6  C   UNL     1     -10.600  11.203  65.434  1.00  0.00    -0.291 A  
HETATM    7  C   UNL     1     -11.064  13.481  66.169  1.00  0.00    -0.291 A  
HETATM    8  C   UNL     1     -11.138  12.477  65.183  1.00  0.00    -0.299 A  
BRANCH   5   9
HETATM    9  N   UNL     1      -9.420   9.629  66.917  1.00  0.00    -0.148 NA 
HETATM   10  H   UNL     1      -8.415   9.566  67.082  1.00  0.00     0.000 HD 
BRANCH   9  11
HETATM   11  C   UNL     1     -10.259   8.436  66.944  1.00  0.00    -0.313 C  
BRANCH  11  12
HETATM   12  C   UNL     1     -10.487   7.902  68.348  1.00  0.00    -0.207 A  
HETATM   13  C   UNL     1     -10.303   6.523  68.627  1.00  0.00    -0.216 A  
HETATM   14  H2  UNL     1      -8.704   4.089  69.354  1.00  0.00     0.000 HD 
HETATM   15  C   UNL     1     -10.440   6.026  69.982  1.00  0.00    -0.313 A  
HETATM   16  H1  UNL     1      -9.383   2.786  70.087  1.00  0.00     0.000 HD 
HETATM   17  C   UNL     1      -9.971   5.568  67.501  1.00  0.00    -0.189 C  
HETATM   18  C   UNL     1     -10.869   6.906  70.986  1.00  0.00    -0.241 A  
HETATM   19  N   UNL     1     -11.101   6.540  72.250  1.00  0.00    -0.251 NA 
HETATM   20  C   UNL     1     -11.056   8.242  70.683  1.00  0.00    -0.269 A  
HETATM   21  C   UNL     1     -10.848   8.748  69.401  1.00  0.00    -0.123 A  
HETATM   22  C   UNL     1     -10.886   5.271  72.572  1.00  0.00    -0.245 A  
HETATM   23  N   UNL     1     -10.385   4.354  71.753  1.00  0.00    -0.124 NA 
HETATM   24  N   UNL     1     -11.165   4.882  73.865  1.00  0.00    -0.402 NA 
HETATM   25  C   UNL     1     -10.168   4.731  70.485  1.00  0.00    -0.182 A  
HETATM   26  H2  UNL     1     -11.524   5.547  74.551  1.00  0.00     0.000 HD 
HETATM   27  H1  UNL     1     -11.001   3.907  74.112  1.00  0.00     0.000 HD 
HETATM   28  N   UNL     1      -9.579   3.718  69.725  1.00  0.00    -0.198 NA 
ENDBRANCH  11  12
ENDBRANCH   9  11
ENDBRANCH   5   9
BRANCH   8  29
HETATM   29  O   UNL     1     -11.673  12.541  63.918  1.00  0.00    -0.373 OA 
HETATM   30  C   UNL     1     -13.019  12.153  63.699  1.00  0.00    -0.213 C  
ENDBRANCH   8  29
BRANCH   7  31
HETATM   31  O   UNL     1     -11.599  14.695  65.830  1.00  0.00    -0.354 OA 
HETATM   32  C   UNL     1     -10.778  15.737  65.333  1.00  0.00    -0.404 C  
ENDBRANCH   7  31
ENDBRANCH   2   3
TORSDOF 6
ENDMDL
MODEL      155
REMARK 921   NORMALIZED FREE ENERGY PREDICTED BY IDOCK:   -4.88 KCAL/MOL
REMARK 922        TOTAL FREE ENERGY PREDICTED BY IDOCK:   -7.44 KCAL/MOL
REMARK 923 INTER-LIGAND FREE ENERGY PREDICTED BY IDOCK:   -6.83 KCAL/MOL
REMARK 924 INTRA-LIGAND FREE ENERGY PREDICTED BY IDOCK:   -0.61 KCAL/MOL
REMARK 927      BINDING AFFINITY PREDICTED BY RF-SCORE:    0.00 PKD
ROOT
HETATM    1  C   UNL     1     -12.116  14.189  64.558  1.00  0.00    -0.468 C  
HETATM    2  O   UNL     1     -11.099  15.145  64.849  1.00  0.00    -0.389 OA 
ENDROOT
BRANCH   2   3
HETATM    3  C   UNL     1     -10.202  14.808  65.834  1.00  0.00    -0.313 A  
HETATM    4  C   UNL     1     -10.114  13.482  66.292  1.00  0.00    -0.298 A  
HETATM    5  C   UNL     1      -9.200  13.091  67.269  1.00  0.00    -0.213 A  
HETATM    6  C   UNL     1      -8.390  14.084  67.815  1.00  0.00    -0.176 A  
HETATM    7  C   UNL     1      -9.334  15.795  66.355  1.00  0.00    -0.301 A  
HETATM    8  C   UNL     1      -8.422  15.414  67.360  1.00  0.00    -0.181 A  
BRANCH   5   9
HETATM    9  N   UNL     1      -9.249  11.776  67.748  1.00  0.00    -0.175 NA 
HETATM   10  H   UNL     1      -8.430  11.343  68.177  1.00  0.00     0.000 HD 
BRANCH   9  11
HETATM   11  C   UNL     1     -10.501  11.040  67.616  1.00  0.00    -0.204 C  
BRANCH  11  12
HETATM   12  C   UNL     1     -10.341   9.547  67.853  1.00  0.00    -0.276 A  
HETATM   13  C   UNL     1     -10.505   9.009  69.157  1.00  0.00    -0.239 A  
HETATM   14  H2  UNL     1     -12.079   7.895  71.456  1.00  0.00     0.000 HD 
HETATM   15  C   UNL     1     -10.433   7.577  69.371  1.00  0.00    -0.222 A  
HETATM   16  H1  UNL     1     -11.410   6.884  72.563  1.00  0.00     0.000 HD 
HETATM   17  C   UNL     1     -10.746   9.938  70.326  1.00  0.00    -0.367 C  
HETATM   18  C   UNL     1     -10.085   6.748  68.295  1.00  0.00    -0.161 A  
HETATM   19  N   UNL     1      -9.917   5.427  68.395  1.00  0.00    -0.151 NA 
HETATM   20  C   UNL     1      -9.916   7.301  67.039  1.00  0.00    -0.293 A  
HETATM   21  C   UNL     1     -10.064   8.667  66.804  1.00  0.00    -0.366 A  
HETATM   22  C   UNL     1     -10.117   4.870  69.583  1.00  0.00    -0.230 A  
HETATM   23  N   UNL     1     -10.546   5.514  70.661  1.00  0.00    -0.269 NA 
HETATM   24  N   UNL     1      -9.902   3.512  69.699  1.00  0.00    -0.011 NA 
HETATM   25  C   UNL     1     -10.699   6.841  70.550  1.00  0.00    -0.238 A  
HETATM   26  H2  UNL     1      -9.601   2.955  68.899  1.00  0.00     0.000 HD 
HETATM   27  H1  UNL     1     -10.055   3.085  70.611  1.00  0.00     0.000 HD 
HETATM   28  N   UNL     1     -11.218   7.414  71.714  1.00  0.00    -0.241 NA 
ENDBRANCH  11  12
ENDBRANCH   9  11
ENDBRANCH   5   9
BRANCH   8  29
HETATM   29  O   UNL     1      -7.500  16.180  68.032  1.00  0.00    -0.127 OA 
HETATM   30  C   UNL     1      -7.802  16.684  69.322  1.00  0.00    -0.084 C  
ENDBRANCH   8  29
BRANCH   7  31
HETATM   31  O   UNL     1      -9.303  17.113  65.987  1.00  0.00    -0.461 OA 
HETATM   32  C   UNL     1     -10.182  18.052  66.581  1.00  0.00    -0.373 C  
ENDBRANCH   7  31
ENDBRANCH   2   3
TORSDOF 6
ENDMDL
MODEL      156
REMARK 921   NORMALIZED FREE ENERGY PREDICTED BY IDOCK:   -4.85 KCAL/MOL
REMARK 922        TOTAL FREE ENERGY PREDICTED BY IDOCK:   -7.41 KCAL/MOL
REMARK 923 INTER-LIGAND FREE ENERGY PREDICTED BY IDOCK:   -6.50 KCAL/MOL
REMARK 924 INTRA-LIGAND FREE ENERGY PREDICTED BY IDOCK:   -0.90 KCAL/MOL
REMARK 927      BINDING AFFINITY PREDICTED BY RF-SCORE:    0.00 PKD
ROOT
HETATM    1  C   UNL     1      -6.068  11.029  70.325  1.00  0.00    -0.144 C  
HETATM    2  O   UNL     1      -6.251   9.647  70.024  1.00  0.00    -0.046 OA 
ENDROOT
BRANCH   2   3
HETATM    3  C   UNL     1      -7.329   9.327  69.235  1.00  0.00    -0.070 A  
HETATM    4  C   UNL     1      -7.891  10.286  68.374  1.00  0.00    -0.102 A  
HETATM    5  C   UNL     1      -8.966   9.996  67.537  1.00  0.00    -0.134 A  
HETATM    6  C   UNL     1      -9.501   8.713  67.611  1.00  0.00    -0.169 A  
HETATM    7  C   UNL     1      -7.845   8.011  69.258  1.00  0.00    -0.114 A  
HETATM    8  C   UNL     1      -8.948   7.714  68.432  1.00  0.00    -0.128 A  
BRANCH   5   9
HETATM    9  N   UNL     1      -9.536  11.035  66.789  1.00  0.00    -0.179 NA 
HETATM   10  H   UNL     1      -8.956  11.642  66.209  1.00  0.00     0.000 HD 
BRANCH   9  11
HETATM   11  C   UNL     1     -10.980  11.226  66.863  1.00  0.00    -0.290 C  
BRANCH  11  12
HETATM   12  C   UNL     1     -11.430  11.852  68.173  1.00  0.00    -0.384 A  
HETATM   13  C   UNL     1     -11.360  13.258  68.354  1.00  0.00    -0.326 A  
HETATM   14  H2  UNL     1     -12.372  16.076  68.151  1.00  0.00     0.000 HD 
HETATM   15  C   UNL     1     -11.864  13.865  69.570  1.00  0.00    -0.383 A  
HETATM   16  H1  UNL     1     -11.890  17.253  69.190  1.00  0.00     0.000 HD 
HETATM   17  C   UNL     1     -10.747  14.123  67.274  1.00  0.00    -0.279 C  
HETATM   18  C   UNL     1     -12.313  13.033  70.605  1.00  0.00    -0.310 A  
HETATM   19  N   UNL     1     -12.728  13.480  71.794  1.00  0.00    -0.285 NA 
HETATM   20  C   UNL     1     -12.356  11.666  70.408  1.00  0.00    -0.373 A  
HETATM   21  C   UNL     1     -11.952  11.076  69.212  1.00  0.00    -0.410 A  
HETATM   22  C   UNL     1     -12.735  14.792  71.990  1.00  0.00    -0.329 A  
HETATM   23  N   UNL     1     -12.435  15.699  71.068  1.00  0.00    -0.429 NA 
HETATM   24  N   UNL     1     -13.122  15.253  73.231  1.00  0.00    -0.498 NA 
HETATM   25  C   UNL     1     -12.010  15.237  69.884  1.00  0.00    -0.343 A  
HETATM   26  H2  UNL     1     -13.394  14.608  73.973  1.00  0.00     0.000 HD 
HETATM   27  H1  UNL     1     -13.127  16.261  73.381  1.00  0.00     0.000 HD 
HETATM   28  N   UNL     1     -11.786  16.264  68.963  1.00  0.00    -0.248 NA 
ENDBRANCH  11  12
ENDBRANCH   9  11
ENDBRANCH   5   9
BRANCH   8  29
HETATM   29  O   UNL     1      -9.634   6.532  68.291  1.00  0.00    -0.131 OA 
HETATM   30  C   UNL     1     -10.346   6.264  67.094  1.00  0.00    -0.229 C  
ENDBRANCH   8  29
BRANCH   7  31
HETATM   31  O   UNL     1      -7.384   6.981  70.033  1.00  0.00    -0.077 OA 
HETATM   32  C   UNL     1      -7.725   6.897  71.405  1.00  0.00    -0.092 C  
ENDBRANCH   7  31
ENDBRANCH   2   3
TORSDOF 6
ENDMDL
MODEL      157
REMARK 921   NORMALIZED FREE ENERGY PREDICTED BY IDOCK:   -4.84 KCAL/MOL
REMARK 922        TOTAL FREE ENERGY PREDICTED BY IDOCK:   -7.40 KCAL/MOL
REMARK 923 INTER-LIGAND FREE ENERGY PREDICTED BY IDOCK:   -6.63 KCAL/MOL
REMARK 924 INTRA-LIGAND FREE ENERGY PREDICTED BY IDOCK:   -0.77 KCAL/MOL
REMARK 927      BINDING AFFINITY PREDICTED BY RF-SCORE:    0.00 PKD
ROOT
HETATM    1  C   UNL     1      -8.770  11.576  67.343  1.00  0.00    -0.147 C  
HETATM    2  O   UNL     1      -9.957  12.216  67.806  1.00  0.00    -0.190 OA 
ENDROOT
BRANCH   2   3
HETATM    3  C   UNL     1     -10.600  11.626  68.867  1.00  0.00    -0.193 A  
HETATM    4  C   UNL     1     -10.165  10.383  69.359  1.00  0.00    -0.257 A  
HETATM    5  C   UNL     1     -10.771   9.762  70.451  1.00  0.00    -0.308 A  
HETATM    6  C   UNL     1     -11.864  10.407  71.022  1.00  0.00    -0.458 A  
HETATM    7  C   UNL     1     -11.675  12.298  69.493  1.00  0.00    -0.332 A  
HETATM    8  C   UNL     1     -12.308  11.667  70.583  1.00  0.00    -0.344 A  
BRANCH   5   9
HETATM    9  N   UNL     1     -10.349   8.476  70.812  1.00  0.00    -0.193 NA 
HETATM   10  H   UNL     1      -9.434   8.325  71.239  1.00  0.00     0.000 HD 
BRANCH   9  11
HETATM   11  C   UNL     1     -11.252   7.358  70.561  1.00  0.00    -0.274 C  
BRANCH  11  12
HETATM   12  C   UNL     1     -10.823   6.502  69.382  1.00  0.00    -0.363 A  
HETATM   13  C   UNL     1     -10.215   5.237  69.600  1.00  0.00    -0.348 A  
HETATM   14  H2  UNL     1     -10.208   2.277  70.095  1.00  0.00     0.000 HD 
HETATM   15  C   UNL     1      -9.880   4.383  68.478  1.00  0.00    -0.140 A  
HETATM   16  H1  UNL     1      -8.948   1.322  69.654  1.00  0.00     0.000 HD 
HETATM   17  C   UNL     1      -9.909   4.787  71.012  1.00  0.00    -0.267 C  
HETATM   18  C   UNL     1     -10.058   4.874  67.177  1.00  0.00    -0.187 A  
HETATM   19  N   UNL     1      -9.715   4.205  66.073  1.00  0.00    -0.196 NA 
HETATM   20  C   UNL     1     -10.638   6.116  66.993  1.00  0.00    -0.384 A  
HETATM   21  C   UNL     1     -11.041   6.912  68.063  1.00  0.00    -0.179 A  
HETATM   22  C   UNL     1      -9.195   2.993  66.226  1.00  0.00    -0.115 A  
HETATM   23  N   UNL     1      -9.064   2.364  67.387  1.00  0.00    -0.163 NA 
HETATM   24  N   UNL     1      -8.800   2.317  65.090  1.00  0.00    -0.117 NA 
HETATM   25  C   UNL     1      -9.402   3.052  68.487  1.00  0.00    -0.180 A  
HETATM   26  H2  UNL     1      -8.904   2.734  64.164  1.00  0.00     0.000 HD 
HETATM   27  H1  UNL     1      -8.402   1.387  65.207  1.00  0.00     0.000 HD 
HETATM   28  N   UNL     1      -9.292   2.281  69.648  1.00  0.00    -0.115 NA 
ENDBRANCH  11  12
ENDBRANCH   9  11
ENDBRANCH   5   9
BRANCH   8  29
HETATM   29  O   UNL     1     -13.373  12.098  71.337  1.00  0.00    -0.185 OA 
HETATM   30  C   UNL     1     -13.178  13.079  72.341  1.00  0.00    -0.381 C  
ENDBRANCH   8  29
BRANCH   7  31
HETATM   31  O   UNL     1     -12.185  13.514  69.127  1.00  0.00    -0.307 OA 
HETATM   32  C   UNL     1     -11.607  14.716  69.604  1.00  0.00    -0.307 C  
ENDBRANCH   7  31
ENDBRANCH   2   3
TORSDOF 6
ENDMDL
MODEL      158
REMARK 921   NORMALIZED FREE ENERGY PREDICTED BY IDOCK:   -4.81 KCAL/MOL
REMARK 922        TOTAL FREE ENERGY PREDICTED BY IDOCK:   -7.35 KCAL/MOL
REMARK 923 INTER-LIGAND FREE ENERGY PREDICTED BY IDOCK:   -6.79 KCAL/MOL
REMARK 924 INTRA-LIGAND FREE ENERGY PREDICTED BY IDOCK:   -0.56 KCAL/MOL
REMARK 927      BINDING AFFINITY PREDICTED BY RF-SCORE:    0.00 PKD
ROOT
HETATM    1  C   UNL     1      -7.803   6.779  64.937  1.00  0.00    -0.119 C  
HETATM    2  O   UNL     1      -7.649   6.198  66.231  1.00  0.00    -0.087 OA 
ENDROOT
BRANCH   2   3
HETATM    3  C   UNL     1      -7.722   7.056  67.302  1.00  0.00    -0.109 A  
HETATM    4  C   UNL     1      -7.479   8.430  67.130  1.00  0.00    -0.089 A  
HETATM    5  C   UNL     1      -7.570   9.338  68.184  1.00  0.00    -0.084 A  
HETATM    6  C   UNL     1      -7.876   8.825  69.441  1.00  0.00    -0.095 A  
HETATM    7  C   UNL     1      -8.089   6.556  68.572  1.00  0.00    -0.114 A  
HETATM    8  C   UNL     1      -8.160   7.463  69.648  1.00  0.00    -0.128 A  
BRANCH   5   9
HETATM    9  N   UNL     1      -7.209  10.672  67.954  1.00  0.00    -0.086 NA 
HETATM   10  H   UNL     1      -6.456  10.907  67.307  1.00  0.00     0.000 HD 
BRANCH   9  11
HETATM   11  C   UNL     1      -7.937  11.716  68.666  1.00  0.00    -0.127 C  
BRANCH  11  12
HETATM   12  C   UNL     1      -8.549  12.752  67.737  1.00  0.00    -0.184 A  
HETATM   13  C   UNL     1      -9.732  12.451  67.011  1.00  0.00    -0.211 A  
HETATM   14  H2  UNL     1     -12.700  12.237  66.624  1.00  0.00     0.000 HD 
HETATM   15  C   UNL     1     -10.362  13.463  66.188  1.00  0.00    -0.295 A  
HETATM   16  H1  UNL     1     -13.394  12.308  65.138  1.00  0.00     0.000 HD 
HETATM   17  C   UNL     1     -10.328  11.062  67.092  1.00  0.00    -0.259 C  
HETATM   18  C   UNL     1      -9.724  14.702  66.030  1.00  0.00    -0.312 A  
HETATM   19  N   UNL     1     -10.175  15.679  65.239  1.00  0.00    -0.393 NA 
HETATM   20  C   UNL     1      -8.565  14.963  66.737  1.00  0.00    -0.256 A  
HETATM   21  C   UNL     1      -7.993  14.026  67.596  1.00  0.00    -0.186 A  
HETATM   22  C   UNL     1     -11.310  15.464  64.584  1.00  0.00    -0.355 A  
HETATM   23  N   UNL     1     -12.071  14.385  64.715  1.00  0.00    -0.433 NA 
HETATM   24  N   UNL     1     -11.755  16.454  63.733  1.00  0.00    -1.498 NA 
HETATM   25  C   UNL     1     -11.600  13.408  65.504  1.00  0.00    -0.325 A  
HETATM   26  H2  UNL     1     -11.231  17.321  63.611  1.00  0.00     0.000 HD 
HETATM   27  H1  UNL     1     -12.626  16.290  63.230  1.00  0.00     0.000 HD 
HETATM   28  N   UNL     1     -12.502  12.348  65.630  1.00  0.00    -0.562 NA 
ENDBRANCH  11  12
ENDBRANCH   9  11
ENDBRANCH   5   9
BRANCH   8  29
HETATM   29  O   UNL     1      -8.470   7.225  70.966  1.00  0.00    -0.125 OA 
HETATM   30  C   UNL     1      -7.510   6.631  71.823  1.00  0.00    -0.091 C  
ENDBRANCH   8  29
BRANCH   7  31
HETATM   31  O   UNL     1      -8.367   5.249  68.872  1.00  0.00    -0.092 OA 
HETATM   32  C   UNL     1      -9.704   4.786  68.925  1.00  0.00    -0.174 C  
ENDBRANCH   7  31
ENDBRANCH   2   3
TORSDOF 6
ENDMDL
MODEL      159
REMARK 921   NORMALIZED FREE ENERGY PREDICTED BY IDOCK:   -4.80 KCAL/MOL
REMARK 922        TOTAL FREE ENERGY PREDICTED BY IDOCK:   -7.34 KCAL/MOL
REMARK 923 INTER-LIGAND FREE ENERGY PREDICTED BY IDOCK:   -6.77 KCAL/MOL
REMARK 924 INTRA-LIGAND FREE ENERGY PREDICTED BY IDOCK:   -0.58 KCAL/MOL
REMARK 927      BINDING AFFINITY PREDICTED BY RF-SCORE:    0.00 PKD
ROOT
HETATM    1  C   UNL     1     -11.482  15.992  69.202  1.00  0.00    -0.347 C  
HETATM    2  O   UNL     1     -12.465  15.398  70.047  1.00  0.00    -0.345 OA 
ENDROOT
BRANCH   2   3
HETATM    3  C   UNL     1     -12.490  14.025  70.090  1.00  0.00    -0.319 A  
HETATM    4  C   UNL     1     -12.024  13.271  68.999  1.00  0.00    -0.336 A  
HETATM    5  C   UNL     1     -12.005  11.877  69.012  1.00  0.00    -0.262 A  
HETATM    6  C   UNL     1     -12.511  11.246  70.145  1.00  0.00    -0.297 A  
HETATM    7  C   UNL     1     -12.947  13.372  71.257  1.00  0.00    -0.287 A  
HETATM    8  C   UNL     1     -12.955  11.962  71.270  1.00  0.00    -0.236 A  
BRANCH   5   9
HETATM    9  N   UNL     1     -11.626  11.199  67.846  1.00  0.00    -0.540 NA 
HETATM   10  H   UNL     1     -12.299  10.636  67.324  1.00  0.00     0.000 HD 
BRANCH   9  11
HETATM   11  C   UNL     1     -10.243  11.318  67.398  1.00  0.00    -0.188 C  
BRANCH  11  12
HETATM   12  C   UNL     1      -9.584   9.973  67.142  1.00  0.00    -0.202 A  
HETATM   13  C   UNL     1      -9.154   9.170  68.231  1.00  0.00    -0.132 A  
HETATM   14  H2  UNL     1      -9.504   7.132  70.406  1.00  0.00     0.000 HD 
HETATM   15  C   UNL     1      -8.600   7.852  67.993  1.00  0.00    -0.126 A  
HETATM   16  H1  UNL     1      -8.249   6.241  70.978  1.00  0.00     0.000 HD 
HETATM   17  C   UNL     1      -9.268   9.699  69.644  1.00  0.00    -0.225 C  
HETATM   18  C   UNL     1      -8.389   7.434  66.671  1.00  0.00    -0.124 A  
HETATM   19  N   UNL     1      -7.818   6.274  66.337  1.00  0.00    -0.102 NA 
HETATM   20  C   UNL     1      -8.803   8.243  65.630  1.00  0.00    -0.172 A  
HETATM   21  C   UNL     1      -9.413   9.478  65.846  1.00  0.00    -0.307 A  
HETATM   22  C   UNL     1      -7.452   5.463  67.322  1.00  0.00    -0.084 A  
HETATM   23  N   UNL     1      -7.681   5.682  68.611  1.00  0.00    -0.091 NA 
HETATM   24  N   UNL     1      -6.823   4.284  66.980  1.00  0.00    -0.051 NA 
HETATM   25  C   UNL     1      -8.244   6.854  68.932  1.00  0.00    -0.121 A  
HETATM   26  H2  UNL     1      -6.646   4.043  66.005  1.00  0.00     0.000 HD 
HETATM   27  H1  UNL     1      -6.542   3.661  67.737  1.00  0.00     0.000 HD 
HETATM   28  N   UNL     1      -8.505   6.959  70.301  1.00  0.00    -0.137 NA 
ENDBRANCH  11  12
ENDBRANCH   9  11
ENDBRANCH   5   9
BRANCH   8  29
HETATM   29  O   UNL     1     -13.364  11.105  72.263  1.00  0.00    -0.394 OA 
HETATM   30  C   UNL     1     -13.261   9.704  72.077  1.00  0.00    -0.453 C  
ENDBRANCH   8  29
BRANCH   7  31
HETATM   31  O   UNL     1     -13.411  13.983  72.391  1.00  0.00    -0.449 OA 
HETATM   32  C   UNL     1     -12.538  14.724  73.224  1.00  0.00    -0.441 C  
ENDBRANCH   7  31
ENDBRANCH   2   3
TORSDOF 6
ENDMDL
MODEL      160
REMARK 921   NORMALIZED FREE ENERGY PREDICTED BY IDOCK:   -4.78 KCAL/MOL
REMARK 922        TOTAL FREE ENERGY PREDICTED BY IDOCK:   -7.31 KCAL/MOL
REMARK 923 INTER-LIGAND FREE ENERGY PREDICTED BY IDOCK:   -7.06 KCAL/MOL
REMARK 924 INTRA-LIGAND FREE ENERGY PREDICTED BY IDOCK:   -0.25 KCAL/MOL
REMARK 927      BINDING AFFINITY PREDICTED BY RF-SCORE:    0.00 PKD
ROOT
HETATM    1  C   UNL     1      -5.634   5.913  70.028  1.00  0.00    -0.012 C  
HETATM    2  O   UNL     1      -5.645   7.287  70.409  1.00  0.00    -0.023 OA 
ENDROOT
BRANCH   2   3
HETATM    3  C   UNL     1      -6.856   7.809  70.794  1.00  0.00    -0.042 A  
HETATM    4  C   UNL     1      -7.559   8.679  69.942  1.00  0.00    -0.071 A  
HETATM    5  C   UNL     1      -8.803   9.208  70.281  1.00  0.00    -0.213 A  
HETATM    6  C   UNL     1      -9.316   8.873  71.531  1.00  0.00    -0.335 A  
HETATM    7  C   UNL     1      -7.416   7.431  72.036  1.00  0.00    -0.080 A  
HETATM    8  C   UNL     1      -8.663   7.980  72.398  1.00  0.00    -0.167 A  
BRANCH   5   9
HETATM    9  N   UNL     1      -9.388  10.150  69.426  1.00  0.00    -0.213 NA 
HETATM   10  H   UNL     1     -10.394  10.146  69.249  1.00  0.00     0.000 HD 
BRANCH   9  11
HETATM   11  C   UNL     1      -8.523  11.139  68.793  1.00  0.00    -0.134 C  
BRANCH  11  12
HETATM   12  C   UNL     1      -9.258  12.021  67.797  1.00  0.00    -0.190 A  
HETATM   13  C   UNL     1      -8.837  13.360  67.581  1.00  0.00    -0.200 A  
HETATM   14  H2  UNL     1      -7.182  15.513  66.305  1.00  0.00     0.000 HD 
HETATM   15  C   UNL     1      -9.484  14.177  66.574  1.00  0.00    -0.303 A  
HETATM   16  H1  UNL     1      -7.711  17.063  66.180  1.00  0.00     0.000 HD 
HETATM   17  C   UNL     1      -7.713  13.936  68.415  1.00  0.00    -0.139 C  
HETATM   18  C   UNL     1     -10.602  13.663  65.902  1.00  0.00    -0.289 A  
HETATM   19  N   UNL     1     -11.319  14.353  65.010  1.00  0.00    -0.355 NA 
HETATM   20  C   UNL     1     -11.000  12.361  66.143  1.00  0.00    -0.321 A  
HETATM   21  C   UNL     1     -10.335  11.537  67.049  1.00  0.00    -0.254 A  
HETATM   22  C   UNL     1     -10.928  15.591  64.733  1.00  0.00    -0.399 A  
HETATM   23  N   UNL     1      -9.834  16.168  65.215  1.00  0.00    -0.420 NA 
HETATM   24  N   UNL     1     -11.692  16.320  63.845  1.00  0.00    -1.518 NA 
HETATM   25  C   UNL     1      -9.131  15.468  66.116  1.00  0.00    -0.324 A  
HETATM   26  H2  UNL     1     -12.527  15.922  63.416  1.00  0.00     0.000 HD 
HETATM   27  H1  UNL     1     -11.392  17.270  63.632  1.00  0.00     0.000 HD 
HETATM   28  N   UNL     1      -7.966  16.132  66.510  1.00  0.00    -0.271 NA 
ENDBRANCH  11  12
ENDBRANCH   9  11
ENDBRANCH   5   9
BRANCH   8  29
HETATM   29  O   UNL     1      -9.396   7.788  73.544  1.00  0.00    -0.258 OA 
HETATM   30  C   UNL     1     -10.655   7.140  73.479  1.00  0.00    -0.374 C  
ENDBRANCH   8  29
BRANCH   7  31
HETATM   31  O   UNL     1      -6.847   6.584  72.949  1.00  0.00    -0.071 OA 
HETATM   32  C   UNL     1      -7.047   5.184  72.862  1.00  0.00    -0.087 C  
ENDBRANCH   7  31
ENDBRANCH   2   3
TORSDOF 6
ENDMDL
MODEL      161
REMARK 921   NORMALIZED FREE ENERGY PREDICTED BY IDOCK:   -4.76 KCAL/MOL
REMARK 922        TOTAL FREE ENERGY PREDICTED BY IDOCK:   -7.28 KCAL/MOL
REMARK 923 INTER-LIGAND FREE ENERGY PREDICTED BY IDOCK:   -6.43 KCAL/MOL
REMARK 924 INTRA-LIGAND FREE ENERGY PREDICTED BY IDOCK:   -0.84 KCAL/MOL
REMARK 927      BINDING AFFINITY PREDICTED BY RF-SCORE:    0.00 PKD
ROOT
HETATM    1  C   UNL     1     -11.899  14.214  65.606  1.00  0.00    -0.375 C  
HETATM    2  O   UNL     1     -11.742  14.781  66.905  1.00  0.00    -0.364 OA 
ENDROOT
BRANCH   2   3
HETATM    3  C   UNL     1     -10.473  14.768  67.432  1.00  0.00    -0.256 A  
HETATM    4  C   UNL     1      -9.699  13.595  67.394  1.00  0.00    -0.228 A  
HETATM    5  C   UNL     1      -8.398  13.546  67.891  1.00  0.00    -0.175 A  
HETATM    6  C   UNL     1      -7.896  14.706  68.474  1.00  0.00    -0.133 A  
HETATM    7  C   UNL     1      -9.931  15.956  67.974  1.00  0.00    -0.220 A  
HETATM    8  C   UNL     1      -8.624  15.909  68.501  1.00  0.00    -0.190 A  
BRANCH   5   9
HETATM    9  N   UNL     1      -7.733  12.313  67.913  1.00  0.00    -0.121 NA 
HETATM   10  H   UNL     1      -6.806  12.225  68.331  1.00  0.00     0.000 HD 
BRANCH   9  11
HETATM   11  C   UNL     1      -8.401  11.159  67.323  1.00  0.00    -0.135 C  
BRANCH  11  12
HETATM   12  C   UNL     1      -8.856  10.143  68.358  1.00  0.00    -0.123 A  
HETATM   13  C   UNL     1      -9.688   9.058  67.976  1.00  0.00    -0.179 A  
HETATM   14  H2  UNL     1     -10.247   6.306  66.918  1.00  0.00     0.000 HD 
HETATM   15  C   UNL     1     -10.056   8.043  68.943  1.00  0.00    -0.209 A  
HETATM   16  H1  UNL     1     -11.604   5.474  67.321  1.00  0.00     0.000 HD 
HETATM   17  C   UNL     1     -10.199   8.969  66.555  1.00  0.00    -0.318 C  
HETATM   18  C   UNL     1      -9.674   8.213  70.282  1.00  0.00    -0.175 A  
HETATM   19  N   UNL     1     -10.020   7.382  71.269  1.00  0.00    -0.187 NA 
HETATM   20  C   UNL     1      -8.876   9.288  70.629  1.00  0.00    -0.287 A  
HETATM   21  C   UNL     1      -8.447  10.226  69.692  1.00  0.00    -0.132 A  
HETATM   22  C   UNL     1     -10.751   6.320  70.950  1.00  0.00    -0.259 A  
HETATM   23  N   UNL     1     -11.097   5.980  69.715  1.00  0.00    -0.397 NA 
HETATM   24  N   UNL     1     -11.146   5.484  71.973  1.00  0.00    -0.220 NA 
HETATM   25  C   UNL     1     -10.753   6.829  68.736  1.00  0.00    -0.239 A  
HETATM   26  H2  UNL     1     -10.885   5.674  72.941  1.00  0.00     0.000 HD 
HETATM   27  H1  UNL     1     -11.706   4.669  71.728  1.00  0.00     0.000 HD 
HETATM   28  N   UNL     1     -11.102   6.349  67.471  1.00  0.00    -0.357 NA 
ENDBRANCH  11  12
ENDBRANCH   9  11
ENDBRANCH   5   9
BRANCH   8  29
HETATM   29  O   UNL     1      -7.891  16.909  69.093  1.00  0.00    -0.217 OA 
HETATM   30  C   UNL     1      -6.963  17.657  68.325  1.00  0.00    -0.220 C  
ENDBRANCH   8  29
BRANCH   7  31
HETATM   31  O   UNL     1     -10.567  17.165  68.058  1.00  0.00    -0.348 OA 
HETATM   32  C   UNL     1     -10.443  18.123  67.023  1.00  0.00    -0.370 C  
ENDBRANCH   7  31
ENDBRANCH   2   3
TORSDOF 6
ENDMDL
MODEL      162
REMARK 921   NORMALIZED FREE ENERGY PREDICTED BY IDOCK:   -4.74 KCAL/MOL
REMARK 922        TOTAL FREE ENERGY PREDICTED BY IDOCK:   -7.25 KCAL/MOL
REMARK 923 INTER-LIGAND FREE ENERGY PREDICTED BY IDOCK:   -6.95 KCAL/MOL
REMARK 924 INTRA-LIGAND FREE ENERGY PREDICTED BY IDOCK:   -0.30 KCAL/MOL
REMARK 927      BINDING AFFINITY PREDICTED BY RF-SCORE:    0.00 PKD
ROOT
HETATM    1  C   UNL     1     -13.012   9.983  71.682  1.00  0.00    -0.449 C  
HETATM    2  O   UNL     1     -12.001   8.987  71.831  1.00  0.00    -0.338 OA 
ENDROOT
BRANCH   2   3
HETATM    3  C   UNL     1     -11.048   8.926  70.844  1.00  0.00    -0.271 A  
HETATM    4  C   UNL     1     -10.522  10.105  70.289  1.00  0.00    -0.284 A  
HETATM    5  C   UNL     1      -9.534  10.089  69.306  1.00  0.00    -0.217 A  
HETATM    6  C   UNL     1      -9.107   8.843  68.856  1.00  0.00    -0.140 A  
HETATM    7  C   UNL     1     -10.564   7.668  70.419  1.00  0.00    -0.230 A  
HETATM    8  C   UNL     1      -9.582   7.640  69.408  1.00  0.00    -0.159 A  
BRANCH   5   9
HETATM    9  N   UNL     1      -9.139  11.302  68.729  1.00  0.00    -0.312 NA 
HETATM   10  H   UNL     1      -8.631  12.001  69.272  1.00  0.00     0.000 HD 
BRANCH   9  11
HETATM   11  C   UNL     1      -9.474  11.541  67.329  1.00  0.00    -0.169 C  
BRANCH  11  12
HETATM   12  C   UNL     1      -9.782  13.000  67.033  1.00  0.00    -0.235 A  
HETATM   13  C   UNL     1      -8.758  13.979  67.121  1.00  0.00    -0.234 A  
HETATM   14  H2  UNL     1      -6.451  15.596  66.085  1.00  0.00     0.000 HD 
HETATM   15  C   UNL     1      -9.029  15.356  66.760  1.00  0.00    -0.288 A  
HETATM   16  H1  UNL     1      -6.089  17.082  66.681  1.00  0.00     0.000 HD 
HETATM   17  C   UNL     1      -7.380  13.580  67.602  1.00  0.00    -0.180 C  
HETATM   18  C   UNL     1     -10.343  15.725  66.438  1.00  0.00    -0.299 A  
HETATM   19  N   UNL     1     -10.721  16.977  66.163  1.00  0.00    -0.174 NA 
HETATM   20  C   UNL     1     -11.325  14.754  66.375  1.00  0.00    -0.339 A  
HETATM   21  C   UNL     1     -11.059  13.412  66.639  1.00  0.00    -0.310 A  
HETATM   22  C   UNL     1      -9.785  17.918  66.176  1.00  0.00    -0.216 A  
HETATM   23  N   UNL     1      -8.489  17.698  66.364  1.00  0.00    -0.358 NA 
HETATM   24  N   UNL     1     -10.180  19.217  65.935  1.00  0.00    -0.501 NA 
HETATM   25  C   UNL     1      -8.126  16.440  66.649  1.00  0.00    -0.286 A  
HETATM   26  H2  UNL     1     -11.157  19.447  65.753  1.00  0.00     0.000 HD 
HETATM   27  H1  UNL     1      -9.461  19.940  65.945  1.00  0.00     0.000 HD 
HETATM   28  N   UNL     1      -6.740  16.301  66.762  1.00  0.00    -0.260 NA 
ENDBRANCH  11  12
ENDBRANCH   9  11
ENDBRANCH   5   9
BRANCH   8  29
HETATM   29  O   UNL     1      -8.974   6.558  68.817  1.00  0.00    -0.125 OA 
HETATM   30  C   UNL     1      -8.886   6.479  67.405  1.00  0.00    -0.115 C  
ENDBRANCH   8  29
BRANCH   7  31
HETATM   31  O   UNL     1     -10.977   6.448  70.886  1.00  0.00    -0.250 OA 
HETATM   32  C   UNL     1     -10.363   5.860  72.019  1.00  0.00    -0.207 C  
ENDBRANCH   7  31
ENDBRANCH   2   3
TORSDOF 6
ENDMDL
MODEL      163
REMARK 921   NORMALIZED FREE ENERGY PREDICTED BY IDOCK:   -4.73 KCAL/MOL
REMARK 922        TOTAL FREE ENERGY PREDICTED BY IDOCK:   -7.24 KCAL/MOL
REMARK 923 INTER-LIGAND FREE ENERGY PREDICTED BY IDOCK:   -6.04 KCAL/MOL
REMARK 924 INTRA-LIGAND FREE ENERGY PREDICTED BY IDOCK:   -1.21 KCAL/MOL
REMARK 927      BINDING AFFINITY PREDICTED BY RF-SCORE:    0.00 PKD
ROOT
HETATM    1  C   UNL     1     -10.690   2.801  73.194  1.00  0.00    -0.157 C  
HETATM    2  O   UNL     1      -9.771   3.452  74.069  1.00  0.00    -0.098 OA 
ENDROOT
BRANCH   2   3
HETATM    3  C   UNL     1      -9.623   4.808  73.906  1.00  0.00    -0.129 A  
HETATM    4  C   UNL     1     -10.744   5.621  73.658  1.00  0.00    -0.302 A  
HETATM    5  C   UNL     1     -10.643   7.004  73.514  1.00  0.00    -0.368 A  
HETATM    6  C   UNL     1      -9.368   7.558  73.585  1.00  0.00    -0.329 A  
HETATM    7  C   UNL     1      -8.342   5.391  74.033  1.00  0.00    -0.113 A  
HETATM    8  C   UNL     1      -8.227   6.786  73.865  1.00  0.00    -0.125 A  
BRANCH   5   9
HETATM    9  N   UNL     1     -11.789   7.729  73.163  1.00  0.00    -0.634 NA 
HETATM   10  H   UNL     1     -12.223   8.375  73.823  1.00  0.00     0.000 HD 
BRANCH   9  11
HETATM   11  C   UNL     1     -12.345   7.535  71.829  1.00  0.00    -0.326 C  
BRANCH  11  12
HETATM   12  C   UNL     1     -11.657   8.381  70.770  1.00  0.00    -0.252 A  
HETATM   13  C   UNL     1     -11.084   7.766  69.626  1.00  0.00    -0.052 A  
HETATM   14  H2  UNL     1     -11.121   6.630  66.848  1.00  0.00     0.000 HD 
HETATM   15  C   UNL     1     -10.499   8.576  68.576  1.00  0.00    -0.205 A  
HETATM   16  H1  UNL     1      -9.776   6.580  65.907  1.00  0.00     0.000 HD 
HETATM   17  C   UNL     1     -11.077   6.257  69.510  1.00  0.00    -0.476 C  
HETATM   18  C   UNL     1     -10.406   9.962  68.763  1.00  0.00    -0.203 A  
HETATM   19  N   UNL     1      -9.820  10.795  67.897  1.00  0.00    -0.164 NA 
HETATM   20  C   UNL     1     -10.958  10.533  69.894  1.00  0.00    -0.359 A  
HETATM   21  C   UNL     1     -11.597   9.773  70.873  1.00  0.00    -0.441 A  
HETATM   22  C   UNL     1      -9.321  10.272  66.784  1.00  0.00    -0.160 A  
HETATM   23  N   UNL     1      -9.427   8.998  66.429  1.00  0.00    -0.206 NA 
HETATM   24  N   UNL     1      -8.679  11.124  65.909  1.00  0.00    -0.224 NA 
HETATM   25  C   UNL     1     -10.006   8.172  67.312  1.00  0.00    -0.218 A  
HETATM   26  H2  UNL     1      -8.591  12.120  66.110  1.00  0.00     0.000 HD 
HETATM   27  H1  UNL     1      -8.295  10.722  65.055  1.00  0.00     0.000 HD 
HETATM   28  N   UNL     1     -10.131   6.871  66.818  1.00  0.00    -0.205 NA 
ENDBRANCH  11  12
ENDBRANCH   9  11
ENDBRANCH   5   9
BRANCH   8  29
HETATM   29  O   UNL     1      -7.104   7.577  73.920  1.00  0.00    -0.086 OA 
HETATM   30  C   UNL     1      -6.635   8.223  72.749  1.00  0.00    -0.091 C  
ENDBRANCH   8  29
BRANCH   7  31
HETATM   31  O   UNL     1      -7.176   4.721  74.288  1.00  0.00    -0.075 OA 
HETATM   32  C   UNL     1      -6.370   4.239  73.227  1.00  0.00    -0.040 C  
ENDBRANCH   7  31
ENDBRANCH   2   3
TORSDOF 6
ENDMDL
MODEL      164
REMARK 921   NORMALIZED FREE ENERGY PREDICTED BY IDOCK:   -4.71 KCAL/MOL
REMARK 922        TOTAL FREE ENERGY PREDICTED BY IDOCK:   -7.22 KCAL/MOL
REMARK 923 INTER-LIGAND FREE ENERGY PREDICTED BY IDOCK:   -6.50 KCAL/MOL
REMARK 924 INTRA-LIGAND FREE ENERGY PREDICTED BY IDOCK:   -0.72 KCAL/MOL
REMARK 927      BINDING AFFINITY PREDICTED BY RF-SCORE:    0.00 PKD
ROOT
HETATM    1  C   UNL     1     -13.418   9.953  71.841  1.00  0.00    -0.372 C  
HETATM    2  O   UNL     1     -12.821  11.246  71.923  1.00  0.00    -0.401 OA 
ENDROOT
BRANCH   2   3
HETATM    3  C   UNL     1     -12.204  11.711  70.787  1.00  0.00    -0.344 A  
HETATM    4  C   UNL     1     -11.365  10.868  70.038  1.00  0.00    -0.386 A  
HETATM    5  C   UNL     1     -10.742  11.291  68.864  1.00  0.00    -0.207 A  
HETATM    6  C   UNL     1     -10.950  12.611  68.475  1.00  0.00    -0.292 A  
HETATM    7  C   UNL     1     -12.453  13.032  70.348  1.00  0.00    -0.194 A  
HETATM    8  C   UNL     1     -11.808  13.475  69.176  1.00  0.00    -0.340 A  
BRANCH   5   9
HETATM    9  N   UNL     1      -9.837  10.426  68.235  1.00  0.00    -0.151 NA 
HETATM   10  H   UNL     1      -8.973  10.142  68.698  1.00  0.00     0.000 HD 
BRANCH   9  11
HETATM   11  C   UNL     1     -10.162   9.942  66.898  1.00  0.00    -0.240 C  
BRANCH  11  12
HETATM   12  C   UNL     1     -10.127   8.426  66.790  1.00  0.00    -0.373 A  
HETATM   13  C   UNL     1      -9.196   7.792  65.928  1.00  0.00    -0.078 A  
HETATM   14  H2  UNL     1      -6.532   6.615  65.202  1.00  0.00     0.000 HD 
HETATM   15  C   UNL     1      -9.105   6.346  65.884  1.00  0.00    -0.074 A  
HETATM   16  H1  UNL     1      -6.374   5.460  64.045  1.00  0.00     0.000 HD 
HETATM   17  C   UNL     1      -8.301   8.633  65.043  1.00  0.00    -0.181 C  
HETATM   18  C   UNL     1     -10.028   5.588  66.619  1.00  0.00    -0.186 A  
HETATM   19  N   UNL     1     -10.085   4.253  66.595  1.00  0.00    -0.180 NA 
HETATM   20  C   UNL     1     -10.935   6.232  67.440  1.00  0.00    -0.447 A  
HETATM   21  C   UNL     1     -10.978   7.620  67.553  1.00  0.00    -0.086 A  
HETATM   22  C   UNL     1      -9.195   3.614  65.847  1.00  0.00    -0.161 A  
HETATM   23  N   UNL     1      -8.204   4.195  65.182  1.00  0.00    -0.101 NA 
HETATM   24  N   UNL     1      -9.278   2.239  65.787  1.00  0.00    -0.297 NA 
HETATM   25  C   UNL     1      -8.166   5.534  65.205  1.00  0.00    -0.136 A  
HETATM   26  H2  UNL     1      -9.999   1.730  66.300  1.00  0.00     0.000 HD 
HETATM   27  H1  UNL     1      -8.595   1.747  65.212  1.00  0.00     0.000 HD 
HETATM   28  N   UNL     1      -7.051   6.045  64.535  1.00  0.00    -0.054 NA 
ENDBRANCH  11  12
ENDBRANCH   9  11
ENDBRANCH   5   9
BRANCH   8  29
HETATM   29  O   UNL     1     -11.870  14.704  68.563  1.00  0.00    -0.325 OA 
HETATM   30  C   UNL     1     -11.786  14.796  67.151  1.00  0.00    -0.286 C  
ENDBRANCH   8  29
BRANCH   7  31
HETATM   31  O   UNL     1     -13.258  13.947  70.972  1.00  0.00    -0.284 OA 
HETATM   32  C   UNL     1     -12.746  14.787  71.991  1.00  0.00    -0.329 C  
ENDBRANCH   7  31
ENDBRANCH   2   3
TORSDOF 6
ENDMDL
MODEL      165
REMARK 921   NORMALIZED FREE ENERGY PREDICTED BY IDOCK:   -4.71 KCAL/MOL
REMARK 922        TOTAL FREE ENERGY PREDICTED BY IDOCK:   -7.21 KCAL/MOL
REMARK 923 INTER-LIGAND FREE ENERGY PREDICTED BY IDOCK:   -6.67 KCAL/MOL
REMARK 924 INTRA-LIGAND FREE ENERGY PREDICTED BY IDOCK:   -0.54 KCAL/MOL
REMARK 927      BINDING AFFINITY PREDICTED BY RF-SCORE:    0.00 PKD
ROOT
HETATM    1  C   UNL     1     -12.988   9.714  71.403  1.00  0.00    -0.385 C  
HETATM    2  O   UNL     1     -12.112   8.608  71.195  1.00  0.00    -0.291 OA 
ENDROOT
BRANCH   2   3
HETATM    3  C   UNL     1     -11.146   8.762  70.231  1.00  0.00    -0.222 A  
HETATM    4  C   UNL     1     -10.483   9.993  70.078  1.00  0.00    -0.337 A  
HETATM    5  C   UNL     1      -9.477  10.185  69.132  1.00  0.00    -0.206 A  
HETATM    6  C   UNL     1      -9.173   9.109  68.302  1.00  0.00    -0.135 A  
HETATM    7  C   UNL     1     -10.786   7.662  69.420  1.00  0.00    -0.127 A  
HETATM    8  C   UNL     1      -9.787   7.852  68.445  1.00  0.00    -0.173 A  
BRANCH   5   9
HETATM    9  N   UNL     1      -8.942  11.469  68.970  1.00  0.00    -0.385 NA 
HETATM   10  H   UNL     1      -8.424  11.920  69.725  1.00  0.00     0.000 HD 
BRANCH   9  11
HETATM   11  C   UNL     1      -9.145  12.145  67.694  1.00  0.00    -0.181 C  
BRANCH  11  12
HETATM   12  C   UNL     1      -9.548  13.602  67.851  1.00  0.00    -0.223 A  
HETATM   13  C   UNL     1      -8.563  14.593  68.097  1.00  0.00    -0.166 A  
HETATM   14  H2  UNL     1      -6.472  16.598  67.312  1.00  0.00     0.000 HD 
HETATM   15  C   UNL     1      -8.934  15.993  68.166  1.00  0.00    -0.183 A  
HETATM   16  H1  UNL     1      -6.102  17.889  68.257  1.00  0.00     0.000 HD 
HETATM   17  C   UNL     1      -7.120  14.183  68.298  1.00  0.00    -0.112 C  
HETATM   18  C   UNL     1     -10.292  16.337  68.102  1.00  0.00    -0.277 A  
HETATM   19  N   UNL     1     -10.753  17.584  68.229  1.00  0.00    -0.351 NA 
HETATM   20  C   UNL     1     -11.232  15.349  67.877  1.00  0.00    -0.329 A  
HETATM   21  C   UNL     1     -10.880  14.009  67.726  1.00  0.00    -0.257 A  
HETATM   22  C   UNL     1      -9.863  18.553  68.403  1.00  0.00    -0.372 A  
HETATM   23  N   UNL     1      -8.546  18.388  68.382  1.00  0.00    -0.319 NA 
HETATM   24  N   UNL     1     -10.339  19.836  68.578  1.00  0.00    -0.513 NA 
HETATM   25  C   UNL     1      -8.098  17.130  68.265  1.00  0.00    -0.239 A  
HETATM   26  H2  UNL     1     -11.340  20.034  68.573  1.00  0.00     0.000 HD 
HETATM   27  H1  UNL     1      -9.656  20.580  68.712  1.00  0.00     0.000 HD 
HETATM   28  N   UNL     1      -6.704  17.070  68.185  1.00  0.00    -0.148 NA 
ENDBRANCH  11  12
ENDBRANCH   9  11
ENDBRANCH   5   9
BRANCH   8  29
HETATM   29  O   UNL     1      -9.281   6.957  67.533  1.00  0.00    -0.123 OA 
HETATM   30  C   UNL     1      -9.173   7.322  66.167  1.00  0.00    -0.089 C  
ENDBRANCH   8  29
BRANCH   7  31
HETATM   31  O   UNL     1     -11.337   6.409  69.475  1.00  0.00    -0.390 OA 
HETATM   32  C   UNL     1     -10.816   5.426  70.351  1.00  0.00    -0.138 C  
ENDBRANCH   7  31
ENDBRANCH   2   3
TORSDOF 6
ENDMDL
MODEL      166
REMARK 921   NORMALIZED FREE ENERGY PREDICTED BY IDOCK:   -4.69 KCAL/MOL
REMARK 922        TOTAL FREE ENERGY PREDICTED BY IDOCK:   -7.19 KCAL/MOL
REMARK 923 INTER-LIGAND FREE ENERGY PREDICTED BY IDOCK:   -6.60 KCAL/MOL
REMARK 924 INTRA-LIGAND FREE ENERGY PREDICTED BY IDOCK:   -0.58 KCAL/MOL
REMARK 927      BINDING AFFINITY PREDICTED BY RF-SCORE:    0.00 PKD
ROOT
HETATM    1  C   UNL     1     -10.558   3.738  73.095  1.00  0.00    -0.182 C  
HETATM    2  O   UNL     1      -9.665   4.521  73.885  1.00  0.00    -0.125 OA 
ENDROOT
BRANCH   2   3
HETATM    3  C   UNL     1      -9.412   5.797  73.446  1.00  0.00    -0.138 A  
HETATM    4  C   UNL     1     -10.472   6.688  73.200  1.00  0.00    -0.277 A  
HETATM    5  C   UNL     1     -10.260   8.000  72.780  1.00  0.00    -0.319 A  
HETATM    6  C   UNL     1      -8.941   8.394  72.570  1.00  0.00    -0.308 A  
HETATM    7  C   UNL     1      -8.076   6.228  73.285  1.00  0.00    -0.109 A  
HETATM    8  C   UNL     1      -7.852   7.546  72.838  1.00  0.00    -0.100 A  
BRANCH   5   9
HETATM    9  N   UNL     1     -11.370   8.789  72.453  1.00  0.00    -0.288 NA 
HETATM   10  H   UNL     1     -11.835   9.359  73.161  1.00  0.00     0.000 HD 
BRANCH   9  11
HETATM   11  C   UNL     1     -11.844   8.775  71.074  1.00  0.00    -0.271 C  
BRANCH  11  12
HETATM   12  C   UNL     1     -11.627  10.099  70.358  1.00  0.00    -0.396 A  
HETATM   13  C   UNL     1     -12.327  11.260  70.776  1.00  0.00    -0.495 A  
HETATM   14  H2  UNL     1     -12.764  13.714  72.448  1.00  0.00     0.000 HD 
HETATM   15  C   UNL     1     -12.062  12.540  70.149  1.00  0.00    -0.368 A  
HETATM   16  H1  UNL     1     -13.647  14.990  71.911  1.00  0.00     0.000 HD 
HETATM   17  C   UNL     1     -13.363  11.157  71.874  1.00  0.00    -0.409 C  
HETATM   18  C   UNL     1     -11.190  12.587  69.051  1.00  0.00    -0.268 A  
HETATM   19  N   UNL     1     -10.931  13.696  68.352  1.00  0.00    -0.252 NA 
HETATM   20  C   UNL     1     -10.533  11.437  68.655  1.00  0.00    -0.224 A  
HETATM   21  C   UNL     1     -10.717  10.217  69.303  1.00  0.00    -0.265 A  
HETATM   22  C   UNL     1     -11.519  14.820  68.741  1.00  0.00    -0.301 A  
HETATM   23  N   UNL     1     -12.284  14.943  69.819  1.00  0.00    -0.305 NA 
HETATM   24  N   UNL     1     -11.286  15.957  67.995  1.00  0.00    -0.340 NA 
HETATM   25  C   UNL     1     -12.545  13.821  70.504  1.00  0.00    -0.291 A  
HETATM   26  H2  UNL     1     -10.682  15.934  67.173  1.00  0.00     0.000 HD 
HETATM   27  H1  UNL     1     -11.738  16.820  68.294  1.00  0.00     0.000 HD 
HETATM   28  N   UNL     1     -13.299  14.067  71.655  1.00  0.00    -0.353 NA 
ENDBRANCH  11  12
ENDBRANCH   9  11
ENDBRANCH   5   9
BRANCH   8  29
HETATM   29  O   UNL     1      -6.662   8.188  72.587  1.00  0.00    -0.075 OA 
HETATM   30  C   UNL     1      -6.229   8.381  71.252  1.00  0.00    -0.040 C  
ENDBRANCH   8  29
BRANCH   7  31
HETATM   31  O   UNL     1      -6.956   5.472  73.504  1.00  0.00    -0.081 OA 
HETATM   32  C   UNL     1      -6.409   4.669  72.474  1.00  0.00    -0.026 C  
ENDBRANCH   7  31
ENDBRANCH   2   3
TORSDOF 6
ENDMDL
MODEL      167
REMARK 921   NORMALIZED FREE ENERGY PREDICTED BY IDOCK:   -4.67 KCAL/MOL
REMARK 922        TOTAL FREE ENERGY PREDICTED BY IDOCK:   -7.16 KCAL/MOL
REMARK 923 INTER-LIGAND FREE ENERGY PREDICTED BY IDOCK:   -6.15 KCAL/MOL
REMARK 924 INTRA-LIGAND FREE ENERGY PREDICTED BY IDOCK:   -1.02 KCAL/MOL
REMARK 927      BINDING AFFINITY PREDICTED BY RF-SCORE:    0.00 PKD
ROOT
HETATM    1  C   UNL     1      -8.829   9.800  67.931  1.00  0.00    -0.122 C  
HETATM    2  O   UNL     1      -9.289  10.660  68.971  1.00  0.00    -0.184 OA 
ENDROOT
BRANCH   2   3
HETATM    3  C   UNL     1      -9.991  10.069  69.993  1.00  0.00    -0.222 A  
HETATM    4  C   UNL     1      -9.404   9.047  70.760  1.00  0.00    -0.305 A  
HETATM    5  C   UNL     1     -10.070   8.440  71.824  1.00  0.00    -0.247 A  
HETATM    6  C   UNL     1     -11.373   8.858  72.080  1.00  0.00    -0.427 A  
HETATM    7  C   UNL     1     -11.293  10.525  70.301  1.00  0.00    -0.327 A  
HETATM    8  C   UNL     1     -11.983   9.900  71.360  1.00  0.00    -0.404 A  
BRANCH   5   9
HETATM    9  N   UNL     1      -9.459   7.357  72.469  1.00  0.00    -0.147 NA 
HETATM   10  H   UNL     1      -8.645   7.495  73.068  1.00  0.00     0.000 HD 
BRANCH   9  11
HETATM   11  C   UNL     1     -10.019   6.026  72.262  1.00  0.00    -0.167 C  
BRANCH  11  12
HETATM   12  C   UNL     1      -9.404   5.301  71.075  1.00  0.00    -0.193 A  
HETATM   13  C   UNL     1      -9.986   5.419  69.786  1.00  0.00    -0.294 A  
HETATM   14  H2  UNL     1     -10.433   6.715  67.116  1.00  0.00     0.000 HD 
HETATM   15  C   UNL     1      -9.356   4.796  68.639  1.00  0.00    -0.187 A  
HETATM   16  H1  UNL     1     -10.919   5.859  65.802  1.00  0.00     0.000 HD 
HETATM   17  C   UNL     1     -11.276   6.191  69.614  1.00  0.00    -0.488 C  
HETATM   18  C   UNL     1      -8.231   3.984  68.843  1.00  0.00    -0.073 A  
HETATM   19  N   UNL     1      -7.616   3.304  67.872  1.00  0.00    -0.064 NA 
HETATM   20  C   UNL     1      -7.693   3.875  70.112  1.00  0.00    -0.048 A  
HETATM   21  C   UNL     1      -8.242   4.535  71.210  1.00  0.00    -0.095 A  
HETATM   22  C   UNL     1      -8.090   3.429  66.638  1.00  0.00    -0.091 A  
HETATM   23  N   UNL     1      -9.080   4.239  66.284  1.00  0.00    -0.123 NA 
HETATM   24  N   UNL     1      -7.484   2.694  65.641  1.00  0.00    -0.071 NA 
HETATM   25  C   UNL     1      -9.695   4.906  67.270  1.00  0.00    -0.170 A  
HETATM   26  H2  UNL     1      -6.698   2.076  65.844  1.00  0.00     0.000 HD 
HETATM   27  H1  UNL     1      -7.848   2.790  64.694  1.00  0.00     0.000 HD 
HETATM   28  N   UNL     1     -10.674   5.780  66.788  1.00  0.00    -0.308 NA 
ENDBRANCH  11  12
ENDBRANCH   9  11
ENDBRANCH   5   9
BRANCH   8  29
HETATM   29  O   UNL     1     -13.249  10.145  71.835  1.00  0.00    -0.427 OA 
HETATM   30  C   UNL     1     -14.137   9.066  72.074  1.00  0.00    -0.368 C  
ENDBRANCH   8  29
BRANCH   7  31
HETATM   31  O   UNL     1     -11.972  11.518  69.648  1.00  0.00    -0.310 OA 
HETATM   32  C   UNL     1     -11.876  12.865  70.077  1.00  0.00    -0.286 C  
ENDBRANCH   7  31
ENDBRANCH   2   3
TORSDOF 6
ENDMDL
MODEL      168
REMARK 921   NORMALIZED FREE ENERGY PREDICTED BY IDOCK:   -4.67 KCAL/MOL
REMARK 922        TOTAL FREE ENERGY PREDICTED BY IDOCK:   -7.15 KCAL/MOL
REMARK 923 INTER-LIGAND FREE ENERGY PREDICTED BY IDOCK:   -6.59 KCAL/MOL
REMARK 924 INTRA-LIGAND FREE ENERGY PREDICTED BY IDOCK:   -0.56 KCAL/MOL
REMARK 927      BINDING AFFINITY PREDICTED BY RF-SCORE:    0.00 PKD
ROOT
HETATM    1  C   UNL     1      -8.921  14.157  68.006  1.00  0.00    -0.183 C  
HETATM    2  O   UNL     1     -10.048  13.303  67.821  1.00  0.00    -0.220 OA 
ENDROOT
BRANCH   2   3
HETATM    3  C   UNL     1      -9.917  12.306  66.885  1.00  0.00    -0.213 A  
HETATM    4  C   UNL     1      -9.751  10.969  67.289  1.00  0.00    -0.188 A  
HETATM    5  C   UNL     1      -9.642   9.923  66.373  1.00  0.00    -0.200 A  
HETATM    6  C   UNL     1      -9.663  10.258  65.022  1.00  0.00    -0.370 A  
HETATM    7  C   UNL     1      -9.995  12.624  65.510  1.00  0.00    -0.224 A  
HETATM    8  C   UNL     1      -9.862  11.576  64.577  1.00  0.00    -0.241 A  
BRANCH   5   9
HETATM    9  N   UNL     1      -9.372   8.635  66.853  1.00  0.00    -0.159 NA 
HETATM   10  H   UNL     1      -8.424   8.361  67.112  1.00  0.00     0.000 HD 
BRANCH   9  11
HETATM   11  C   UNL     1     -10.481   7.696  66.971  1.00  0.00    -0.349 C  
BRANCH  11  12
HETATM   12  C   UNL     1     -10.319   6.728  68.131  1.00  0.00    -0.219 A  
HETATM   13  C   UNL     1     -10.665   7.127  69.448  1.00  0.00    -0.246 A  
HETATM   14  H2  UNL     1     -12.540   7.554  71.752  1.00  0.00     0.000 HD 
HETATM   15  C   UNL     1     -10.588   6.180  70.543  1.00  0.00    -0.312 A  
HETATM   16  H1  UNL     1     -12.021   7.566  73.310  1.00  0.00     0.000 HD 
HETATM   17  C   UNL     1     -11.106   8.551  69.709  1.00  0.00    -0.067 C  
HETATM   18  C   UNL     1     -10.059   4.905  70.300  1.00  0.00    -0.252 A  
HETATM   19  N   UNL     1      -9.873   3.981  71.246  1.00  0.00    -0.186 NA 
HETATM   20  C   UNL     1      -9.715   4.548  69.009  1.00  0.00    -0.235 A  
HETATM   21  C   UNL     1      -9.862   5.422  67.933  1.00  0.00    -0.179 A  
HETATM   22  C   UNL     1     -10.236   4.288  72.485  1.00  0.00    -0.174 A  
HETATM   23  N   UNL     1     -10.841   5.414  72.842  1.00  0.00    -0.250 NA 
HETATM   24  N   UNL     1     -10.006   3.352  73.471  1.00  0.00    -0.109 NA 
HETATM   25  C   UNL     1     -11.011   6.337  71.885  1.00  0.00    -0.256 A  
HETATM   26  H2  UNL     1      -9.572   2.454  73.256  1.00  0.00     0.000 HD 
HETATM   27  H1  UNL     1     -10.284   3.588  74.423  1.00  0.00     0.000 HD 
HETATM   28  N   UNL     1     -11.716   7.453  72.344  1.00  0.00    -0.284 NA 
ENDBRANCH  11  12
ENDBRANCH   9  11
ENDBRANCH   5   9
BRANCH   8  29
HETATM   29  O   UNL     1      -9.882  11.629  63.203  1.00  0.00    -0.393 OA 
HETATM   30  C   UNL     1      -9.031  10.783  62.450  1.00  0.00    -0.306 C  
ENDBRANCH   8  29
BRANCH   7  31
HETATM   31  O   UNL     1     -10.170  13.876  64.984  1.00  0.00    -0.374 OA 
HETATM   32  C   UNL     1     -11.468  14.420  64.825  1.00  0.00    -0.402 C  
ENDBRANCH   7  31
ENDBRANCH   2   3
TORSDOF 6
ENDMDL
MODEL      169
REMARK 921   NORMALIZED FREE ENERGY PREDICTED BY IDOCK:   -4.64 KCAL/MOL
REMARK 922        TOTAL FREE ENERGY PREDICTED BY IDOCK:   -7.13 KCAL/MOL
REMARK 923 INTER-LIGAND FREE ENERGY PREDICTED BY IDOCK:   -6.40 KCAL/MOL
REMARK 924 INTRA-LIGAND FREE ENERGY PREDICTED BY IDOCK:   -0.72 KCAL/MOL
REMARK 927      BINDING AFFINITY PREDICTED BY RF-SCORE:    0.00 PKD
ROOT
HETATM    1  C   UNL     1      -7.820   5.994  64.746  1.00  0.00    -0.111 C  
HETATM    2  O   UNL     1      -7.513   5.560  66.069  1.00  0.00    -0.080 OA 
ENDROOT
BRANCH   2   3
HETATM    3  C   UNL     1      -7.682   6.482  67.073  1.00  0.00    -0.100 A  
HETATM    4  C   UNL     1      -7.475   7.850  66.825  1.00  0.00    -0.090 A  
HETATM    5  C   UNL     1      -7.662   8.821  67.807  1.00  0.00    -0.102 A  
HETATM    6  C   UNL     1      -8.028   8.380  69.075  1.00  0.00    -0.111 A  
HETATM    7  C   UNL     1      -8.110   6.052  68.350  1.00  0.00    -0.107 A  
HETATM    8  C   UNL     1      -8.279   7.025  69.356  1.00  0.00    -0.132 A  
BRANCH   5   9
HETATM    9  N   UNL     1      -7.331  10.150  67.510  1.00  0.00    -0.089 NA 
HETATM   10  H   UNL     1      -6.602  10.370  66.831  1.00  0.00     0.000 HD 
BRANCH   9  11
HETATM   11  C   UNL     1      -8.056  11.211  68.200  1.00  0.00    -0.128 C  
BRANCH  11  12
HETATM   12  C   UNL     1      -8.866  12.086  67.257  1.00  0.00    -0.183 A  
HETATM   13  C   UNL     1      -8.769  13.500  67.334  1.00  0.00    -0.220 A  
HETATM   14  H2  UNL     1      -7.565  16.177  66.710  1.00  0.00     0.000 HD 
HETATM   15  C   UNL     1      -9.477  14.335  66.383  1.00  0.00    -0.297 A  
HETATM   16  H1  UNL     1      -8.445  17.563  66.757  1.00  0.00     0.000 HD 
HETATM   17  C   UNL     1      -7.929  14.136  68.420  1.00  0.00    -0.142 C  
HETATM   18  C   UNL     1     -10.346  13.728  65.465  1.00  0.00    -0.321 A  
HETATM   19  N   UNL     1     -11.103  14.402  64.596  1.00  0.00    -0.376 NA 
HETATM   20  C   UNL     1     -10.433  12.348  65.423  1.00  0.00    -0.306 A  
HETATM   21  C   UNL     1      -9.694  11.531  66.277  1.00  0.00    -0.240 A  
HETATM   22  C   UNL     1     -11.003  15.726  64.591  1.00  0.00    -0.314 A  
HETATM   23  N   UNL     1     -10.151  16.425  65.330  1.00  0.00    -0.563 NA 
HETATM   24  N   UNL     1     -11.815  16.427  63.724  1.00  0.00    -1.377 NA 
HETATM   25  C   UNL     1      -9.406  15.737  66.206  1.00  0.00    -0.325 A  
HETATM   26  H2  UNL     1     -12.469  15.945  63.107  1.00  0.00     0.000 HD 
HETATM   27  H1  UNL     1     -11.738  17.443  63.721  1.00  0.00     0.000 HD 
HETATM   28  N   UNL     1      -8.496  16.552  66.885  1.00  0.00    -0.193 NA 
ENDBRANCH  11  12
ENDBRANCH   9  11
ENDBRANCH   5   9
BRANCH   8  29
HETATM   29  O   UNL     1      -8.663   6.862  70.666  1.00  0.00    -0.146 OA 
HETATM   30  C   UNL     1      -9.321   7.916  71.348  1.00  0.00    -0.143 C  
ENDBRANCH   8  29
BRANCH   7  31
HETATM   31  O   UNL     1      -8.363   4.759  68.720  1.00  0.00    -0.082 OA 
HETATM   32  C   UNL     1      -9.628   4.170  68.479  1.00  0.00    -0.125 C  
ENDBRANCH   7  31
ENDBRANCH   2   3
TORSDOF 6
ENDMDL
MODEL      170
REMARK 921   NORMALIZED FREE ENERGY PREDICTED BY IDOCK:   -4.63 KCAL/MOL
REMARK 922        TOTAL FREE ENERGY PREDICTED BY IDOCK:   -7.11 KCAL/MOL
REMARK 923 INTER-LIGAND FREE ENERGY PREDICTED BY IDOCK:   -6.60 KCAL/MOL
REMARK 924 INTRA-LIGAND FREE ENERGY PREDICTED BY IDOCK:   -0.51 KCAL/MOL
REMARK 927      BINDING AFFINITY PREDICTED BY RF-SCORE:    0.00 PKD
ROOT
HETATM    1  C   UNL     1      -6.424  17.472  65.635  1.00  0.00     0.106 C  
HETATM    2  O   UNL     1      -7.841  17.314  65.612  1.00  0.00    -0.417 OA 
ENDROOT
BRANCH   2   3
HETATM    3  C   UNL     1      -8.366  16.355  66.444  1.00  0.00    -0.328 A  
HETATM    4  C   UNL     1      -8.586  15.048  65.973  1.00  0.00     0.468 A  
HETATM    5  C   UNL     1      -9.091  14.038  66.790  1.00  0.00    -0.232 A  
HETATM    6  C   UNL     1      -9.414  14.383  68.100  1.00  0.00    -0.204 A  
HETATM    7  C   UNL     1      -8.644  16.677  67.792  1.00  0.00    -0.192 A  
HETATM    8  C   UNL     1      -9.178  15.668  68.620  1.00  0.00    -0.205 A  
BRANCH   5   9
HETATM    9  N   UNL     1      -9.381  12.793  66.218  1.00  0.00    -0.391 NA 
HETATM   10  H   UNL     1      -8.686  12.299  65.658  1.00  0.00     0.000 HD 
BRANCH   9  11
HETATM   11  C   UNL     1     -10.704  12.221  66.445  1.00  0.00    -0.251 C  
BRANCH  11  12
HETATM   12  C   UNL     1     -10.705  11.129  67.502  1.00  0.00    -0.280 A  
HETATM   13  C   UNL     1     -11.335  11.349  68.756  1.00  0.00    -0.334 A  
HETATM   14  H2  UNL     1     -13.657  11.401  70.655  1.00  0.00     0.000 HD 
HETATM   15  C   UNL     1     -11.408  10.282  69.734  1.00  0.00    -0.334 A  
HETATM   16  H1  UNL     1     -13.461  11.250  72.279  1.00  0.00     0.000 HD 
HETATM   17  C   UNL     1     -11.922  12.707  69.072  1.00  0.00    -0.282 C  
HETATM   18  C   UNL     1     -10.749   9.073  69.468  1.00  0.00    -0.206 A  
HETATM   19  N   UNL     1     -10.688   8.051  70.327  1.00  0.00    -0.236 NA 
HETATM   20  C   UNL     1     -10.130   8.892  68.245  1.00  0.00    -0.219 A  
HETATM   21  C   UNL     1     -10.123   9.881  67.263  1.00  0.00    -0.264 A  
HETATM   22  C   UNL     1     -11.313   8.189  71.490  1.00  0.00    -0.263 A  
HETATM   23  N   UNL     1     -12.058   9.232  71.834  1.00  0.00    -0.373 NA 
HETATM   24  N   UNL     1     -11.215   7.153  72.395  1.00  0.00    -0.260 NA 
HETATM   25  C   UNL     1     -12.100  10.254  70.968  1.00  0.00    -0.386 A  
HETATM   26  H2  UNL     1     -10.682   6.310  72.179  1.00  0.00     0.000 HD 
HETATM   27  H1  UNL     1     -11.694   7.258  73.289  1.00  0.00     0.000 HD 
HETATM   28  N   UNL     1     -12.962  11.270  71.389  1.00  0.00    -0.415 NA 
ENDBRANCH  11  12
ENDBRANCH   9  11
ENDBRANCH   5   9
BRANCH   8  29
HETATM   29  O   UNL     1      -9.546  15.734  69.942  1.00  0.00    -0.226 OA 
HETATM   30  C   UNL     1     -10.856  16.144  70.293  1.00  0.00    -0.297 C  
ENDBRANCH   8  29
BRANCH   7  31
HETATM   31  O   UNL     1      -8.463  17.899  68.380  1.00  0.00    -0.282 OA 
HETATM   32  C   UNL     1      -9.168  19.038  67.918  1.00  0.00    -0.301 C  
ENDBRANCH   7  31
ENDBRANCH   2   3
TORSDOF 6
ENDMDL
MODEL      171
REMARK 921   NORMALIZED FREE ENERGY PREDICTED BY IDOCK:   -4.63 KCAL/MOL
REMARK 922        TOTAL FREE ENERGY PREDICTED BY IDOCK:   -7.10 KCAL/MOL
REMARK 923 INTER-LIGAND FREE ENERGY PREDICTED BY IDOCK:   -6.22 KCAL/MOL
REMARK 924 INTRA-LIGAND FREE ENERGY PREDICTED BY IDOCK:   -0.88 KCAL/MOL
REMARK 927      BINDING AFFINITY PREDICTED BY RF-SCORE:    0.00 PKD
ROOT
HETATM    1  C   UNL     1      -5.817  11.169  68.942  1.00  0.00    -0.039 C  
HETATM    2  O   UNL     1      -5.865  12.594  68.972  1.00  0.00    -0.068 OA 
ENDROOT
BRANCH   2   3
HETATM    3  C   UNL     1      -6.955  13.185  68.383  1.00  0.00    -0.104 A  
HETATM    4  C   UNL     1      -7.864  12.416  67.634  1.00  0.00    -0.163 A  
HETATM    5  C   UNL     1      -8.998  12.971  67.044  1.00  0.00    -0.225 A  
HETATM    6  C   UNL     1      -9.183  14.343  67.188  1.00  0.00    -0.230 A  
HETATM    7  C   UNL     1      -7.186  14.567  68.571  1.00  0.00    -0.120 A  
HETATM    8  C   UNL     1      -8.318  15.141  67.957  1.00  0.00    -0.147 A  
BRANCH   5   9
HETATM    9  N   UNL     1      -9.795  12.159  66.225  1.00  0.00    -0.229 NA 
HETATM   10  H   UNL     1      -9.415  11.736  65.378  1.00  0.00     0.000 HD 
BRANCH   9  11
HETATM   11  C   UNL     1     -11.182  11.936  66.617  1.00  0.00    -0.328 C  
BRANCH  11  12
HETATM   12  C   UNL     1     -11.315  11.250  67.966  1.00  0.00    -0.372 A  
HETATM   13  C   UNL     1     -10.845   9.922  68.142  1.00  0.00    -0.282 A  
HETATM   14  H2  UNL     1      -8.776   7.829  68.730  1.00  0.00     0.000 HD 
HETATM   15  C   UNL     1     -10.896   9.294  69.447  1.00  0.00    -0.184 A  
HETATM   16  H1  UNL     1      -9.173   6.355  69.334  1.00  0.00     0.000 HD 
HETATM   17  C   UNL     1     -10.298   9.158  66.956  1.00  0.00    -0.333 C  
HETATM   18  C   UNL     1     -11.521   9.976  70.502  1.00  0.00    -0.330 A  
HETATM   19  N   UNL     1     -11.691   9.465  71.724  1.00  0.00    -0.385 NA 
HETATM   20  C   UNL     1     -11.984  11.263  70.299  1.00  0.00    -0.466 A  
HETATM   21  C   UNL     1     -11.866  11.908  69.069  1.00  0.00    -0.368 A  
HETATM   22  C   UNL     1     -11.215   8.247  71.952  1.00  0.00    -0.300 A  
HETATM   23  N   UNL     1     -10.516   7.529  71.082  1.00  0.00    -0.206 NA 
HETATM   24  N   UNL     1     -11.427   7.700  73.201  1.00  0.00    -0.613 NA 
HETATM   25  C   UNL     1     -10.363   8.049  69.857  1.00  0.00    -0.221 A  
HETATM   26  H2  UNL     1     -11.932   8.213  73.924  1.00  0.00     0.000 HD 
HETATM   27  H1  UNL     1     -11.063   6.764  73.376  1.00  0.00     0.000 HD 
HETATM   28  N   UNL     1      -9.557   7.252  69.039  1.00  0.00    -0.147 NA 
ENDBRANCH  11  12
ENDBRANCH   9  11
ENDBRANCH   5   9
BRANCH   8  29
HETATM   29  O   UNL     1      -8.745  16.447  67.973  1.00  0.00    -0.179 OA 
HETATM   30  C   UNL     1     -10.048  16.761  68.434  1.00  0.00    -0.285 C  
ENDBRANCH   8  29
BRANCH   7  31
HETATM   31  O   UNL     1      -6.394  15.424  69.287  1.00  0.00    -0.115 OA 
HETATM   32  C   UNL     1      -6.377  15.384  70.702  1.00  0.00     0.221 C  
ENDBRANCH   7  31
ENDBRANCH   2   3
TORSDOF 6
ENDMDL
MODEL      172
REMARK 921   NORMALIZED FREE ENERGY PREDICTED BY IDOCK:   -4.60 KCAL/MOL
REMARK 922        TOTAL FREE ENERGY PREDICTED BY IDOCK:   -7.07 KCAL/MOL
REMARK 923 INTER-LIGAND FREE ENERGY PREDICTED BY IDOCK:   -6.24 KCAL/MOL
REMARK 924 INTRA-LIGAND FREE ENERGY PREDICTED BY IDOCK:   -0.83 KCAL/MOL
REMARK 927      BINDING AFFINITY PREDICTED BY RF-SCORE:    0.00 PKD
ROOT
HETATM    1  C   UNL     1     -11.264  13.709  64.117  1.00  0.00    -0.272 C  
HETATM    2  O   UNL     1     -11.534  14.341  65.367  1.00  0.00    -0.316 OA 
ENDROOT
BRANCH   2   3
HETATM    3  C   UNL     1     -10.461  14.532  66.204  1.00  0.00    -0.298 A  
HETATM    4  C   UNL     1     -10.085  13.531  67.116  1.00  0.00    -0.245 A  
HETATM    5  C   UNL     1      -8.987  13.671  67.964  1.00  0.00    -0.188 A  
HETATM    6  C   UNL     1      -8.287  14.873  67.903  1.00  0.00    -0.149 A  
HETATM    7  C   UNL     1      -9.707  15.724  66.112  1.00  0.00    -0.322 A  
HETATM    8  C   UNL     1      -8.609  15.885  66.981  1.00  0.00    -0.216 A  
BRANCH   5   9
HETATM    9  N   UNL     1      -8.742  12.675  68.918  1.00  0.00    -0.345 NA 
HETATM   10  H   UNL     1      -9.161  12.725  69.847  1.00  0.00     0.000 HD 
BRANCH   9  11
HETATM   11  C   UNL     1      -7.872  11.564  68.547  1.00  0.00    -0.140 C  
BRANCH  11  12
HETATM   12  C   UNL     1      -8.641  10.331  68.103  1.00  0.00    -0.119 A  
HETATM   13  C   UNL     1      -8.028   9.376  67.250  1.00  0.00    -0.106 A  
HETATM   14  H2  UNL     1      -6.348   6.966  66.635  1.00  0.00     0.000 HD 
HETATM   15  C   UNL     1      -8.729   8.159  66.890  1.00  0.00    -0.136 A  
HETATM   16  H1  UNL     1      -6.571   6.070  65.277  1.00  0.00     0.000 HD 
HETATM   17  C   UNL     1      -6.640   9.637  66.707  1.00  0.00    -0.067 C  
HETATM   18  C   UNL     1     -10.060   7.998  67.304  1.00  0.00    -0.240 A  
HETATM   19  N   UNL     1     -10.824   6.954  66.969  1.00  0.00    -0.375 NA 
HETATM   20  C   UNL     1     -10.637   8.951  68.122  1.00  0.00    -0.211 A  
HETATM   21  C   UNL     1      -9.945  10.086  68.542  1.00  0.00    -0.177 A  
HETATM   22  C   UNL     1     -10.275   6.006  66.219  1.00  0.00     0.010 A  
HETATM   23  N   UNL     1      -9.003   5.978  65.842  1.00  0.00    -0.153 NA 
HETATM   24  N   UNL     1     -11.074   4.949  65.837  1.00  0.00    -0.839 NA 
HETATM   25  C   UNL     1      -8.251   7.036  66.175  1.00  0.00    -0.125 A  
HETATM   26  H2  UNL     1     -12.053   4.897  66.120  1.00  0.00     0.000 HD 
HETATM   27  H1  UNL     1     -10.653   4.222  65.261  1.00  0.00     0.000 HD 
HETATM   28  N   UNL     1      -6.916   6.879  65.792  1.00  0.00    -0.062 NA 
ENDBRANCH  11  12
ENDBRANCH   9  11
ENDBRANCH   5   9
BRANCH   8  29
HETATM   29  O   UNL     1      -7.744  16.946  67.100  1.00  0.00    -0.159 OA 
HETATM   30  C   UNL     1      -7.729  17.719  68.288  1.00  0.00    -0.266 C  
ENDBRANCH   8  29
BRANCH   7  31
HETATM   31  O   UNL     1      -9.954  16.767  65.260  1.00  0.00    -0.546 OA 
HETATM   32  C   UNL     1     -10.635  17.925  65.709  1.00  0.00    -0.174 C  
ENDBRANCH   7  31
ENDBRANCH   2   3
TORSDOF 6
ENDMDL
MODEL      173
REMARK 921   NORMALIZED FREE ENERGY PREDICTED BY IDOCK:   -4.60 KCAL/MOL
REMARK 922        TOTAL FREE ENERGY PREDICTED BY IDOCK:   -7.06 KCAL/MOL
REMARK 923 INTER-LIGAND FREE ENERGY PREDICTED BY IDOCK:   -6.47 KCAL/MOL
REMARK 924 INTRA-LIGAND FREE ENERGY PREDICTED BY IDOCK:   -0.59 KCAL/MOL
REMARK 927      BINDING AFFINITY PREDICTED BY RF-SCORE:    0.00 PKD
ROOT
HETATM    1  C   UNL     1     -13.748   7.775  72.219  1.00  0.00     0.029 C  
HETATM    2  O   UNL     1     -12.518   8.404  72.570  1.00  0.00    -0.364 OA 
ENDROOT
BRANCH   2   3
HETATM    3  C   UNL     1     -11.545   8.436  71.601  1.00  0.00    -0.289 A  
HETATM    4  C   UNL     1     -11.751   9.154  70.410  1.00  0.00    -0.124 A  
HETATM    5  C   UNL     1     -10.780   9.236  69.413  1.00  0.00    -0.208 A  
HETATM    6  C   UNL     1      -9.595   8.536  69.622  1.00  0.00    -0.170 A  
HETATM    7  C   UNL     1     -10.314   7.778  71.825  1.00  0.00    -0.199 A  
HETATM    8  C   UNL     1      -9.335   7.835  70.812  1.00  0.00    -0.161 A  
BRANCH   5   9
HETATM    9  N   UNL     1     -11.102   9.881  68.212  1.00  0.00    -0.478 NA 
HETATM   10  H   UNL     1     -12.074  10.052  67.953  1.00  0.00     0.000 HD 
BRANCH   9  11
HETATM   11  C   UNL     1     -10.011  10.301  67.340  1.00  0.00    -0.189 C  
BRANCH  11  12
HETATM   12  C   UNL     1      -9.854  11.811  67.271  1.00  0.00    -0.198 A  
HETATM   13  C   UNL     1     -10.532  12.555  66.270  1.00  0.00    -0.268 A  
HETATM   14  H2  UNL     1     -12.864  14.037  65.100  1.00  0.00     0.000 HD 
HETATM   15  C   UNL     1     -10.450  14.002  66.252  1.00  0.00    -0.286 A  
HETATM   16  H1  UNL     1     -12.673  15.211  63.967  1.00  0.00     0.000 HD 
HETATM   17  C   UNL     1     -11.335  11.830  65.212  1.00  0.00    -0.284 C  
HETATM   18  C   UNL     1      -9.600  14.643  67.165  1.00  0.00    -0.233 A  
HETATM   19  N   UNL     1      -9.390  15.962  67.190  1.00  0.00    -0.209 NA 
HETATM   20  C   UNL     1      -8.940  13.893  68.120  1.00  0.00    -0.185 A  
HETATM   21  C   UNL     1      -9.075  12.508  68.200  1.00  0.00    -0.204 A  
HETATM   22  C   UNL     1     -10.048  16.706  66.308  1.00  0.00    -0.328 A  
HETATM   23  N   UNL     1     -10.957  16.248  65.456  1.00  0.00    -0.209 NA 
HETATM   24  N   UNL     1      -9.800  18.062  66.304  1.00  0.00    -0.441 NA 
HETATM   25  C   UNL     1     -11.148  14.922  65.434  1.00  0.00    -0.364 A  
HETATM   26  H2  UNL     1      -9.136  18.481  66.955  1.00  0.00     0.000 HD 
HETATM   27  H1  UNL     1     -10.305  18.633  65.627  1.00  0.00     0.000 HD 
HETATM   28  N   UNL     1     -12.169  14.548  64.556  1.00  0.00    -0.521 NA 
ENDBRANCH  11  12
ENDBRANCH   9  11
ENDBRANCH   5   9
BRANCH   8  29
HETATM   29  O   UNL     1      -8.083   7.269  70.782  1.00  0.00    -0.108 OA 
HETATM   30  C   UNL     1      -6.932   8.092  70.867  1.00  0.00    -0.045 C  
ENDBRANCH   8  29
BRANCH   7  31
HETATM   31  O   UNL     1      -9.979   7.060  72.942  1.00  0.00    -0.169 OA 
HETATM   32  C   UNL     1     -10.736   5.928  73.330  1.00  0.00    -0.267 C  
ENDBRANCH   7  31
ENDBRANCH   2   3
TORSDOF 6
ENDMDL
MODEL      174
REMARK 921   NORMALIZED FREE ENERGY PREDICTED BY IDOCK:   -4.59 KCAL/MOL
REMARK 922        TOTAL FREE ENERGY PREDICTED BY IDOCK:   -7.06 KCAL/MOL
REMARK 923 INTER-LIGAND FREE ENERGY PREDICTED BY IDOCK:   -6.25 KCAL/MOL
REMARK 924 INTRA-LIGAND FREE ENERGY PREDICTED BY IDOCK:   -0.81 KCAL/MOL
REMARK 927      BINDING AFFINITY PREDICTED BY RF-SCORE:    0.00 PKD
ROOT
HETATM    1  C   UNL     1      -9.144   9.903  63.187  1.00  0.00    -0.266 C  
HETATM    2  O   UNL     1      -9.638  11.237  63.291  1.00  0.00    -0.295 OA 
ENDROOT
BRANCH   2   3
HETATM    3  C   UNL     1      -9.854  11.715  64.560  1.00  0.00    -0.224 A  
HETATM    4  C   UNL     1      -8.956  11.410  65.598  1.00  0.00    -0.131 A  
HETATM    5  C   UNL     1      -9.122  11.897  66.893  1.00  0.00    -0.196 A  
HETATM    6  C   UNL     1     -10.249  12.677  67.139  1.00  0.00    -0.230 A  
HETATM    7  C   UNL     1     -10.963  12.556  64.810  1.00  0.00    -0.303 A  
HETATM    8  C   UNL     1     -11.152  13.034  66.123  1.00  0.00    -0.287 A  
BRANCH   5   9
HETATM    9  N   UNL     1      -8.244  11.461  67.894  1.00  0.00    -0.126 NA 
HETATM   10  H   UNL     1      -7.885  12.108  68.596  1.00  0.00     0.000 HD 
BRANCH   9  11
HETATM   11  C   UNL     1      -7.856  10.055  67.905  1.00  0.00    -0.090 C  
BRANCH  11  12
HETATM   12  C   UNL     1      -8.599   9.242  68.952  1.00  0.00    -0.130 A  
HETATM   13  C   UNL     1      -8.061   9.097  70.258  1.00  0.00    -0.156 A  
HETATM   14  H2  UNL     1      -7.581   9.921  73.104  1.00  0.00     0.000 HD 
HETATM   15  C   UNL     1      -8.806   8.392  71.282  1.00  0.00    -0.210 A  
HETATM   16  H1  UNL     1      -7.252   8.829  74.285  1.00  0.00     0.000 HD 
HETATM   17  C   UNL     1      -6.699   9.675  70.577  1.00  0.00    -0.119 C  
HETATM   18  C   UNL     1     -10.007   7.758  70.930  1.00  0.00    -0.183 A  
HETATM   19  N   UNL     1     -10.736   7.020  71.772  1.00  0.00    -0.216 NA 
HETATM   20  C   UNL     1     -10.500   7.903  69.646  1.00  0.00    -0.226 A  
HETATM   21  C   UNL     1      -9.834   8.648  68.675  1.00  0.00    -0.180 A  
HETATM   22  C   UNL     1     -10.302   6.904  73.021  1.00  0.00    -0.244 A  
HETATM   23  N   UNL     1      -9.242   7.529  73.518  1.00  0.00    -0.225 NA 
HETATM   24  N   UNL     1     -11.031   6.108  73.880  1.00  0.00    -0.366 NA 
HETATM   25  C   UNL     1      -8.514   8.256  72.660  1.00  0.00    -0.183 A  
HETATM   26  H2  UNL     1     -11.873   5.625  73.567  1.00  0.00     0.000 HD 
HETATM   27  H1  UNL     1     -10.698   6.018  74.839  1.00  0.00     0.000 HD 
HETATM   28  N   UNL     1      -7.463   8.926  73.292  1.00  0.00    -0.311 NA 
ENDBRANCH  11  12
ENDBRANCH   9  11
ENDBRANCH   5   9
BRANCH   8  29
HETATM   29  O   UNL     1     -12.151  13.838  66.618  1.00  0.00    -0.411 OA 
HETATM   30  C   UNL     1     -12.054  14.358  67.933  1.00  0.00    -0.245 C  
ENDBRANCH   8  29
BRANCH   7  31
HETATM   31  O   UNL     1     -11.901  12.943  63.891  1.00  0.00    -0.401 OA 
HETATM   32  C   UNL     1     -12.863  12.024  63.406  1.00  0.00    -0.291 C  
ENDBRANCH   7  31
ENDBRANCH   2   3
TORSDOF 6
ENDMDL
MODEL      175
REMARK 921   NORMALIZED FREE ENERGY PREDICTED BY IDOCK:   -4.59 KCAL/MOL
REMARK 922        TOTAL FREE ENERGY PREDICTED BY IDOCK:   -7.05 KCAL/MOL
REMARK 923 INTER-LIGAND FREE ENERGY PREDICTED BY IDOCK:   -6.43 KCAL/MOL
REMARK 924 INTRA-LIGAND FREE ENERGY PREDICTED BY IDOCK:   -0.61 KCAL/MOL
REMARK 927      BINDING AFFINITY PREDICTED BY RF-SCORE:    0.00 PKD
ROOT
HETATM    1  C   UNL     1     -12.730  12.001  63.208  1.00  0.00    -0.303 C  
HETATM    2  O   UNL     1     -11.306  12.062  63.239  1.00  0.00    -0.381 OA 
ENDROOT
BRANCH   2   3
HETATM    3  C   UNL     1     -10.718  12.077  64.480  1.00  0.00    -0.312 A  
HETATM    4  C   UNL     1     -10.406  10.872  65.134  1.00  0.00    -0.344 A  
HETATM    5  C   UNL     1      -9.784  10.842  66.381  1.00  0.00    -0.199 A  
HETATM    6  C   UNL     1      -9.514  12.066  66.987  1.00  0.00    -0.199 A  
HETATM    7  C   UNL     1     -10.386  13.313  65.080  1.00  0.00    -0.323 A  
HETATM    8  C   UNL     1      -9.778  13.292  66.352  1.00  0.00    -0.276 A  
BRANCH   5   9
HETATM    9  N   UNL     1      -9.604   9.604  67.013  1.00  0.00    -0.166 NA 
HETATM   10  H   UNL     1     -10.071   8.766  66.667  1.00  0.00     0.000 HD 
BRANCH   9  11
HETATM   11  C   UNL     1      -8.732   9.546  68.181  1.00  0.00    -0.120 C  
BRANCH  11  12
HETATM   12  C   UNL     1      -8.997   8.336  69.061  1.00  0.00    -0.147 A  
HETATM   13  C   UNL     1      -9.928   8.420  70.129  1.00  0.00    -0.190 A  
HETATM   14  H2  UNL     1     -12.660   8.303  71.365  1.00  0.00     0.000 HD 
HETATM   15  C   UNL     1     -10.244   7.246  70.918  1.00  0.00    -0.203 A  
HETATM   16  H1  UNL     1     -12.885   7.955  72.954  1.00  0.00     0.000 HD 
HETATM   17  C   UNL     1     -10.585   9.745  70.449  1.00  0.00    -0.365 C  
HETATM   18  C   UNL     1      -9.531   6.061  70.684  1.00  0.00    -0.168 A  
HETATM   19  N   UNL     1      -9.686   4.943  71.398  1.00  0.00    -0.166 NA 
HETATM   20  C   UNL     1      -8.618   6.012  69.646  1.00  0.00    -0.126 A  
HETATM   21  C   UNL     1      -8.366   7.111  68.827  1.00  0.00    -0.126 A  
HETATM   22  C   UNL     1     -10.588   4.956  72.372  1.00  0.00    -0.200 A  
HETATM   23  N   UNL     1     -11.403   5.969  72.639  1.00  0.00    -0.286 NA 
HETATM   24  N   UNL     1     -10.720   3.817  73.138  1.00  0.00    -0.180 NA 
HETATM   25  C   UNL     1     -11.228   7.088  71.922  1.00  0.00    -0.249 A  
HETATM   26  H2  UNL     1     -10.144   2.993  72.963  1.00  0.00     0.000 HD 
HETATM   27  H1  UNL     1     -11.412   3.827  73.886  1.00  0.00     0.000 HD 
HETATM   28  N   UNL     1     -12.176   8.068  72.231  1.00  0.00    -0.330 NA 
ENDBRANCH  11  12
ENDBRANCH   9  11
ENDBRANCH   5   9
BRANCH   8  29
HETATM   29  O   UNL     1      -9.383  14.345  67.142  1.00  0.00    -0.203 OA 
HETATM   30  C   UNL     1      -9.310  14.186  68.549  1.00  0.00    -0.191 C  
ENDBRANCH   8  29
BRANCH   7  31
HETATM   31  O   UNL     1     -10.618  14.553  64.548  1.00  0.00    -0.350 OA 
HETATM   32  C   UNL     1     -11.910  15.132  64.595  1.00  0.00    -0.332 C  
ENDBRANCH   7  31
ENDBRANCH   2   3
TORSDOF 6
ENDMDL
MODEL      176
REMARK 921   NORMALIZED FREE ENERGY PREDICTED BY IDOCK:   -4.53 KCAL/MOL
REMARK 922        TOTAL FREE ENERGY PREDICTED BY IDOCK:   -6.97 KCAL/MOL
REMARK 923 INTER-LIGAND FREE ENERGY PREDICTED BY IDOCK:   -5.89 KCAL/MOL
REMARK 924 INTRA-LIGAND FREE ENERGY PREDICTED BY IDOCK:   -1.07 KCAL/MOL
REMARK 927      BINDING AFFINITY PREDICTED BY RF-SCORE:    0.00 PKD
ROOT
HETATM    1  C   UNL     1     -13.771   9.238  72.392  1.00  0.00    -0.452 C  
HETATM    2  O   UNL     1     -13.196  10.226  71.538  1.00  0.00    -0.381 OA 
ENDROOT
BRANCH   2   3
HETATM    3  C   UNL     1     -11.920   9.984  71.091  1.00  0.00    -0.392 A  
HETATM    4  C   UNL     1     -11.117   9.016  71.721  1.00  0.00    -0.444 A  
HETATM    5  C   UNL     1      -9.827   8.720  71.282  1.00  0.00    -0.266 A  
HETATM    6  C   UNL     1      -9.338   9.455  70.206  1.00  0.00    -0.294 A  
HETATM    7  C   UNL     1     -11.431  10.682  69.963  1.00  0.00    -0.325 A  
HETATM    8  C   UNL     1     -10.120  10.406  69.527  1.00  0.00    -0.219 A  
BRANCH   5   9
HETATM    9  N   UNL     1      -9.053   7.821  72.028  1.00  0.00    -0.130 NA 
HETATM   10  H   UNL     1      -8.330   8.156  72.666  1.00  0.00     0.000 HD 
BRANCH   9  11
HETATM   11  C   UNL     1      -9.309   6.394  71.869  1.00  0.00    -0.152 C  
BRANCH  11  12
HETATM   12  C   UNL     1      -8.734   5.829  70.580  1.00  0.00    -0.137 A  
HETATM   13  C   UNL     1      -9.560   5.678  69.435  1.00  0.00    -0.187 A  
HETATM   14  H2  UNL     1     -10.903   6.600  66.915  1.00  0.00     0.000 HD 
HETATM   15  C   UNL     1      -8.997   5.216  68.182  1.00  0.00    -0.118 A  
HETATM   16  H1  UNL     1     -11.333   5.556  65.723  1.00  0.00     0.000 HD 
HETATM   17  C   UNL     1     -11.037   5.992  69.530  1.00  0.00    -0.468 C  
HETATM   18  C   UNL     1      -7.654   4.813  68.152  1.00  0.00    -0.081 A  
HETATM   19  N   UNL     1      -7.052   4.302  67.074  1.00  0.00    -0.066 NA 
HETATM   20  C   UNL     1      -6.876   4.956  69.286  1.00  0.00    -0.050 A  
HETATM   21  C   UNL     1      -7.386   5.477  70.474  1.00  0.00    -0.075 A  
HETATM   22  C   UNL     1      -7.769   4.195  65.963  1.00  0.00    -0.090 A  
HETATM   23  N   UNL     1      -9.015   4.629  65.818  1.00  0.00    -0.129 NA 
HETATM   24  N   UNL     1      -7.163   3.629  64.861  1.00  0.00    -0.065 NA 
HETATM   25  C   UNL     1      -9.610   5.129  66.910  1.00  0.00    -0.148 A  
HETATM   26  H2  UNL     1      -6.197   3.303  64.899  1.00  0.00     0.000 HD 
HETATM   27  H1  UNL     1      -7.714   3.547  64.007  1.00  0.00     0.000 HD 
HETATM   28  N   UNL     1     -10.891   5.619  66.639  1.00  0.00    -0.273 NA 
ENDBRANCH  11  12
ENDBRANCH   9  11
ENDBRANCH   5   9
BRANCH   8  29
HETATM   29  O   UNL     1      -9.418  10.958  68.482  1.00  0.00    -0.170 OA 
HETATM   30  C   UNL     1      -8.015  11.132  68.585  1.00  0.00    -0.145 C  
ENDBRANCH   8  29
BRANCH   7  31
HETATM   31  O   UNL     1     -12.111  11.633  69.250  1.00  0.00    -0.311 OA 
HETATM   32  C   UNL     1     -11.894  13.012  69.490  1.00  0.00    -0.323 C  
ENDBRANCH   7  31
ENDBRANCH   2   3
TORSDOF 6
ENDMDL
MODEL      177
REMARK 921   NORMALIZED FREE ENERGY PREDICTED BY IDOCK:   -4.48 KCAL/MOL
REMARK 922        TOTAL FREE ENERGY PREDICTED BY IDOCK:   -6.90 KCAL/MOL
REMARK 923 INTER-LIGAND FREE ENERGY PREDICTED BY IDOCK:   -6.23 KCAL/MOL
REMARK 924 INTRA-LIGAND FREE ENERGY PREDICTED BY IDOCK:   -0.67 KCAL/MOL
REMARK 927      BINDING AFFINITY PREDICTED BY RF-SCORE:    0.00 PKD
ROOT
HETATM    1  C   UNL     1      -7.634   5.474  64.764  1.00  0.00    -0.079 C  
HETATM    2  O   UNL     1      -7.511   4.758  65.991  1.00  0.00    -0.077 OA 
ENDROOT
BRANCH   2   3
HETATM    3  C   UNL     1      -7.916   5.413  67.128  1.00  0.00    -0.101 A  
HETATM    4  C   UNL     1      -8.042   6.813  67.136  1.00  0.00    -0.117 A  
HETATM    5  C   UNL     1      -8.477   7.514  68.260  1.00  0.00    -0.125 A  
HETATM    6  C   UNL     1      -8.749   6.772  69.406  1.00  0.00    -0.136 A  
HETATM    7  C   UNL     1      -8.252   4.666  68.281  1.00  0.00    -0.090 A  
HETATM    8  C   UNL     1      -8.670   5.369  69.429  1.00  0.00    -0.105 A  
BRANCH   5   9
HETATM    9  N   UNL     1      -8.472   8.915  68.222  1.00  0.00    -0.129 NA 
HETATM   10  H   UNL     1      -7.633   9.429  67.951  1.00  0.00     0.000 HD 
BRANCH   9  11
HETATM   11  C   UNL     1      -9.699   9.618  68.578  1.00  0.00    -0.150 C  
BRANCH  11  12
HETATM   12  C   UNL     1     -10.153  10.599  67.510  1.00  0.00    -0.217 A  
HETATM   13  C   UNL     1     -10.986  11.696  67.854  1.00  0.00    -0.277 A  
HETATM   14  H2  UNL     1     -11.547  14.481  68.821  1.00  0.00     0.000 HD 
HETATM   15  C   UNL     1     -11.353  12.678  66.853  1.00  0.00    -0.373 A  
HETATM   16  H1  UNL     1     -12.904  15.298  68.388  1.00  0.00     0.000 HD 
HETATM   17  C   UNL     1     -11.499  11.832  69.271  1.00  0.00    -0.369 C  
HETATM   18  C   UNL     1     -10.969  12.464  65.522  1.00  0.00    -0.293 A  
HETATM   19  N   UNL     1     -11.315  13.262  64.508  1.00  0.00    -0.347 NA 
HETATM   20  C   UNL     1     -10.171  11.379  65.212  1.00  0.00    -0.320 A  
HETATM   21  C   UNL     1      -9.742  10.472  66.180  1.00  0.00    -0.259 A  
HETATM   22  C   UNL     1     -12.046  14.333  64.790  1.00  0.00    -0.446 A  
HETATM   23  N   UNL     1     -12.394  14.714  66.013  1.00  0.00    -0.189 NA 
HETATM   24  N   UNL     1     -12.440  15.135  63.740  1.00  0.00    -1.007 NA 
HETATM   25  C   UNL     1     -12.051  13.898  67.020  1.00  0.00    -0.415 A  
HETATM   26  H2  UNL     1     -12.178  14.913  62.779  1.00  0.00     0.000 HD 
HETATM   27  H1  UNL     1     -13.001  15.957  63.956  1.00  0.00     0.000 HD 
HETATM   28  N   UNL     1     -12.402  14.419  68.268  1.00  0.00    -0.110 NA 
ENDBRANCH  11  12
ENDBRANCH   9  11
ENDBRANCH   5   9
BRANCH   8  29
HETATM   29  O   UNL     1      -9.027   4.881  70.664  1.00  0.00    -0.119 OA 
HETATM   30  C   UNL     1      -8.039   4.690  71.662  1.00  0.00    -0.103 C  
ENDBRANCH   8  29
BRANCH   7  31
HETATM   31  O   UNL     1      -8.190   3.304  68.402  1.00  0.00    -0.071 OA 
HETATM   32  C   UNL     1      -9.350   2.508  68.235  1.00  0.00    -0.205 C  
ENDBRANCH   7  31
ENDBRANCH   2   3
TORSDOF 6
ENDMDL
MODEL      178
REMARK 921   NORMALIZED FREE ENERGY PREDICTED BY IDOCK:   -4.43 KCAL/MOL
REMARK 922        TOTAL FREE ENERGY PREDICTED BY IDOCK:   -6.84 KCAL/MOL
REMARK 923 INTER-LIGAND FREE ENERGY PREDICTED BY IDOCK:   -6.30 KCAL/MOL
REMARK 924 INTRA-LIGAND FREE ENERGY PREDICTED BY IDOCK:   -0.54 KCAL/MOL
REMARK 927      BINDING AFFINITY PREDICTED BY RF-SCORE:    0.00 PKD
ROOT
HETATM    1  C   UNL     1      -9.889  11.086  63.451  1.00  0.00    -0.363 C  
HETATM    2  O   UNL     1      -9.301  11.351  64.723  1.00  0.00    -0.194 OA 
ENDROOT
BRANCH   2   3
HETATM    3  C   UNL     1      -9.625  10.489  65.742  1.00  0.00    -0.210 A  
HETATM    4  C   UNL     1     -10.654  10.810  66.645  1.00  0.00    -0.291 A  
HETATM    5  C   UNL     1     -11.033   9.952  67.676  1.00  0.00    -0.200 A  
HETATM    6  C   UNL     1     -10.320   8.764  67.809  1.00  0.00    -0.297 A  
HETATM    7  C   UNL     1      -8.948   9.253  65.853  1.00  0.00    -0.184 A  
HETATM    8  C   UNL     1      -9.309   8.390  66.907  1.00  0.00    -0.174 A  
BRANCH   5   9
HETATM    9  N   UNL     1     -11.993  10.392  68.597  1.00  0.00    -0.745 NA 
HETATM   10  H   UNL     1     -12.946  10.602  68.301  1.00  0.00     0.000 HD 
BRANCH   9  11
HETATM   11  C   UNL     1     -11.592  10.541  69.992  1.00  0.00    -0.313 C  
BRANCH  11  12
HETATM   12  C   UNL     1     -11.624   9.230  70.762  1.00  0.00    -0.345 A  
HETATM   13  C   UNL     1     -10.416   8.632  71.205  1.00  0.00    -0.311 A  
HETATM   14  H2  UNL     1      -8.137   8.205  73.111  1.00  0.00     0.000 HD 
HETATM   15  C   UNL     1     -10.448   7.427  72.009  1.00  0.00    -0.230 A  
HETATM   16  H1  UNL     1      -7.309   6.788  73.177  1.00  0.00     0.000 HD 
HETATM   17  C   UNL     1      -9.089   9.254  70.827  1.00  0.00    -0.306 C  
HETATM   18  C   UNL     1     -11.681   6.801  72.242  1.00  0.00    -0.263 A  
HETATM   19  N   UNL     1     -11.820   5.649  72.904  1.00  0.00    -0.154 NA 
HETATM   20  C   UNL     1     -12.842   7.397  71.785  1.00  0.00    -0.365 A  
HETATM   21  C   UNL     1     -12.831   8.600  71.081  1.00  0.00    -0.118 A  
HETATM   22  C   UNL     1     -10.722   5.082  73.388  1.00  0.00    -0.273 A  
HETATM   23  N   UNL     1      -9.506   5.610  73.332  1.00  0.00    -0.138 NA 
HETATM   24  N   UNL     1     -10.859   3.871  74.034  1.00  0.00    -0.221 NA 
HETATM   25  C   UNL     1      -9.379   6.760  72.655  1.00  0.00    -0.139 A  
HETATM   26  H2  UNL     1     -11.771   3.427  74.137  1.00  0.00     0.000 HD 
HETATM   27  H1  UNL     1     -10.015   3.435  74.406  1.00  0.00     0.000 HD 
HETATM   28  N   UNL     1      -8.079   7.268  72.712  1.00  0.00    -0.104 NA 
ENDBRANCH  11  12
ENDBRANCH   9  11
ENDBRANCH   5   9
BRANCH   8  29
HETATM   29  O   UNL     1      -8.794   7.159  67.235  1.00  0.00    -0.119 OA 
HETATM   30  C   UNL     1      -7.596   7.070  67.987  1.00  0.00    -0.111 C  
ENDBRANCH   8  29
BRANCH   7  31
HETATM   31  O   UNL     1      -7.943   8.812  65.034  1.00  0.00    -0.117 OA 
HETATM   32  C   UNL     1      -8.219   7.934  63.957  1.00  0.00    -0.022 C  
ENDBRANCH   7  31
ENDBRANCH   2   3
TORSDOF 6
ENDMDL
MODEL      179
REMARK 921   NORMALIZED FREE ENERGY PREDICTED BY IDOCK:   -4.43 KCAL/MOL
REMARK 922        TOTAL FREE ENERGY PREDICTED BY IDOCK:   -6.83 KCAL/MOL
REMARK 923 INTER-LIGAND FREE ENERGY PREDICTED BY IDOCK:   -6.47 KCAL/MOL
REMARK 924 INTRA-LIGAND FREE ENERGY PREDICTED BY IDOCK:   -0.36 KCAL/MOL
REMARK 927      BINDING AFFINITY PREDICTED BY RF-SCORE:    0.00 PKD
ROOT
HETATM    1  C   UNL     1     -12.047  13.994  66.792  1.00  0.00    -0.447 C  
HETATM    2  O   UNL     1     -10.972  14.644  66.117  1.00  0.00    -0.317 OA 
ENDROOT
BRANCH   2   3
HETATM    3  C   UNL     1      -9.711  14.422  66.613  1.00  0.00    -0.278 A  
HETATM    4  C   UNL     1      -9.169  13.125  66.627  1.00  0.00    -0.220 A  
HETATM    5  C   UNL     1      -7.884  12.860  67.096  1.00  0.00    -0.077 A  
HETATM    6  C   UNL     1      -7.156  13.936  67.596  1.00  0.00    -0.190 A  
HETATM    7  C   UNL     1      -8.939  15.515  67.070  1.00  0.00    -0.226 A  
HETATM    8  C   UNL     1      -7.646  15.253  67.568  1.00  0.00    -0.187 A  
BRANCH   5   9
HETATM    9  N   UNL     1      -7.458  11.527  67.176  1.00  0.00    -0.135 NA 
HETATM   10  H   UNL     1      -7.341  10.963  66.334  1.00  0.00     0.000 HD 
BRANCH   9  11
HETATM   11  C   UNL     1      -7.188  10.968  68.495  1.00  0.00    -0.085 C  
BRANCH  11  12
HETATM   12  C   UNL     1      -8.399  10.285  69.110  1.00  0.00    -0.154 A  
HETATM   13  C   UNL     1      -8.277   9.587  70.340  1.00  0.00    -0.220 A  
HETATM   14  H2  UNL     1      -8.236   9.342  73.331  1.00  0.00     0.000 HD 
HETATM   15  C   UNL     1      -9.446   9.004  70.968  1.00  0.00    -0.342 A  
HETATM   16  H1  UNL     1      -8.607   7.937  74.097  1.00  0.00     0.000 HD 
HETATM   17  C   UNL     1      -6.918   9.443  70.990  1.00  0.00    -0.066 C  
HETATM   18  C   UNL     1     -10.671   9.042  70.287  1.00  0.00    -0.230 A  
HETATM   19  N   UNL     1     -11.793   8.473  70.736  1.00  0.00    -0.222 NA 
HETATM   20  C   UNL     1     -10.757   9.715  69.083  1.00  0.00    -0.237 A  
HETATM   21  C   UNL     1      -9.658  10.351  68.507  1.00  0.00    -0.161 A  
HETATM   22  C   UNL     1     -11.742   7.858  71.911  1.00  0.00    -0.297 A  
HETATM   23  N   UNL     1     -10.682   7.831  72.710  1.00  0.00    -0.326 NA 
HETATM   24  N   UNL     1     -12.888   7.233  72.357  1.00  0.00    -0.484 NA 
HETATM   25  C   UNL     1      -9.561   8.395  72.241  1.00  0.00    -0.304 A  
HETATM   26  H2  UNL     1     -13.746   7.244  71.804  1.00  0.00     0.000 HD 
HETATM   27  H1  UNL     1     -12.849   6.761  73.260  1.00  0.00     0.000 HD 
HETATM   28  N   UNL     1      -8.525   8.376  73.180  1.00  0.00    -0.362 NA 
ENDBRANCH  11  12
ENDBRANCH   9  11
ENDBRANCH   5   9
BRANCH   8  29
HETATM   29  O   UNL     1      -6.720  16.129  68.082  1.00  0.00    -0.118 OA 
HETATM   30  C   UNL     1      -6.671  16.370  69.478  1.00  0.00    -0.202 C  
ENDBRANCH   8  29
BRANCH   7  31
HETATM   31  O   UNL     1      -9.337  16.824  67.097  1.00  0.00    -0.223 OA 
HETATM   32  C   UNL     1     -10.541  17.203  67.738  1.00  0.00    -0.360 C  
ENDBRANCH   7  31
ENDBRANCH   2   3
TORSDOF 6
ENDMDL
MODEL      180
REMARK 921   NORMALIZED FREE ENERGY PREDICTED BY IDOCK:   -4.43 KCAL/MOL
REMARK 922        TOTAL FREE ENERGY PREDICTED BY IDOCK:   -6.83 KCAL/MOL
REMARK 923 INTER-LIGAND FREE ENERGY PREDICTED BY IDOCK:   -7.14 KCAL/MOL
REMARK 924 INTRA-LIGAND FREE ENERGY PREDICTED BY IDOCK:    0.31 KCAL/MOL
REMARK 927      BINDING AFFINITY PREDICTED BY RF-SCORE:    0.00 PKD
ROOT
HETATM    1  C   UNL     1      -8.514  16.000  68.559  1.00  0.00    -0.189 C  
HETATM    2  O   UNL     1      -9.915  16.264  68.525  1.00  0.00    -0.220 OA 
ENDROOT
BRANCH   2   3
HETATM    3  C   UNL     1     -10.743  15.240  68.917  1.00  0.00    -0.245 A  
HETATM    4  C   UNL     1     -10.912  14.109  68.098  1.00  0.00    -0.264 A  
HETATM    5  C   UNL     1     -11.719  13.036  68.469  1.00  0.00    -0.342 A  
HETATM    6  C   UNL     1     -12.397  13.140  69.681  1.00  0.00    -0.129 A  
HETATM    7  C   UNL     1     -11.391  15.307  70.171  1.00  0.00    -0.289 A  
HETATM    8  C   UNL     1     -12.228  14.236  70.545  1.00  0.00    -0.356 A  
BRANCH   5   9
HETATM    9  N   UNL     1     -11.920  11.996  67.552  1.00  0.00    -0.578 NA 
HETATM   10  H   UNL     1     -12.768  11.429  67.579  1.00  0.00     0.000 HD 
BRANCH   9  11
HETATM   11  C   UNL     1     -10.884  11.747  66.555  1.00  0.00    -0.282 C  
BRANCH  11  12
HETATM   12  C   UNL     1     -10.392  10.309  66.559  1.00  0.00    -0.276 A  
HETATM   13  C   UNL     1      -9.667   9.799  65.450  1.00  0.00    -0.383 A  
HETATM   14  H2  UNL     1      -7.195   9.282  63.827  1.00  0.00     0.000 HD 
HETATM   15  C   UNL     1      -9.126   8.455  65.485  1.00  0.00    -0.108 A  
HETATM   16  H1  UNL     1      -7.080   8.012  62.794  1.00  0.00     0.000 HD 
HETATM   17  C   UNL     1      -9.468  10.663  64.224  1.00  0.00    -0.321 C  
HETATM   18  C   UNL     1      -9.429   7.632  66.579  1.00  0.00    -0.190 A  
HETATM   19  N   UNL     1      -9.047   6.355  66.682  1.00  0.00    -0.141 NA 
HETATM   20  C   UNL     1     -10.150   8.149  67.639  1.00  0.00    -0.267 A  
HETATM   21  C   UNL     1     -10.606   9.466  67.654  1.00  0.00    -0.333 A  
HETATM   22  C   UNL     1      -8.317   5.852  65.694  1.00  0.00    -0.143 A  
HETATM   23  N   UNL     1      -7.871   6.540  64.651  1.00  0.00    -0.108 NA 
HETATM   24  N   UNL     1      -7.958   4.523  65.777  1.00  0.00    -0.095 NA 
HETATM   25  C   UNL     1      -8.271   7.816  64.556  1.00  0.00    -0.056 A  
HETATM   26  H2  UNL     1      -8.243   3.947  66.570  1.00  0.00     0.000 HD 
HETATM   27  H1  UNL     1      -7.397   4.135  65.019  1.00  0.00     0.000 HD 
HETATM   28  N   UNL     1      -7.696   8.472  63.464  1.00  0.00    -0.134 NA 
ENDBRANCH  11  12
ENDBRANCH   9  11
ENDBRANCH   5   9
BRANCH   8  29
HETATM   29  O   UNL     1     -12.974  14.075  71.688  1.00  0.00    -0.320 OA 
HETATM   30  C   UNL     1     -13.448  12.789  72.049  1.00  0.00    -0.444 C  
ENDBRANCH   8  29
BRANCH   7  31
HETATM   31  O   UNL     1     -11.300  16.337  71.068  1.00  0.00    -0.389 OA 
HETATM   32  C   UNL     1     -11.921  16.249  72.338  1.00  0.00    -0.540 C  
ENDBRANCH   7  31
ENDBRANCH   2   3
TORSDOF 6
ENDMDL
MODEL      181
REMARK 921   NORMALIZED FREE ENERGY PREDICTED BY IDOCK:   -4.42 KCAL/MOL
REMARK 922        TOTAL FREE ENERGY PREDICTED BY IDOCK:   -6.83 KCAL/MOL
REMARK 923 INTER-LIGAND FREE ENERGY PREDICTED BY IDOCK:   -6.00 KCAL/MOL
REMARK 924 INTRA-LIGAND FREE ENERGY PREDICTED BY IDOCK:   -0.83 KCAL/MOL
REMARK 927      BINDING AFFINITY PREDICTED BY RF-SCORE:    0.00 PKD
ROOT
HETATM    1  C   UNL     1     -11.996  15.366  69.451  1.00  0.00    -0.327 C  
HETATM    2  O   UNL     1     -12.284  14.972  68.111  1.00  0.00    -0.142 OA 
ENDROOT
BRANCH   2   3
HETATM    3  C   UNL     1     -11.747  13.779  67.693  1.00  0.00    -0.367 A  
HETATM    4  C   UNL     1     -10.897  13.045  68.539  1.00  0.00    -0.282 A  
HETATM    5  C   UNL     1     -10.354  11.817  68.165  1.00  0.00    -0.200 A  
HETATM    6  C   UNL     1     -10.654  11.352  66.888  1.00  0.00    -0.292 A  
HETATM    7  C   UNL     1     -12.091  13.267  66.420  1.00  0.00    -0.394 A  
HETATM    8  C   UNL     1     -11.527  12.036  66.025  1.00  0.00    -0.338 A  
BRANCH   5   9
HETATM    9  N   UNL     1      -9.432  11.202  69.022  1.00  0.00    -0.379 NA 
HETATM   10  H   UNL     1      -9.369  11.469  70.004  1.00  0.00     0.000 HD 
BRANCH   9  11
HETATM   11  C   UNL     1      -8.563  10.168  68.471  1.00  0.00    -0.118 C  
BRANCH  11  12
HETATM   12  C   UNL     1      -8.773   8.809  69.119  1.00  0.00    -0.136 A  
HETATM   13  C   UNL     1      -9.190   7.700  68.337  1.00  0.00    -0.140 A  
HETATM   14  H2  UNL     1      -8.771   5.337  66.535  1.00  0.00     0.000 HD 
HETATM   15  C   UNL     1      -9.312   6.386  68.936  1.00  0.00    -0.130 A  
HETATM   16  H1  UNL     1      -9.835   4.088  66.473  1.00  0.00     0.000 HD 
HETATM   17  C   UNL     1      -9.518   7.897  66.873  1.00  0.00    -0.243 C  
HETATM   18  C   UNL     1      -9.124   6.253  70.320  1.00  0.00    -0.154 A  
HETATM   19  N   UNL     1      -9.283   5.108  70.988  1.00  0.00    -0.144 NA 
HETATM   20  C   UNL     1      -8.733   7.353  71.060  1.00  0.00    -0.139 A  
HETATM   21  C   UNL     1      -8.532   8.605  70.481  1.00  0.00    -0.160 A  
HETATM   22  C   UNL     1      -9.617   4.030  70.289  1.00  0.00    -0.201 A  
HETATM   23  N   UNL     1      -9.728   3.986  68.967  1.00  0.00    -0.145 NA 
HETATM   24  N   UNL     1      -9.824   2.856  70.982  1.00  0.00    -0.083 NA 
HETATM   25  C   UNL     1      -9.577   5.145  68.311  1.00  0.00    -0.135 A  
HETATM   26  H2  UNL     1      -9.724   2.816  71.996  1.00  0.00     0.000 HD 
HETATM   27  H1  UNL     1     -10.081   2.028  70.445  1.00  0.00     0.000 HD 
HETATM   28  N   UNL     1      -9.644   4.982  66.924  1.00  0.00    -0.141 NA 
ENDBRANCH  11  12
ENDBRANCH   9  11
ENDBRANCH   5   9
BRANCH   8  29
HETATM   29  O   UNL     1     -11.687  11.348  64.846  1.00  0.00    -0.003 OA 
HETATM   30  C   UNL     1     -10.556  10.808  64.183  1.00  0.00    -0.133 C  
ENDBRANCH   8  29
BRANCH   7  31
HETATM   31  O   UNL     1     -12.916  13.868  65.509  1.00  0.00    -0.673 OA 
HETATM   32  C   UNL     1     -12.383  14.606  64.424  1.00  0.00    -0.398 C  
ENDBRANCH   7  31
ENDBRANCH   2   3
TORSDOF 6
ENDMDL
MODEL      182
REMARK 921   NORMALIZED FREE ENERGY PREDICTED BY IDOCK:   -4.42 KCAL/MOL
REMARK 922        TOTAL FREE ENERGY PREDICTED BY IDOCK:   -6.83 KCAL/MOL
REMARK 923 INTER-LIGAND FREE ENERGY PREDICTED BY IDOCK:   -5.77 KCAL/MOL
REMARK 924 INTRA-LIGAND FREE ENERGY PREDICTED BY IDOCK:   -1.06 KCAL/MOL
REMARK 927      BINDING AFFINITY PREDICTED BY RF-SCORE:    0.00 PKD
ROOT
HETATM    1  C   UNL     1      -6.025  10.125  67.626  1.00  0.00    -0.053 C  
HETATM    2  O   UNL     1      -7.012  10.821  66.867  1.00  0.00    -0.095 OA 
ENDROOT
BRANCH   2   3
HETATM    3  C   UNL     1      -8.305  10.371  66.980  1.00  0.00    -0.127 A  
HETATM    4  C   UNL     1      -8.633   9.053  66.615  1.00  0.00    -0.134 A  
HETATM    5  C   UNL     1      -9.926   8.547  66.740  1.00  0.00    -0.281 A  
HETATM    6  C   UNL     1     -10.907   9.417  67.207  1.00  0.00    -0.165 A  
HETATM    7  C   UNL     1      -9.298  11.226  67.507  1.00  0.00    -0.162 A  
HETATM    8  C   UNL     1     -10.614  10.731  67.615  1.00  0.00    -0.231 A  
BRANCH   5   9
HETATM    9  N   UNL     1     -10.194   7.260  66.255  1.00  0.00    -0.440 NA 
HETATM   10  H   UNL     1      -9.726   6.907  65.420  1.00  0.00     0.000 HD 
BRANCH   9  11
HETATM   11  C   UNL     1     -11.159   6.438  66.976  1.00  0.00    -0.329 C  
BRANCH  11  12
HETATM   12  C   UNL     1     -10.532   5.644  68.110  1.00  0.00    -0.260 A  
HETATM   13  C   UNL     1     -10.808   5.985  69.460  1.00  0.00    -0.439 A  
HETATM   14  H2  UNL     1     -12.388   5.917  72.010  1.00  0.00     0.000 HD 
HETATM   15  C   UNL     1     -10.277   5.179  70.542  1.00  0.00    -0.330 A  
HETATM   16  H1  UNL     1     -11.695   6.186  73.474  1.00  0.00     0.000 HD 
HETATM   17  C   UNL     1     -11.652   7.203  69.768  1.00  0.00    -0.038 C  
HETATM   18  C   UNL     1      -9.397   4.131  70.236  1.00  0.00    -0.161 A  
HETATM   19  N   UNL     1      -8.791   3.373  71.154  1.00  0.00    -0.078 NA 
HETATM   20  C   UNL     1      -9.134   3.830  68.913  1.00  0.00    -0.201 A  
HETATM   21  C   UNL     1      -9.703   4.546  67.861  1.00  0.00    -0.195 A  
HETATM   22  C   UNL     1      -9.064   3.618  72.430  1.00  0.00    -0.105 A  
HETATM   23  N   UNL     1      -9.950   4.507  72.860  1.00  0.00    -0.147 NA 
HETATM   24  N   UNL     1      -8.407   2.865  73.381  1.00  0.00    -0.072 NA 
HETATM   25  C   UNL     1     -10.541   5.268  71.929  1.00  0.00    -0.209 A  
HETATM   26  H2  UNL     1      -7.736   2.145  73.114  1.00  0.00     0.000 HD 
HETATM   27  H1  UNL     1      -8.616   3.054  74.361  1.00  0.00     0.000 HD 
HETATM   28  N   UNL     1     -11.504   6.122  72.475  1.00  0.00    -0.288 NA 
ENDBRANCH  11  12
ENDBRANCH   9  11
ENDBRANCH   5   9
BRANCH   8  29
HETATM   29  O   UNL     1     -11.746  11.363  68.071  1.00  0.00    -0.484 OA 
HETATM   30  C   UNL     1     -12.124  11.244  69.432  1.00  0.00    -0.315 C  
ENDBRANCH   8  29
BRANCH   7  31
HETATM   31  O   UNL     1      -9.112  12.520  67.914  1.00  0.00    -0.183 OA 
HETATM   32  C   UNL     1      -9.178  13.588  66.987  1.00  0.00    -0.246 C  
ENDBRANCH   7  31
ENDBRANCH   2   3
TORSDOF 6
ENDMDL
MODEL      183
REMARK 921   NORMALIZED FREE ENERGY PREDICTED BY IDOCK:   -4.41 KCAL/MOL
REMARK 922        TOTAL FREE ENERGY PREDICTED BY IDOCK:   -6.81 KCAL/MOL
REMARK 923 INTER-LIGAND FREE ENERGY PREDICTED BY IDOCK:   -6.24 KCAL/MOL
REMARK 924 INTRA-LIGAND FREE ENERGY PREDICTED BY IDOCK:   -0.57 KCAL/MOL
REMARK 927      BINDING AFFINITY PREDICTED BY RF-SCORE:    0.00 PKD
ROOT
HETATM    1  C   UNL     1      -8.921  14.157  68.006  1.00  0.00    -0.183 C  
HETATM    2  O   UNL     1     -10.048  13.303  67.821  1.00  0.00    -0.220 OA 
ENDROOT
BRANCH   2   3
HETATM    3  C   UNL     1      -9.917  12.306  66.885  1.00  0.00    -0.213 A  
HETATM    4  C   UNL     1      -9.751  10.969  67.289  1.00  0.00    -0.188 A  
HETATM    5  C   UNL     1      -9.642   9.923  66.373  1.00  0.00    -0.200 A  
HETATM    6  C   UNL     1      -9.663  10.258  65.022  1.00  0.00    -0.370 A  
HETATM    7  C   UNL     1      -9.995  12.624  65.510  1.00  0.00    -0.224 A  
HETATM    8  C   UNL     1      -9.862  11.576  64.577  1.00  0.00    -0.241 A  
BRANCH   5   9
HETATM    9  N   UNL     1      -9.372   8.635  66.853  1.00  0.00    -0.159 NA 
HETATM   10  H   UNL     1      -8.424   8.361  67.112  1.00  0.00     0.000 HD 
BRANCH   9  11
HETATM   11  C   UNL     1     -10.481   7.696  66.971  1.00  0.00    -0.349 C  
BRANCH  11  12
HETATM   12  C   UNL     1     -10.319   6.728  68.131  1.00  0.00    -0.219 A  
HETATM   13  C   UNL     1     -10.041   5.358  67.884  1.00  0.00    -0.215 A  
HETATM   14  H2  UNL     1      -8.260   3.001  67.353  1.00  0.00     0.000 HD 
HETATM   15  C   UNL     1      -9.805   4.449  68.989  1.00  0.00    -0.182 A  
HETATM   16  H1  UNL     1      -8.695   1.470  67.756  1.00  0.00     0.000 HD 
HETATM   17  C   UNL     1     -10.001   4.845  66.461  1.00  0.00    -0.256 C  
HETATM   18  C   UNL     1      -9.970   4.920  70.300  1.00  0.00    -0.251 A  
HETATM   19  N   UNL     1      -9.851   4.154  71.388  1.00  0.00    -0.187 NA 
HETATM   20  C   UNL     1     -10.256   6.256  70.510  1.00  0.00    -0.240 A  
HETATM   21  C   UNL     1     -10.404   7.158  69.458  1.00  0.00    -0.224 A  
HETATM   22  C   UNL     1      -9.534   2.877  71.209  1.00  0.00    -0.149 A  
HETATM   23  N   UNL     1      -9.250   2.322  70.038  1.00  0.00    -0.110 NA 
HETATM   24  N   UNL     1      -9.454   2.075  72.329  1.00  0.00    -0.086 NA 
HETATM   25  C   UNL     1      -9.385   3.098  68.954  1.00  0.00    -0.162 A  
HETATM   26  H2  UNL     1      -9.630   2.450  73.261  1.00  0.00     0.000 HD 
HETATM   27  H1  UNL     1      -9.211   1.095  72.192  1.00  0.00     0.000 HD 
HETATM   28  N   UNL     1      -8.998   2.443  67.782  1.00  0.00    -0.137 NA 
ENDBRANCH  11  12
ENDBRANCH   9  11
ENDBRANCH   5   9
BRANCH   8  29
HETATM   29  O   UNL     1      -9.882  11.629  63.203  1.00  0.00    -0.393 OA 
HETATM   30  C   UNL     1      -9.031  10.783  62.450  1.00  0.00    -0.306 C  
ENDBRANCH   8  29
BRANCH   7  31
HETATM   31  O   UNL     1     -10.170  13.876  64.984  1.00  0.00    -0.374 OA 
HETATM   32  C   UNL     1     -11.468  14.420  64.825  1.00  0.00    -0.402 C  
ENDBRANCH   7  31
ENDBRANCH   2   3
TORSDOF 6
ENDMDL
MODEL      184
REMARK 921   NORMALIZED FREE ENERGY PREDICTED BY IDOCK:   -4.39 KCAL/MOL
REMARK 922        TOTAL FREE ENERGY PREDICTED BY IDOCK:   -6.78 KCAL/MOL
REMARK 923 INTER-LIGAND FREE ENERGY PREDICTED BY IDOCK:   -6.03 KCAL/MOL
REMARK 924 INTRA-LIGAND FREE ENERGY PREDICTED BY IDOCK:   -0.75 KCAL/MOL
REMARK 927      BINDING AFFINITY PREDICTED BY RF-SCORE:    0.00 PKD
ROOT
HETATM    1  C   UNL     1      -8.916   3.338  68.881  1.00  0.00    -0.130 C  
HETATM    2  O   UNL     1      -9.815   3.283  69.986  1.00  0.00    -0.085 OA 
ENDROOT
BRANCH   2   3
HETATM    3  C   UNL     1      -9.950   4.431  70.728  1.00  0.00    -0.177 A  
HETATM    4  C   UNL     1     -10.692   5.517  70.230  1.00  0.00    -0.333 A  
HETATM    5  C   UNL     1     -10.877   6.689  70.960  1.00  0.00    -0.245 A  
HETATM    6  C   UNL     1     -10.258   6.767  72.204  1.00  0.00    -0.213 A  
HETATM    7  C   UNL     1      -9.375   4.501  72.017  1.00  0.00    -0.139 A  
HETATM    8  C   UNL     1      -9.537   5.692  72.754  1.00  0.00    -0.152 A  
BRANCH   5   9
HETATM    9  N   UNL     1     -11.538   7.764  70.351  1.00  0.00    -0.456 NA 
HETATM   10  H   UNL     1     -12.038   7.641  69.470  1.00  0.00     0.000 HD 
BRANCH   9  11
HETATM   11  C   UNL     1     -11.493   9.064  71.010  1.00  0.00    -0.295 C  
BRANCH  11  12
HETATM   12  C   UNL     1     -11.210  10.207  70.048  1.00  0.00    -0.361 A  
HETATM   13  C   UNL     1      -9.893  10.426  69.566  1.00  0.00    -0.211 A  
HETATM   14  H2  UNL     1      -7.576  10.000  67.707  1.00  0.00     0.000 HD 
HETATM   15  C   UNL     1      -9.635  11.463  68.587  1.00  0.00    -0.179 A  
HETATM   16  H1  UNL     1      -6.433  11.152  67.458  1.00  0.00     0.000 HD 
HETATM   17  C   UNL     1      -8.753   9.577  70.086  1.00  0.00    -0.258 C  
HETATM   18  C   UNL     1     -10.683  12.318  68.214  1.00  0.00    -0.221 A  
HETATM   19  N   UNL     1     -10.542  13.351  67.379  1.00  0.00    -0.250 NA 
HETATM   20  C   UNL     1     -11.953  12.091  68.712  1.00  0.00    -0.299 A  
HETATM   21  C   UNL     1     -12.231  11.045  69.590  1.00  0.00    -0.370 A  
HETATM   22  C   UNL     1      -9.340  13.560  66.858  1.00  0.00    -0.253 A  
HETATM   23  N   UNL     1      -8.286  12.775  67.040  1.00  0.00    -0.141 NA 
HETATM   24  N   UNL     1      -9.183  14.652  66.029  1.00  0.00    -0.513 NA 
HETATM   25  C   UNL     1      -8.438  11.749  67.889  1.00  0.00    -0.154 A  
HETATM   26  H2  UNL     1      -9.963  15.276  65.824  1.00  0.00     0.000 HD 
HETATM   27  H1  UNL     1      -8.259  14.812  65.628  1.00  0.00     0.000 HD 
HETATM   28  N   UNL     1      -7.296  10.947  67.961  1.00  0.00    -0.086 NA 
ENDBRANCH  11  12
ENDBRANCH   9  11
ENDBRANCH   5   9
BRANCH   8  29
HETATM   29  O   UNL     1      -9.064   6.011  74.004  1.00  0.00    -0.125 OA 
HETATM   30  C   UNL     1      -8.748   7.356  74.320  1.00  0.00    -0.222 C  
ENDBRANCH   8  29
BRANCH   7  31
HETATM   31  O   UNL     1      -8.645   3.515  72.626  1.00  0.00    -0.084 OA 
HETATM   32  C   UNL     1      -9.273   2.560  73.462  1.00  0.00    -0.084 C  
ENDBRANCH   7  31
ENDBRANCH   2   3
TORSDOF 6
ENDMDL
MODEL      185
REMARK 921   NORMALIZED FREE ENERGY PREDICTED BY IDOCK:   -4.36 KCAL/MOL
REMARK 922        TOTAL FREE ENERGY PREDICTED BY IDOCK:   -6.74 KCAL/MOL
REMARK 923 INTER-LIGAND FREE ENERGY PREDICTED BY IDOCK:   -6.52 KCAL/MOL
REMARK 924 INTRA-LIGAND FREE ENERGY PREDICTED BY IDOCK:   -0.23 KCAL/MOL
REMARK 927      BINDING AFFINITY PREDICTED BY RF-SCORE:    0.00 PKD
ROOT
HETATM    1  C   UNL     1      -9.878  11.184  63.177  1.00  0.00    -0.372 C  
HETATM    2  O   UNL     1      -8.784  10.371  63.597  1.00  0.00    -0.177 OA 
ENDROOT
BRANCH   2   3
HETATM    3  C   UNL     1      -9.028   9.500  64.631  1.00  0.00    -0.221 A  
HETATM    4  C   UNL     1     -10.003   9.799  65.599  1.00  0.00    -0.352 A  
HETATM    5  C   UNL     1     -10.301   8.930  66.648  1.00  0.00    -0.223 A  
HETATM    6  C   UNL     1      -9.560   7.755  66.729  1.00  0.00    -0.274 A  
HETATM    7  C   UNL     1      -8.323   8.276  64.693  1.00  0.00    -0.105 A  
HETATM    8  C   UNL     1      -8.601   7.402  65.764  1.00  0.00    -0.136 A  
BRANCH   5   9
HETATM    9  N   UNL     1     -11.208   9.349  67.630  1.00  0.00    -0.391 NA 
HETATM   10  H   UNL     1     -12.210   9.190  67.520  1.00  0.00     0.000 HD 
BRANCH   9  11
HETATM   11  C   UNL     1     -10.682  10.018  68.814  1.00  0.00    -0.223 C  
BRANCH  11  12
HETATM   12  C   UNL     1     -10.571  11.525  68.644  1.00  0.00    -0.236 A  
HETATM   13  C   UNL     1     -11.257  12.396  69.531  1.00  0.00    -0.171 A  
HETATM   14  H2  UNL     1     -11.590  14.001  72.044  1.00  0.00     0.000 HD 
HETATM   15  C   UNL     1     -11.088  13.832  69.422  1.00  0.00    -0.206 A  
HETATM   16  H1  UNL     1     -12.555  15.328  72.111  1.00  0.00     0.000 HD 
HETATM   17  C   UNL     1     -12.175  11.820  70.587  1.00  0.00    -0.443 C  
HETATM   18  C   UNL     1     -10.332  14.345  68.359  1.00  0.00    -0.244 A  
HETATM   19  N   UNL     1     -10.172  15.650  68.118  1.00  0.00    -0.226 NA 
HETATM   20  C   UNL     1      -9.687  13.474  67.501  1.00  0.00    -0.228 A  
HETATM   21  C   UNL     1      -9.774  12.090  67.645  1.00  0.00    -0.187 A  
HETATM   22  C   UNL     1     -10.747  16.504  68.956  1.00  0.00    -0.332 A  
HETATM   23  N   UNL     1     -11.404  16.162  70.057  1.00  0.00    -0.341 NA 
HETATM   24  N   UNL     1     -10.619  17.850  68.685  1.00  0.00    -0.344 NA 
HETATM   25  C   UNL     1     -11.567  14.850  70.279  1.00  0.00    -0.286 A  
HETATM   26  H2  UNL     1     -10.100  18.179  67.871  1.00  0.00     0.000 HD 
HETATM   27  H1  UNL     1     -11.061  18.506  69.328  1.00  0.00     0.000 HD 
HETATM   28  N   UNL     1     -12.210  14.594  71.493  1.00  0.00    -0.340 NA 
ENDBRANCH  11  12
ENDBRANCH   9  11
ENDBRANCH   5   9
BRANCH   8  29
HETATM   29  O   UNL     1      -8.044   6.179  66.053  1.00  0.00    -0.108 OA 
HETATM   30  C   UNL     1      -8.628   4.995  65.538  1.00  0.00    -0.139 C  
ENDBRANCH   8  29
BRANCH   7  31
HETATM   31  O   UNL     1      -7.364   7.855  63.811  1.00  0.00    -0.090 OA 
HETATM   32  C   UNL     1      -7.720   7.392  62.520  1.00  0.00    -0.120 C  
ENDBRANCH   7  31
ENDBRANCH   2   3
TORSDOF 6
ENDMDL
MODEL      186
REMARK 921   NORMALIZED FREE ENERGY PREDICTED BY IDOCK:   -4.33 KCAL/MOL
REMARK 922        TOTAL FREE ENERGY PREDICTED BY IDOCK:   -6.71 KCAL/MOL
REMARK 923 INTER-LIGAND FREE ENERGY PREDICTED BY IDOCK:   -6.31 KCAL/MOL
REMARK 924 INTRA-LIGAND FREE ENERGY PREDICTED BY IDOCK:   -0.40 KCAL/MOL
REMARK 927      BINDING AFFINITY PREDICTED BY RF-SCORE:    0.00 PKD
ROOT
HETATM    1  C   UNL     1     -12.047  12.126  63.475  1.00  0.00    -0.550 C  
HETATM    2  O   UNL     1     -10.789  12.449  64.064  1.00  0.00    -0.332 OA 
ENDROOT
BRANCH   2   3
HETATM    3  C   UNL     1     -10.736  12.455  65.436  1.00  0.00    -0.282 A  
HETATM    4  C   UNL     1     -10.907  11.261  66.159  1.00  0.00    -0.281 A  
HETATM    5  C   UNL     1     -10.833  11.217  67.551  1.00  0.00    -0.254 A  
HETATM    6  C   UNL     1     -10.621  12.422  68.214  1.00  0.00    -0.236 A  
HETATM    7  C   UNL     1     -10.464  13.662  66.120  1.00  0.00    -0.297 A  
HETATM    8  C   UNL     1     -10.411  13.631  67.528  1.00  0.00    -0.241 A  
BRANCH   5   9
HETATM    9  N   UNL     1     -11.120  10.009  68.201  1.00  0.00    -0.457 NA 
HETATM   10  H   UNL     1     -11.729   9.314  67.770  1.00  0.00     0.000 HD 
BRANCH   9  11
HETATM   11  C   UNL     1     -10.525   9.774  69.512  1.00  0.00    -0.232 C  
BRANCH  11  12
HETATM   12  C   UNL     1     -10.235   8.306  69.777  1.00  0.00    -0.204 A  
HETATM   13  C   UNL     1      -9.033   7.921  70.426  1.00  0.00    -0.147 A  
HETATM   14  H2  UNL     1      -7.289   7.363  72.804  1.00  0.00     0.000 HD 
HETATM   15  C   UNL     1      -8.791   6.529  70.753  1.00  0.00    -0.144 A  
HETATM   16  H1  UNL     1      -6.023   6.320  72.733  1.00  0.00     0.000 HD 
HETATM   17  C   UNL     1      -7.997   8.969  70.768  1.00  0.00    -0.172 C  
HETATM   18  C   UNL     1      -9.708   5.562  70.316  1.00  0.00    -0.183 A  
HETATM   19  N   UNL     1      -9.548   4.248  70.495  1.00  0.00    -0.181 NA 
HETATM   20  C   UNL     1     -10.863   5.964  69.672  1.00  0.00    -0.444 A  
HETATM   21  C   UNL     1     -11.147   7.306  69.424  1.00  0.00    -0.092 A  
HETATM   22  C   UNL     1      -8.466   3.844  71.149  1.00  0.00    -0.076 A  
HETATM   23  N   UNL     1      -7.570   4.649  71.706  1.00  0.00    -0.088 NA 
HETATM   24  N   UNL     1      -8.278   2.486  71.298  1.00  0.00    -0.056 NA 
HETATM   25  C   UNL     1      -7.736   5.964  71.508  1.00  0.00    -0.101 A  
HETATM   26  H2  UNL     1      -8.947   1.815  70.919  1.00  0.00     0.000 HD 
HETATM   27  H1  UNL     1      -7.447   2.175  71.800  1.00  0.00     0.000 HD 
HETATM   28  N   UNL     1      -6.784   6.727  72.189  1.00  0.00    -0.058 NA 
ENDBRANCH  11  12
ENDBRANCH   9  11
ENDBRANCH   5   9
BRANCH   8  29
HETATM   29  O   UNL     1     -10.185  14.659  68.411  1.00  0.00    -0.224 OA 
HETATM   30  C   UNL     1     -11.271  15.437  68.885  1.00  0.00    -0.292 C  
ENDBRANCH   8  29
BRANCH   7  31
HETATM   31  O   UNL     1     -10.262  14.885  65.540  1.00  0.00    -0.322 OA 
HETATM   32  C   UNL     1     -11.247  15.460  64.699  1.00  0.00    -0.364 C  
ENDBRANCH   7  31
ENDBRANCH   2   3
TORSDOF 6
ENDMDL
MODEL      187
REMARK 921   NORMALIZED FREE ENERGY PREDICTED BY IDOCK:   -4.33 KCAL/MOL
REMARK 922        TOTAL FREE ENERGY PREDICTED BY IDOCK:   -6.70 KCAL/MOL
REMARK 923 INTER-LIGAND FREE ENERGY PREDICTED BY IDOCK:   -6.15 KCAL/MOL
REMARK 924 INTRA-LIGAND FREE ENERGY PREDICTED BY IDOCK:   -0.56 KCAL/MOL
REMARK 927      BINDING AFFINITY PREDICTED BY RF-SCORE:    0.00 PKD
ROOT
HETATM    1  C   UNL     1      -7.911   6.762  63.609  1.00  0.00    -0.067 C  
HETATM    2  O   UNL     1      -7.182   6.624  64.826  1.00  0.00    -0.064 OA 
ENDROOT
BRANCH   2   3
HETATM    3  C   UNL     1      -7.921   6.581  65.984  1.00  0.00    -0.112 A  
HETATM    4  C   UNL     1      -8.156   7.755  66.721  1.00  0.00    -0.115 A  
HETATM    5  C   UNL     1      -8.923   7.761  67.885  1.00  0.00    -0.125 A  
HETATM    6  C   UNL     1      -9.424   6.538  68.322  1.00  0.00    -0.118 A  
HETATM    7  C   UNL     1      -8.484   5.355  66.407  1.00  0.00    -0.114 A  
HETATM    8  C   UNL     1      -9.242   5.348  67.596  1.00  0.00    -0.112 A  
BRANCH   5   9
HETATM    9  N   UNL     1      -9.020   8.950  68.620  1.00  0.00    -0.137 NA 
HETATM   10  H   UNL     1      -8.618   9.023  69.555  1.00  0.00     0.000 HD 
BRANCH   9  11
HETATM   11  C   UNL     1      -9.712  10.081  68.012  1.00  0.00    -0.139 C  
BRANCH  11  12
HETATM   12  C   UNL     1     -10.629  10.807  68.983  1.00  0.00    -0.250 A  
HETATM   13  C   UNL     1     -10.814  12.210  68.878  1.00  0.00    -0.241 A  
HETATM   14  H2  UNL     1     -12.093  14.709  67.816  1.00  0.00     0.000 HD 
HETATM   15  C   UNL     1     -11.749  12.892  69.750  1.00  0.00    -0.351 A  
HETATM   16  H1  UNL     1     -12.125  16.107  68.677  1.00  0.00     0.000 HD 
HETATM   17  C   UNL     1     -10.021  12.996  67.857  1.00  0.00    -0.230 C  
HETATM   18  C   UNL     1     -12.378  12.164  70.770  1.00  0.00    -0.297 A  
HETATM   19  N   UNL     1     -13.200  12.704  71.675  1.00  0.00    -0.370 NA 
HETATM   20  C   UNL     1     -12.168  10.800  70.859  1.00  0.00    -0.487 A  
HETATM   21  C   UNL     1     -11.335  10.118  69.975  1.00  0.00    -0.351 A  
HETATM   22  C   UNL     1     -13.448  14.004  71.581  1.00  0.00    -0.361 A  
HETATM   23  N   UNL     1     -13.005  14.794  70.611  1.00  0.00    -0.347 NA 
HETATM   24  N   UNL     1     -14.261  14.571  72.540  1.00  0.00    -0.508 NA 
HETATM   25  C   UNL     1     -12.173  14.242  69.717  1.00  0.00    -0.339 A  
HETATM   26  H2  UNL     1     -14.658  14.012  73.295  1.00  0.00     0.000 HD 
HETATM   27  H1  UNL     1     -14.452  15.570  72.468  1.00  0.00     0.000 HD 
HETATM   28  N   UNL     1     -11.819  15.134  68.701  1.00  0.00    -0.329 NA 
ENDBRANCH  11  12
ENDBRANCH   9  11
ENDBRANCH   5   9
BRANCH   8  29
HETATM   29  O   UNL     1      -9.868   4.295  68.220  1.00  0.00    -0.125 OA 
HETATM   30  C   UNL     1      -9.462   3.898  69.518  1.00  0.00    -0.189 C  
ENDBRANCH   8  29
BRANCH   7  31
HETATM   31  O   UNL     1      -8.348   4.148  65.776  1.00  0.00    -0.108 OA 
HETATM   32  C   UNL     1      -9.442   3.556  65.099  1.00  0.00    -0.158 C  
ENDBRANCH   7  31
ENDBRANCH   2   3
TORSDOF 6
ENDMDL
MODEL      188
REMARK 921   NORMALIZED FREE ENERGY PREDICTED BY IDOCK:   -4.32 KCAL/MOL
REMARK 922        TOTAL FREE ENERGY PREDICTED BY IDOCK:   -6.69 KCAL/MOL
REMARK 923 INTER-LIGAND FREE ENERGY PREDICTED BY IDOCK:   -5.95 KCAL/MOL
REMARK 924 INTRA-LIGAND FREE ENERGY PREDICTED BY IDOCK:   -0.74 KCAL/MOL
REMARK 927      BINDING AFFINITY PREDICTED BY RF-SCORE:    0.00 PKD
ROOT
HETATM    1  C   UNL     1     -11.260   5.832  71.686  1.00  0.00    -0.192 C  
HETATM    2  O   UNL     1     -10.631   7.003  72.201  1.00  0.00    -0.208 OA 
ENDROOT
BRANCH   2   3
HETATM    3  C   UNL     1     -10.002   7.815  71.289  1.00  0.00    -0.175 A  
HETATM    4  C   UNL     1     -10.750   8.686  70.477  1.00  0.00    -0.252 A  
HETATM    5  C   UNL     1     -10.151   9.546  69.559  1.00  0.00    -0.206 A  
HETATM    6  C   UNL     1      -8.765   9.485  69.442  1.00  0.00    -0.166 A  
HETATM    7  C   UNL     1      -8.591   7.804  71.201  1.00  0.00    -0.131 A  
HETATM    8  C   UNL     1      -7.978   8.654  70.258  1.00  0.00    -0.106 A  
BRANCH   5   9
HETATM    9  N   UNL     1     -10.971  10.304  68.713  1.00  0.00    -0.236 NA 
HETATM   10  H   UNL     1     -11.874  10.655  69.035  1.00  0.00     0.000 HD 
BRANCH   9  11
HETATM   11  C   UNL     1     -10.500  10.578  67.360  1.00  0.00    -0.244 C  
BRANCH  11  12
HETATM   12  C   UNL     1     -10.668  12.034  66.957  1.00  0.00    -0.280 A  
HETATM   13  C   UNL     1      -9.593  12.948  67.118  1.00  0.00    -0.225 A  
HETATM   14  H2  UNL     1      -7.073  14.350  66.286  1.00  0.00     0.000 HD 
HETATM   15  C   UNL     1      -9.723  14.317  66.659  1.00  0.00    -0.297 A  
HETATM   16  H1  UNL     1      -6.679  15.842  66.847  1.00  0.00     0.000 HD 
HETATM   17  C   UNL     1      -8.312  12.490  67.780  1.00  0.00    -0.170 C  
HETATM   18  C   UNL     1     -10.960  14.751  66.164  1.00  0.00    -0.332 A  
HETATM   19  N   UNL     1     -11.214  16.006  65.784  1.00  0.00    -0.012 NA 
HETATM   20  C   UNL     1     -11.995  13.843  66.033  1.00  0.00    -0.436 A  
HETATM   21  C   UNL     1     -11.857  12.504  66.393  1.00  0.00    -0.445 A  
HETATM   22  C   UNL     1     -10.221  16.884  65.861  1.00  0.00    -0.314 A  
HETATM   23  N   UNL     1      -8.975  16.593  66.214  1.00  0.00    -0.315 NA 
HETATM   24  N   UNL     1     -10.493  18.190  65.510  1.00  0.00    -0.593 NA 
HETATM   25  C   UNL     1      -8.738  15.332  66.603  1.00  0.00    -0.291 A  
HETATM   26  H2  UNL     1     -11.423  18.472  65.202  1.00  0.00     0.000 HD 
HETATM   27  H1  UNL     1      -9.731  18.864  65.570  1.00  0.00     0.000 HD 
HETATM   28  N   UNL     1      -7.388  15.111  66.887  1.00  0.00    -0.081 NA 
ENDBRANCH  11  12
ENDBRANCH   9  11
ENDBRANCH   5   9
BRANCH   8  29
HETATM   29  O   UNL     1      -6.643   8.811  69.970  1.00  0.00    -0.037 OA 
HETATM   30  C   UNL     1      -6.231   9.794  69.035  1.00  0.00    -0.041 C  
ENDBRANCH   8  29
BRANCH   7  31
HETATM   31  O   UNL     1      -7.746   7.021  71.940  1.00  0.00    -0.092 OA 
HETATM   32  C   UNL     1      -7.274   7.455  73.203  1.00  0.00    -0.074 C  
ENDBRANCH   7  31
ENDBRANCH   2   3
TORSDOF 6
ENDMDL
MODEL      189
REMARK 921   NORMALIZED FREE ENERGY PREDICTED BY IDOCK:   -4.32 KCAL/MOL
REMARK 922        TOTAL FREE ENERGY PREDICTED BY IDOCK:   -6.69 KCAL/MOL
REMARK 923 INTER-LIGAND FREE ENERGY PREDICTED BY IDOCK:   -6.20 KCAL/MOL
REMARK 924 INTRA-LIGAND FREE ENERGY PREDICTED BY IDOCK:   -0.49 KCAL/MOL
REMARK 927      BINDING AFFINITY PREDICTED BY RF-SCORE:    0.00 PKD
ROOT
HETATM    1  C   UNL     1      -8.378   8.199  63.722  1.00  0.00     0.011 C  
HETATM    2  O   UNL     1      -7.431   8.322  64.781  1.00  0.00    -0.084 OA 
ENDROOT
BRANCH   2   3
HETATM    3  C   UNL     1      -7.922   8.716  66.002  1.00  0.00    -0.107 A  
HETATM    4  C   UNL     1      -8.563   9.960  66.143  1.00  0.00    -0.138 A  
HETATM    5  C   UNL     1      -9.100  10.387  67.356  1.00  0.00    -0.135 A  
HETATM    6  C   UNL     1      -8.943   9.543  68.452  1.00  0.00    -0.127 A  
HETATM    7  C   UNL     1      -7.821   7.844  67.109  1.00  0.00    -0.109 A  
HETATM    8  C   UNL     1      -8.340   8.277  68.346  1.00  0.00    -0.132 A  
BRANCH   5   9
HETATM    9  N   UNL     1      -9.626  11.683  67.440  1.00  0.00    -0.166 NA 
HETATM   10  H   UNL     1      -9.012  12.498  67.441  1.00  0.00     0.000 HD 
BRANCH   9  11
HETATM   11  C   UNL     1     -11.074  11.835  67.524  1.00  0.00    -0.272 C  
BRANCH  11  12
HETATM   12  C   UNL     1     -11.534  12.402  68.857  1.00  0.00    -0.355 A  
HETATM   13  C   UNL     1     -11.243  13.748  69.200  1.00  0.00    -0.307 A  
HETATM   14  H2  UNL     1     -11.736  16.708  69.238  1.00  0.00     0.000 HD 
HETATM   15  C   UNL     1     -11.750  14.315  70.434  1.00  0.00    -0.329 A  
HETATM   16  H1  UNL     1     -11.162  17.673  70.436  1.00  0.00     0.000 HD 
HETATM   17  C   UNL     1     -10.390  14.589  68.276  1.00  0.00    -0.236 C  
HETATM   18  C   UNL     1     -12.432  13.481  71.332  1.00  0.00    -0.255 A  
HETATM   19  N   UNL     1     -12.877  13.877  72.528  1.00  0.00    -0.313 NA 
HETATM   20  C   UNL     1     -12.688  12.169  70.979  1.00  0.00    -0.322 A  
HETATM   21  C   UNL     1     -12.277  11.635  69.759  1.00  0.00    -0.285 A  
HETATM   22  C   UNL     1     -12.678  15.145  72.868  1.00  0.00    -0.421 A  
HETATM   23  N   UNL     1     -12.141  16.068  72.080  1.00  0.00    -0.488 NA 
HETATM   24  N   UNL     1     -13.098  15.545  74.119  1.00  0.00    -0.643 NA 
HETATM   25  C   UNL     1     -11.689  15.654  70.888  1.00  0.00    -0.387 A  
HETATM   26  H2  UNL     1     -13.546  14.890  74.761  1.00  0.00     0.000 HD 
HETATM   27  H1  UNL     1     -12.946  16.518  74.381  1.00  0.00     0.000 HD 
HETATM   28  N   UNL     1     -11.206  16.708  70.109  1.00  0.00    -0.150 NA 
ENDBRANCH  11  12
ENDBRANCH   9  11
ENDBRANCH   5   9
BRANCH   8  29
HETATM   29  O   UNL     1      -8.347   7.631  69.559  1.00  0.00    -0.127 OA 
HETATM   30  C   UNL     1      -8.899   8.269  70.698  1.00  0.00    -0.143 C  
ENDBRANCH   8  29
BRANCH   7  31
HETATM   31  O   UNL     1      -7.240   6.604  67.106  1.00  0.00    -0.077 OA 
HETATM   32  C   UNL     1      -7.976   5.459  66.716  1.00  0.00    -0.101 C  
ENDBRANCH   7  31
ENDBRANCH   2   3
TORSDOF 6
ENDMDL
MODEL      190
REMARK 921   NORMALIZED FREE ENERGY PREDICTED BY IDOCK:   -4.31 KCAL/MOL
REMARK 922        TOTAL FREE ENERGY PREDICTED BY IDOCK:   -6.68 KCAL/MOL
REMARK 923 INTER-LIGAND FREE ENERGY PREDICTED BY IDOCK:   -5.75 KCAL/MOL
REMARK 924 INTRA-LIGAND FREE ENERGY PREDICTED BY IDOCK:   -0.92 KCAL/MOL
REMARK 927      BINDING AFFINITY PREDICTED BY RF-SCORE:    0.00 PKD
ROOT
HETATM    1  C   UNL     1     -11.418   6.462  70.022  1.00  0.00    -0.428 C  
HETATM    2  O   UNL     1     -11.093   5.850  68.776  1.00  0.00    -0.297 OA 
ENDROOT
BRANCH   2   3
HETATM    3  C   UNL     1      -9.849   6.124  68.263  1.00  0.00    -0.125 A  
HETATM    4  C   UNL     1      -9.178   7.308  68.618  1.00  0.00    -0.136 A  
HETATM    5  C   UNL     1      -7.903   7.612  68.143  1.00  0.00    -0.121 A  
HETATM    6  C   UNL     1      -7.323   6.708  67.257  1.00  0.00    -0.090 A  
HETATM    7  C   UNL     1      -9.224   5.187  67.409  1.00  0.00    -0.116 A  
HETATM    8  C   UNL     1      -7.945   5.498  66.904  1.00  0.00    -0.101 A  
BRANCH   5   9
HETATM    9  N   UNL     1      -7.348   8.859  68.457  1.00  0.00    -0.080 NA 
HETATM   10  H   UNL     1      -7.119   9.103  69.421  1.00  0.00     0.000 HD 
BRANCH   9  11
HETATM   11  C   UNL     1      -7.107   9.801  67.370  1.00  0.00    -0.085 C  
BRANCH  11  12
HETATM   12  C   UNL     1      -8.374  10.493  66.892  1.00  0.00    -0.126 A  
HETATM   13  C   UNL     1      -8.776  11.726  67.470  1.00  0.00    -0.159 A  
HETATM   14  H2  UNL     1      -8.794  14.713  67.755  1.00  0.00     0.000 HD 
HETATM   15  C   UNL     1      -9.937  12.428  66.962  1.00  0.00    -0.218 A  
HETATM   16  H1  UNL     1     -10.076  15.522  68.388  1.00  0.00     0.000 HD 
HETATM   17  C   UNL     1      -7.991  12.301  68.629  1.00  0.00    -0.050 C  
HETATM   18  C   UNL     1     -10.719  11.815  65.972  1.00  0.00    -0.279 A  
HETATM   19  N   UNL     1     -11.849  12.335  65.484  1.00  0.00    -0.433 NA 
HETATM   20  C   UNL     1     -10.313  10.606  65.437  1.00  0.00    -0.303 A  
HETATM   21  C   UNL     1      -9.152   9.961  65.860  1.00  0.00    -0.201 A  
HETATM   22  C   UNL     1     -12.234  13.516  65.954  1.00  0.00    -0.460 A  
HETATM   23  N   UNL     1     -11.543  14.254  66.813  1.00  0.00    -0.374 NA 
HETATM   24  N   UNL     1     -13.422  14.035  65.483  1.00  0.00    -0.627 NA 
HETATM   25  C   UNL     1     -10.418  13.715  67.302  1.00  0.00    -0.260 A  
HETATM   26  H2  UNL     1     -13.985  13.530  64.798  1.00  0.00     0.000 HD 
HETATM   27  H1  UNL     1     -13.718  14.941  65.843  1.00  0.00     0.000 HD 
HETATM   28  N   UNL     1      -9.730  14.594  68.142  1.00  0.00    -0.214 NA 
ENDBRANCH  11  12
ENDBRANCH   9  11
ENDBRANCH   5   9
BRANCH   8  29
HETATM   29  O   UNL     1      -7.148   4.771  66.052  1.00  0.00    -0.071 OA 
HETATM   30  C   UNL     1      -7.291   4.919  64.649  1.00  0.00    -0.063 C  
ENDBRANCH   8  29
BRANCH   7  31
HETATM   31  O   UNL     1      -9.756   3.994  66.998  1.00  0.00    -0.209 OA 
HETATM   32  C   UNL     1      -9.505   2.802  67.720  1.00  0.00    -0.125 C  
ENDBRANCH   7  31
ENDBRANCH   2   3
TORSDOF 6
ENDMDL
MODEL      191
REMARK 921   NORMALIZED FREE ENERGY PREDICTED BY IDOCK:   -4.29 KCAL/MOL
REMARK 922        TOTAL FREE ENERGY PREDICTED BY IDOCK:   -6.65 KCAL/MOL
REMARK 923 INTER-LIGAND FREE ENERGY PREDICTED BY IDOCK:   -6.07 KCAL/MOL
REMARK 924 INTRA-LIGAND FREE ENERGY PREDICTED BY IDOCK:   -0.58 KCAL/MOL
REMARK 927      BINDING AFFINITY PREDICTED BY RF-SCORE:    0.00 PKD
ROOT
HETATM    1  C   UNL     1      -6.724  11.657  68.414  1.00  0.00    -0.064 C  
HETATM    2  O   UNL     1      -7.599  12.753  68.157  1.00  0.00    -0.112 OA 
ENDROOT
BRANCH   2   3
HETATM    3  C   UNL     1      -8.943  12.471  68.119  1.00  0.00    -0.199 A  
HETATM    4  C   UNL     1      -9.423  11.232  68.577  1.00  0.00    -0.191 A  
HETATM    5  C   UNL     1     -10.780  10.916  68.582  1.00  0.00    -0.203 A  
HETATM    6  C   UNL     1     -11.657  11.870  68.073  1.00  0.00    -0.401 A  
HETATM    7  C   UNL     1      -9.849  13.454  67.658  1.00  0.00    -0.226 A  
HETATM    8  C   UNL     1     -11.222  13.134  67.638  1.00  0.00    -0.282 A  
BRANCH   5   9
HETATM    9  N   UNL     1     -11.168   9.621  68.953  1.00  0.00    -0.459 NA 
HETATM   10  H   UNL     1     -11.209   8.869  68.265  1.00  0.00     0.000 HD 
BRANCH   9  11
HETATM   11  C   UNL     1     -11.511   9.378  70.350  1.00  0.00    -0.223 C  
BRANCH  11  12
HETATM   12  C   UNL     1     -10.526   8.458  71.051  1.00  0.00    -0.251 A  
HETATM   13  C   UNL     1     -10.530   7.065  70.778  1.00  0.00    -0.231 A  
HETATM   14  H2  UNL     1      -9.768   4.594  69.254  1.00  0.00     0.000 HD 
HETATM   15  C   UNL     1      -9.539   6.197  71.383  1.00  0.00    -0.177 A  
HETATM   16  H1  UNL     1      -9.746   3.109  69.954  1.00  0.00     0.000 HD 
HETATM   17  C   UNL     1     -11.581   6.485  69.857  1.00  0.00    -0.433 C  
HETATM   18  C   UNL     1      -8.654   6.737  72.328  1.00  0.00    -0.120 A  
HETATM   19  N   UNL     1      -7.752   6.018  73.002  1.00  0.00    -0.102 NA 
HETATM   20  C   UNL     1      -8.682   8.095  72.587  1.00  0.00    -0.277 A  
HETATM   21  C   UNL     1      -9.576   8.953  71.950  1.00  0.00    -0.326 A  
HETATM   22  C   UNL     1      -7.680   4.719  72.737  1.00  0.00    -0.092 A  
HETATM   23  N   UNL     1      -8.381   4.095  71.799  1.00  0.00    -0.094 NA 
HETATM   24  N   UNL     1      -6.779   3.967  73.462  1.00  0.00    -0.045 NA 
HETATM   25  C   UNL     1      -9.290   4.826  71.139  1.00  0.00    -0.148 A  
HETATM   26  H2  UNL     1      -6.189   4.393  74.176  1.00  0.00     0.000 HD 
HETATM   27  H1  UNL     1      -6.724   2.970  73.259  1.00  0.00     0.000 HD 
HETATM   28  N   UNL     1      -9.925   4.097  70.130  1.00  0.00    -0.167 NA 
ENDBRANCH  11  12
ENDBRANCH   9  11
ENDBRANCH   5   9
BRANCH   8  29
HETATM   29  O   UNL     1     -12.285  13.899  67.223  1.00  0.00    -0.394 OA 
HETATM   30  C   UNL     1     -12.705  13.853  65.869  1.00  0.00    -0.421 C  
ENDBRANCH   8  29
BRANCH   7  31
HETATM   31  O   UNL     1      -9.518  14.701  67.202  1.00  0.00    -0.215 OA 
HETATM   32  C   UNL     1      -9.712  15.845  68.015  1.00  0.00    -0.216 C  
ENDBRANCH   7  31
ENDBRANCH   2   3
TORSDOF 6
ENDMDL
MODEL      192
REMARK 921   NORMALIZED FREE ENERGY PREDICTED BY IDOCK:   -4.29 KCAL/MOL
REMARK 922        TOTAL FREE ENERGY PREDICTED BY IDOCK:   -6.64 KCAL/MOL
REMARK 923 INTER-LIGAND FREE ENERGY PREDICTED BY IDOCK:   -6.31 KCAL/MOL
REMARK 924 INTRA-LIGAND FREE ENERGY PREDICTED BY IDOCK:   -0.33 KCAL/MOL
REMARK 927      BINDING AFFINITY PREDICTED BY RF-SCORE:    0.00 PKD
ROOT
HETATM    1  C   UNL     1      -7.469   7.701  70.049  1.00  0.00    -0.082 C  
HETATM    2  O   UNL     1      -8.469   8.701  69.871  1.00  0.00    -0.122 OA 
ENDROOT
BRANCH   2   3
HETATM    3  C   UNL     1      -8.152   9.747  69.039  1.00  0.00    -0.101 A  
HETATM    4  C   UNL     1      -8.757   9.857  67.774  1.00  0.00    -0.129 A  
HETATM    5  C   UNL     1      -8.485  10.917  66.910  1.00  0.00    -0.135 A  
HETATM    6  C   UNL     1      -7.549  11.856  67.331  1.00  0.00    -0.151 A  
HETATM    7  C   UNL     1      -7.247  10.739  69.478  1.00  0.00    -0.132 A  
HETATM    8  C   UNL     1      -6.948  11.802  68.601  1.00  0.00    -0.093 A  
BRANCH   5   9
HETATM    9  N   UNL     1      -9.046  10.898  65.626  1.00  0.00    -0.199 NA 
HETATM   10  H   UNL     1      -8.631  10.337  64.881  1.00  0.00     0.000 HD 
BRANCH   9  11
HETATM   11  C   UNL     1     -10.238  11.702  65.382  1.00  0.00    -0.263 C  
BRANCH  11  12
HETATM   12  C   UNL     1     -10.793  12.338  66.646  1.00  0.00    -0.296 A  
HETATM   13  C   UNL     1     -10.598  13.722  66.895  1.00  0.00    -0.276 A  
HETATM   14  H2  UNL     1     -11.265  16.640  66.680  1.00  0.00     0.000 HD 
HETATM   15  C   UNL     1     -11.196  14.348  68.057  1.00  0.00    -0.298 A  
HETATM   16  H1  UNL     1     -10.806  17.727  67.822  1.00  0.00     0.000 HD 
HETATM   17  C   UNL     1      -9.753  14.543  65.945  1.00  0.00    -0.324 C  
HETATM   18  C   UNL     1     -11.869  13.543  68.988  1.00  0.00    -0.343 A  
HETATM   19  N   UNL     1     -12.393  14.000  70.129  1.00  0.00    -0.345 NA 
HETATM   20  C   UNL     1     -12.031  12.195  68.728  1.00  0.00    -0.292 A  
HETATM   21  C   UNL     1     -11.532  11.597  67.572  1.00  0.00    -0.360 A  
HETATM   22  C   UNL     1     -12.286  15.299  70.377  1.00  0.00    -0.363 A  
HETATM   23  N   UNL     1     -11.767  16.192  69.543  1.00  0.00    -0.259 NA 
HETATM   24  N   UNL     1     -12.788  15.766  71.574  1.00  0.00    -0.471 NA 
HETATM   25  C   UNL     1     -11.235  15.718  68.408  1.00  0.00    -0.362 A  
HETATM   26  H2  UNL     1     -13.227  15.135  72.245  1.00  0.00     0.000 HD 
HETATM   27  H1  UNL     1     -12.705  16.764  71.765  1.00  0.00     0.000 HD 
HETATM   28  N   UNL     1     -10.778  16.739  67.570  1.00  0.00    -0.310 NA 
ENDBRANCH  11  12
ENDBRANCH   9  11
ENDBRANCH   5   9
BRANCH   8  29
HETATM   29  O   UNL     1      -6.096  12.865  68.784  1.00  0.00    -0.067 OA 
HETATM   30  C   UNL     1      -6.250  14.038  68.004  1.00  0.00    -0.142 C  
ENDBRANCH   8  29
BRANCH   7  31
HETATM   31  O   UNL     1      -6.603  10.761  70.686  1.00  0.00    -0.332 OA 
HETATM   32  C   UNL     1      -5.265  10.311  70.803  1.00  0.00    -0.065 C  
ENDBRANCH   7  31
ENDBRANCH   2   3
TORSDOF 6
ENDMDL
MODEL      193
REMARK 921   NORMALIZED FREE ENERGY PREDICTED BY IDOCK:   -4.28 KCAL/MOL
REMARK 922        TOTAL FREE ENERGY PREDICTED BY IDOCK:   -6.63 KCAL/MOL
REMARK 923 INTER-LIGAND FREE ENERGY PREDICTED BY IDOCK:   -5.59 KCAL/MOL
REMARK 924 INTRA-LIGAND FREE ENERGY PREDICTED BY IDOCK:   -1.04 KCAL/MOL
REMARK 927      BINDING AFFINITY PREDICTED BY RF-SCORE:    0.00 PKD
ROOT
HETATM    1  C   UNL     1      -8.685  17.234  66.246  1.00  0.00    -0.224 C  
HETATM    2  O   UNL     1      -9.291  16.080  65.667  1.00  0.00    -0.385 OA 
ENDROOT
BRANCH   2   3
HETATM    3  C   UNL     1      -9.503  15.011  66.503  1.00  0.00    -0.282 A  
HETATM    4  C   UNL     1      -8.489  14.582  67.378  1.00  0.00    -0.220 A  
HETATM    5  C   UNL     1      -8.671  13.520  68.262  1.00  0.00    -0.172 A  
HETATM    6  C   UNL     1      -9.897  12.861  68.221  1.00  0.00    -0.228 A  
HETATM    7  C   UNL     1     -10.763  14.371  66.512  1.00  0.00    -0.306 A  
HETATM    8  C   UNL     1     -10.948  13.281  67.387  1.00  0.00    -0.271 A  
BRANCH   5   9
HETATM    9  N   UNL     1      -7.579  13.085  69.024  1.00  0.00    -0.323 NA 
HETATM   10  H   UNL     1      -7.354  13.525  69.917  1.00  0.00     0.000 HD 
BRANCH   9  11
HETATM   11  C   UNL     1      -6.771  11.986  68.507  1.00  0.00    -0.066 C  
BRANCH  11  12
HETATM   12  C   UNL     1      -7.543  10.681  68.401  1.00  0.00    -0.100 A  
HETATM   13  C   UNL     1      -7.762  10.082  67.133  1.00  0.00    -0.092 A  
HETATM   14  H2  UNL     1      -7.048   8.353  64.786  1.00  0.00     0.000 HD 
HETATM   15  C   UNL     1      -8.427   8.797  67.036  1.00  0.00    -0.109 A  
HETATM   16  H1  UNL     1      -8.191   7.666  63.828  1.00  0.00     0.000 HD 
HETATM   17  C   UNL     1      -7.308  10.795  65.878  1.00  0.00    -0.094 C  
HETATM   18  C   UNL     1      -8.948   8.215  68.200  1.00  0.00    -0.135 A  
HETATM   19  N   UNL     1      -9.642   7.074  68.218  1.00  0.00    -0.134 NA 
HETATM   20  C   UNL     1      -8.733   8.828  69.421  1.00  0.00    -0.142 A  
HETATM   21  C   UNL     1      -8.024  10.023  69.536  1.00  0.00    -0.161 A  
HETATM   22  C   UNL     1      -9.823   6.447  67.062  1.00  0.00    -0.154 A  
HETATM   23  N   UNL     1      -9.302   6.826  65.902  1.00  0.00     0.014 NA 
HETATM   24  N   UNL     1     -10.575   5.291  67.072  1.00  0.00    -0.262 NA 
HETATM   25  C   UNL     1      -8.618   7.979  65.897  1.00  0.00    -0.152 A  
HETATM   26  H2  UNL     1     -10.978   4.930  67.937  1.00  0.00     0.000 HD 
HETATM   27  H1  UNL     1     -10.715   4.809  66.184  1.00  0.00     0.000 HD 
HETATM   28  N   UNL     1      -8.054   8.255  64.649  1.00  0.00    -0.148 NA 
ENDBRANCH  11  12
ENDBRANCH   9  11
ENDBRANCH   5   9
BRANCH   8  29
HETATM   29  O   UNL     1     -12.058  12.491  67.567  1.00  0.00    -0.453 OA 
HETATM   30  C   UNL     1     -12.002  11.380  68.446  1.00  0.00    -0.200 C  
ENDBRANCH   8  29
BRANCH   7  31
HETATM   31  O   UNL     1     -11.836  14.697  65.727  1.00  0.00    -0.346 OA 
HETATM   32  C   UNL     1     -12.022  14.087  64.463  1.00  0.00    -0.448 C  
ENDBRANCH   7  31
ENDBRANCH   2   3
TORSDOF 6
ENDMDL
MODEL      194
REMARK 921   NORMALIZED FREE ENERGY PREDICTED BY IDOCK:   -4.26 KCAL/MOL
REMARK 922        TOTAL FREE ENERGY PREDICTED BY IDOCK:   -6.61 KCAL/MOL
REMARK 923 INTER-LIGAND FREE ENERGY PREDICTED BY IDOCK:   -5.63 KCAL/MOL
REMARK 924 INTRA-LIGAND FREE ENERGY PREDICTED BY IDOCK:   -0.98 KCAL/MOL
REMARK 927      BINDING AFFINITY PREDICTED BY RF-SCORE:    0.00 PKD
ROOT
HETATM    1  C   UNL     1      -6.977  14.984  69.615  1.00  0.00    -0.191 C  
HETATM    2  O   UNL     1      -8.176  15.542  69.080  1.00  0.00    -0.209 OA 
ENDROOT
BRANCH   2   3
HETATM    3  C   UNL     1      -8.907  14.738  68.240  1.00  0.00    -0.179 A  
HETATM    4  C   UNL     1      -8.300  13.646  67.594  1.00  0.00    -0.182 A  
HETATM    5  C   UNL     1      -9.011  12.789  66.756  1.00  0.00    -0.188 A  
HETATM    6  C   UNL     1     -10.356  13.079  66.544  1.00  0.00    -0.278 A  
HETATM    7  C   UNL     1     -10.287  14.987  68.062  1.00  0.00    -0.236 A  
HETATM    8  C   UNL     1     -11.009  14.139  67.197  1.00  0.00    -0.299 A  
BRANCH   5   9
HETATM    9  N   UNL     1      -8.312  11.790  66.067  1.00  0.00    -0.382 NA 
HETATM   10  H   UNL     1      -8.507  11.596  65.084  1.00  0.00     0.000 HD 
BRANCH   9  11
HETATM   11  C   UNL     1      -7.297  11.033  66.792  1.00  0.00    -0.139 C  
BRANCH  11  12
HETATM   12  C   UNL     1      -7.818   9.715  67.340  1.00  0.00    -0.095 A  
HETATM   13  C   UNL     1      -8.043   9.559  68.732  1.00  0.00    -0.096 A  
HETATM   14  H2  UNL     1      -9.641   9.760  71.264  1.00  0.00     0.000 HD 
HETATM   15  C   UNL     1      -8.616   8.331  69.248  1.00  0.00    -0.138 A  
HETATM   16  H1  UNL     1      -9.381   8.763  72.543  1.00  0.00     0.000 HD 
HETATM   17  C   UNL     1      -7.672  10.678  69.682  1.00  0.00    -0.080 C  
HETATM   18  C   UNL     1      -8.835   7.264  68.366  1.00  0.00    -0.128 A  
HETATM   19  N   UNL     1      -9.287   6.065  68.743  1.00  0.00    -0.122 NA 
HETATM   20  C   UNL     1      -8.592   7.438  67.016  1.00  0.00    -0.119 A  
HETATM   21  C   UNL     1      -8.119   8.641  66.496  1.00  0.00    -0.103 A  
HETATM   22  C   UNL     1      -9.567   5.890  70.028  1.00  0.00    -0.163 A  
HETATM   23  N   UNL     1      -9.505   6.838  70.955  1.00  0.00    -0.164 NA 
HETATM   24  N   UNL     1      -9.994   4.640  70.427  1.00  0.00    -0.233 NA 
HETATM   25  C   UNL     1      -9.038   8.032  70.565  1.00  0.00    -0.153 A  
HETATM   26  H2  UNL     1     -10.092   3.877  69.757  1.00  0.00     0.000 HD 
HETATM   27  H1  UNL     1     -10.208   4.506  71.414  1.00  0.00     0.000 HD 
HETATM   28  N   UNL     1      -9.077   8.978  71.594  1.00  0.00    -0.343 NA 
ENDBRANCH  11  12
ENDBRANCH   9  11
ENDBRANCH   5   9
BRANCH   8  29
HETATM   29  O   UNL     1     -12.337  14.183  66.847  1.00  0.00    -0.419 OA 
HETATM   30  C   UNL     1     -12.768  13.605  65.627  1.00  0.00    -0.454 C  
ENDBRANCH   8  29
BRANCH   7  31
HETATM   31  O   UNL     1     -11.002  16.001  68.641  1.00  0.00    -0.285 OA 
HETATM   32  C   UNL     1     -10.812  17.344  68.236  1.00  0.00    -0.256 C  
ENDBRANCH   7  31
ENDBRANCH   2   3
TORSDOF 6
ENDMDL
MODEL      195
REMARK 921   NORMALIZED FREE ENERGY PREDICTED BY IDOCK:   -4.25 KCAL/MOL
REMARK 922        TOTAL FREE ENERGY PREDICTED BY IDOCK:   -6.59 KCAL/MOL
REMARK 923 INTER-LIGAND FREE ENERGY PREDICTED BY IDOCK:   -5.81 KCAL/MOL
REMARK 924 INTRA-LIGAND FREE ENERGY PREDICTED BY IDOCK:   -0.78 KCAL/MOL
REMARK 927      BINDING AFFINITY PREDICTED BY RF-SCORE:    0.00 PKD
ROOT
HETATM    1  C   UNL     1     -11.846   8.962  72.000  1.00  0.00    -0.368 C  
HETATM    2  O   UNL     1     -11.618   8.387  70.715  1.00  0.00    -0.278 OA 
ENDROOT
BRANCH   2   3
HETATM    3  C   UNL     1     -10.334   8.454  70.231  1.00  0.00    -0.205 A  
HETATM    4  C   UNL     1      -9.705   9.699  70.054  1.00  0.00    -0.280 A  
HETATM    5  C   UNL     1      -8.394   9.811  69.593  1.00  0.00    -0.173 A  
HETATM    6  C   UNL     1      -7.732   8.630  69.269  1.00  0.00    -0.096 A  
HETATM    7  C   UNL     1      -9.630   7.260  69.953  1.00  0.00    -0.163 A  
HETATM    8  C   UNL     1      -8.312   7.364  69.463  1.00  0.00    -0.132 A  
BRANCH   5   9
HETATM    9  N   UNL     1      -7.877  11.088  69.342  1.00  0.00    -0.359 NA 
HETATM   10  H   UNL     1      -7.302  11.567  70.036  1.00  0.00     0.000 HD 
BRANCH   9  11
HETATM   11  C   UNL     1      -8.182  11.717  68.061  1.00  0.00    -0.146 C  
BRANCH  11  12
HETATM   12  C   UNL     1      -8.260  13.232  68.148  1.00  0.00    -0.160 A  
HETATM   13  C   UNL     1      -9.494  13.868  68.446  1.00  0.00    -0.211 A  
HETATM   14  H2  UNL     1     -11.624  14.945  70.265  1.00  0.00     0.000 HD 
HETATM   15  C   UNL     1      -9.554  15.307  68.609  1.00  0.00    -0.206 A  
HETATM   16  H1  UNL     1     -12.630  16.160  69.808  1.00  0.00     0.000 HD 
HETATM   17  C   UNL     1     -10.751  13.038  68.583  1.00  0.00    -0.273 C  
HETATM   18  C   UNL     1      -8.403  16.066  68.354  1.00  0.00    -0.178 A  
HETATM   19  N   UNL     1      -8.363  17.401  68.401  1.00  0.00    -0.255 NA 
HETATM   20  C   UNL     1      -7.218  15.421  68.051  1.00  0.00    -0.135 A  
HETATM   21  C   UNL     1      -7.128  14.033  67.972  1.00  0.00    -0.147 A  
HETATM   22  C   UNL     1      -9.479  18.037  68.733  1.00  0.00    -0.270 A  
HETATM   23  N   UNL     1     -10.611  17.447  69.097  1.00  0.00    -0.265 NA 
HETATM   24  N   UNL     1      -9.452  19.416  68.740  1.00  0.00    -0.393 NA 
HETATM   25  C   UNL     1     -10.640  16.109  69.034  1.00  0.00    -0.273 A  
HETATM   26  H2  UNL     1      -8.604  19.929  68.499  1.00  0.00     0.000 HD 
HETATM   27  H1  UNL     1     -10.309  19.905  68.994  1.00  0.00     0.000 HD 
HETATM   28  N   UNL     1     -11.847  15.582  69.501  1.00  0.00    -0.355 NA 
ENDBRANCH  11  12
ENDBRANCH   9  11
ENDBRANCH   5   9
BRANCH   8  29
HETATM   29  O   UNL     1      -7.438   6.367  69.104  1.00  0.00    -0.090 OA 
HETATM   30  C   UNL     1      -6.042   6.615  69.103  1.00  0.00    -0.026 C  
ENDBRANCH   8  29
BRANCH   7  31
HETATM   31  O   UNL     1     -10.116   5.988  70.096  1.00  0.00    -0.177 OA 
HETATM   32  C   UNL     1      -9.991   5.298  71.327  1.00  0.00    -0.194 C  
ENDBRANCH   7  31
ENDBRANCH   2   3
TORSDOF 6
ENDMDL
MODEL      196
REMARK 921   NORMALIZED FREE ENERGY PREDICTED BY IDOCK:   -4.24 KCAL/MOL
REMARK 922        TOTAL FREE ENERGY PREDICTED BY IDOCK:   -6.58 KCAL/MOL
REMARK 923 INTER-LIGAND FREE ENERGY PREDICTED BY IDOCK:   -5.70 KCAL/MOL
REMARK 924 INTRA-LIGAND FREE ENERGY PREDICTED BY IDOCK:   -0.88 KCAL/MOL
REMARK 927      BINDING AFFINITY PREDICTED BY RF-SCORE:    0.00 PKD
ROOT
HETATM    1  C   UNL     1     -10.429  15.772  67.116  1.00  0.00    -0.309 C  
HETATM    2  O   UNL     1     -11.193  14.638  66.711  1.00  0.00    -0.328 OA 
ENDROOT
BRANCH   2   3
HETATM    3  C   UNL     1     -10.488  13.498  66.412  1.00  0.00    -0.287 A  
HETATM    4  C   UNL     1      -9.519  13.005  67.303  1.00  0.00    -0.224 A  
HETATM    5  C   UNL     1      -8.801  11.837  67.051  1.00  0.00    -0.182 A  
HETATM    6  C   UNL     1      -9.053  11.184  65.848  1.00  0.00    -0.218 A  
HETATM    7  C   UNL     1     -10.775  12.793  65.220  1.00  0.00    -0.294 A  
HETATM    8  C   UNL     1     -10.037  11.623  64.946  1.00  0.00    -0.260 A  
BRANCH   5   9
HETATM    9  N   UNL     1      -7.778  11.472  67.936  1.00  0.00    -0.114 NA 
HETATM   10  H   UNL     1      -6.799  11.635  67.701  1.00  0.00     0.000 HD 
BRANCH   9  11
HETATM   11  C   UNL     1      -8.151  10.854  69.204  1.00  0.00    -0.100 C  
BRANCH  11  12
HETATM   12  C   UNL     1      -8.227   9.338  69.124  1.00  0.00    -0.111 A  
HETATM   13  C   UNL     1      -9.315   8.645  69.717  1.00  0.00    -0.165 A  
HETATM   14  H2  UNL     1     -12.084   7.490  69.787  1.00  0.00     0.000 HD 
HETATM   15  C   UNL     1      -9.432   7.207  69.573  1.00  0.00    -0.151 A  
HETATM   16  H1  UNL     1     -12.475   6.219  70.751  1.00  0.00     0.000 HD 
HETATM   17  C   UNL     1     -10.350   9.412  70.510  1.00  0.00    -0.341 C  
HETATM   18  C   UNL     1      -8.397   6.503  68.941  1.00  0.00    -0.122 A  
HETATM   19  N   UNL     1      -8.364   5.174  68.818  1.00  0.00    -0.088 NA 
HETATM   20  C   UNL     1      -7.341   7.203  68.386  1.00  0.00    -0.100 A  
HETATM   21  C   UNL     1      -7.258   8.593  68.446  1.00  0.00    -0.085 A  
HETATM   22  C   UNL     1      -9.389   4.486  69.307  1.00  0.00    -0.149 A  
HETATM   23  N   UNL     1     -10.481   5.024  69.837  1.00  0.00    -0.238 NA 
HETATM   24  N   UNL     1      -9.338   3.111  69.220  1.00  0.00    -0.157 NA 
HETATM   25  C   UNL     1     -10.495   6.358  69.964  1.00  0.00    -0.215 A  
HETATM   26  H2  UNL     1      -8.540   2.638  68.795  1.00  0.00     0.000 HD 
HETATM   27  H1  UNL     1     -10.125   2.583  69.595  1.00  0.00     0.000 HD 
HETATM   28  N   UNL     1     -11.710   6.830  70.469  1.00  0.00    -0.372 NA 
ENDBRANCH  11  12
ENDBRANCH   9  11
ENDBRANCH   5   9
BRANCH   8  29
HETATM   29  O   UNL     1     -10.113  10.784  63.860  1.00  0.00    -0.314 OA 
HETATM   30  C   UNL     1      -8.984  10.016  63.478  1.00  0.00    -0.256 C  
ENDBRANCH   8  29
BRANCH   7  31
HETATM   31  O   UNL     1     -11.701  13.152  64.278  1.00  0.00    -0.355 OA 
HETATM   32  C   UNL     1     -12.922  12.445  64.156  1.00  0.00    -0.163 C  
ENDBRANCH   7  31
ENDBRANCH   2   3
TORSDOF 6
ENDMDL
MODEL      197
REMARK 921   NORMALIZED FREE ENERGY PREDICTED BY IDOCK:   -4.21 KCAL/MOL
REMARK 922        TOTAL FREE ENERGY PREDICTED BY IDOCK:   -6.54 KCAL/MOL
REMARK 923 INTER-LIGAND FREE ENERGY PREDICTED BY IDOCK:   -5.89 KCAL/MOL
REMARK 924 INTRA-LIGAND FREE ENERGY PREDICTED BY IDOCK:   -0.65 KCAL/MOL
REMARK 927      BINDING AFFINITY PREDICTED BY RF-SCORE:    0.00 PKD
ROOT
HETATM    1  C   UNL     1     -12.382  14.544  64.884  1.00  0.00    -0.370 C  
HETATM    2  O   UNL     1     -12.098  14.932  66.227  1.00  0.00    -0.163 OA 
ENDROOT
BRANCH   2   3
HETATM    3  C   UNL     1     -10.888  14.533  66.740  1.00  0.00    -0.305 A  
HETATM    4  C   UNL     1     -10.252  13.380  66.246  1.00  0.00    -0.298 A  
HETATM    5  C   UNL     1      -9.011  12.955  66.718  1.00  0.00    -0.179 A  
HETATM    6  C   UNL     1      -8.431  13.701  67.741  1.00  0.00    -0.183 A  
HETATM    7  C   UNL     1     -10.261  15.313  67.738  1.00  0.00    -0.237 A  
HETATM    8  C   UNL     1      -9.017  14.878  68.238  1.00  0.00    -0.177 A  
BRANCH   5   9
HETATM    9  N   UNL     1      -8.494  11.739  66.252  1.00  0.00    -0.370 NA 
HETATM   10  H   UNL     1      -7.545  11.448  66.487  1.00  0.00     0.000 HD 
BRANCH   9  11
HETATM   11  C   UNL     1      -9.350  10.900  65.420  1.00  0.00    -0.208 C  
BRANCH  11  12
HETATM   12  C   UNL     1      -8.922   9.442  65.410  1.00  0.00    -0.251 A  
HETATM   13  C   UNL     1      -9.562   8.503  66.261  1.00  0.00    -0.306 A  
HETATM   14  H2  UNL     1     -11.696   6.531  67.011  1.00  0.00     0.000 HD 
HETATM   15  C   UNL     1      -9.212   7.098  66.195  1.00  0.00    -0.126 A  
HETATM   16  H1  UNL     1     -11.423   5.314  68.079  1.00  0.00     0.000 HD 
HETATM   17  C   UNL     1     -10.606   8.977  67.248  1.00  0.00    -0.301 C  
HETATM   18  C   UNL     1      -8.155   6.703  65.362  1.00  0.00    -0.129 A  
HETATM   19  N   UNL     1      -7.700   5.449  65.278  1.00  0.00    -0.086 NA 
HETATM   20  C   UNL     1      -7.539   7.641  64.554  1.00  0.00    -0.112 A  
HETATM   21  C   UNL     1      -7.922   8.981  64.548  1.00  0.00    -0.131 A  
HETATM   22  C   UNL     1      -8.306   4.525  66.014  1.00  0.00    -0.113 A  
HETATM   23  N   UNL     1      -9.378   4.736  66.766  1.00  0.00    -0.134 NA 
HETATM   24  N   UNL     1      -7.810   3.239  65.962  1.00  0.00    -0.084 NA 
HETATM   25  C   UNL     1      -9.817   6.000  66.850  1.00  0.00    -0.158 A  
HETATM   26  H2  UNL     1      -7.006   3.006  65.378  1.00  0.00     0.000 HD 
HETATM   27  H1  UNL     1      -8.275   2.530  66.526  1.00  0.00     0.000 HD 
HETATM   28  N   UNL     1     -10.987   6.106  67.607  1.00  0.00    -0.331 NA 
ENDBRANCH  11  12
ENDBRANCH   9  11
ENDBRANCH   5   9
BRANCH   8  29
HETATM   29  O   UNL     1      -8.227  15.443  69.210  1.00  0.00    -0.221 OA 
HETATM   30  C   UNL     1      -7.333  16.491  68.876  1.00  0.00    -0.219 C  
ENDBRANCH   8  29
BRANCH   7  31
HETATM   31  O   UNL     1     -10.761  16.461  68.292  1.00  0.00    -0.306 OA 
HETATM   32  C   UNL     1     -10.512  17.721  67.697  1.00  0.00    -0.388 C  
ENDBRANCH   7  31
ENDBRANCH   2   3
TORSDOF 6
ENDMDL
MODEL      198
REMARK 921   NORMALIZED FREE ENERGY PREDICTED BY IDOCK:   -4.19 KCAL/MOL
REMARK 922        TOTAL FREE ENERGY PREDICTED BY IDOCK:   -6.51 KCAL/MOL
REMARK 923 INTER-LIGAND FREE ENERGY PREDICTED BY IDOCK:   -7.48 KCAL/MOL
REMARK 924 INTRA-LIGAND FREE ENERGY PREDICTED BY IDOCK:    0.97 KCAL/MOL
REMARK 927      BINDING AFFINITY PREDICTED BY RF-SCORE:    0.00 PKD
ROOT
HETATM    1  C   UNL     1      -7.214   9.537  70.101  1.00  0.00    -0.114 C  
HETATM    2  O   UNL     1      -7.885   9.232  71.322  1.00  0.00    -0.322 OA 
ENDROOT
BRANCH   2   3
HETATM    3  C   UNL     1      -9.171   8.760  71.215  1.00  0.00    -0.241 A  
HETATM    4  C   UNL     1     -10.200   9.597  70.750  1.00  0.00    -0.330 A  
HETATM    5  C   UNL     1     -11.512   9.150  70.600  1.00  0.00    -0.262 A  
HETATM    6  C   UNL     1     -11.782   7.836  70.971  1.00  0.00    -0.299 A  
HETATM    7  C   UNL     1      -9.447   7.410  71.533  1.00  0.00    -0.151 A  
HETATM    8  C   UNL     1     -10.776   6.956  71.407  1.00  0.00    -0.221 A  
BRANCH   5   9
HETATM    9  N   UNL     1     -12.499  10.074  70.234  1.00  0.00    -0.512 NA 
HETATM   10  H   UNL     1     -13.179   9.855  69.506  1.00  0.00     0.000 HD 
BRANCH   9  11
HETATM   11  C   UNL     1     -12.529  11.360  70.922  1.00  0.00    -0.379 C  
BRANCH  11  12
HETATM   12  C   UNL     1     -12.078  12.515  70.043  1.00  0.00    -0.337 A  
HETATM   13  C   UNL     1     -11.875  12.317  68.652  1.00  0.00    -0.354 A  
HETATM   14  H2  UNL     1     -12.727  12.154  65.779  1.00  0.00     0.000 HD 
HETATM   15  C   UNL     1     -11.524  13.433  67.797  1.00  0.00    -0.351 A  
HETATM   16  H1  UNL     1     -11.684  12.432  64.542  1.00  0.00     0.000 HD 
HETATM   17  C   UNL     1     -12.016  10.930  68.064  1.00  0.00     0.132 C  
HETATM   18  C   UNL     1     -11.277  14.683  68.384  1.00  0.00    -0.274 A  
HETATM   19  N   UNL     1     -10.875  15.761  67.704  1.00  0.00    -0.308 NA 
HETATM   20  C   UNL     1     -11.467  14.844  69.744  1.00  0.00    -0.328 A  
HETATM   21  C   UNL     1     -11.885  13.798  70.564  1.00  0.00    -0.296 A  
HETATM   22  C   UNL     1     -10.727  15.638  66.390  1.00  0.00    -0.291 A  
HETATM   23  N   UNL     1     -11.022  14.550  65.691  1.00  0.00    -0.311 NA 
HETATM   24  N   UNL     1     -10.272  16.737  65.692  1.00  0.00    -0.577 NA 
HETATM   25  C   UNL     1     -11.413  13.473  66.387  1.00  0.00    -0.331 A  
HETATM   26  H2  UNL     1     -10.057  17.614  66.168  1.00  0.00     0.000 HD 
HETATM   27  H1  UNL     1     -10.158  16.643  64.684  1.00  0.00     0.000 HD 
HETATM   28  N   UNL     1     -11.764  12.404  65.558  1.00  0.00    -0.394 NA 
ENDBRANCH  11  12
ENDBRANCH   9  11
ENDBRANCH   5   9
BRANCH   8  29
HETATM   29  O   UNL     1     -11.296   5.712  71.670  1.00  0.00    -0.204 OA 
HETATM   30  C   UNL     1     -11.642   5.355  72.998  1.00  0.00    -0.200 C  
ENDBRANCH   8  29
BRANCH   7  31
HETATM   31  O   UNL     1      -8.539   6.488  71.979  1.00  0.00    -0.125 OA 
HETATM   32  C   UNL     1      -7.738   5.759  71.067  1.00  0.00    -0.101 C  
ENDBRANCH   7  31
ENDBRANCH   2   3
TORSDOF 6
ENDMDL
MODEL      199
REMARK 921   NORMALIZED FREE ENERGY PREDICTED BY IDOCK:   -4.18 KCAL/MOL
REMARK 922        TOTAL FREE ENERGY PREDICTED BY IDOCK:   -6.51 KCAL/MOL
REMARK 923 INTER-LIGAND FREE ENERGY PREDICTED BY IDOCK:   -5.68 KCAL/MOL
REMARK 924 INTRA-LIGAND FREE ENERGY PREDICTED BY IDOCK:   -0.82 KCAL/MOL
REMARK 927      BINDING AFFINITY PREDICTED BY RF-SCORE:    0.00 PKD
ROOT
HETATM    1  C   UNL     1      -9.916  11.575  63.669  1.00  0.00    -0.376 C  
HETATM    2  O   UNL     1      -8.857  10.942  64.383  1.00  0.00    -0.157 OA 
ENDROOT
BRANCH   2   3
HETATM    3  C   UNL     1      -9.220  10.006  65.320  1.00  0.00    -0.218 A  
HETATM    4  C   UNL     1     -10.148  10.329  66.326  1.00  0.00    -0.300 A  
HETATM    5  C   UNL     1     -10.566   9.401  67.278  1.00  0.00    -0.244 A  
HETATM    6  C   UNL     1      -9.994   8.133  67.224  1.00  0.00    -0.283 A  
HETATM    7  C   UNL     1      -8.691   8.698  65.241  1.00  0.00    -0.165 A  
HETATM    8  C   UNL     1      -9.089   7.759  66.215  1.00  0.00    -0.178 A  
BRANCH   5   9
HETATM    9  N   UNL     1     -11.410   9.831  68.311  1.00  0.00    -0.521 NA 
HETATM   10  H   UNL     1     -12.419   9.686  68.258  1.00  0.00     0.000 HD 
BRANCH   9  11
HETATM   11  C   UNL     1     -10.808  10.492  69.463  1.00  0.00    -0.256 C  
BRANCH  11  12
HETATM   12  C   UNL     1      -9.974   9.551  70.318  1.00  0.00    -0.310 A  
HETATM   13  C   UNL     1     -10.606   8.582  71.140  1.00  0.00    -0.277 A  
HETATM   14  H2  UNL     1     -11.862   5.920  71.724  1.00  0.00     0.000 HD 
HETATM   15  C   UNL     1      -9.812   7.631  71.893  1.00  0.00    -0.205 A  
HETATM   16  H1  UNL     1     -11.881   5.276  73.235  1.00  0.00     0.000 HD 
HETATM   17  C   UNL     1     -12.116   8.551  71.236  1.00  0.00    -0.323 C  
HETATM   18  C   UNL     1      -8.416   7.759  71.885  1.00  0.00    -0.114 A  
HETATM   19  N   UNL     1      -7.592   6.988  72.599  1.00  0.00    -0.088 NA 
HETATM   20  C   UNL     1      -7.827   8.723  71.088  1.00  0.00    -0.161 A  
HETATM   21  C   UNL     1      -8.577   9.590  70.295  1.00  0.00    -0.258 A  
HETATM   22  C   UNL     1      -8.135   6.029  73.339  1.00  0.00    -0.111 A  
HETATM   23  N   UNL     1      -9.427   5.728  73.364  1.00  0.00    -0.138 NA 
HETATM   24  N   UNL     1      -7.290   5.258  74.110  1.00  0.00    -0.086 NA 
HETATM   25  C   UNL     1     -10.244   6.517  72.652  1.00  0.00    -0.186 A  
HETATM   26  H2  UNL     1      -6.282   5.419  74.112  1.00  0.00     0.000 HD 
HETATM   27  H1  UNL     1      -7.706   4.522  74.679  1.00  0.00     0.000 HD 
HETATM   28  N   UNL     1     -11.570   6.078  72.688  1.00  0.00    -0.259 NA 
ENDBRANCH  11  12
ENDBRANCH   9  11
ENDBRANCH   5   9
BRANCH   8  29
HETATM   29  O   UNL     1      -8.707   6.448  66.364  1.00  0.00    -0.128 OA 
HETATM   30  C   UNL     1      -9.669   5.412  66.257  1.00  0.00    -0.162 C  
ENDBRANCH   8  29
BRANCH   7  31
HETATM   31  O   UNL     1      -7.796   8.248  64.307  1.00  0.00    -0.129 OA 
HETATM   32  C   UNL     1      -8.219   7.925  62.995  1.00  0.00    -0.050 C  
ENDBRANCH   7  31
ENDBRANCH   2   3
TORSDOF 6
ENDMDL
MODEL      200
REMARK 921   NORMALIZED FREE ENERGY PREDICTED BY IDOCK:   -4.17 KCAL/MOL
REMARK 922        TOTAL FREE ENERGY PREDICTED BY IDOCK:   -6.48 KCAL/MOL
REMARK 923 INTER-LIGAND FREE ENERGY PREDICTED BY IDOCK:   -5.81 KCAL/MOL
REMARK 924 INTRA-LIGAND FREE ENERGY PREDICTED BY IDOCK:   -0.67 KCAL/MOL
REMARK 927      BINDING AFFINITY PREDICTED BY RF-SCORE:    0.00 PKD
ROOT
HETATM    1  C   UNL     1      -9.714  15.773  68.906  1.00  0.00    -0.225 C  
HETATM    2  O   UNL     1     -10.933  15.124  68.550  1.00  0.00    -0.243 OA 
ENDROOT
BRANCH   2   3
HETATM    3  C   UNL     1     -10.822  13.965  67.820  1.00  0.00    -0.250 A  
HETATM    4  C   UNL     1     -10.448  12.763  68.447  1.00  0.00    -0.253 A  
HETATM    5  C   UNL     1     -10.350  11.560  67.750  1.00  0.00    -0.182 A  
HETATM    6  C   UNL     1     -10.600  11.596  66.381  1.00  0.00    -0.299 A  
HETATM    7  C   UNL     1     -11.129  13.977  66.441  1.00  0.00    -0.316 A  
HETATM    8  C   UNL     1     -11.010  12.769  65.723  1.00  0.00    -0.277 A  
BRANCH   5   9
HETATM    9  N   UNL     1      -9.868  10.430  68.424  1.00  0.00    -0.157 NA 
HETATM   10  H   UNL     1     -10.402  10.005  69.183  1.00  0.00     0.000 HD 
BRANCH   9  11
HETATM   11  C   UNL     1      -8.583   9.877  68.012  1.00  0.00    -0.121 C  
BRANCH  11  12
HETATM   12  C   UNL     1      -8.695   8.467  67.455  1.00  0.00    -0.136 A  
HETATM   13  C   UNL     1      -8.915   7.369  68.327  1.00  0.00    -0.130 A  
HETATM   14  H2  UNL     1     -10.595   5.478  69.942  1.00  0.00     0.000 HD 
HETATM   15  C   UNL     1      -9.103   6.036  67.792  1.00  0.00    -0.109 A  
HETATM   16  H1  UNL     1     -10.091   3.959  70.310  1.00  0.00     0.000 HD 
HETATM   17  C   UNL     1      -8.942   7.595  69.823  1.00  0.00    -0.140 C  
HETATM   18  C   UNL     1      -8.950   5.832  66.413  1.00  0.00    -0.137 A  
HETATM   19  N   UNL     1      -9.027   4.636  65.822  1.00  0.00    -0.129 NA 
HETATM   20  C   UNL     1      -8.720   6.917  65.588  1.00  0.00    -0.086 A  
HETATM   21  C   UNL     1      -8.619   8.217  66.081  1.00  0.00    -0.154 A  
HETATM   22  C   UNL     1      -9.289   3.586  66.591  1.00  0.00    -0.175 A  
HETATM   23  N   UNL     1      -9.557   3.644  67.890  1.00  0.00    -0.163 NA 
HETATM   24  N   UNL     1      -9.326   2.346  65.990  1.00  0.00    -0.353 NA 
HETATM   25  C   UNL     1      -9.464   4.848  68.471  1.00  0.00    -0.143 A  
HETATM   26  H2  UNL     1      -9.159   2.238  64.989  1.00  0.00     0.000 HD 
HETATM   27  H1  UNL     1      -9.527   1.540  66.580  1.00  0.00     0.000 HD 
HETATM   28  N   UNL     1      -9.830   4.815  69.820  1.00  0.00    -0.203 NA 
ENDBRANCH  11  12
ENDBRANCH   9  11
ENDBRANCH   5   9
BRANCH   8  29
HETATM   29  O   UNL     1     -11.229  12.527  64.388  1.00  0.00    -0.306 OA 
HETATM   30  C   UNL     1     -10.701  11.359  63.784  1.00  0.00    -0.403 C  
ENDBRANCH   8  29
BRANCH   7  31
HETATM   31  O   UNL     1     -11.519  15.069  65.714  1.00  0.00    -0.327 OA 
HETATM   32  C   UNL     1     -10.560  15.928  65.125  1.00  0.00    -0.397 C  
ENDBRANCH   7  31
ENDBRANCH   2   3
TORSDOF 6
ENDMDL
MODEL      201
REMARK 921   NORMALIZED FREE ENERGY PREDICTED BY IDOCK:   -4.16 KCAL/MOL
REMARK 922        TOTAL FREE ENERGY PREDICTED BY IDOCK:   -6.48 KCAL/MOL
REMARK 923 INTER-LIGAND FREE ENERGY PREDICTED BY IDOCK:   -5.77 KCAL/MOL
REMARK 924 INTRA-LIGAND FREE ENERGY PREDICTED BY IDOCK:   -0.70 KCAL/MOL
REMARK 927      BINDING AFFINITY PREDICTED BY RF-SCORE:    0.00 PKD
ROOT
HETATM    1  C   UNL     1     -11.020  15.811  69.546  1.00  0.00    -0.295 C  
HETATM    2  O   UNL     1      -9.726  15.753  68.951  1.00  0.00    -0.201 OA 
ENDROOT
BRANCH   2   3
HETATM    3  C   UNL     1      -9.461  14.662  68.159  1.00  0.00    -0.212 A  
HETATM    4  C   UNL     1      -8.578  13.661  68.600  1.00  0.00    -0.031 A  
HETATM    5  C   UNL     1      -8.303  12.524  67.841  1.00  0.00    -0.167 A  
HETATM    6  C   UNL     1      -8.912  12.432  66.592  1.00  0.00    -0.184 A  
HETATM    7  C   UNL     1     -10.117  14.528  66.914  1.00  0.00    -0.257 A  
HETATM    8  C   UNL     1      -9.827  13.394  66.129  1.00  0.00    -0.281 A  
BRANCH   5   9
HETATM    9  N   UNL     1      -7.332  11.627  68.302  1.00  0.00    -0.087 NA 
HETATM   10  H   UNL     1      -6.359  11.707  68.003  1.00  0.00     0.000 HD 
BRANCH   9  11
HETATM   11  C   UNL     1      -7.747  10.573  69.221  1.00  0.00    -0.144 C  
BRANCH  11  12
HETATM   12  C   UNL     1      -8.539   9.469  68.538  1.00  0.00    -0.119 A  
HETATM   13  C   UNL     1      -7.863   8.409  67.878  1.00  0.00    -0.107 A  
HETATM   14  H2  UNL     1      -6.484   5.748  67.720  1.00  0.00     0.000 HD 
HETATM   15  C   UNL     1      -8.613   7.313  67.297  1.00  0.00    -0.121 A  
HETATM   16  H1  UNL     1      -6.439   4.869  66.334  1.00  0.00     0.000 HD 
HETATM   17  C   UNL     1      -6.354   8.432  67.773  1.00  0.00    -0.053 C  
HETATM   18  C   UNL     1     -10.014   7.376  67.298  1.00  0.00    -0.198 A  
HETATM   19  N   UNL     1     -10.803   6.461  66.727  1.00  0.00    -0.328 NA 
HETATM   20  C   UNL     1     -10.646   8.427  67.936  1.00  0.00    -0.218 A  
HETATM   21  C   UNL     1      -9.936   9.446  68.570  1.00  0.00    -0.190 A  
HETATM   22  C   UNL     1     -10.217   5.421  66.147  1.00  0.00    -0.138 A  
HETATM   23  N   UNL     1      -8.912   5.180  66.158  1.00  0.00    -0.130 NA 
HETATM   24  N   UNL     1     -11.027   4.498  65.520  1.00  0.00    -0.862 NA 
HETATM   25  C   UNL     1      -8.132   6.112  66.724  1.00  0.00    -0.109 A  
HETATM   26  H2  UNL     1     -12.041   4.609  65.503  1.00  0.00     0.000 HD 
HETATM   27  H1  UNL     1     -10.577   3.699  65.074  1.00  0.00     0.000 HD 
HETATM   28  N   UNL     1      -6.786   5.735  66.746  1.00  0.00    -0.061 NA 
ENDBRANCH  11  12
ENDBRANCH   9  11
ENDBRANCH   5   9
BRANCH   8  29
HETATM   29  O   UNL     1     -10.312  13.048  64.890  1.00  0.00    -0.314 OA 
HETATM   30  C   UNL     1     -11.346  12.085  64.778  1.00  0.00    -0.313 C  
ENDBRANCH   8  29
BRANCH   7  31
HETATM   31  O   UNL     1     -11.008  15.417  66.375  1.00  0.00    -0.322 OA 
HETATM   32  C   UNL     1     -10.576  16.420  65.473  1.00  0.00    -0.330 C  
ENDBRANCH   7  31
ENDBRANCH   2   3
TORSDOF 6
ENDMDL
MODEL      202
REMARK 921   NORMALIZED FREE ENERGY PREDICTED BY IDOCK:   -4.16 KCAL/MOL
REMARK 922        TOTAL FREE ENERGY PREDICTED BY IDOCK:   -6.48 KCAL/MOL
REMARK 923 INTER-LIGAND FREE ENERGY PREDICTED BY IDOCK:   -5.67 KCAL/MOL
REMARK 924 INTRA-LIGAND FREE ENERGY PREDICTED BY IDOCK:   -0.80 KCAL/MOL
REMARK 927      BINDING AFFINITY PREDICTED BY RF-SCORE:    0.00 PKD
ROOT
HETATM    1  C   UNL     1      -7.046   4.450  66.462  1.00  0.00    -0.071 C  
HETATM    2  O   UNL     1      -8.188   3.953  67.157  1.00  0.00    -0.098 OA 
ENDROOT
BRANCH   2   3
HETATM    3  C   UNL     1      -8.984   4.886  67.777  1.00  0.00    -0.109 A  
HETATM    4  C   UNL     1      -9.594   5.909  67.031  1.00  0.00    -0.144 A  
HETATM    5  C   UNL     1     -10.431   6.858  67.616  1.00  0.00    -0.228 A  
HETATM    6  C   UNL     1     -10.614   6.781  68.994  1.00  0.00    -0.258 A  
HETATM    7  C   UNL     1      -9.224   4.784  69.167  1.00  0.00    -0.123 A  
HETATM    8  C   UNL     1     -10.051   5.754  69.770  1.00  0.00    -0.209 A  
BRANCH   5   9
HETATM    9  N   UNL     1     -10.914   7.908  66.823  1.00  0.00    -0.333 NA 
HETATM   10  H   UNL     1     -11.916   8.084  66.739  1.00  0.00     0.000 HD 
BRANCH   9  11
HETATM   11  C   UNL     1      -9.946   8.744  66.122  1.00  0.00    -0.174 C  
BRANCH  11  12
HETATM   12  C   UNL     1      -9.904  10.170  66.645  1.00  0.00    -0.253 A  
HETATM   13  C   UNL     1     -10.085  11.263  65.757  1.00  0.00    -0.294 A  
HETATM   14  H2  UNL     1     -11.697  13.253  64.193  1.00  0.00     0.000 HD 
HETATM   15  C   UNL     1     -10.127  12.619  66.265  1.00  0.00    -0.264 A  
HETATM   16  H1  UNL     1     -11.091  14.715  63.754  1.00  0.00     0.000 HD 
HETATM   17  C   UNL     1     -10.224  11.006  64.272  1.00  0.00    -0.414 C  
HETATM   18  C   UNL     1      -9.871  12.841  67.625  1.00  0.00    -0.214 A  
HETATM   19  N   UNL     1      -9.810  14.052  68.186  1.00  0.00    -0.228 NA 
HETATM   20  C   UNL     1      -9.683  11.759  68.466  1.00  0.00    -0.181 A  
HETATM   21  C   UNL     1      -9.722  10.445  68.003  1.00  0.00    -0.166 A  
HETATM   22  C   UNL     1     -10.031  15.102  67.405  1.00  0.00    -0.226 A  
HETATM   23  N   UNL     1     -10.383  15.038  66.127  1.00  0.00    -0.285 NA 
HETATM   24  N   UNL     1      -9.926  16.355  67.972  1.00  0.00    -0.238 NA 
HETATM   25  C   UNL     1     -10.428  13.818  65.575  1.00  0.00    -0.318 A  
HETATM   26  H2  UNL     1      -9.689  16.471  68.958  1.00  0.00     0.000 HD 
HETATM   27  H1  UNL     1     -10.095  17.162  67.373  1.00  0.00     0.000 HD 
HETATM   28  N   UNL     1     -10.874  13.852  64.251  1.00  0.00    -0.273 NA 
ENDBRANCH  11  12
ENDBRANCH   9  11
ENDBRANCH   5   9
BRANCH   8  29
HETATM   29  O   UNL     1     -10.416   5.884  71.089  1.00  0.00    -0.214 OA 
HETATM   30  C   UNL     1     -11.751   6.223  71.424  1.00  0.00    -0.254 C  
ENDBRANCH   8  29
BRANCH   7  31
HETATM   31  O   UNL     1      -8.709   3.832  70.004  1.00  0.00    -0.063 OA 
HETATM   32  C   UNL     1      -7.441   4.009  70.610  1.00  0.00    -0.041 C  
ENDBRANCH   7  31
ENDBRANCH   2   3
TORSDOF 6
ENDMDL
MODEL      203
REMARK 921   NORMALIZED FREE ENERGY PREDICTED BY IDOCK:   -4.16 KCAL/MOL
REMARK 922        TOTAL FREE ENERGY PREDICTED BY IDOCK:   -6.47 KCAL/MOL
REMARK 923 INTER-LIGAND FREE ENERGY PREDICTED BY IDOCK:   -5.46 KCAL/MOL
REMARK 924 INTRA-LIGAND FREE ENERGY PREDICTED BY IDOCK:   -1.01 KCAL/MOL
REMARK 927      BINDING AFFINITY PREDICTED BY RF-SCORE:    0.00 PKD
ROOT
HETATM    1  C   UNL     1     -11.876  12.633  66.939  1.00  0.00    -0.355 C  
HETATM    2  O   UNL     1     -10.817  13.154  66.138  1.00  0.00    -0.277 OA 
ENDROOT
BRANCH   2   3
HETATM    3  C   UNL     1      -9.539  12.946  66.596  1.00  0.00    -0.257 A  
HETATM    4  C   UNL     1      -8.885  11.726  66.350  1.00  0.00    -0.170 A  
HETATM    5  C   UNL     1      -7.579  11.484  66.773  1.00  0.00    -0.126 A  
HETATM    6  C   UNL     1      -6.948  12.493  67.495  1.00  0.00    -0.149 A  
HETATM    7  C   UNL     1      -8.866  13.984  67.280  1.00  0.00    -0.218 A  
HETATM    8  C   UNL     1      -7.553  13.739  67.732  1.00  0.00    -0.169 A  
BRANCH   5   9
HETATM    9  N   UNL     1      -7.037  10.206  66.583  1.00  0.00    -0.097 NA 
HETATM   10  H   UNL     1      -6.922   9.819  65.646  1.00  0.00     0.000 HD 
BRANCH   9  11
HETATM   11  C   UNL     1      -6.642   9.442  67.762  1.00  0.00    -0.063 C  
BRANCH  11  12
HETATM   12  C   UNL     1      -7.817   9.078  68.654  1.00  0.00    -0.101 A  
HETATM   13  C   UNL     1      -8.602   7.930  68.369  1.00  0.00    -0.128 A  
HETATM   14  H2  UNL     1      -9.278   5.008  68.474  1.00  0.00     0.000 HD 
HETATM   15  C   UNL     1      -9.672   7.534  69.263  1.00  0.00    -0.163 A  
HETATM   16  H1  UNL     1     -10.821   4.463  68.328  1.00  0.00     0.000 HD 
HETATM   17  C   UNL     1      -8.324   7.124  67.119  1.00  0.00    -0.118 C  
HETATM   18  C   UNL     1      -9.990   8.365  70.347  1.00  0.00    -0.185 A  
HETATM   19  N   UNL     1     -11.001   8.138  71.190  1.00  0.00    -0.232 NA 
HETATM   20  C   UNL     1      -9.219   9.486  70.593  1.00  0.00    -0.243 A  
HETATM   21  C   UNL     1      -8.135   9.832  69.787  1.00  0.00    -0.174 A  
HETATM   22  C   UNL     1     -11.728   7.044  70.996  1.00  0.00    -0.333 A  
HETATM   23  N   UNL     1     -11.480   6.119  70.078  1.00  0.00    -0.382 NA 
HETATM   24  N   UNL     1     -12.799   6.830  71.839  1.00  0.00    -0.509 NA 
HETATM   25  C   UNL     1     -10.469   6.366  69.232  1.00  0.00    -0.231 A  
HETATM   26  H2  UNL     1     -13.025   7.488  72.585  1.00  0.00     0.000 HD 
HETATM   27  H1  UNL     1     -13.357   5.990  71.691  1.00  0.00     0.000 HD 
HETATM   28  N   UNL     1     -10.246   5.305  68.350  1.00  0.00    -0.160 NA 
ENDBRANCH  11  12
ENDBRANCH   9  11
ENDBRANCH   5   9
BRANCH   8  29
HETATM   29  O   UNL     1      -6.706  14.568  68.428  1.00  0.00    -0.091 OA 
HETATM   30  C   UNL     1      -5.636  15.212  67.758  1.00  0.00    -0.083 C  
ENDBRANCH   8  29
BRANCH   7  31
HETATM   31  O   UNL     1      -9.378  15.220  67.570  1.00  0.00    -0.201 OA 
HETATM   32  C   UNL     1      -9.250  16.291  66.652  1.00  0.00    -0.244 C  
ENDBRANCH   7  31
ENDBRANCH   2   3
TORSDOF 6
ENDMDL
MODEL      204
REMARK 921   NORMALIZED FREE ENERGY PREDICTED BY IDOCK:   -4.15 KCAL/MOL
REMARK 922        TOTAL FREE ENERGY PREDICTED BY IDOCK:   -6.46 KCAL/MOL
REMARK 923 INTER-LIGAND FREE ENERGY PREDICTED BY IDOCK:   -5.57 KCAL/MOL
REMARK 924 INTRA-LIGAND FREE ENERGY PREDICTED BY IDOCK:   -0.89 KCAL/MOL
REMARK 927      BINDING AFFINITY PREDICTED BY RF-SCORE:    0.00 PKD
ROOT
HETATM    1  C   UNL     1      -9.379   3.525  67.923  1.00  0.00    -0.187 C  
HETATM    2  O   UNL     1      -8.512   3.765  69.029  1.00  0.00    -0.071 OA 
ENDROOT
BRANCH   2   3
HETATM    3  C   UNL     1      -8.456   5.055  69.498  1.00  0.00    -0.088 A  
HETATM    4  C   UNL     1      -8.436   6.138  68.602  1.00  0.00    -0.114 A  
HETATM    5  C   UNL     1      -8.409   7.462  69.035  1.00  0.00    -0.126 A  
HETATM    6  C   UNL     1      -8.361   7.680  70.410  1.00  0.00    -0.124 A  
HETATM    7  C   UNL     1      -8.466   5.291  70.892  1.00  0.00    -0.121 A  
HETATM    8  C   UNL     1      -8.415   6.627  71.340  1.00  0.00    -0.124 A  
BRANCH   5   9
HETATM    9  N   UNL     1      -8.281   8.480  68.081  1.00  0.00    -0.119 NA 
HETATM   10  H   UNL     1      -7.380   8.928  67.909  1.00  0.00     0.000 HD 
BRANCH   9  11
HETATM   11  C   UNL     1      -9.470   8.882  67.339  1.00  0.00    -0.145 C  
BRANCH  11  12
HETATM   12  C   UNL     1     -10.181  10.075  67.957  1.00  0.00    -0.216 A  
HETATM   13  C   UNL     1      -9.931  11.385  67.473  1.00  0.00    -0.201 A  
HETATM   14  H2  UNL     1     -10.342  13.729  65.643  1.00  0.00     0.000 HD 
HETATM   15  C   UNL     1     -10.667  12.515  68.005  1.00  0.00    -0.242 A  
HETATM   16  H1  UNL     1     -10.003  15.267  66.106  1.00  0.00     0.000 HD 
HETATM   17  C   UNL     1      -8.884  11.602  66.403  1.00  0.00    -0.182 C  
HETATM   18  C   UNL     1     -11.542  12.306  69.082  1.00  0.00    -0.318 A  
HETATM   19  N   UNL     1     -12.213  13.283  69.698  1.00  0.00    -0.248 NA 
HETATM   20  C   UNL     1     -11.755  11.021  69.544  1.00  0.00    -0.400 A  
HETATM   21  C   UNL     1     -11.115   9.916  68.985  1.00  0.00    -0.184 A  
HETATM   22  C   UNL     1     -12.056  14.519  69.242  1.00  0.00    -0.290 A  
HETATM   23  N   UNL     1     -11.343  14.849  68.172  1.00  0.00    -0.299 NA 
HETATM   24  N   UNL     1     -12.715  15.535  69.903  1.00  0.00    -0.605 NA 
HETATM   25  C   UNL     1     -10.666  13.861  67.571  1.00  0.00    -0.267 A  
HETATM   26  H2  UNL     1     -13.303  15.342  70.714  1.00  0.00     0.000 HD 
HETATM   27  H1  UNL     1     -12.594  16.484  69.553  1.00  0.00     0.000 HD 
HETATM   28  N   UNL     1     -10.004  14.297  66.419  1.00  0.00    -0.282 NA 
ENDBRANCH  11  12
ENDBRANCH   9  11
ENDBRANCH   5   9
BRANCH   8  29
HETATM   29  O   UNL     1      -8.393   7.111  72.626  1.00  0.00    -0.107 OA 
HETATM   30  C   UNL     1      -9.564   7.678  73.189  1.00  0.00    -0.256 C  
ENDBRANCH   8  29
BRANCH   7  31
HETATM   31  O   UNL     1      -8.501   4.333  71.869  1.00  0.00    -0.102 OA 
HETATM   32  C   UNL     1      -9.731   3.772  72.291  1.00  0.00    -0.156 C  
ENDBRANCH   7  31
ENDBRANCH   2   3
TORSDOF 6
ENDMDL
MODEL      205
REMARK 921   NORMALIZED FREE ENERGY PREDICTED BY IDOCK:   -4.13 KCAL/MOL
REMARK 922        TOTAL FREE ENERGY PREDICTED BY IDOCK:   -6.43 KCAL/MOL
REMARK 923 INTER-LIGAND FREE ENERGY PREDICTED BY IDOCK:   -5.32 KCAL/MOL
REMARK 924 INTRA-LIGAND FREE ENERGY PREDICTED BY IDOCK:   -1.12 KCAL/MOL
REMARK 927      BINDING AFFINITY PREDICTED BY RF-SCORE:    0.00 PKD
ROOT
HETATM    1  C   UNL     1      -8.158  16.305  68.754  1.00  0.00    -0.227 C  
HETATM    2  O   UNL     1      -9.463  16.412  68.187  1.00  0.00    -0.208 OA 
ENDROOT
BRANCH   2   3
HETATM    3  C   UNL     1      -9.979  15.274  67.616  1.00  0.00    -0.222 A  
HETATM    4  C   UNL     1     -10.316  14.167  68.414  1.00  0.00    -0.249 A  
HETATM    5  C   UNL     1     -10.869  13.005  67.879  1.00  0.00    -0.242 A  
HETATM    6  C   UNL     1     -11.042  12.961  66.499  1.00  0.00    -0.318 A  
HETATM    7  C   UNL     1     -10.214  15.238  66.222  1.00  0.00    -0.287 A  
HETATM    8  C   UNL     1     -10.751  14.058  65.669  1.00  0.00    -0.303 A  
BRANCH   5   9
HETATM    9  N   UNL     1     -11.076  11.908  68.725  1.00  0.00    -0.229 NA 
HETATM   10  H   UNL     1     -12.014  11.659  69.041  1.00  0.00     0.000 HD 
BRANCH   9  11
HETATM   11  C   UNL     1      -9.915  11.131  69.144  1.00  0.00    -0.082 C  
BRANCH  11  12
HETATM   12  C   UNL     1      -9.641   9.939  68.241  1.00  0.00    -0.151 A  
HETATM   13  C   UNL     1      -8.440   9.876  67.487  1.00  0.00    -0.115 A  
HETATM   14  H2  UNL     1      -5.541   9.237  67.044  1.00  0.00     0.000 HD 
HETATM   15  C   UNL     1      -8.139   8.704  66.688  1.00  0.00    -0.100 A  
HETATM   16  H1  UNL     1      -4.933   8.932  65.550  1.00  0.00     0.000 HD 
HETATM   17  C   UNL     1      -7.477  11.043  67.510  1.00  0.00    -0.102 C  
HETATM   18  C   UNL     1      -9.102   7.690  66.583  1.00  0.00    -0.164 A  
HETATM   19  N   UNL     1      -8.962   6.604  65.819  1.00  0.00    -0.085 NA 
HETATM   20  C   UNL     1     -10.270   7.785  67.317  1.00  0.00    -0.343 A  
HETATM   21  C   UNL     1     -10.535   8.868  68.154  1.00  0.00    -0.254 A  
HETATM   22  C   UNL     1      -7.830   6.473  65.139  1.00  0.00    -0.111 A  
HETATM   23  N   UNL     1      -6.795   7.299  65.221  1.00  0.00    -0.051 NA 
HETATM   24  N   UNL     1      -7.701   5.374  64.315  1.00  0.00    -0.080 NA 
HETATM   25  C   UNL     1      -6.953   8.390  65.983  1.00  0.00    -0.065 A  
HETATM   26  H2  UNL     1      -8.450   4.686  64.232  1.00  0.00     0.000 HD 
HETATM   27  H1  UNL     1      -6.832   5.273  63.793  1.00  0.00     0.000 HD 
HETATM   28  N   UNL     1      -5.788   9.158  66.058  1.00  0.00    -0.050 NA 
ENDBRANCH  11  12
ENDBRANCH   9  11
ENDBRANCH   5   9
BRANCH   8  29
HETATM   29  O   UNL     1     -11.048  13.770  64.358  1.00  0.00    -0.379 OA 
HETATM   30  C   UNL     1     -11.979  12.746  64.051  1.00  0.00    -0.447 C  
ENDBRANCH   8  29
BRANCH   7  31
HETATM   31  O   UNL     1      -9.949  16.247  65.336  1.00  0.00    -0.514 OA 
HETATM   32  C   UNL     1     -10.868  17.309  65.150  1.00  0.00     0.058 C  
ENDBRANCH   7  31
ENDBRANCH   2   3
TORSDOF 6
ENDMDL
MODEL      206
REMARK 921   NORMALIZED FREE ENERGY PREDICTED BY IDOCK:   -4.11 KCAL/MOL
REMARK 922        TOTAL FREE ENERGY PREDICTED BY IDOCK:   -6.41 KCAL/MOL
REMARK 923 INTER-LIGAND FREE ENERGY PREDICTED BY IDOCK:   -5.98 KCAL/MOL
REMARK 924 INTRA-LIGAND FREE ENERGY PREDICTED BY IDOCK:   -0.42 KCAL/MOL
REMARK 927      BINDING AFFINITY PREDICTED BY RF-SCORE:    0.00 PKD
ROOT
HETATM    1  C   UNL     1     -13.636   9.024  72.259  1.00  0.00    -0.484 C  
HETATM    2  O   UNL     1     -13.110  10.343  72.132  1.00  0.00    -0.445 OA 
ENDROOT
BRANCH   2   3
HETATM    3  C   UNL     1     -12.196  10.546  71.126  1.00  0.00    -0.391 A  
HETATM    4  C   UNL     1     -11.310   9.520  70.753  1.00  0.00    -0.387 A  
HETATM    5  C   UNL     1     -10.386   9.673  69.721  1.00  0.00    -0.241 A  
HETATM    6  C   UNL     1     -10.343  10.912  69.087  1.00  0.00    -0.228 A  
HETATM    7  C   UNL     1     -12.180  11.779  70.435  1.00  0.00    -0.330 A  
HETATM    8  C   UNL     1     -11.234  11.951  69.405  1.00  0.00    -0.211 A  
BRANCH   5   9
HETATM    9  N   UNL     1      -9.468   8.643  69.482  1.00  0.00    -0.161 NA 
HETATM   10  H   UNL     1      -8.530   8.847  69.135  1.00  0.00     0.000 HD 
BRANCH   9  11
HETATM   11  C   UNL     1      -9.887   7.271  69.743  1.00  0.00    -0.177 C  
BRANCH  11  12
HETATM   12  C   UNL     1      -9.944   6.418  68.486  1.00  0.00    -0.155 A  
HETATM   13  C   UNL     1      -8.952   5.432  68.246  1.00  0.00    -0.112 A  
HETATM   14  H2  UNL     1      -7.719   2.706  68.483  1.00  0.00     0.000 HD 
HETATM   15  C   UNL     1      -9.049   4.563  67.090  1.00  0.00    -0.136 A  
HETATM   16  H1  UNL     1      -6.696   2.109  67.346  1.00  0.00     0.000 HD 
HETATM   17  C   UNL     1      -7.784   5.297  69.198  1.00  0.00    -0.081 C  
HETATM   18  C   UNL     1     -10.071   4.789  66.157  1.00  0.00    -0.262 A  
HETATM   19  N   UNL     1     -10.211   4.099  65.021  1.00  0.00    -0.225 NA 
HETATM   20  C   UNL     1     -11.016   5.767  66.409  1.00  0.00    -0.062 A  
HETATM   21  C   UNL     1     -10.981   6.555  67.558  1.00  0.00    -0.444 A  
HETATM   22  C   UNL     1      -9.340   3.127  64.781  1.00  0.00    -0.148 A  
HETATM   23  N   UNL     1      -8.388   2.737  65.619  1.00  0.00    -0.090 NA 
HETATM   24  N   UNL     1      -9.457   2.443  63.590  1.00  0.00    -0.103 NA 
HETATM   25  C   UNL     1      -8.251   3.445  66.749  1.00  0.00    -0.095 A  
HETATM   26  H2  UNL     1     -10.188   2.675  62.917  1.00  0.00     0.000 HD 
HETATM   27  H1  UNL     1      -8.788   1.696  63.405  1.00  0.00     0.000 HD 
HETATM   28  N   UNL     1      -7.271   2.914  67.592  1.00  0.00    -0.053 NA 
ENDBRANCH  11  12
ENDBRANCH   9  11
ENDBRANCH   5   9
BRANCH   8  29
HETATM   29  O   UNL     1     -11.007  13.049  68.609  1.00  0.00    -0.247 OA 
HETATM   30  C   UNL     1     -10.411  12.887  67.333  1.00  0.00    -0.233 C  
ENDBRANCH   8  29
BRANCH   7  31
HETATM   31  O   UNL     1     -12.995  12.850  70.685  1.00  0.00    -0.035 OA 
HETATM   32  C   UNL     1     -13.171  13.336  72.004  1.00  0.00    -0.446 C  
ENDBRANCH   7  31
ENDBRANCH   2   3
TORSDOF 6
ENDMDL
MODEL      207
REMARK 921   NORMALIZED FREE ENERGY PREDICTED BY IDOCK:   -4.11 KCAL/MOL
REMARK 922        TOTAL FREE ENERGY PREDICTED BY IDOCK:   -6.40 KCAL/MOL
REMARK 923 INTER-LIGAND FREE ENERGY PREDICTED BY IDOCK:   -5.20 KCAL/MOL
REMARK 924 INTRA-LIGAND FREE ENERGY PREDICTED BY IDOCK:   -1.20 KCAL/MOL
REMARK 927      BINDING AFFINITY PREDICTED BY RF-SCORE:    0.00 PKD
ROOT
HETATM    1  C   UNL     1     -13.278   8.781  71.571  1.00  0.00    -0.314 C  
HETATM    2  O   UNL     1     -12.409   8.253  72.571  1.00  0.00    -0.353 OA 
ENDROOT
BRANCH   2   3
HETATM    3  C   UNL     1     -11.063   8.292  72.298  1.00  0.00    -0.359 A  
HETATM    4  C   UNL     1     -10.568   9.122  71.277  1.00  0.00    -0.399 A  
HETATM    5  C   UNL     1      -9.208   9.213  70.986  1.00  0.00    -0.252 A  
HETATM    6  C   UNL     1      -8.345   8.411  71.727  1.00  0.00    -0.212 A  
HETATM    7  C   UNL     1     -10.170   7.526  73.082  1.00  0.00    -0.327 A  
HETATM    8  C   UNL     1      -8.795   7.594  72.779  1.00  0.00    -0.153 A  
BRANCH   5   9
HETATM    9  N   UNL     1      -8.806   9.979  69.884  1.00  0.00    -0.343 NA 
HETATM   10  H   UNL     1      -8.236  10.816  70.008  1.00  0.00     0.000 HD 
BRANCH   9  11
HETATM   11  C   UNL     1      -9.224   9.548  68.555  1.00  0.00    -0.131 C  
BRANCH  11  12
HETATM   12  C   UNL     1      -8.568   8.248  68.119  1.00  0.00    -0.132 A  
HETATM   13  C   UNL     1      -9.359   7.186  67.606  1.00  0.00    -0.135 A  
HETATM   14  H2  UNL     1     -10.809   5.671  65.459  1.00  0.00     0.000 HD 
HETATM   15  C   UNL     1      -8.728   5.977  67.114  1.00  0.00    -0.109 A  
HETATM   16  H1  UNL     1     -11.078   4.054  65.562  1.00  0.00     0.000 HD 
HETATM   17  C   UNL     1     -10.866   7.316  67.585  1.00  0.00    -0.251 C  
HETATM   18  C   UNL     1      -7.341   5.829  67.259  1.00  0.00    -0.077 A  
HETATM   19  N   UNL     1      -6.667   4.730  66.910  1.00  0.00    -0.050 NA 
HETATM   20  C   UNL     1      -6.598   6.874  67.776  1.00  0.00    -0.055 A  
HETATM   21  C   UNL     1      -7.183   8.074  68.177  1.00  0.00    -0.094 A  
HETATM   22  C   UNL     1      -7.357   3.731  66.372  1.00  0.00    -0.072 A  
HETATM   23  N   UNL     1      -8.651   3.771  66.083  1.00  0.00    -0.110 NA 
HETATM   24  N   UNL     1      -6.670   2.579  66.051  1.00  0.00    -0.038 NA 
HETATM   25  C   UNL     1      -9.317   4.875  66.449  1.00  0.00    -0.145 A  
HETATM   26  H2  UNL     1      -5.667   2.497  66.220  1.00  0.00     0.000 HD 
HETATM   27  H1  UNL     1      -7.199   1.812  65.638  1.00  0.00     0.000 HD 
HETATM   28  N   UNL     1     -10.653   4.848  66.041  1.00  0.00    -0.307 NA 
ENDBRANCH  11  12
ENDBRANCH   9  11
ENDBRANCH   5   9
BRANCH   8  29
HETATM   29  O   UNL     1      -7.742   6.939  73.373  1.00  0.00    -0.091 OA 
HETATM   30  C   UNL     1      -6.413   7.366  73.126  1.00  0.00    -0.064 C  
ENDBRANCH   8  29
BRANCH   7  31
HETATM   31  O   UNL     1     -10.516   6.694  74.112  1.00  0.00    -0.353 OA 
HETATM   32  C   UNL     1     -10.747   5.315  73.884  1.00  0.00    -0.272 C  
ENDBRANCH   7  31
ENDBRANCH   2   3
TORSDOF 6
ENDMDL
MODEL      208
REMARK 921   NORMALIZED FREE ENERGY PREDICTED BY IDOCK:   -4.10 KCAL/MOL
REMARK 922        TOTAL FREE ENERGY PREDICTED BY IDOCK:   -6.39 KCAL/MOL
REMARK 923 INTER-LIGAND FREE ENERGY PREDICTED BY IDOCK:   -5.82 KCAL/MOL
REMARK 924 INTRA-LIGAND FREE ENERGY PREDICTED BY IDOCK:   -0.57 KCAL/MOL
REMARK 927      BINDING AFFINITY PREDICTED BY RF-SCORE:    0.00 PKD
ROOT
HETATM    1  C   UNL     1      -6.596  13.863  69.020  1.00  0.00    -0.107 C  
HETATM    2  O   UNL     1      -7.732  14.656  68.681  1.00  0.00    -0.122 OA 
ENDROOT
BRANCH   2   3
HETATM    3  C   UNL     1      -8.538  14.178  67.676  1.00  0.00    -0.189 A  
HETATM    4  C   UNL     1      -8.571  12.803  67.384  1.00  0.00    -0.194 A  
HETATM    5  C   UNL     1      -9.394  12.273  66.391  1.00  0.00    -0.219 A  
HETATM    6  C   UNL     1     -10.165  13.172  65.659  1.00  0.00    -0.294 A  
HETATM    7  C   UNL     1      -9.369  15.072  66.963  1.00  0.00    -0.224 A  
HETATM    8  C   UNL     1     -10.187  14.549  65.942  1.00  0.00    -0.322 A  
BRANCH   5   9
HETATM    9  N   UNL     1      -9.290  10.909  66.089  1.00  0.00    -0.180 NA 
HETATM   10  H   UNL     1      -9.507  10.561  65.155  1.00  0.00     0.000 HD 
BRANCH   9  11
HETATM   11  C   UNL     1      -8.863  10.000  67.147  1.00  0.00    -0.135 C  
BRANCH  11  12
HETATM   12  C   UNL     1      -9.198   8.547  66.851  1.00  0.00    -0.197 A  
HETATM   13  C   UNL     1      -8.266   7.725  66.165  1.00  0.00    -0.123 A  
HETATM   14  H2  UNL     1      -5.909   5.878  65.962  1.00  0.00     0.000 HD 
HETATM   15  C   UNL     1      -8.548   6.319  65.953  1.00  0.00    -0.150 A  
HETATM   16  H1  UNL     1      -5.750   4.797  64.736  1.00  0.00     0.000 HD 
HETATM   17  C   UNL     1      -6.977   8.324  65.645  1.00  0.00    -0.067 C  
HETATM   18  C   UNL     1      -9.800   5.815  66.333  1.00  0.00    -0.138 A  
HETATM   19  N   UNL     1     -10.195   4.557  66.119  1.00  0.00    -0.263 NA 
HETATM   20  C   UNL     1     -10.695   6.642  66.985  1.00  0.00    -0.437 A  
HETATM   21  C   UNL     1     -10.403   7.975  67.269  1.00  0.00    -0.371 A  
HETATM   22  C   UNL     1      -9.334   3.734  65.532  1.00  0.00    -0.160 A  
HETATM   23  N   UNL     1      -8.084   4.045  65.212  1.00  0.00    -0.100 NA 
HETATM   24  N   UNL     1      -9.754   2.447  65.271  1.00  0.00    -0.352 NA 
HETATM   25  C   UNL     1      -7.705   5.313  65.422  1.00  0.00    -0.088 A  
HETATM   26  H2  UNL     1     -10.694   2.137  65.521  1.00  0.00     0.000 HD 
HETATM   27  H1  UNL     1      -9.093   1.815  64.820  1.00  0.00     0.000 HD 
HETATM   28  N   UNL     1      -6.357   5.521  65.118  1.00  0.00    -0.037 NA 
ENDBRANCH  11  12
ENDBRANCH   9  11
ENDBRANCH   5   9
BRANCH   8  29
HETATM   29  O   UNL     1     -11.057  15.205  65.104  1.00  0.00    -0.362 OA 
HETATM   30  C   UNL     1     -12.278  14.590  64.729  1.00  0.00    -0.431 C  
ENDBRANCH   8  29
BRANCH   7  31
HETATM   31  O   UNL     1      -9.446  16.426  67.157  1.00  0.00    -0.226 OA 
HETATM   32  C   UNL     1     -10.392  16.977  68.055  1.00  0.00    -0.341 C  
ENDBRANCH   7  31
ENDBRANCH   2   3
TORSDOF 6
ENDMDL
MODEL      209
REMARK 921   NORMALIZED FREE ENERGY PREDICTED BY IDOCK:   -4.10 KCAL/MOL
REMARK 922        TOTAL FREE ENERGY PREDICTED BY IDOCK:   -6.39 KCAL/MOL
REMARK 923 INTER-LIGAND FREE ENERGY PREDICTED BY IDOCK:   -5.81 KCAL/MOL
REMARK 924 INTRA-LIGAND FREE ENERGY PREDICTED BY IDOCK:   -0.58 KCAL/MOL
REMARK 927      BINDING AFFINITY PREDICTED BY RF-SCORE:    0.00 PKD
ROOT
HETATM    1  C   UNL     1     -10.423   6.952  66.714  1.00  0.00    -0.230 C  
HETATM    2  O   UNL     1      -9.094   7.232  67.147  1.00  0.00    -0.125 OA 
ENDROOT
BRANCH   2   3
HETATM    3  C   UNL     1      -8.965   7.920  68.329  1.00  0.00    -0.132 A  
HETATM    4  C   UNL     1      -8.623   9.284  68.325  1.00  0.00    -0.125 A  
HETATM    5  C   UNL     1      -8.510  10.026  69.499  1.00  0.00    -0.176 A  
HETATM    6  C   UNL     1      -8.710   9.351  70.700  1.00  0.00    -0.263 A  
HETATM    7  C   UNL     1      -9.222   7.260  69.553  1.00  0.00    -0.149 A  
HETATM    8  C   UNL     1      -9.087   7.997  70.747  1.00  0.00    -0.145 A  
BRANCH   5   9
HETATM    9  N   UNL     1      -8.061  11.351  69.417  1.00  0.00    -0.348 NA 
HETATM   10  H   UNL     1      -8.087  11.965  70.231  1.00  0.00     0.000 HD 
BRANCH   9  11
HETATM   11  C   UNL     1      -7.556  11.829  68.135  1.00  0.00    -0.117 C  
BRANCH  11  12
HETATM   12  C   UNL     1      -7.999  13.248  67.814  1.00  0.00    -0.166 A  
HETATM   13  C   UNL     1      -9.040  13.477  66.877  1.00  0.00    -0.246 A  
HETATM   14  H2  UNL     1     -11.899  13.769  66.012  1.00  0.00     0.000 HD 
HETATM   15  C   UNL     1      -9.519  14.823  66.631  1.00  0.00    -0.293 A  
HETATM   16  H1  UNL     1     -12.328  14.665  64.704  1.00  0.00     0.000 HD 
HETATM   17  C   UNL     1      -9.643  12.310  66.127  1.00  0.00    -0.248 C  
HETATM   18  C   UNL     1      -8.861  15.899  67.244  1.00  0.00    -0.196 A  
HETATM   19  N   UNL     1      -9.168  17.181  67.032  1.00  0.00    -0.235 NA 
HETATM   20  C   UNL     1      -7.839  15.647  68.141  1.00  0.00    -0.129 A  
HETATM   21  C   UNL     1      -7.424  14.353  68.450  1.00  0.00    -0.119 A  
HETATM   22  C   UNL     1     -10.175  17.443  66.207  1.00  0.00    -0.341 A  
HETATM   23  N   UNL     1     -10.948  16.527  65.638  1.00  0.00    -0.129 NA 
HETATM   24  N   UNL     1     -10.466  18.767  65.952  1.00  0.00    -0.578 NA 
HETATM   25  C   UNL     1     -10.621  15.245  65.850  1.00  0.00    -0.335 A  
HETATM   26  H2  UNL     1      -9.928  19.519  66.383  1.00  0.00     0.000 HD 
HETATM   27  H1  UNL     1     -11.239  18.968  65.319  1.00  0.00     0.000 HD 
HETATM   28  N   UNL     1     -11.533  14.361  65.267  1.00  0.00    -0.338 NA 
ENDBRANCH  11  12
ENDBRANCH   9  11
ENDBRANCH   5   9
BRANCH   8  29
HETATM   29  O   UNL     1      -9.260   7.584  72.046  1.00  0.00    -0.130 OA 
HETATM   30  C   UNL     1      -8.905   8.444  73.116  1.00  0.00    -0.147 C  
ENDBRANCH   8  29
BRANCH   7  31
HETATM   31  O   UNL     1      -9.578   5.946  69.697  1.00  0.00    -0.143 OA 
HETATM   32  C   UNL     1     -10.882   5.590  70.119  1.00  0.00    -0.229 C  
ENDBRANCH   7  31
ENDBRANCH   2   3
TORSDOF 6
ENDMDL
MODEL      210
REMARK 921   NORMALIZED FREE ENERGY PREDICTED BY IDOCK:   -4.09 KCAL/MOL
REMARK 922        TOTAL FREE ENERGY PREDICTED BY IDOCK:   -6.37 KCAL/MOL
REMARK 923 INTER-LIGAND FREE ENERGY PREDICTED BY IDOCK:   -5.58 KCAL/MOL
REMARK 924 INTRA-LIGAND FREE ENERGY PREDICTED BY IDOCK:   -0.80 KCAL/MOL
REMARK 927      BINDING AFFINITY PREDICTED BY RF-SCORE:    0.00 PKD
ROOT
HETATM    1  C   UNL     1     -11.541   7.171  70.526  1.00  0.00    -0.290 C  
HETATM    2  O   UNL     1     -10.118   7.094  70.478  1.00  0.00    -0.194 OA 
ENDROOT
BRANCH   2   3
HETATM    3  C   UNL     1      -9.490   7.878  69.541  1.00  0.00    -0.160 A  
HETATM    4  C   UNL     1      -8.999   9.148  69.890  1.00  0.00    -0.183 A  
HETATM    5  C   UNL     1      -8.332   9.965  68.979  1.00  0.00    -0.130 A  
HETATM    6  C   UNL     1      -8.201   9.489  67.677  1.00  0.00    -0.121 A  
HETATM    7  C   UNL     1      -9.300   7.383  68.231  1.00  0.00    -0.140 A  
HETATM    8  C   UNL     1      -8.647   8.211  67.295  1.00  0.00    -0.124 A  
BRANCH   5   9
HETATM    9  N   UNL     1      -7.968  11.258  69.375  1.00  0.00    -0.366 NA 
HETATM   10  H   UNL     1      -8.171  11.595  70.317  1.00  0.00     0.000 HD 
BRANCH   9  11
HETATM   11  C   UNL     1      -7.291  12.112  68.405  1.00  0.00    -0.108 C  
BRANCH  11  12
HETATM   12  C   UNL     1      -7.732  13.565  68.483  1.00  0.00    -0.125 A  
HETATM   13  C   UNL     1      -8.772  14.042  67.644  1.00  0.00    -0.189 A  
HETATM   14  H2  UNL     1     -11.630  14.561  66.890  1.00  0.00     0.000 HD 
HETATM   15  C   UNL     1      -9.250  15.404  67.773  1.00  0.00    -0.183 A  
HETATM   16  H1  UNL     1     -12.058  15.780  65.876  1.00  0.00     0.000 HD 
HETATM   17  C   UNL     1      -9.377  13.124  66.604  1.00  0.00    -0.242 C  
HETATM   18  C   UNL     1      -8.591  16.271  68.657  1.00  0.00    -0.222 A  
HETATM   19  N   UNL     1      -8.897  17.564  68.801  1.00  0.00    -0.255 NA 
HETATM   20  C   UNL     1      -7.570  15.784  69.451  1.00  0.00    -0.214 A  
HETATM   21  C   UNL     1      -7.157  14.454  69.395  1.00  0.00    -0.113 A  
HETATM   22  C   UNL     1      -9.903  18.041  68.078  1.00  0.00    -0.323 A  
HETATM   23  N   UNL     1     -10.677  17.316  67.281  1.00  0.00    -0.271 NA 
HETATM   24  N   UNL     1     -10.193  19.385  68.194  1.00  0.00    -0.415 NA 
HETATM   25  C   UNL     1     -10.351  16.024  67.137  1.00  0.00    -0.295 A  
HETATM   26  H2  UNL     1      -9.654  19.990  68.814  1.00  0.00     0.000 HD 
HETATM   27  H1  UNL     1     -10.965  19.752  67.639  1.00  0.00     0.000 HD 
HETATM   28  N   UNL     1     -11.264  15.334  66.335  1.00  0.00    -0.279 NA 
ENDBRANCH  11  12
ENDBRANCH   9  11
ENDBRANCH   5   9
BRANCH   8  29
HETATM   29  O   UNL     1      -8.363   7.971  65.972  1.00  0.00    -0.112 OA 
HETATM   30  C   UNL     1      -8.834   8.860  64.974  1.00  0.00    -0.140 C  
ENDBRANCH   8  29
BRANCH   7  31
HETATM   31  O   UNL     1      -9.712   6.163  67.765  1.00  0.00    -0.114 OA 
HETATM   32  C   UNL     1     -10.967   6.018  67.126  1.00  0.00    -0.268 C  
ENDBRANCH   7  31
ENDBRANCH   2   3
TORSDOF 6
ENDMDL
MODEL      211
REMARK 921   NORMALIZED FREE ENERGY PREDICTED BY IDOCK:   -4.08 KCAL/MOL
REMARK 922        TOTAL FREE ENERGY PREDICTED BY IDOCK:   -6.36 KCAL/MOL
REMARK 923 INTER-LIGAND FREE ENERGY PREDICTED BY IDOCK:   -5.46 KCAL/MOL
REMARK 924 INTRA-LIGAND FREE ENERGY PREDICTED BY IDOCK:   -0.90 KCAL/MOL
REMARK 927      BINDING AFFINITY PREDICTED BY RF-SCORE:    0.00 PKD
ROOT
HETATM    1  C   UNL     1     -11.909  11.488  69.713  1.00  0.00    -0.357 C  
HETATM    2  O   UNL     1     -12.228  11.640  68.332  1.00  0.00    -0.498 OA 
ENDROOT
BRANCH   2   3
HETATM    3  C   UNL     1     -11.198  11.466  67.440  1.00  0.00    -0.305 A  
HETATM    4  C   UNL     1     -10.015  10.818  67.837  1.00  0.00    -0.196 A  
HETATM    5  C   UNL     1      -8.957  10.596  66.958  1.00  0.00    -0.137 A  
HETATM    6  C   UNL     1      -9.097  11.082  65.661  1.00  0.00    -0.223 A  
HETATM    7  C   UNL     1     -11.350  11.903  66.104  1.00  0.00    -0.324 A  
HETATM    8  C   UNL     1     -10.276  11.704  65.214  1.00  0.00    -0.272 A  
BRANCH   5   9
HETATM    9  N   UNL     1      -7.772  10.040  67.458  1.00  0.00    -0.091 NA 
HETATM   10  H   UNL     1      -7.375  10.361  68.342  1.00  0.00     0.000 HD 
BRANCH   9  11
HETATM   11  C   UNL     1      -7.121   8.991  66.681  1.00  0.00    -0.081 C  
BRANCH  11  12
HETATM   12  C   UNL     1      -7.072   7.658  67.409  1.00  0.00    -0.086 A  
HETATM   13  C   UNL     1      -8.053   6.665  67.149  1.00  0.00    -0.113 A  
HETATM   14  H2  UNL     1      -9.240   4.344  65.663  1.00  0.00     0.000 HD 
HETATM   15  C   UNL     1      -7.961   5.364  67.781  1.00  0.00    -0.100 A  
HETATM   16  H1  UNL     1     -10.273   3.286  66.378  1.00  0.00     0.000 HD 
HETATM   17  C   UNL     1      -9.203   6.974  66.216  1.00  0.00    -0.166 C  
HETATM   18  C   UNL     1      -6.958   5.144  68.736  1.00  0.00    -0.053 A  
HETATM   19  N   UNL     1      -6.826   4.011  69.432  1.00  0.00    -0.044 NA 
HETATM   20  C   UNL     1      -6.025   6.134  68.980  1.00  0.00    -0.024 A  
HETATM   21  C   UNL     1      -6.053   7.360  68.319  1.00  0.00    -0.032 A  
HETATM   22  C   UNL     1      -7.687   3.032  69.181  1.00  0.00    -0.047 A  
HETATM   23  N   UNL     1      -8.619   3.063  68.237  1.00  0.00    -0.085 NA 
HETATM   24  N   UNL     1      -7.579   1.878  69.929  1.00  0.00    -0.042 NA 
HETATM   25  C   UNL     1      -8.748   4.209  67.554  1.00  0.00    -0.107 A  
HETATM   26  H2  UNL     1      -6.863   1.780  70.649  1.00  0.00     0.000 HD 
HETATM   27  H1  UNL     1      -8.240   1.126  69.737  1.00  0.00     0.000 HD 
HETATM   28  N   UNL     1      -9.706   4.118  66.542  1.00  0.00    -0.208 NA 
ENDBRANCH  11  12
ENDBRANCH   9  11
ENDBRANCH   5   9
BRANCH   8  29
HETATM   29  O   UNL     1     -10.171  12.051  63.888  1.00  0.00    -0.338 OA 
HETATM   30  C   UNL     1      -9.522  11.181  62.977  1.00  0.00    -0.369 C  
ENDBRANCH   8  29
BRANCH   7  31
HETATM   31  O   UNL     1     -12.450  12.530  65.584  1.00  0.00    -0.648 OA 
HETATM   32  C   UNL     1     -12.552  13.943  65.594  1.00  0.00    -0.517 C  
ENDBRANCH   7  31
ENDBRANCH   2   3
TORSDOF 6
ENDMDL
MODEL      212
REMARK 921   NORMALIZED FREE ENERGY PREDICTED BY IDOCK:   -4.08 KCAL/MOL
REMARK 922        TOTAL FREE ENERGY PREDICTED BY IDOCK:   -6.36 KCAL/MOL
REMARK 923 INTER-LIGAND FREE ENERGY PREDICTED BY IDOCK:   -5.84 KCAL/MOL
REMARK 924 INTRA-LIGAND FREE ENERGY PREDICTED BY IDOCK:   -0.52 KCAL/MOL
REMARK 927      BINDING AFFINITY PREDICTED BY RF-SCORE:    0.00 PKD
ROOT
HETATM    1  C   UNL     1      -9.836  11.319  63.329  1.00  0.00    -0.389 C  
HETATM    2  O   UNL     1      -8.816  11.063  64.292  1.00  0.00    -0.109 OA 
ENDROOT
BRANCH   2   3
HETATM    3  C   UNL     1      -8.878   9.857  64.947  1.00  0.00    -0.193 A  
HETATM    4  C   UNL     1      -9.896   9.608  65.885  1.00  0.00    -0.358 A  
HETATM    5  C   UNL     1     -10.012   8.389  66.551  1.00  0.00    -0.265 A  
HETATM    6  C   UNL     1      -9.047   7.423  66.281  1.00  0.00    -0.195 A  
HETATM    7  C   UNL     1      -7.939   8.846  64.639  1.00  0.00    -0.132 A  
HETATM    8  C   UNL     1      -8.035   7.618  65.325  1.00  0.00    -0.129 A  
BRANCH   5   9
HETATM    9  N   UNL     1     -10.987   8.258  67.548  1.00  0.00    -0.477 NA 
HETATM   10  H   UNL     1     -11.925   7.924  67.325  1.00  0.00     0.000 HD 
BRANCH   9  11
HETATM   11  C   UNL     1     -10.626   8.613  68.916  1.00  0.00    -0.144 C  
BRANCH  11  12
HETATM   12  C   UNL     1     -11.021  10.033  69.286  1.00  0.00    -0.264 A  
HETATM   13  C   UNL     1     -11.970  10.266  70.315  1.00  0.00    -0.348 A  
HETATM   14  H2  UNL     1     -12.854  10.658  73.156  1.00  0.00     0.000 HD 
HETATM   15  C   UNL     1     -12.289  11.620  70.724  1.00  0.00    -0.454 A  
HETATM   16  H1  UNL     1     -14.208  11.505  73.540  1.00  0.00     0.000 HD 
HETATM   17  C   UNL     1     -12.659   9.093  70.979  1.00  0.00    -0.211 C  
HETATM   18  C   UNL     1     -11.732  12.691  70.011  1.00  0.00    -0.215 A  
HETATM   19  N   UNL     1     -12.013  13.974  70.253  1.00  0.00    -0.325 NA 
HETATM   20  C   UNL     1     -10.822  12.435  69.002  1.00  0.00    -0.194 A  
HETATM   21  C   UNL     1     -10.445  11.139  68.654  1.00  0.00    -0.220 A  
HETATM   22  C   UNL     1     -12.852  14.244  71.245  1.00  0.00    -0.352 A  
HETATM   23  N   UNL     1     -13.373  13.340  72.066  1.00  0.00    -0.469 NA 
HETATM   24  N   UNL     1     -13.176  15.566  71.468  1.00  0.00    -0.489 NA 
HETATM   25  C   UNL     1     -13.092  12.056  71.805  1.00  0.00    -0.355 A  
HETATM   26  H2  UNL     1     -12.785  16.310  70.892  1.00  0.00     0.000 HD 
HETATM   27  H1  UNL     1     -13.821  15.772  72.230  1.00  0.00     0.000 HD 
HETATM   28  N   UNL     1     -13.629  11.191  72.762  1.00  0.00     0.796 NA 
ENDBRANCH  11  12
ENDBRANCH   9  11
ENDBRANCH   5   9
BRANCH   8  29
HETATM   29  O   UNL     1      -7.240   6.502  65.220  1.00  0.00    -0.068 OA 
HETATM   30  C   UNL     1      -7.805   5.267  64.813  1.00  0.00    -0.097 C  
ENDBRANCH   8  29
BRANCH   7  31
HETATM   31  O   UNL     1      -6.913   8.950  63.738  1.00  0.00    -0.088 OA 
HETATM   32  C   UNL     1      -7.119   8.655  62.368  1.00  0.00    -0.097 C  
ENDBRANCH   7  31
ENDBRANCH   2   3
TORSDOF 6
ENDMDL
MODEL      213
REMARK 921   NORMALIZED FREE ENERGY PREDICTED BY IDOCK:   -4.07 KCAL/MOL
REMARK 922        TOTAL FREE ENERGY PREDICTED BY IDOCK:   -6.35 KCAL/MOL
REMARK 923 INTER-LIGAND FREE ENERGY PREDICTED BY IDOCK:   -5.60 KCAL/MOL
REMARK 924 INTRA-LIGAND FREE ENERGY PREDICTED BY IDOCK:   -0.75 KCAL/MOL
REMARK 927      BINDING AFFINITY PREDICTED BY RF-SCORE:    0.00 PKD
ROOT
HETATM    1  C   UNL     1      -7.065  13.121  68.459  1.00  0.00    -0.105 C  
HETATM    2  O   UNL     1      -8.187  14.000  68.395  1.00  0.00    -0.141 OA 
ENDROOT
BRANCH   2   3
HETATM    3  C   UNL     1      -9.307  13.521  67.760  1.00  0.00    -0.213 A  
HETATM    4  C   UNL     1      -9.597  12.145  67.770  1.00  0.00    -0.195 A  
HETATM    5  C   UNL     1     -10.737  11.621  67.162  1.00  0.00    -0.247 A  
HETATM    6  C   UNL     1     -11.572  12.516  66.500  1.00  0.00    -0.447 A  
HETATM    7  C   UNL     1     -10.194  14.426  67.134  1.00  0.00    -0.257 A  
HETATM    8  C   UNL     1     -11.338  13.902  66.496  1.00  0.00    -0.331 A  
BRANCH   5   9
HETATM    9  N   UNL     1     -10.898  10.230  67.123  1.00  0.00    -0.246 NA 
HETATM   10  H   UNL     1     -11.612   9.801  66.532  1.00  0.00     0.000 HD 
BRANCH   9  11
HETATM   11  C   UNL     1     -10.020   9.410  67.950  1.00  0.00    -0.182 C  
BRANCH  11  12
HETATM   12  C   UNL     1      -9.139   8.477  67.136  1.00  0.00    -0.164 A  
HETATM   13  C   UNL     1      -9.594   7.174  66.803  1.00  0.00    -0.230 A  
HETATM   14  H2  UNL     1     -11.059   5.151  65.138  1.00  0.00     0.000 HD 
HETATM   15  C   UNL     1      -8.792   6.312  65.959  1.00  0.00    -0.159 A  
HETATM   16  H1  UNL     1     -10.629   3.567  65.111  1.00  0.00     0.000 HD 
HETATM   17  C   UNL     1     -10.920   6.683  67.343  1.00  0.00    -0.434 C  
HETATM   18  C   UNL     1      -7.514   6.741  65.574  1.00  0.00    -0.083 A  
HETATM   19  N   UNL     1      -6.661   6.000  64.861  1.00  0.00    -0.041 NA 
HETATM   20  C   UNL     1      -7.089   8.009  65.924  1.00  0.00    -0.057 A  
HETATM   21  C   UNL     1      -7.885   8.879  66.667  1.00  0.00    -0.100 A  
HETATM   22  C   UNL     1      -7.065   4.795  64.477  1.00  0.00    -0.054 A  
HETATM   23  N   UNL     1      -8.280   4.301  64.681  1.00  0.00    -0.101 NA 
HETATM   24  N   UNL     1      -6.171   4.012  63.778  1.00  0.00    -0.021 NA 
HETATM   25  C   UNL     1      -9.121   5.050  65.408  1.00  0.00    -0.154 A  
HETATM   26  H2  UNL     1      -5.232   4.346  63.562  1.00  0.00     0.000 HD 
HETATM   27  H1  UNL     1      -6.482   3.087  63.483  1.00  0.00     0.000 HD 
HETATM   28  N   UNL     1     -10.391   4.476  65.508  1.00  0.00    -0.259 NA 
ENDBRANCH  11  12
ENDBRANCH   9  11
ENDBRANCH   5   9
BRANCH   8  29
HETATM   29  O   UNL     1     -12.328  14.562  65.809  1.00  0.00    -0.336 OA 
HETATM   30  C   UNL     1     -12.249  14.689  64.400  1.00  0.00    -0.452 C  
ENDBRANCH   8  29
BRANCH   7  31
HETATM   31  O   UNL     1     -10.041  15.785  67.065  1.00  0.00    -0.251 OA 
HETATM   32  C   UNL     1     -10.650  16.632  68.023  1.00  0.00    -0.338 C  
ENDBRANCH   7  31
ENDBRANCH   2   3
TORSDOF 6
ENDMDL
MODEL      214
REMARK 921   NORMALIZED FREE ENERGY PREDICTED BY IDOCK:   -4.07 KCAL/MOL
REMARK 922        TOTAL FREE ENERGY PREDICTED BY IDOCK:   -6.35 KCAL/MOL
REMARK 923 INTER-LIGAND FREE ENERGY PREDICTED BY IDOCK:   -6.23 KCAL/MOL
REMARK 924 INTRA-LIGAND FREE ENERGY PREDICTED BY IDOCK:   -0.12 KCAL/MOL
REMARK 927      BINDING AFFINITY PREDICTED BY RF-SCORE:    0.00 PKD
ROOT
HETATM    1  C   UNL     1      -5.875   5.951  67.787  1.00  0.00    -0.013 C  
HETATM    2  O   UNL     1      -7.018   5.588  68.559  1.00  0.00    -0.060 OA 
ENDROOT
BRANCH   2   3
HETATM    3  C   UNL     1      -8.223   5.563  67.899  1.00  0.00    -0.100 A  
HETATM    4  C   UNL     1      -9.095   6.663  67.968  1.00  0.00    -0.114 A  
HETATM    5  C   UNL     1     -10.313   6.691  67.291  1.00  0.00    -0.232 A  
HETATM    6  C   UNL     1     -10.662   5.556  66.565  1.00  0.00    -0.309 A  
HETATM    7  C   UNL     1      -8.563   4.440  67.110  1.00  0.00    -0.104 A  
HETATM    8  C   UNL     1      -9.804   4.449  66.442  1.00  0.00    -0.230 A  
BRANCH   5   9
HETATM    9  N   UNL     1     -11.172   7.778  67.497  1.00  0.00    -0.325 NA 
HETATM   10  H   UNL     1     -12.093   7.809  67.059  1.00  0.00     0.000 HD 
BRANCH   9  11
HETATM   11  C   UNL     1     -10.715   8.866  68.354  1.00  0.00    -0.076 C  
BRANCH  11  12
HETATM   12  C   UNL     1     -10.994  10.240  67.769  1.00  0.00    -0.360 A  
HETATM   13  C   UNL     1     -10.583  10.551  66.446  1.00  0.00    -0.218 A  
HETATM   14  H2  UNL     1     -10.879  10.642  63.461  1.00  0.00     0.000 HD 
HETATM   15  C   UNL     1     -10.919  11.832  65.857  1.00  0.00    -0.354 A  
HETATM   16  H1  UNL     1     -10.121  11.773  62.543  1.00  0.00     0.000 HD 
HETATM   17  C   UNL     1      -9.781   9.541  65.654  1.00  0.00    -0.361 C  
HETATM   18  C   UNL     1     -11.553  12.797  66.653  1.00  0.00    -0.370 A  
HETATM   19  N   UNL     1     -11.842  14.033  66.238  1.00  0.00    -0.391 NA 
HETATM   20  C   UNL     1     -11.929  12.473  67.943  1.00  0.00    -0.283 A  
HETATM   21  C   UNL     1     -11.684  11.216  68.494  1.00  0.00    -0.368 A  
HETATM   22  C   UNL     1     -11.528  14.351  64.988  1.00  0.00    -0.372 A  
HETATM   23  N   UNL     1     -11.020  13.511  64.095  1.00  0.00    -0.326 NA 
HETATM   24  N   UNL     1     -11.787  15.640  64.571  1.00  0.00    -0.408 NA 
HETATM   25  C   UNL     1     -10.725  12.277  64.528  1.00  0.00    -0.319 A  
HETATM   26  H2  UNL     1     -12.205  16.325  65.200  1.00  0.00     0.000 HD 
HETATM   27  H1  UNL     1     -11.546  15.884  63.611  1.00  0.00     0.000 HD 
HETATM   28  N   UNL     1     -10.261  11.452  63.501  1.00  0.00    -0.372 NA 
ENDBRANCH  11  12
ENDBRANCH   9  11
ENDBRANCH   5   9
BRANCH   8  29
HETATM   29  O   UNL     1     -10.366   3.483  65.641  1.00  0.00     0.201 OA 
HETATM   30  C   UNL     1     -10.334   3.625  64.231  1.00  0.00    -0.227 C  
ENDBRANCH   8  29
BRANCH   7  31
HETATM   31  O   UNL     1      -7.802   3.314  66.945  1.00  0.00    -0.079 OA 
HETATM   32  C   UNL     1      -7.823   2.276  67.908  1.00  0.00    -0.059 C  
ENDBRANCH   7  31
ENDBRANCH   2   3
TORSDOF 6
ENDMDL
MODEL      215
REMARK 921   NORMALIZED FREE ENERGY PREDICTED BY IDOCK:   -4.02 KCAL/MOL
REMARK 922        TOTAL FREE ENERGY PREDICTED BY IDOCK:   -6.28 KCAL/MOL
REMARK 923 INTER-LIGAND FREE ENERGY PREDICTED BY IDOCK:   -5.89 KCAL/MOL
REMARK 924 INTRA-LIGAND FREE ENERGY PREDICTED BY IDOCK:   -0.39 KCAL/MOL
REMARK 927      BINDING AFFINITY PREDICTED BY RF-SCORE:    0.00 PKD
ROOT
HETATM    1  C   UNL     1      -7.407  13.042  68.385  1.00  0.00    -0.116 C  
HETATM    2  O   UNL     1      -8.462  13.856  67.877  1.00  0.00    -0.153 OA 
ENDROOT
BRANCH   2   3
HETATM    3  C   UNL     1      -9.583  13.200  67.429  1.00  0.00    -0.219 A  
HETATM    4  C   UNL     1     -10.087  12.092  68.132  1.00  0.00    -0.206 A  
HETATM    5  C   UNL     1     -11.237  11.416  67.729  1.00  0.00    -0.283 A  
HETATM    6  C   UNL     1     -11.858  11.857  66.563  1.00  0.00    -0.132 A  
HETATM    7  C   UNL     1     -10.256  13.674  66.280  1.00  0.00    -0.296 A  
HETATM    8  C   UNL     1     -11.406  12.981  65.851  1.00  0.00    -0.313 A  
BRANCH   5   9
HETATM    9  N   UNL     1     -11.614  10.257  68.421  1.00  0.00    -0.647 NA 
HETATM   10  H   UNL     1     -12.323   9.628  68.044  1.00  0.00     0.000 HD 
BRANCH   9  11
HETATM   11  C   UNL     1     -10.964   9.974  69.696  1.00  0.00    -0.264 C  
BRANCH  11  12
HETATM   12  C   UNL     1      -9.776   9.035  69.561  1.00  0.00    -0.171 A  
HETATM   13  C   UNL     1      -9.920   7.655  69.860  1.00  0.00    -0.190 A  
HETATM   14  H2  UNL     1     -10.603   4.798  69.242  1.00  0.00     0.000 HD 
HETATM   15  C   UNL     1      -8.812   6.743  69.655  1.00  0.00    -0.144 A  
HETATM   16  H1  UNL     1      -9.921   3.543  70.051  1.00  0.00     0.000 HD 
HETATM   17  C   UNL     1     -11.233   7.138  70.405  1.00  0.00    -0.320 C  
HETATM   18  C   UNL     1      -7.569   7.264  69.268  1.00  0.00    -0.102 A  
HETATM   19  N   UNL     1      -6.464   6.528  69.122  1.00  0.00    -0.038 NA 
HETATM   20  C   UNL     1      -7.454   8.615  68.998  1.00  0.00    -0.089 A  
HETATM   21  C   UNL     1      -8.533   9.489  69.112  1.00  0.00    -0.131 A  
HETATM   22  C   UNL     1      -6.563   5.222  69.335  1.00  0.00    -0.047 A  
HETATM   23  N   UNL     1      -7.692   4.580  69.606  1.00  0.00    -0.054 NA 
HETATM   24  N   UNL     1      -5.414   4.466  69.227  1.00  0.00    -0.011 NA 
HETATM   25  C   UNL     1      -8.791   5.332  69.761  1.00  0.00    -0.104 A  
HETATM   26  H2  UNL     1      -4.519   4.896  68.991  1.00  0.00     0.000 HD 
HETATM   27  H1  UNL     1      -5.489   3.463  69.391  1.00  0.00     0.000 HD 
HETATM   28  N   UNL     1      -9.936   4.559  69.975  1.00  0.00    -0.228 NA 
ENDBRANCH  11  12
ENDBRANCH   9  11
ENDBRANCH   5   9
BRANCH   8  29
HETATM   29  O   UNL     1     -12.214  13.228  64.767  1.00  0.00    -0.382 OA 
HETATM   30  C   UNL     1     -11.870  12.708  63.494  1.00  0.00    -0.541 C  
ENDBRANCH   8  29
BRANCH   7  31
HETATM   31  O   UNL     1      -9.883  14.747  65.515  1.00  0.00    -0.342 OA 
HETATM   32  C   UNL     1     -10.205  16.067  65.913  1.00  0.00    -0.365 C  
ENDBRANCH   7  31
ENDBRANCH   2   3
TORSDOF 6
ENDMDL
MODEL      216
REMARK 921   NORMALIZED FREE ENERGY PREDICTED BY IDOCK:   -3.99 KCAL/MOL
REMARK 922        TOTAL FREE ENERGY PREDICTED BY IDOCK:   -6.24 KCAL/MOL
REMARK 923 INTER-LIGAND FREE ENERGY PREDICTED BY IDOCK:   -5.65 KCAL/MOL
REMARK 924 INTRA-LIGAND FREE ENERGY PREDICTED BY IDOCK:   -0.59 KCAL/MOL
REMARK 927      BINDING AFFINITY PREDICTED BY RF-SCORE:    0.00 PKD
ROOT
HETATM    1  C   UNL     1      -6.535   7.665  66.313  1.00  0.00    -0.049 C  
HETATM    2  O   UNL     1      -7.387   8.655  65.740  1.00  0.00    -0.079 OA 
ENDROOT
BRANCH   2   3
HETATM    3  C   UNL     1      -7.765   9.690  66.560  1.00  0.00    -0.098 A  
HETATM    4  C   UNL     1      -7.109  10.932  66.487  1.00  0.00    -0.139 A  
HETATM    5  C   UNL     1      -7.478  12.016  67.280  1.00  0.00    -0.158 A  
HETATM    6  C   UNL     1      -8.510  11.814  68.192  1.00  0.00    -0.158 A  
HETATM    7  C   UNL     1      -8.849   9.516  67.450  1.00  0.00    -0.128 A  
HETATM    8  C   UNL     1      -9.215  10.600  68.273  1.00  0.00    -0.153 A  
BRANCH   5   9
HETATM    9  N   UNL     1      -6.706  13.184  67.224  1.00  0.00    -0.400 NA 
HETATM   10  H   UNL     1      -5.951  13.281  66.544  1.00  0.00     0.000 HD 
BRANCH   9  11
HETATM   11  C   UNL     1      -7.010  14.258  68.163  1.00  0.00    -0.129 C  
BRANCH  11  12
HETATM   12  C   UNL     1      -7.811  15.387  67.535  1.00  0.00    -0.193 A  
HETATM   13  C   UNL     1      -7.622  16.725  67.969  1.00  0.00    -0.173 A  
HETATM   14  H2  UNL     1      -6.287  19.412  67.984  1.00  0.00     0.000 HD 
HETATM   15  C   UNL     1      -8.325  17.812  67.317  1.00  0.00    -0.228 A  
HETATM   16  H1  UNL     1      -7.076  20.776  68.447  1.00  0.00     0.000 HD 
HETATM   17  C   UNL     1      -6.691  17.013  69.126  1.00  0.00    -0.241 C  
HETATM   18  C   UNL     1      -9.276  17.509  66.332  1.00  0.00    -0.245 A  
HETATM   19  N   UNL     1     -10.033  18.423  65.719  1.00  0.00    -0.500 NA 
HETATM   20  C   UNL     1      -9.450  16.195  65.938  1.00  0.00    -0.337 A  
HETATM   21  C   UNL     1      -8.721  15.149  66.501  1.00  0.00    -0.280 A  
HETATM   22  C   UNL     1      -9.850  19.695  66.051  1.00  0.00    -0.381 A  
HETATM   23  N   UNL     1      -8.920  20.135  66.889  1.00  0.00    -0.344 NA 
HETATM   24  N   UNL     1     -10.660  20.636  65.451  1.00  0.00     0.057 NA 
HETATM   25  C   UNL     1      -8.175  19.206  67.505  1.00  0.00    -0.281 A  
HETATM   26  H2  UNL     1     -11.374  20.365  64.775  1.00  0.00     0.000 HD 
HETATM   27  H1  UNL     1     -10.521  21.613  65.706  1.00  0.00     0.000 HD 
HETATM   28  N   UNL     1      -7.183  19.771  68.311  1.00  0.00    -0.299 NA 
ENDBRANCH  11  12
ENDBRANCH   9  11
ENDBRANCH   5   9
BRANCH   8  29
HETATM   29  O   UNL     1     -10.207  10.675  69.221  1.00  0.00    -0.212 OA 
HETATM   30  C   UNL     1     -11.103  11.773  69.224  1.00  0.00    -0.218 C  
ENDBRANCH   8  29
BRANCH   7  31
HETATM   31  O   UNL     1      -9.582   8.370  67.609  1.00  0.00    -0.146 OA 
HETATM   32  C   UNL     1      -9.200   7.392  68.560  1.00  0.00    -0.142 C  
ENDBRANCH   7  31
ENDBRANCH   2   3
TORSDOF 6
ENDMDL
MODEL      217
REMARK 921   NORMALIZED FREE ENERGY PREDICTED BY IDOCK:   -3.99 KCAL/MOL
REMARK 922        TOTAL FREE ENERGY PREDICTED BY IDOCK:   -6.24 KCAL/MOL
REMARK 923 INTER-LIGAND FREE ENERGY PREDICTED BY IDOCK:   -5.64 KCAL/MOL
REMARK 924 INTRA-LIGAND FREE ENERGY PREDICTED BY IDOCK:   -0.60 KCAL/MOL
REMARK 927      BINDING AFFINITY PREDICTED BY RF-SCORE:    0.00 PKD
ROOT
HETATM    1  C   UNL     1     -12.223   9.839  71.536  1.00  0.00    -0.406 C  
HETATM    2  O   UNL     1     -12.636  11.084  70.978  1.00  0.00    -0.358 OA 
ENDROOT
BRANCH   2   3
HETATM    3  C   UNL     1     -12.040  11.458  69.798  1.00  0.00    -0.320 A  
HETATM    4  C   UNL     1     -11.384  10.504  69.000  1.00  0.00    -0.319 A  
HETATM    5  C   UNL     1     -10.790  10.834  67.782  1.00  0.00    -0.269 A  
HETATM    6  C   UNL     1     -10.834  12.170  67.396  1.00  0.00    -0.286 A  
HETATM    7  C   UNL     1     -12.127  12.801  69.366  1.00  0.00    -0.192 A  
HETATM    8  C   UNL     1     -11.509  13.148  68.147  1.00  0.00    -0.314 A  
BRANCH   5   9
HETATM    9  N   UNL     1     -10.065   9.849  67.099  1.00  0.00    -0.203 NA 
HETATM   10  H   UNL     1     -10.016   9.846  66.080  1.00  0.00     0.000 HD 
BRANCH   9  11
HETATM   11  C   UNL     1      -9.381   8.827  67.884  1.00  0.00    -0.142 C  
BRANCH  11  12
HETATM   12  C   UNL     1      -8.846   7.686  67.035  1.00  0.00    -0.135 A  
HETATM   13  C   UNL     1      -9.708   6.636  66.623  1.00  0.00    -0.210 A  
HETATM   14  H2  UNL     1     -11.716   5.321  64.821  1.00  0.00     0.000 HD 
HETATM   15  C   UNL     1      -9.220   5.590  65.746  1.00  0.00    -0.132 A  
HETATM   16  H1  UNL     1     -11.855   3.689  64.714  1.00  0.00     0.000 HD 
HETATM   17  C   UNL     1     -11.140   6.608  67.110  1.00  0.00    -0.427 C  
HETATM   18  C   UNL     1      -7.859   5.570  65.409  1.00  0.00    -0.100 A  
HETATM   19  N   UNL     1      -7.287   4.615  64.671  1.00  0.00    -0.069 NA 
HETATM   20  C   UNL     1      -7.038   6.597  65.838  1.00  0.00    -0.062 A  
HETATM   21  C   UNL     1      -7.514   7.653  66.613  1.00  0.00    -0.093 A  
HETATM   22  C   UNL     1      -8.066   3.642  64.214  1.00  0.00    -0.086 A  
HETATM   23  N   UNL     1      -9.383   3.588  64.368  1.00  0.00    -0.132 NA 
HETATM   24  N   UNL     1      -7.470   2.632  63.488  1.00  0.00    -0.060 NA 
HETATM   25  C   UNL     1      -9.942   4.547  65.120  1.00  0.00    -0.131 A  
HETATM   26  H2  UNL     1      -6.466   2.632  63.308  1.00  0.00     0.000 HD 
HETATM   27  H1  UNL     1      -8.068   1.885  63.137  1.00  0.00     0.000 HD 
HETATM   28  N   UNL     1     -11.334   4.441  65.165  1.00  0.00     0.017 NA 
ENDBRANCH  11  12
ENDBRANCH   9  11
ENDBRANCH   5   9
BRANCH   8  29
HETATM   29  O   UNL     1     -11.436  14.374  67.530  1.00  0.00    -0.314 OA 
HETATM   30  C   UNL     1     -11.811  14.504  66.169  1.00  0.00    -0.336 C  
ENDBRANCH   8  29
BRANCH   7  31
HETATM   31  O   UNL     1     -12.747  13.821  70.035  1.00  0.00    -0.213 OA 
HETATM   32  C   UNL     1     -12.052  14.575  71.012  1.00  0.00    -0.344 C  
ENDBRANCH   7  31
ENDBRANCH   2   3
TORSDOF 6
ENDMDL
MODEL      218
REMARK 921   NORMALIZED FREE ENERGY PREDICTED BY IDOCK:   -3.98 KCAL/MOL
REMARK 922        TOTAL FREE ENERGY PREDICTED BY IDOCK:   -6.23 KCAL/MOL
REMARK 923 INTER-LIGAND FREE ENERGY PREDICTED BY IDOCK:   -5.30 KCAL/MOL
REMARK 924 INTRA-LIGAND FREE ENERGY PREDICTED BY IDOCK:   -0.93 KCAL/MOL
REMARK 927      BINDING AFFINITY PREDICTED BY RF-SCORE:    0.00 PKD
ROOT
HETATM    1  C   UNL     1     -13.424   9.518  71.683  1.00  0.00    -0.385 C  
HETATM    2  O   UNL     1     -12.584   8.590  72.365  1.00  0.00    -0.374 OA 
ENDROOT
BRANCH   2   3
HETATM    3  C   UNL     1     -11.412   8.244  71.737  1.00  0.00    -0.293 A  
HETATM    4  C   UNL     1     -10.998   8.926  70.579  1.00  0.00    -0.280 A  
HETATM    5  C   UNL     1      -9.803   8.627  69.926  1.00  0.00    -0.183 A  
HETATM    6  C   UNL     1      -9.040   7.585  70.445  1.00  0.00    -0.153 A  
HETATM    7  C   UNL     1     -10.598   7.228  72.287  1.00  0.00    -0.224 A  
HETATM    8  C   UNL     1      -9.400   6.902  71.620  1.00  0.00    -0.154 A  
BRANCH   5   9
HETATM    9  N   UNL     1      -9.515   9.278  68.719  1.00  0.00    -0.148 NA 
HETATM   10  H   UNL     1      -8.745   9.943  68.653  1.00  0.00     0.000 HD 
BRANCH   9  11
HETATM   11  C   UNL     1     -10.347   8.978  67.559  1.00  0.00    -0.264 C  
BRANCH  11  12
HETATM   12  C   UNL     1     -10.112   7.582  67.005  1.00  0.00    -0.332 A  
HETATM   13  C   UNL     1      -8.954   7.306  66.232  1.00  0.00    -0.185 A  
HETATM   14  H2  UNL     1      -6.077   6.552  65.824  1.00  0.00     0.000 HD 
HETATM   15  C   UNL     1      -8.686   5.958  65.771  1.00  0.00    -0.153 A  
HETATM   16  H1  UNL     1      -5.549   5.843  64.440  1.00  0.00     0.000 HD 
HETATM   17  C   UNL     1      -8.001   8.428  65.881  1.00  0.00    -0.099 C  
HETATM   18  C   UNL     1      -9.644   4.961  66.003  1.00  0.00    -0.176 A  
HETATM   19  N   UNL     1      -9.537   3.705  65.560  1.00  0.00    -0.167 NA 
HETATM   20  C   UNL     1     -10.771   5.261  66.745  1.00  0.00    -0.241 A  
HETATM   21  C   UNL     1     -11.000   6.534  67.264  1.00  0.00    -0.475 A  
HETATM   22  C   UNL     1      -8.442   3.385  64.881  1.00  0.00    -0.101 A  
HETATM   23  N   UNL     1      -7.411   4.195  64.676  1.00  0.00    -0.070 NA 
HETATM   24  N   UNL     1      -8.348   2.101  64.386  1.00  0.00    -0.081 NA 
HETATM   25  C   UNL     1      -7.537   5.455  65.116  1.00  0.00    -0.079 A  
HETATM   26  H2  UNL     1      -9.094   1.421  64.536  1.00  0.00     0.000 HD 
HETATM   27  H1  UNL     1      -7.508   1.854  63.864  1.00  0.00     0.000 HD 
HETATM   28  N   UNL     1      -6.376   6.206  64.913  1.00  0.00    -0.033 NA 
ENDBRANCH  11  12
ENDBRANCH   9  11
ENDBRANCH   5   9
BRANCH   8  29
HETATM   29  O   UNL     1      -8.460   5.951  71.938  1.00  0.00    -0.125 OA 
HETATM   30  C   UNL     1      -7.125   6.095  71.484  1.00  0.00    -0.078 C  
ENDBRANCH   8  29
BRANCH   7  31
HETATM   31  O   UNL     1     -10.873   6.500  73.413  1.00  0.00    -0.268 OA 
HETATM   32  C   UNL     1     -11.471   5.219  73.320  1.00  0.00    -0.180 C  
ENDBRANCH   7  31
ENDBRANCH   2   3
TORSDOF 6
ENDMDL
MODEL      219
REMARK 921   NORMALIZED FREE ENERGY PREDICTED BY IDOCK:   -3.96 KCAL/MOL
REMARK 922        TOTAL FREE ENERGY PREDICTED BY IDOCK:   -6.20 KCAL/MOL
REMARK 923 INTER-LIGAND FREE ENERGY PREDICTED BY IDOCK:   -5.72 KCAL/MOL
REMARK 924 INTRA-LIGAND FREE ENERGY PREDICTED BY IDOCK:   -0.48 KCAL/MOL
REMARK 927      BINDING AFFINITY PREDICTED BY RF-SCORE:    0.00 PKD
ROOT
HETATM    1  C   UNL     1      -9.394   5.260  66.265  1.00  0.00    -0.153 C  
HETATM    2  O   UNL     1      -8.607   5.417  67.444  1.00  0.00    -0.110 OA 
ENDROOT
BRANCH   2   3
HETATM    3  C   UNL     1      -9.132   6.215  68.431  1.00  0.00    -0.113 A  
HETATM    4  C   UNL     1      -9.611   7.501  68.127  1.00  0.00    -0.155 A  
HETATM    5  C   UNL     1     -10.176   8.332  69.093  1.00  0.00    -0.218 A  
HETATM    6  C   UNL     1     -10.215   7.853  70.400  1.00  0.00    -0.197 A  
HETATM    7  C   UNL     1      -9.230   5.718  69.751  1.00  0.00    -0.140 A  
HETATM    8  C   UNL     1      -9.778   6.560  70.740  1.00  0.00    -0.179 A  
BRANCH   5   9
HETATM    9  N   UNL     1     -10.531   9.638  68.732  1.00  0.00    -0.209 NA 
HETATM   10  H   UNL     1     -10.917  10.286  69.420  1.00  0.00     0.000 HD 
BRANCH   9  11
HETATM   11  C   UNL     1     -10.334  10.048  67.346  1.00  0.00    -0.238 C  
BRANCH  11  12
HETATM   12  C   UNL     1     -10.474  11.548  67.145  1.00  0.00    -0.259 A  
HETATM   13  C   UNL     1      -9.348  12.398  67.304  1.00  0.00    -0.184 A  
HETATM   14  H2  UNL     1      -6.862  13.810  66.392  1.00  0.00     0.000 HD 
HETATM   15  C   UNL     1      -9.460  13.818  67.033  1.00  0.00    -0.255 A  
HETATM   16  H1  UNL     1      -6.346  15.205  67.088  1.00  0.00     0.000 HD 
HETATM   17  C   UNL     1      -8.030  11.817  67.767  1.00  0.00    -0.141 C  
HETATM   18  C   UNL     1     -10.720  14.351  66.727  1.00  0.00    -0.292 A  
HETATM   19  N   UNL     1     -10.952  15.653  66.533  1.00  0.00    -0.261 NA 
HETATM   20  C   UNL     1     -11.803  13.502  66.594  1.00  0.00    -0.450 A  
HETATM   21  C   UNL     1     -11.691  12.124  66.770  1.00  0.00    -0.377 A  
HETATM   22  C   UNL     1      -9.917  16.480  66.614  1.00  0.00    -0.276 A  
HETATM   23  N   UNL     1      -8.657  16.106  66.795  1.00  0.00    -0.220 NA 
HETATM   24  N   UNL     1     -10.162  17.828  66.456  1.00  0.00    -0.347 NA 
HETATM   25  C   UNL     1      -8.441  14.799  67.000  1.00  0.00    -0.222 A  
HETATM   26  H2  UNL     1     -11.105  18.178  66.283  1.00  0.00     0.000 HD 
HETATM   27  H1  UNL     1      -9.368  18.464  66.519  1.00  0.00     0.000 HD 
HETATM   28  N   UNL     1      -7.080  14.498  67.112  1.00  0.00    -0.117 NA 
ENDBRANCH  11  12
ENDBRANCH   9  11
ENDBRANCH   5   9
BRANCH   8  29
HETATM   29  O   UNL     1      -9.961   6.321  72.080  1.00  0.00    -0.167 OA 
HETATM   30  C   UNL     1     -10.954   5.404  72.507  1.00  0.00    -0.256 C  
ENDBRANCH   8  29
BRANCH   7  31
HETATM   31  O   UNL     1      -8.818   4.484  70.178  1.00  0.00    -0.082 OA 
HETATM   32  C   UNL     1      -9.610   3.334  69.941  1.00  0.00    -0.102 C  
ENDBRANCH   7  31
ENDBRANCH   2   3
TORSDOF 6
ENDMDL
MODEL      220
REMARK 921   NORMALIZED FREE ENERGY PREDICTED BY IDOCK:   -3.95 KCAL/MOL
REMARK 922        TOTAL FREE ENERGY PREDICTED BY IDOCK:   -6.20 KCAL/MOL
REMARK 923 INTER-LIGAND FREE ENERGY PREDICTED BY IDOCK:   -5.25 KCAL/MOL
REMARK 924 INTRA-LIGAND FREE ENERGY PREDICTED BY IDOCK:   -0.94 KCAL/MOL
REMARK 927      BINDING AFFINITY PREDICTED BY RF-SCORE:    0.00 PKD
ROOT
HETATM    1  C   UNL     1      -6.227   9.637  69.320  1.00  0.00    -0.040 C  
HETATM    2  O   UNL     1      -6.095  11.051  69.449  1.00  0.00    -0.048 OA 
ENDROOT
BRANCH   2   3
HETATM    3  C   UNL     1      -6.912  11.820  68.658  1.00  0.00    -0.093 A  
HETATM    4  C   UNL     1      -8.022  11.246  68.012  1.00  0.00    -0.119 A  
HETATM    5  C   UNL     1      -8.893  11.996  67.223  1.00  0.00    -0.183 A  
HETATM    6  C   UNL     1      -8.600  13.347  67.060  1.00  0.00    -0.168 A  
HETATM    7  C   UNL     1      -6.659  13.205  68.531  1.00  0.00    -0.088 A  
HETATM    8  C   UNL     1      -7.522  13.966  67.716  1.00  0.00    -0.167 A  
BRANCH   5   9
HETATM    9  N   UNL     1      -9.912  11.330  66.528  1.00  0.00    -0.206 NA 
HETATM   10  H   UNL     1      -9.854  11.191  65.519  1.00  0.00     0.000 HD 
BRANCH   9  11
HETATM   11  C   UNL     1     -11.058  10.841  67.286  1.00  0.00    -0.270 C  
BRANCH  11  12
HETATM   12  C   UNL     1     -10.825   9.469  67.896  1.00  0.00    -0.240 A  
HETATM   13  C   UNL     1     -10.834   9.302  69.305  1.00  0.00    -0.170 A  
HETATM   14  H2  UNL     1     -12.121   8.845  71.978  1.00  0.00     0.000 HD 
HETATM   15  C   UNL     1     -10.693   7.981  69.886  1.00  0.00    -0.242 A  
HETATM   16  H1  UNL     1     -11.307   8.172  73.235  1.00  0.00     0.000 HD 
HETATM   17  C   UNL     1     -10.981  10.511  70.202  1.00  0.00    -0.338 C  
HETATM   18  C   UNL     1     -10.434   6.894  69.040  1.00  0.00    -0.208 A  
HETATM   19  N   UNL     1     -10.213   5.648  69.472  1.00  0.00    -0.225 NA 
HETATM   20  C   UNL     1     -10.415   7.087  67.672  1.00  0.00    -0.301 A  
HETATM   21  C   UNL     1     -10.631   8.338  67.096  1.00  0.00    -0.340 A  
HETATM   22  C   UNL     1     -10.269   5.433  70.780  1.00  0.00    -0.243 A  
HETATM   23  N   UNL     1     -10.604   6.342  71.687  1.00  0.00    -0.217 NA 
HETATM   24  N   UNL     1     -10.000   4.157  71.231  1.00  0.00    -0.176 NA 
HETATM   25  C   UNL     1     -10.811   7.589  71.241  1.00  0.00    -0.235 A  
HETATM   26  H2  UNL     1      -9.766   3.406  70.581  1.00  0.00     0.000 HD 
HETATM   27  H1  UNL     1     -10.042   3.991  72.235  1.00  0.00     0.000 HD 
HETATM   28  N   UNL     1     -11.223   8.454  72.259  1.00  0.00    -0.359 NA 
ENDBRANCH  11  12
ENDBRANCH   9  11
ENDBRANCH   5   9
BRANCH   8  29
HETATM   29  O   UNL     1      -7.477  15.308  67.419  1.00  0.00    -0.176 OA 
HETATM   30  C   UNL     1      -8.434  16.189  67.981  1.00  0.00    -0.168 C  
ENDBRANCH   8  29
BRANCH   7  31
HETATM   31  O   UNL     1      -5.629  13.891  69.116  1.00  0.00    -0.076 OA 
HETATM   32  C   UNL     1      -5.803  14.534  70.365  1.00  0.00    -0.156 C  
ENDBRANCH   7  31
ENDBRANCH   2   3
TORSDOF 6
ENDMDL
MODEL      221
REMARK 921   NORMALIZED FREE ENERGY PREDICTED BY IDOCK:   -3.94 KCAL/MOL
REMARK 922        TOTAL FREE ENERGY PREDICTED BY IDOCK:   -6.18 KCAL/MOL
REMARK 923 INTER-LIGAND FREE ENERGY PREDICTED BY IDOCK:   -5.56 KCAL/MOL
REMARK 924 INTRA-LIGAND FREE ENERGY PREDICTED BY IDOCK:   -0.61 KCAL/MOL
REMARK 927      BINDING AFFINITY PREDICTED BY RF-SCORE:    0.00 PKD
ROOT
HETATM    1  C   UNL     1     -11.635  15.993  64.339  1.00  0.00    -0.212 C  
HETATM    2  O   UNL     1     -11.155  16.995  65.233  1.00  0.00    -0.300 OA 
ENDROOT
BRANCH   2   3
HETATM    3  C   UNL     1      -9.976  16.725  65.883  1.00  0.00    -0.276 A  
HETATM    4  C   UNL     1      -9.598  15.397  66.149  1.00  0.00    -0.362 A  
HETATM    5  C   UNL     1      -8.398  15.077  66.782  1.00  0.00    -0.154 A  
HETATM    6  C   UNL     1      -7.590  16.136  67.183  1.00  0.00    -0.237 A  
HETATM    7  C   UNL     1      -9.118  17.789  66.244  1.00  0.00    -0.175 A  
HETATM    8  C   UNL     1      -7.913  17.476  66.905  1.00  0.00    -0.226 A  
BRANCH   5   9
HETATM    9  N   UNL     1      -8.145  13.738  67.107  1.00  0.00    -0.344 NA 
HETATM   10  H   UNL     1      -7.246  13.306  66.892  1.00  0.00     0.000 HD 
BRANCH   9  11
HETATM   11  C   UNL     1      -9.203  12.976  67.761  1.00  0.00    -0.200 C  
BRANCH  11  12
HETATM   12  C   UNL     1      -8.761  11.582  68.176  1.00  0.00    -0.157 A  
HETATM   13  C   UNL     1      -9.455  10.440  67.698  1.00  0.00    -0.165 A  
HETATM   14  H2  UNL     1     -10.060   8.258  65.729  1.00  0.00     0.000 HD 
HETATM   15  C   UNL     1      -8.986   9.108  68.027  1.00  0.00    -0.129 A  
HETATM   16  H1  UNL     1     -10.732   6.831  66.186  1.00  0.00     0.000 HD 
HETATM   17  C   UNL     1     -10.695  10.617  66.849  1.00  0.00    -0.297 C  
HETATM   18  C   UNL     1      -7.910   8.970  68.915  1.00  0.00    -0.095 A  
HETATM   19  N   UNL     1      -7.443   7.794  69.345  1.00  0.00    -0.086 NA 
HETATM   20  C   UNL     1      -7.262  10.100  69.379  1.00  0.00    -0.096 A  
HETATM   21  C   UNL     1      -7.652  11.385  69.004  1.00  0.00    -0.084 A  
HETATM   22  C   UNL     1      -8.024   6.695  68.879  1.00  0.00    -0.112 A  
HETATM   23  N   UNL     1      -8.981   6.673  67.960  1.00  0.00    -0.118 NA 
HETATM   24  N   UNL     1      -7.572   5.482  69.354  1.00  0.00    -0.077 NA 
HETATM   25  C   UNL     1      -9.447   7.860  67.546  1.00  0.00    -0.145 A  
HETATM   26  H2  UNL     1      -6.818   5.430  70.040  1.00  0.00     0.000 HD 
HETATM   27  H1  UNL     1      -8.018   4.638  68.997  1.00  0.00     0.000 HD 
HETATM   28  N   UNL     1     -10.400   7.731  66.532  1.00  0.00    -0.177 NA 
ENDBRANCH  11  12
ENDBRANCH   9  11
ENDBRANCH   5   9
BRANCH   8  29
HETATM   29  O   UNL     1      -6.934  18.321  67.371  1.00  0.00    -0.195 OA 
HETATM   30  C   UNL     1      -6.594  18.320  68.747  1.00  0.00    -0.237 C  
ENDBRANCH   8  29
BRANCH   7  31
HETATM   31  O   UNL     1      -9.355  19.120  66.030  1.00  0.00    -0.439 OA 
HETATM   32  C   UNL     1     -10.173  19.863  66.917  1.00  0.00    -0.470 C  
ENDBRANCH   7  31
ENDBRANCH   2   3
TORSDOF 6
ENDMDL
MODEL      222
REMARK 921   NORMALIZED FREE ENERGY PREDICTED BY IDOCK:   -3.92 KCAL/MOL
REMARK 922        TOTAL FREE ENERGY PREDICTED BY IDOCK:   -6.15 KCAL/MOL
REMARK 923 INTER-LIGAND FREE ENERGY PREDICTED BY IDOCK:   -4.88 KCAL/MOL
REMARK 924 INTRA-LIGAND FREE ENERGY PREDICTED BY IDOCK:   -1.27 KCAL/MOL
REMARK 927      BINDING AFFINITY PREDICTED BY RF-SCORE:    0.00 PKD
ROOT
HETATM    1  C   UNL     1      -5.945   8.766  69.249  1.00  0.00    -0.041 C  
HETATM    2  O   UNL     1      -5.508   8.342  67.959  1.00  0.00    -0.033 OA 
ENDROOT
BRANCH   2   3
HETATM    3  C   UNL     1      -6.482   7.908  67.092  1.00  0.00    -0.056 A  
HETATM    4  C   UNL     1      -6.954   6.585  67.156  1.00  0.00    -0.071 A  
HETATM    5  C   UNL     1      -7.959   6.113  66.315  1.00  0.00    -0.106 A  
HETATM    6  C   UNL     1      -8.462   6.998  65.366  1.00  0.00    -0.093 A  
HETATM    7  C   UNL     1      -7.042   8.814  66.163  1.00  0.00    -0.085 A  
HETATM    8  C   UNL     1      -8.044   8.338  65.292  1.00  0.00    -0.142 A  
BRANCH   5   9
HETATM    9  N   UNL     1      -8.298   4.754  66.368  1.00  0.00    -0.107 NA 
HETATM   10  H   UNL     1      -7.636   4.037  66.070  1.00  0.00     0.000 HD 
BRANCH   9  11
HETATM   11  C   UNL     1      -9.622   4.392  66.862  1.00  0.00    -0.199 C  
BRANCH  11  12
HETATM   12  C   UNL     1      -9.724   4.442  68.377  1.00  0.00    -0.172 A  
HETATM   13  C   UNL     1     -10.488   5.457  69.009  1.00  0.00    -0.252 A  
HETATM   14  H2  UNL     1     -13.003   6.689  70.088  1.00  0.00     0.000 HD 
HETATM   15  C   UNL     1     -10.655   5.459  70.449  1.00  0.00    -0.322 A  
HETATM   16  H1  UNL     1     -12.982   7.804  71.294  1.00  0.00     0.000 HD 
HETATM   17  C   UNL     1     -11.123   6.548  68.173  1.00  0.00    -0.332 C  
HETATM   18  C   UNL     1      -9.956   4.513  71.212  1.00  0.00    -0.188 A  
HETATM   19  N   UNL     1      -9.976   4.469  72.547  1.00  0.00    -0.164 NA 
HETATM   20  C   UNL     1      -9.206   3.544  70.571  1.00  0.00    -0.213 A  
HETATM   21  C   UNL     1      -9.105   3.481  69.183  1.00  0.00    -0.203 A  
HETATM   22  C   UNL     1     -10.724   5.364  73.180  1.00  0.00    -0.266 A  
HETATM   23  N   UNL     1     -11.515   6.250  72.587  1.00  0.00    -0.251 NA 
HETATM   24  N   UNL     1     -10.713   5.348  74.559  1.00  0.00    -0.400 NA 
HETATM   25  C   UNL     1     -11.476   6.290  71.248  1.00  0.00    -0.291 A  
HETATM   26  H2  UNL     1     -10.150   4.671  75.075  1.00  0.00     0.000 HD 
HETATM   27  H1  UNL     1     -11.287   6.035  75.046  1.00  0.00     0.000 HD 
HETATM   28  N   UNL     1     -12.390   7.205  70.718  1.00  0.00    -0.281 NA 
ENDBRANCH  11  12
ENDBRANCH   9  11
ENDBRANCH   5   9
BRANCH   8  29
HETATM   29  O   UNL     1      -8.721   9.007  64.301  1.00  0.00    -0.185 OA 
HETATM   30  C   UNL     1      -8.322   8.862  62.948  1.00  0.00    -0.198 C  
ENDBRANCH   8  29
BRANCH   7  31
HETATM   31  O   UNL     1      -6.689  10.128  66.007  1.00  0.00    -0.092 OA 
HETATM   32  C   UNL     1      -5.593  10.491  65.187  1.00  0.00    -0.142 C  
ENDBRANCH   7  31
ENDBRANCH   2   3
TORSDOF 6
ENDMDL
MODEL      223
REMARK 921   NORMALIZED FREE ENERGY PREDICTED BY IDOCK:   -3.92 KCAL/MOL
REMARK 922        TOTAL FREE ENERGY PREDICTED BY IDOCK:   -6.15 KCAL/MOL
REMARK 923 INTER-LIGAND FREE ENERGY PREDICTED BY IDOCK:   -5.29 KCAL/MOL
REMARK 924 INTRA-LIGAND FREE ENERGY PREDICTED BY IDOCK:   -0.86 KCAL/MOL
REMARK 927      BINDING AFFINITY PREDICTED BY RF-SCORE:    0.00 PKD
ROOT
HETATM    1  C   UNL     1      -9.448  16.607  69.091  1.00  0.00    -0.188 C  
HETATM    2  O   UNL     1     -10.874  16.619  69.133  1.00  0.00    -0.320 OA 
ENDROOT
BRANCH   2   3
HETATM    3  C   UNL     1     -11.494  15.402  69.279  1.00  0.00    -0.333 A  
HETATM    4  C   UNL     1     -11.293  14.383  68.331  1.00  0.00    -0.312 A  
HETATM    5  C   UNL     1     -11.881  13.125  68.455  1.00  0.00    -0.342 A  
HETATM    6  C   UNL     1     -12.719  12.920  69.547  1.00  0.00     0.593 A  
HETATM    7  C   UNL     1     -12.302  15.162  70.414  1.00  0.00    -0.363 A  
HETATM    8  C   UNL     1     -12.919  13.900  70.536  1.00  0.00    -0.097 A  
BRANCH   5   9
HETATM    9  N   UNL     1     -11.718  12.201  67.415  1.00  0.00    -0.509 NA 
HETATM   10  H   UNL     1     -12.086  11.253  67.493  1.00  0.00     0.000 HD 
BRANCH   9  11
HETATM   11  C   UNL     1     -11.008  12.632  66.215  1.00  0.00    -0.283 C  
BRANCH  11  12
HETATM   12  C   UNL     1      -9.982  11.617  65.737  1.00  0.00    -0.270 A  
HETATM   13  C   UNL     1      -8.644  11.677  66.209  1.00  0.00    -0.103 A  
HETATM   14  H2  UNL     1      -6.415  11.097  68.132  1.00  0.00     0.000 HD 
HETATM   15  C   UNL     1      -7.685  10.663  65.818  1.00  0.00    -0.130 A  
HETATM   16  H1  UNL     1      -4.843  11.056  67.660  1.00  0.00     0.000 HD 
HETATM   17  C   UNL     1      -8.219  12.811  67.116  1.00  0.00    -0.146 C  
HETATM   18  C   UNL     1      -8.068   9.694  64.879  1.00  0.00    -0.133 A  
HETATM   19  N   UNL     1      -7.247   8.760  64.392  1.00  0.00    -0.092 NA 
HETATM   20  C   UNL     1      -9.374   9.669  64.424  1.00  0.00    -0.212 A  
HETATM   21  C   UNL     1     -10.328  10.589  64.856  1.00  0.00    -0.307 A  
HETATM   22  C   UNL     1      -6.000   8.740  64.848  1.00  0.00    -0.063 A  
HETATM   23  N   UNL     1      -5.529   9.528  65.807  1.00  0.00    -0.040 NA 
HETATM   24  N   UNL     1      -5.138   7.805  64.315  1.00  0.00    -0.029 NA 
HETATM   25  C   UNL     1      -6.361  10.467  66.278  1.00  0.00    -0.106 A  
HETATM   26  H2  UNL     1      -5.448   7.150  63.596  1.00  0.00     0.000 HD 
HETATM   27  H1  UNL     1      -4.181   7.789  64.665  1.00  0.00     0.000 HD 
HETATM   28  N   UNL     1      -5.796  11.197  67.328  1.00  0.00    -0.055 NA 
ENDBRANCH  11  12
ENDBRANCH   9  11
ENDBRANCH   5   9
BRANCH   8  29
HETATM   29  O   UNL     1     -13.755  13.434  71.522  1.00  0.00    -0.230 OA 
HETATM   30  C   UNL     1     -13.392  12.291  72.277  1.00  0.00    -0.270 C  
ENDBRANCH   8  29
BRANCH   7  31
HETATM   31  O   UNL     1     -12.566  16.056  71.416  1.00  0.00    -0.443 OA 
HETATM   32  C   UNL     1     -11.787  16.071  72.598  1.00  0.00    -0.506 C  
ENDBRANCH   7  31
ENDBRANCH   2   3
TORSDOF 6
ENDMDL
MODEL      224
REMARK 921   NORMALIZED FREE ENERGY PREDICTED BY IDOCK:   -3.92 KCAL/MOL
REMARK 922        TOTAL FREE ENERGY PREDICTED BY IDOCK:   -6.15 KCAL/MOL
REMARK 923 INTER-LIGAND FREE ENERGY PREDICTED BY IDOCK:   -5.57 KCAL/MOL
REMARK 924 INTRA-LIGAND FREE ENERGY PREDICTED BY IDOCK:   -0.59 KCAL/MOL
REMARK 927      BINDING AFFINITY PREDICTED BY RF-SCORE:    0.00 PKD
ROOT
HETATM    1  C   UNL     1     -12.316  13.742  63.855  1.00  0.00    -0.292 C  
HETATM    2  O   UNL     1     -12.478  14.415  65.102  1.00  0.00    -0.419 OA 
ENDROOT
BRANCH   2   3
HETATM    3  C   UNL     1     -11.362  14.514  65.897  1.00  0.00    -0.341 A  
HETATM    4  C   UNL     1     -11.037  13.484  66.798  1.00  0.00    -0.311 A  
HETATM    5  C   UNL     1      -9.900  13.531  67.603  1.00  0.00    -0.228 A  
HETATM    6  C   UNL     1      -9.105  14.669  67.513  1.00  0.00    -0.192 A  
HETATM    7  C   UNL     1     -10.515  15.638  65.774  1.00  0.00    -0.366 A  
HETATM    8  C   UNL     1      -9.375  15.705  66.601  1.00  0.00    -0.265 A  
BRANCH   5   9
HETATM    9  N   UNL     1      -9.705  12.517  68.549  1.00  0.00    -0.361 NA 
HETATM   10  H   UNL     1     -10.380  12.360  69.298  1.00  0.00     0.000 HD 
BRANCH   9  11
HETATM   11  C   UNL     1      -8.508  11.690  68.437  1.00  0.00    -0.157 C  
BRANCH  11  12
HETATM   12  C   UNL     1      -8.821  10.222  68.199  1.00  0.00    -0.123 A  
HETATM   13  C   UNL     1      -8.439   9.246  69.157  1.00  0.00    -0.133 A  
HETATM   14  H2  UNL     1      -8.791   7.589  71.634  1.00  0.00     0.000 HD 
HETATM   15  C   UNL     1      -8.808   7.856  68.972  1.00  0.00    -0.145 A  
HETATM   16  H1  UNL     1      -8.069   6.125  71.815  1.00  0.00     0.000 HD 
HETATM   17  C   UNL     1      -7.635   9.660  70.370  1.00  0.00    -0.176 C  
HETATM   18  C   UNL     1      -9.444   7.477  67.781  1.00  0.00    -0.141 A  
HETATM   19  N   UNL     1      -9.762   6.217  67.473  1.00  0.00    -0.115 NA 
HETATM   20  C   UNL     1      -9.791   8.447  66.858  1.00  0.00    -0.313 A  
HETATM   21  C   UNL     1      -9.515   9.798  67.062  1.00  0.00    -0.195 A  
HETATM   22  C   UNL     1      -9.476   5.276  68.364  1.00  0.00    -0.124 A  
HETATM   23  N   UNL     1      -8.970   5.500  69.570  1.00  0.00    -0.112 NA 
HETATM   24  N   UNL     1      -9.764   3.969  68.030  1.00  0.00    -0.125 NA 
HETATM   25  C   UNL     1      -8.646   6.768  69.861  1.00  0.00    -0.141 A  
HETATM   26  H2  UNL     1     -10.182   3.733  67.130  1.00  0.00     0.000 HD 
HETATM   27  H1  UNL     1      -9.545   3.246  68.714  1.00  0.00     0.000 HD 
HETATM   28  N   UNL     1      -8.187   6.909  71.174  1.00  0.00    -0.117 NA 
ENDBRANCH  11  12
ENDBRANCH   9  11
ENDBRANCH   5   9
BRANCH   8  29
HETATM   29  O   UNL     1      -8.419  16.689  66.684  1.00  0.00    -0.207 OA 
HETATM   30  C   UNL     1      -7.477  16.674  67.743  1.00  0.00    -0.155 C  
ENDBRANCH   8  29
BRANCH   7  31
HETATM   31  O   UNL     1     -10.704  16.699  64.930  1.00  0.00    -0.710 OA 
HETATM   32  C   UNL     1     -11.031  17.980  65.437  1.00  0.00     0.400 C  
ENDBRANCH   7  31
ENDBRANCH   2   3
TORSDOF 6
ENDMDL
MODEL      225
REMARK 921   NORMALIZED FREE ENERGY PREDICTED BY IDOCK:   -3.91 KCAL/MOL
REMARK 922        TOTAL FREE ENERGY PREDICTED BY IDOCK:   -6.14 KCAL/MOL
REMARK 923 INTER-LIGAND FREE ENERGY PREDICTED BY IDOCK:   -4.97 KCAL/MOL
REMARK 924 INTRA-LIGAND FREE ENERGY PREDICTED BY IDOCK:   -1.17 KCAL/MOL
REMARK 927      BINDING AFFINITY PREDICTED BY RF-SCORE:    0.00 PKD
ROOT
HETATM    1  C   UNL     1     -10.648   5.523  73.083  1.00  0.00    -0.247 C  
HETATM    2  O   UNL     1     -10.400   4.711  71.938  1.00  0.00    -0.194 OA 
ENDROOT
BRANCH   2   3
HETATM    3  C   UNL     1      -9.325   5.061  71.158  1.00  0.00    -0.149 A  
HETATM    4  C   UNL     1      -8.566   6.205  71.464  1.00  0.00    -0.131 A  
HETATM    5  C   UNL     1      -7.451   6.580  70.716  1.00  0.00    -0.087 A  
HETATM    6  C   UNL     1      -7.133   5.795  69.612  1.00  0.00    -0.064 A  
HETATM    7  C   UNL     1      -8.956   4.240  70.068  1.00  0.00    -0.095 A  
HETATM    8  C   UNL     1      -7.844   4.625  69.292  1.00  0.00    -0.063 A  
BRANCH   5   9
HETATM    9  N   UNL     1      -6.813   7.790  71.021  1.00  0.00    -0.045 NA 
HETATM   10  H   UNL     1      -5.795   7.859  71.029  1.00  0.00     0.000 HD 
BRANCH   9  11
HETATM   11  C   UNL     1      -7.644   8.949  71.327  1.00  0.00    -0.103 C  
BRANCH  11  12
HETATM   12  C   UNL     1      -8.239   9.597  70.088  1.00  0.00    -0.206 A  
HETATM   13  C   UNL     1      -9.629   9.878  70.026  1.00  0.00    -0.260 A  
HETATM   14  H2  UNL     1     -12.089  11.533  70.495  1.00  0.00     0.000 HD 
HETATM   15  C   UNL     1     -10.186  10.569  68.880  1.00  0.00    -0.223 A  
HETATM   16  H1  UNL     1     -13.425  11.398  69.549  1.00  0.00     0.000 HD 
HETATM   17  C   UNL     1     -10.533   9.444  71.160  1.00  0.00    -0.392 C  
HETATM   18  C   UNL     1      -9.352  10.850  67.788  1.00  0.00    -0.157 A  
HETATM   19  N   UNL     1      -9.773  11.414  66.653  1.00  0.00    -0.197 NA 
HETATM   20  C   UNL     1      -8.004  10.551  67.869  1.00  0.00    -0.106 A  
HETATM   21  C   UNL     1      -7.441   9.961  69.000  1.00  0.00    -0.083 A  
HETATM   22  C   UNL     1     -11.055  11.748  66.571  1.00  0.00    -0.310 A  
HETATM   23  N   UNL     1     -11.934  11.635  67.559  1.00  0.00    -0.621 NA 
HETATM   24  N   UNL     1     -11.501  12.291  65.384  1.00  0.00    -0.345 NA 
HETATM   25  C   UNL     1     -11.500  11.057  68.688  1.00  0.00    -0.308 A  
HETATM   26  H2  UNL     1     -10.867  12.432  64.597  1.00  0.00     0.000 HD 
HETATM   27  H1  UNL     1     -12.485  12.547  65.321  1.00  0.00     0.000 HD 
HETATM   28  N   UNL     1     -12.477  11.047  69.687  1.00  0.00    -0.247 NA 
ENDBRANCH  11  12
ENDBRANCH   9  11
ENDBRANCH   5   9
BRANCH   8  29
HETATM   29  O   UNL     1      -7.305   4.014  68.185  1.00  0.00    -0.059 OA 
HETATM   30  C   UNL     1      -6.041   3.377  68.272  1.00  0.00    -0.031 C  
ENDBRANCH   8  29
BRANCH   7  31
HETATM   31  O   UNL     1      -9.595   3.096  69.672  1.00  0.00    -0.149 OA 
HETATM   32  C   UNL     1      -9.334   1.860  70.313  1.00  0.00    -0.102 C  
ENDBRANCH   7  31
ENDBRANCH   2   3
TORSDOF 6
ENDMDL
MODEL      226
REMARK 921   NORMALIZED FREE ENERGY PREDICTED BY IDOCK:   -3.91 KCAL/MOL
REMARK 922        TOTAL FREE ENERGY PREDICTED BY IDOCK:   -6.13 KCAL/MOL
REMARK 923 INTER-LIGAND FREE ENERGY PREDICTED BY IDOCK:   -4.89 KCAL/MOL
REMARK 924 INTRA-LIGAND FREE ENERGY PREDICTED BY IDOCK:   -1.24 KCAL/MOL
REMARK 927      BINDING AFFINITY PREDICTED BY RF-SCORE:    0.00 PKD
ROOT
HETATM    1  C   UNL     1      -5.809  10.884  70.515  1.00  0.00    -0.130 C  
HETATM    2  O   UNL     1      -5.571   9.519  70.178  1.00  0.00    -0.034 OA 
ENDROOT
BRANCH   2   3
HETATM    3  C   UNL     1      -6.225   9.035  69.071  1.00  0.00    -0.043 A  
HETATM    4  C   UNL     1      -6.540   9.891  68.001  1.00  0.00    -0.060 A  
HETATM    5  C   UNL     1      -7.178   9.436  66.848  1.00  0.00    -0.087 A  
HETATM    6  C   UNL     1      -7.534   8.091  66.808  1.00  0.00    -0.090 A  
HETATM    7  C   UNL     1      -6.540   7.660  68.993  1.00  0.00    -0.048 A  
HETATM    8  C   UNL     1      -7.206   7.195  67.840  1.00  0.00    -0.091 A  
BRANCH   5   9
HETATM    9  N   UNL     1      -7.553  10.371  65.875  1.00  0.00    -0.141 NA 
HETATM   10  H   UNL     1      -6.852  10.918  65.375  1.00  0.00     0.000 HD 
BRANCH   9  11
HETATM   11  C   UNL     1      -8.975  10.541  65.594  1.00  0.00    -0.180 C  
BRANCH  11  12
HETATM   12  C   UNL     1      -9.631  11.593  66.474  1.00  0.00    -0.226 A  
HETATM   13  C   UNL     1     -10.379  11.204  67.615  1.00  0.00    -0.223 A  
HETATM   14  H2  UNL     1     -10.738  10.432  70.493  1.00  0.00     0.000 HD 
HETATM   15  C   UNL     1     -10.938  12.206  68.501  1.00  0.00    -0.276 A  
HETATM   16  H1  UNL     1     -12.154  10.669  71.291  1.00  0.00     0.000 HD 
HETATM   17  C   UNL     1     -10.601   9.734  67.901  1.00  0.00    -0.310 C  
HETATM   18  C   UNL     1     -10.825  13.559  68.148  1.00  0.00    -0.254 A  
HETATM   19  N   UNL     1     -11.365  14.560  68.849  1.00  0.00    -0.259 NA 
HETATM   20  C   UNL     1     -10.104  13.909  67.022  1.00  0.00    -0.256 A  
HETATM   21  C   UNL     1      -9.492  12.958  66.207  1.00  0.00    -0.205 A  
HETATM   22  C   UNL     1     -12.026  14.248  69.957  1.00  0.00    -0.334 A  
HETATM   23  N   UNL     1     -12.125  13.026  70.464  1.00  0.00    -0.340 NA 
HETATM   24  N   UNL     1     -12.620  15.276  70.659  1.00  0.00    -0.391 NA 
HETATM   25  C   UNL     1     -11.589  12.030  69.745  1.00  0.00    -0.276 A  
HETATM   26  H2  UNL     1     -12.554  16.243  70.338  1.00  0.00     0.000 HD 
HETATM   27  H1  UNL     1     -13.127  15.037  71.510  1.00  0.00     0.000 HD 
HETATM   28  N   UNL     1     -11.685  10.796  70.394  1.00  0.00    -0.328 NA 
ENDBRANCH  11  12
ENDBRANCH   9  11
ENDBRANCH   5   9
BRANCH   8  29
HETATM   29  O   UNL     1      -7.633   5.925  67.537  1.00  0.00    -0.090 OA 
HETATM   30  C   UNL     1      -9.016   5.615  67.573  1.00  0.00    -0.107 C  
ENDBRANCH   8  29
BRANCH   7  31
HETATM   31  O   UNL     1      -6.276   6.718  69.951  1.00  0.00    -0.032 OA 
HETATM   32  C   UNL     1      -7.217   6.439  70.972  1.00  0.00    -0.078 C  
ENDBRANCH   7  31
ENDBRANCH   2   3
TORSDOF 6
ENDMDL
MODEL      227
REMARK 921   NORMALIZED FREE ENERGY PREDICTED BY IDOCK:   -3.86 KCAL/MOL
REMARK 922        TOTAL FREE ENERGY PREDICTED BY IDOCK:   -6.07 KCAL/MOL
REMARK 923 INTER-LIGAND FREE ENERGY PREDICTED BY IDOCK:   -6.65 KCAL/MOL
REMARK 924 INTRA-LIGAND FREE ENERGY PREDICTED BY IDOCK:    0.58 KCAL/MOL
REMARK 927      BINDING AFFINITY PREDICTED BY RF-SCORE:    0.00 PKD
ROOT
HETATM    1  C   UNL     1      -9.584   6.199  71.975  1.00  0.00    -0.152 C  
HETATM    2  O   UNL     1      -9.706   5.153  71.013  1.00  0.00    -0.164 OA 
ENDROOT
BRANCH   2   3
HETATM    3  C   UNL     1      -9.367   5.465  69.719  1.00  0.00    -0.142 A  
HETATM    4  C   UNL     1      -8.973   6.772  69.382  1.00  0.00    -0.137 A  
HETATM    5  C   UNL     1      -8.594   7.124  68.088  1.00  0.00    -0.129 A  
HETATM    6  C   UNL     1      -8.659   6.132  67.115  1.00  0.00    -0.103 A  
HETATM    7  C   UNL     1      -9.373   4.452  68.733  1.00  0.00    -0.151 A  
HETATM    8  C   UNL     1      -9.014   4.805  67.416  1.00  0.00    -0.109 A  
BRANCH   5   9
HETATM    9  N   UNL     1      -8.318   8.470  67.812  1.00  0.00    -0.128 NA 
HETATM   10  H   UNL     1      -7.632   8.729  67.102  1.00  0.00     0.000 HD 
BRANCH   9  11
HETATM   11  C   UNL     1      -9.038   9.490  68.565  1.00  0.00    -0.131 C  
BRANCH  11  12
HETATM   12  C   UNL     1      -9.827  10.438  67.677  1.00  0.00    -0.197 A  
HETATM   13  C   UNL     1      -9.581  10.479  66.279  1.00  0.00    -0.232 A  
HETATM   14  H2  UNL     1      -9.926   9.588  63.434  1.00  0.00     0.000 HD 
HETATM   15  C   UNL     1     -10.387  11.322  65.419  1.00  0.00    -0.328 A  
HETATM   16  H1  UNL     1      -9.667  10.598  62.166  1.00  0.00     0.000 HD 
HETATM   17  C   UNL     1      -8.465   9.644  65.690  1.00  0.00    -0.141 C  
HETATM   18  C   UNL     1     -11.331  12.179  66.003  1.00  0.00    -0.358 A  
HETATM   19  N   UNL     1     -12.075  13.050  65.315  1.00  0.00    -0.413 NA 
HETATM   20  C   UNL     1     -11.539  12.130  67.368  1.00  0.00    -0.410 A  
HETATM   21  C   UNL     1     -10.828  11.264  68.197  1.00  0.00    -0.263 A  
HETATM   22  C   UNL     1     -11.921  13.083  63.997  1.00  0.00    -0.456 A  
HETATM   23  N   UNL     1     -11.142  12.263  63.302  1.00  0.00    -0.395 NA 
HETATM   24  N   UNL     1     -12.656  14.011  63.289  1.00  0.00    -1.005 NA 
HETATM   25  C   UNL     1     -10.393  11.402  64.006  1.00  0.00    -0.362 A  
HETATM   26  H2  UNL     1     -13.296  14.650  63.762  1.00  0.00     0.000 HD 
HETATM   27  H1  UNL     1     -12.537  14.037  62.277  1.00  0.00     0.000 HD 
HETATM   28  N   UNL     1      -9.663  10.540  63.184  1.00  0.00    -0.325 NA 
ENDBRANCH  11  12
ENDBRANCH   9  11
ENDBRANCH   5   9
BRANCH   8  29
HETATM   29  O   UNL     1      -8.961   4.019  66.290  1.00  0.00    -0.117 OA 
HETATM   30  C   UNL     1      -8.511   4.568  65.063  1.00  0.00    -0.128 C  
ENDBRANCH   8  29
BRANCH   7  31
HETATM   31  O   UNL     1      -9.718   3.142  68.928  1.00  0.00    -0.087 OA 
HETATM   32  C   UNL     1      -8.801   2.229  69.505  1.00  0.00    -0.087 C  
ENDBRANCH   7  31
ENDBRANCH   2   3
TORSDOF 6
ENDMDL
MODEL      228
REMARK 921   NORMALIZED FREE ENERGY PREDICTED BY IDOCK:   -3.85 KCAL/MOL
REMARK 922        TOTAL FREE ENERGY PREDICTED BY IDOCK:   -6.06 KCAL/MOL
REMARK 923 INTER-LIGAND FREE ENERGY PREDICTED BY IDOCK:   -5.26 KCAL/MOL
REMARK 924 INTRA-LIGAND FREE ENERGY PREDICTED BY IDOCK:   -0.79 KCAL/MOL
REMARK 927      BINDING AFFINITY PREDICTED BY RF-SCORE:    0.00 PKD
ROOT
HETATM    1  C   UNL     1     -12.142  10.842  69.705  1.00  0.00    -0.338 C  
HETATM    2  O   UNL     1     -12.004  12.180  69.231  1.00  0.00    -0.300 OA 
ENDROOT
BRANCH   2   3
HETATM    3  C   UNL     1     -10.935  12.433  68.406  1.00  0.00    -0.241 A  
HETATM    4  C   UNL     1      -9.906  11.485  68.265  1.00  0.00    -0.203 A  
HETATM    5  C   UNL     1      -8.818  11.689  67.417  1.00  0.00    -0.160 A  
HETATM    6  C   UNL     1      -8.764  12.901  66.734  1.00  0.00    -0.112 A  
HETATM    7  C   UNL     1     -10.897  13.634  67.662  1.00  0.00    -0.256 A  
HETATM    8  C   UNL     1      -9.788  13.859  66.820  1.00  0.00    -0.274 A  
BRANCH   5   9
HETATM    9  N   UNL     1      -7.783  10.746  67.414  1.00  0.00    -0.105 NA 
HETATM   10  H   UNL     1      -7.166  10.641  68.221  1.00  0.00     0.000 HD 
BRANCH   9  11
HETATM   11  C   UNL     1      -7.608   9.918  66.226  1.00  0.00    -0.102 C  
BRANCH  11  12
HETATM   12  C   UNL     1      -7.977   8.461  66.459  1.00  0.00    -0.096 A  
HETATM   13  C   UNL     1      -8.228   7.603  65.356  1.00  0.00    -0.137 A  
HETATM   14  H2  UNL     1      -7.458   5.714  63.155  1.00  0.00     0.000 HD 
HETATM   15  C   UNL     1      -8.500   6.196  65.572  1.00  0.00    -0.149 A  
HETATM   16  H1  UNL     1      -8.501   4.593  62.562  1.00  0.00     0.000 HD 
HETATM   17  C   UNL     1      -8.221   8.166  63.952  1.00  0.00    -0.066 C  
HETATM   18  C   UNL     1      -8.624   5.724  66.886  1.00  0.00    -0.111 A  
HETATM   19  N   UNL     1      -8.945   4.466  67.201  1.00  0.00    -0.115 NA 
HETATM   20  C   UNL     1      -8.389   6.586  67.942  1.00  0.00    -0.115 A  
HETATM   21  C   UNL     1      -8.046   7.922  67.747  1.00  0.00    -0.128 A  
HETATM   22  C   UNL     1      -9.133   3.612  66.202  1.00  0.00    -0.154 A  
HETATM   23  N   UNL     1      -8.950   3.893  64.918  1.00  0.00    -0.125 NA 
HETATM   24  N   UNL     1      -9.507   2.324  66.523  1.00  0.00    -0.368 NA 
HETATM   25  C   UNL     1      -8.639   5.161  64.617  1.00  0.00    -0.142 A  
HETATM   26  H2  UNL     1      -9.634   2.037  67.494  1.00  0.00     0.000 HD 
HETATM   27  H1  UNL     1      -9.651   1.668  65.756  1.00  0.00     0.000 HD 
HETATM   28  N   UNL     1      -8.401   5.338  63.251  1.00  0.00    -0.120 NA 
ENDBRANCH  11  12
ENDBRANCH   9  11
ENDBRANCH   5   9
BRANCH   8  29
HETATM   29  O   UNL     1      -9.511  14.942  66.020  1.00  0.00    -0.296 OA 
HETATM   30  C   UNL     1      -8.563  15.909  66.440  1.00  0.00    -0.328 C  
ENDBRANCH   8  29
BRANCH   7  31
HETATM   31  O   UNL     1     -11.837  14.629  67.693  1.00  0.00    -0.367 OA 
HETATM   32  C   UNL     1     -11.756  15.673  68.647  1.00  0.00    -0.352 C  
ENDBRANCH   7  31
ENDBRANCH   2   3
TORSDOF 6
ENDMDL
MODEL      229
REMARK 921   NORMALIZED FREE ENERGY PREDICTED BY IDOCK:   -3.85 KCAL/MOL
REMARK 922        TOTAL FREE ENERGY PREDICTED BY IDOCK:   -6.05 KCAL/MOL
REMARK 923 INTER-LIGAND FREE ENERGY PREDICTED BY IDOCK:   -7.44 KCAL/MOL
REMARK 924 INTRA-LIGAND FREE ENERGY PREDICTED BY IDOCK:    1.39 KCAL/MOL
REMARK 927      BINDING AFFINITY PREDICTED BY RF-SCORE:    0.00 PKD
ROOT
HETATM    1  C   UNL     1      -8.885  16.944  69.334  1.00  0.00     0.218 C  
HETATM    2  O   UNL     1     -10.288  17.188  69.404  1.00  0.00    -0.290 OA 
ENDROOT
BRANCH   2   3
HETATM    3  C   UNL     1     -11.099  16.086  69.520  1.00  0.00    -0.333 A  
HETATM    4  C   UNL     1     -11.259  15.203  68.438  1.00  0.00    -0.307 A  
HETATM    5  C   UNL     1     -12.050  14.058  68.523  1.00  0.00    -0.294 A  
HETATM    6  C   UNL     1     -12.719  13.835  69.723  1.00  0.00     0.089 A  
HETATM    7  C   UNL     1     -11.738  15.817  70.752  1.00  0.00    -0.399 A  
HETATM    8  C   UNL     1     -12.559  14.674  70.840  1.00  0.00    -0.342 A  
BRANCH   5   9
HETATM    9  N   UNL     1     -12.243  13.288  67.368  1.00  0.00    -0.263 NA 
HETATM   10  H   UNL     1     -12.718  12.385  67.413  1.00  0.00     0.000 HD 
BRANCH   9  11
HETATM   11  C   UNL     1     -11.749  13.811  66.100  1.00  0.00    -0.370 C  
BRANCH  11  12
HETATM   12  C   UNL     1     -11.070  12.752  65.246  1.00  0.00    -0.320 A  
HETATM   13  C   UNL     1     -10.321  11.713  65.857  1.00  0.00    -0.289 A  
HETATM   14  H2  UNL     1      -9.958   9.039  67.171  1.00  0.00     0.000 HD 
HETATM   15  C   UNL     1      -9.742  10.657  65.051  1.00  0.00    -0.336 A  
HETATM   16  H1  UNL     1      -8.534   8.223  67.111  1.00  0.00     0.000 HD 
HETATM   17  C   UNL     1     -10.121  11.715  67.357  1.00  0.00    -0.218 C  
HETATM   18  C   UNL     1      -9.835  10.743  63.654  1.00  0.00    -0.350 A  
HETATM   19  N   UNL     1      -9.275   9.868  62.814  1.00  0.00    -0.281 NA 
HETATM   20  C   UNL     1     -10.557  11.775  63.085  1.00  0.00    -0.341 A  
HETATM   21  C   UNL     1     -11.189  12.751  63.853  1.00  0.00    -0.491 A  
HETATM   22  C   UNL     1      -8.613   8.846  63.341  1.00  0.00    -0.093 A  
HETATM   23  N   UNL     1      -8.531   8.583  64.639  1.00  0.00    -0.147 NA 
HETATM   24  N   UNL     1      -7.998   7.966  62.475  1.00  0.00    -0.144 NA 
HETATM   25  C   UNL     1      -9.087   9.475  65.471  1.00  0.00    -0.212 A  
HETATM   26  H2  UNL     1      -8.051   8.095  61.465  1.00  0.00     0.000 HD 
HETATM   27  H1  UNL     1      -7.490   7.181  62.880  1.00  0.00     0.000 HD 
HETATM   28  N   UNL     1      -9.006   9.075  66.808  1.00  0.00    -0.132 NA 
ENDBRANCH  11  12
ENDBRANCH   9  11
ENDBRANCH   5   9
BRANCH   8  29
HETATM   29  O   UNL     1     -13.294  14.212  71.905  1.00  0.00    -0.340 OA 
HETATM   30  C   UNL     1     -13.340  12.823  72.185  1.00  0.00    -0.492 C  
ENDBRANCH   8  29
BRANCH   7  31
HETATM   31  O   UNL     1     -11.655  16.582  71.885  1.00  0.00    -0.419 OA 
HETATM   32  C   UNL     1     -12.253  16.152  73.095  1.00  0.00    -0.542 C  
ENDBRANCH   7  31
ENDBRANCH   2   3
TORSDOF 6
ENDMDL
MODEL      230
REMARK 921   NORMALIZED FREE ENERGY PREDICTED BY IDOCK:   -3.81 KCAL/MOL
REMARK 922        TOTAL FREE ENERGY PREDICTED BY IDOCK:   -6.01 KCAL/MOL
REMARK 923 INTER-LIGAND FREE ENERGY PREDICTED BY IDOCK:   -5.19 KCAL/MOL
REMARK 924 INTRA-LIGAND FREE ENERGY PREDICTED BY IDOCK:   -0.81 KCAL/MOL
REMARK 927      BINDING AFFINITY PREDICTED BY RF-SCORE:    0.00 PKD
ROOT
HETATM    1  C   UNL     1      -7.055   8.098  68.015  1.00  0.00    -0.086 C  
HETATM    2  O   UNL     1      -7.215   9.134  68.982  1.00  0.00    -0.069 OA 
ENDROOT
BRANCH   2   3
HETATM    3  C   UNL     1      -8.496   9.378  69.415  1.00  0.00    -0.142 A  
HETATM    4  C   UNL     1      -8.926   8.902  70.667  1.00  0.00    -0.237 A  
HETATM    5  C   UNL     1     -10.207   9.151  71.157  1.00  0.00    -0.314 A  
HETATM    6  C   UNL     1     -11.074   9.863  70.334  1.00  0.00    -0.382 A  
HETATM    7  C   UNL     1      -9.368  10.150  68.615  1.00  0.00    -0.161 A  
HETATM    8  C   UNL     1     -10.674  10.386  69.092  1.00  0.00    -0.234 A  
BRANCH   5   9
HETATM    9  N   UNL     1     -10.593   8.552  72.363  1.00  0.00    -0.331 NA 
HETATM   10  H   UNL     1     -10.337   8.967  73.260  1.00  0.00     0.000 HD 
BRANCH   9  11
HETATM   11  C   UNL     1     -11.370   7.319  72.303  1.00  0.00    -0.272 C  
BRANCH  11  12
HETATM   12  C   UNL     1     -10.791   6.299  71.337  1.00  0.00    -0.312 A  
HETATM   13  C   UNL     1      -9.755   5.424  71.758  1.00  0.00    -0.206 A  
HETATM   14  H2  UNL     1      -8.646   2.939  73.024  1.00  0.00     0.000 HD 
HETATM   15  C   UNL     1      -9.258   4.396  70.865  1.00  0.00    -0.202 A  
HETATM   16  H1  UNL     1      -7.182   2.325  72.604  1.00  0.00     0.000 HD 
HETATM   17  C   UNL     1      -9.163   5.575  73.142  1.00  0.00    -0.132 C  
HETATM   18  C   UNL     1      -9.734   4.357  69.546  1.00  0.00    -0.210 A  
HETATM   19  N   UNL     1      -9.293   3.503  68.619  1.00  0.00    -0.165 NA 
HETATM   20  C   UNL     1     -10.733   5.231  69.159  1.00  0.00    -0.054 A  
HETATM   21  C   UNL     1     -11.278   6.170  70.033  1.00  0.00    -0.471 A  
HETATM   22  C   UNL     1      -8.365   2.626  68.982  1.00  0.00    -0.059 A  
HETATM   23  N   UNL     1      -7.897   2.482  70.216  1.00  0.00    -0.042 NA 
HETATM   24  N   UNL     1      -7.877   1.772  68.015  1.00  0.00    -0.057 NA 
HETATM   25  C   UNL     1      -8.340   3.353  71.134  1.00  0.00    -0.066 A  
HETATM   26  H2  UNL     1      -8.218   1.812  67.054  1.00  0.00     0.000 HD 
HETATM   27  H1  UNL     1      -7.164   1.100  68.294  1.00  0.00     0.000 HD 
HETATM   28  N   UNL     1      -7.843   3.076  72.410  1.00  0.00    -0.057 NA 
ENDBRANCH  11  12
ENDBRANCH   9  11
ENDBRANCH   5   9
BRANCH   8  29
HETATM   29  O   UNL     1     -11.702  11.080  68.500  1.00  0.00    -0.372 OA 
HETATM   30  C   UNL     1     -11.977  12.413  68.897  1.00  0.00    -0.241 C  
ENDBRANCH   8  29
BRANCH   7  31
HETATM   31  O   UNL     1      -9.073  10.685  67.390  1.00  0.00    -0.139 OA 
HETATM   32  C   UNL     1      -8.562  12.001  67.277  1.00  0.00    -0.177 C  
ENDBRANCH   7  31
ENDBRANCH   2   3
TORSDOF 6
ENDMDL
MODEL      231
REMARK 921   NORMALIZED FREE ENERGY PREDICTED BY IDOCK:   -3.80 KCAL/MOL
REMARK 922        TOTAL FREE ENERGY PREDICTED BY IDOCK:   -5.99 KCAL/MOL
REMARK 923 INTER-LIGAND FREE ENERGY PREDICTED BY IDOCK:   -5.92 KCAL/MOL
REMARK 924 INTRA-LIGAND FREE ENERGY PREDICTED BY IDOCK:   -0.07 KCAL/MOL
REMARK 927      BINDING AFFINITY PREDICTED BY RF-SCORE:    0.00 PKD
ROOT
HETATM    1  C   UNL     1     -11.873  14.621  68.526  1.00  0.00    -0.311 C  
HETATM    2  O   UNL     1     -11.306  14.558  67.218  1.00  0.00    -0.322 OA 
ENDROOT
BRANCH   2   3
HETATM    3  C   UNL     1     -10.666  13.390  66.881  1.00  0.00    -0.273 A  
HETATM    4  C   UNL     1     -10.245  12.496  67.881  1.00  0.00    -0.219 A  
HETATM    5  C   UNL     1      -9.618  11.287  67.582  1.00  0.00    -0.171 A  
HETATM    6  C   UNL     1      -9.383  11.010  66.238  1.00  0.00    -0.206 A  
HETATM    7  C   UNL     1     -10.473  13.069  65.518  1.00  0.00    -0.285 A  
HETATM    8  C   UNL     1      -9.818  11.860  65.207  1.00  0.00    -0.230 A  
BRANCH   5   9
HETATM    9  N   UNL     1      -9.134  10.502  68.636  1.00  0.00    -0.151 NA 
HETATM   10  H   UNL     1      -8.992  10.901  69.565  1.00  0.00     0.000 HD 
BRANCH   9  11
HETATM   11  C   UNL     1      -8.836   9.099  68.371  1.00  0.00    -0.129 C  
BRANCH  11  12
HETATM   12  C   UNL     1      -9.347   8.168  69.458  1.00  0.00    -0.155 A  
HETATM   13  C   UNL     1      -8.826   8.256  70.776  1.00  0.00    -0.162 A  
HETATM   14  H2  UNL     1      -8.678   9.339  73.571  1.00  0.00     0.000 HD 
HETATM   15  C   UNL     1      -9.369   7.425  71.833  1.00  0.00    -0.157 A  
HETATM   16  H1  UNL     1      -8.085   8.453  74.820  1.00  0.00     0.000 HD 
HETATM   17  C   UNL     1      -7.693   9.214  71.073  1.00  0.00    -0.132 C  
HETATM   18  C   UNL     1     -10.331   6.458  71.508  1.00  0.00    -0.207 A  
HETATM   19  N   UNL     1     -10.844   5.591  72.386  1.00  0.00    -0.237 NA 
HETATM   20  C   UNL     1     -10.809   6.385  70.213  1.00  0.00    -0.350 A  
HETATM   21  C   UNL     1     -10.355   7.234  69.205  1.00  0.00    -0.207 A  
HETATM   22  C   UNL     1     -10.430   5.673  73.644  1.00  0.00    -0.263 A  
HETATM   23  N   UNL     1      -9.604   6.600  74.113  1.00  0.00    -0.229 NA 
HETATM   24  N   UNL     1     -10.926   4.752  74.542  1.00  0.00    -0.248 NA 
HETATM   25  C   UNL     1      -9.088   7.456  73.220  1.00  0.00    -0.174 A  
HETATM   26  H2  UNL     1     -11.588   4.033  74.251  1.00  0.00     0.000 HD 
HETATM   27  H1  UNL     1     -10.607   4.814  75.509  1.00  0.00     0.000 HD 
HETATM   28  N   UNL     1      -8.287   8.431  73.821  1.00  0.00    -0.361 NA 
ENDBRANCH  11  12
ENDBRANCH   9  11
ENDBRANCH   5   9
BRANCH   8  29
HETATM   29  O   UNL     1      -9.498  11.338  63.976  1.00  0.00    -0.220 OA 
HETATM   30  C   UNL     1      -9.876  10.012  63.649  1.00  0.00     0.212 C  
ENDBRANCH   8  29
BRANCH   7  31
HETATM   31  O   UNL     1     -10.847  13.839  64.450  1.00  0.00    -0.395 OA 
HETATM   32  C   UNL     1     -11.721  13.329  63.459  1.00  0.00    -0.336 C  
ENDBRANCH   7  31
ENDBRANCH   2   3
TORSDOF 6
ENDMDL
MODEL      232
REMARK 921   NORMALIZED FREE ENERGY PREDICTED BY IDOCK:   -3.76 KCAL/MOL
REMARK 922        TOTAL FREE ENERGY PREDICTED BY IDOCK:   -5.93 KCAL/MOL
REMARK 923 INTER-LIGAND FREE ENERGY PREDICTED BY IDOCK:   -6.29 KCAL/MOL
REMARK 924 INTRA-LIGAND FREE ENERGY PREDICTED BY IDOCK:    0.36 KCAL/MOL
REMARK 927      BINDING AFFINITY PREDICTED BY RF-SCORE:    0.00 PKD
ROOT
HETATM    1  C   UNL     1      -8.521   4.881  65.975  1.00  0.00    -0.117 C  
HETATM    2  O   UNL     1      -8.465   4.746  67.393  1.00  0.00    -0.105 OA 
ENDROOT
BRANCH   2   3
HETATM    3  C   UNL     1      -8.816   5.850  68.131  1.00  0.00    -0.110 A  
HETATM    4  C   UNL     1      -8.321   7.121  67.789  1.00  0.00    -0.118 A  
HETATM    5  C   UNL     1      -8.674   8.271  68.493  1.00  0.00    -0.133 A  
HETATM    6  C   UNL     1      -9.516   8.111  69.589  1.00  0.00    -0.159 A  
HETATM    7  C   UNL     1      -9.716   5.710  69.211  1.00  0.00    -0.156 A  
HETATM    8  C   UNL     1     -10.060   6.864  69.944  1.00  0.00    -0.188 A  
BRANCH   5   9
HETATM    9  N   UNL     1      -8.054   9.481  68.156  1.00  0.00    -0.102 NA 
HETATM   10  H   UNL     1      -7.295   9.511  67.474  1.00  0.00     0.000 HD 
BRANCH   9  11
HETATM   11  C   UNL     1      -8.522  10.700  68.807  1.00  0.00    -0.149 C  
BRANCH  11  12
HETATM   12  C   UNL     1      -9.423  11.540  67.916  1.00  0.00    -0.178 A  
HETATM   13  C   UNL     1      -9.351  11.412  66.504  1.00  0.00    -0.204 A  
HETATM   14  H2  UNL     1     -10.037  10.190  63.850  1.00  0.00     0.000 HD 
HETATM   15  C   UNL     1     -10.265  12.152  65.656  1.00  0.00    -0.285 A  
HETATM   16  H1  UNL     1      -9.945  11.040  62.448  1.00  0.00     0.000 HD 
HETATM   17  C   UNL     1      -8.309  10.506  65.885  1.00  0.00    -0.161 C  
HETATM   18  C   UNL     1     -11.137  13.078  66.245  1.00  0.00    -0.289 A  
HETATM   19  N   UNL     1     -11.967  13.865  65.556  1.00  0.00    -0.363 NA 
HETATM   20  C   UNL     1     -11.175  13.193  67.622  1.00  0.00    -0.313 A  
HETATM   21  C   UNL     1     -10.359  12.428  68.454  1.00  0.00    -0.236 A  
HETATM   22  C   UNL     1     -11.977  13.740  64.234  1.00  0.00    -0.443 A  
HETATM   23  N   UNL     1     -11.283  12.838  63.551  1.00  0.00    -0.431 NA 
HETATM   24  N   UNL     1     -12.802  14.581  63.517  1.00  0.00    -0.490 NA 
HETATM   25  C   UNL     1     -10.446  12.063  64.255  1.00  0.00    -0.328 A  
HETATM   26  H2  UNL     1     -13.384  15.276  63.986  1.00  0.00     0.000 HD 
HETATM   27  H1  UNL     1     -12.809  14.485  62.503  1.00  0.00     0.000 HD 
HETATM   28  N   UNL     1      -9.815  11.104  63.457  1.00  0.00    -0.316 NA 
ENDBRANCH  11  12
ENDBRANCH   9  11
ENDBRANCH   5   9
BRANCH   8  29
HETATM   29  O   UNL     1     -10.888   6.986  71.034  1.00  0.00    -0.231 OA 
HETATM   30  C   UNL     1     -12.294   7.024  70.856  1.00  0.00    -0.314 C  
ENDBRANCH   8  29
BRANCH   7  31
HETATM   31  O   UNL     1     -10.283   4.539  69.639  1.00  0.00    -0.188 OA 
HETATM   32  C   UNL     1      -9.564   3.647  70.471  1.00  0.00    -0.186 C  
ENDBRANCH   7  31
ENDBRANCH   2   3
TORSDOF 6
ENDMDL
MODEL      233
REMARK 921   NORMALIZED FREE ENERGY PREDICTED BY IDOCK:   -3.75 KCAL/MOL
REMARK 922        TOTAL FREE ENERGY PREDICTED BY IDOCK:   -5.92 KCAL/MOL
REMARK 923 INTER-LIGAND FREE ENERGY PREDICTED BY IDOCK:   -5.68 KCAL/MOL
REMARK 924 INTRA-LIGAND FREE ENERGY PREDICTED BY IDOCK:   -0.24 KCAL/MOL
REMARK 927      BINDING AFFINITY PREDICTED BY RF-SCORE:    0.00 PKD
ROOT
HETATM    1  C   UNL     1     -12.364  12.914  63.674  1.00  0.00    -0.434 C  
HETATM    2  O   UNL     1     -12.838  13.625  64.816  1.00  0.00    -0.680 OA 
ENDROOT
BRANCH   2   3
HETATM    3  C   UNL     1     -12.060  13.560  65.947  1.00  0.00    -0.435 A  
HETATM    4  C   UNL     1     -11.965  12.362  66.676  1.00  0.00    -0.300 A  
HETATM    5  C   UNL     1     -11.166  12.244  67.813  1.00  0.00    -0.276 A  
HETATM    6  C   UNL     1     -10.486  13.384  68.232  1.00  0.00    -0.256 A  
HETATM    7  C   UNL     1     -11.319  14.694  66.350  1.00  0.00    -0.348 A  
HETATM    8  C   UNL     1     -10.527  14.591  67.512  1.00  0.00    -0.253 A  
BRANCH   5   9
HETATM    9  N   UNL     1     -11.208  11.050  68.544  1.00  0.00    -0.244 NA 
HETATM   10  H   UNL     1     -12.097  10.660  68.860  1.00  0.00     0.000 HD 
BRANCH   9  11
HETATM   11  C   UNL     1      -9.948  10.379  68.841  1.00  0.00    -0.199 C  
BRANCH  11  12
HETATM   12  C   UNL     1      -9.502   9.436  67.736  1.00  0.00    -0.152 A  
HETATM   13  C   UNL     1      -8.454   9.813  66.855  1.00  0.00    -0.120 A  
HETATM   14  H2  UNL     1      -5.590  10.094  66.005  1.00  0.00     0.000 HD 
HETATM   15  C   UNL     1      -7.972   8.885  65.852  1.00  0.00    -0.107 A  
HETATM   16  H1  UNL     1      -5.151  10.162  64.424  1.00  0.00     0.000 HD 
HETATM   17  C   UNL     1      -7.848  11.196  66.960  1.00  0.00    -0.142 C  
HETATM   18  C   UNL     1      -8.632   7.658  65.692  1.00  0.00    -0.123 A  
HETATM   19  N   UNL     1      -8.321   6.760  64.753  1.00  0.00    -0.050 NA 
HETATM   20  C   UNL     1      -9.659   7.323  66.554  1.00  0.00    -0.211 A  
HETATM   21  C   UNL     1     -10.078   8.173  67.576  1.00  0.00    -0.286 A  
HETATM   22  C   UNL     1      -7.309   7.044  63.942  1.00  0.00    -0.084 A  
HETATM   23  N   UNL     1      -6.533   8.116  64.042  1.00  0.00    -0.066 NA 
HETATM   24  N   UNL     1      -7.014   6.138  62.945  1.00  0.00    -0.043 NA 
HETATM   25  C   UNL     1      -6.864   9.014  64.981  1.00  0.00    -0.076 A  
HETATM   26  H2  UNL     1      -7.554   5.280  62.834  1.00  0.00     0.000 HD 
HETATM   27  H1  UNL     1      -6.237   6.356  62.322  1.00  0.00     0.000 HD 
HETATM   28  N   UNL     1      -5.949  10.068  65.051  1.00  0.00    -0.098 NA 
ENDBRANCH  11  12
ENDBRANCH   9  11
ENDBRANCH   5   9
BRANCH   8  29
HETATM   29  O   UNL     1      -9.740  15.544  68.113  1.00  0.00    -0.206 OA 
HETATM   30  C   UNL     1      -9.254  15.335  69.428  1.00  0.00    -0.233 C  
ENDBRANCH   8  29
BRANCH   7  31
HETATM   31  O   UNL     1     -11.308  15.911  65.725  1.00  0.00    -0.045 OA 
HETATM   32  C   UNL     1     -11.560  16.014  64.335  1.00  0.00    -0.212 C  
ENDBRANCH   7  31
ENDBRANCH   2   3
TORSDOF 6
ENDMDL
MODEL      234
REMARK 921   NORMALIZED FREE ENERGY PREDICTED BY IDOCK:   -3.75 KCAL/MOL
REMARK 922        TOTAL FREE ENERGY PREDICTED BY IDOCK:   -5.92 KCAL/MOL
REMARK 923 INTER-LIGAND FREE ENERGY PREDICTED BY IDOCK:   -4.87 KCAL/MOL
REMARK 924 INTRA-LIGAND FREE ENERGY PREDICTED BY IDOCK:   -1.05 KCAL/MOL
REMARK 927      BINDING AFFINITY PREDICTED BY RF-SCORE:    0.00 PKD
ROOT
HETATM    1  C   UNL     1     -11.962  10.908  69.991  1.00  0.00    -0.350 C  
HETATM    2  O   UNL     1     -11.877  12.247  69.505  1.00  0.00    -0.305 OA 
ENDROOT
BRANCH   2   3
HETATM    3  C   UNL     1     -10.817  12.535  68.680  1.00  0.00    -0.248 A  
HETATM    4  C   UNL     1      -9.665  11.730  68.695  1.00  0.00    -0.135 A  
HETATM    5  C   UNL     1      -8.578  11.971  67.856  1.00  0.00    -0.165 A  
HETATM    6  C   UNL     1      -8.658  13.078  67.015  1.00  0.00    -0.165 A  
HETATM    7  C   UNL     1     -10.909  13.622  67.781  1.00  0.00    -0.253 A  
HETATM    8  C   UNL     1      -9.805  13.887  66.944  1.00  0.00    -0.268 A  
BRANCH   5   9
HETATM    9  N   UNL     1      -7.426  11.189  68.007  1.00  0.00    -0.091 NA 
HETATM   10  H   UNL     1      -6.679  11.473  68.642  1.00  0.00     0.000 HD 
BRANCH   9  11
HETATM   11  C   UNL     1      -7.321   9.957  67.232  1.00  0.00    -0.087 C  
BRANCH  11  12
HETATM   12  C   UNL     1      -7.627   8.714  68.050  1.00  0.00    -0.098 A  
HETATM   13  C   UNL     1      -8.775   7.930  67.757  1.00  0.00    -0.127 A  
HETATM   14  H2  UNL     1     -10.305   5.788  66.317  1.00  0.00     0.000 HD 
HETATM   15  C   UNL     1      -9.025   6.700  68.482  1.00  0.00    -0.120 A  
HETATM   16  H1  UNL     1     -11.601   5.039  66.990  1.00  0.00     0.000 HD 
HETATM   17  C   UNL     1      -9.744   8.390  66.690  1.00  0.00    -0.320 C  
HETATM   18  C   UNL     1      -8.181   6.360  69.549  1.00  0.00    -0.118 A  
HETATM   19  N   UNL     1      -8.361   5.291  70.331  1.00  0.00    -0.109 NA 
HETATM   20  C   UNL     1      -7.080   7.149  69.822  1.00  0.00    -0.073 A  
HETATM   21  C   UNL     1      -6.782   8.290  69.080  1.00  0.00    -0.048 A  
HETATM   22  C   UNL     1      -9.389   4.497  70.059  1.00  0.00    -0.153 A  
HETATM   23  N   UNL     1     -10.205   4.639  69.023  1.00  0.00    -0.060 NA 
HETATM   24  N   UNL     1      -9.601   3.417  70.891  1.00  0.00    -0.167 NA 
HETATM   25  C   UNL     1     -10.021   5.721  68.254  1.00  0.00    -0.149 A  
HETATM   26  H2  UNL     1      -8.990   3.235  71.687  1.00  0.00     0.000 HD 
HETATM   27  H1  UNL     1     -10.390   2.807  70.682  1.00  0.00     0.000 HD 
HETATM   28  N   UNL     1     -10.884   5.744  67.155  1.00  0.00    -0.269 NA 
ENDBRANCH  11  12
ENDBRANCH   9  11
ENDBRANCH   5   9
BRANCH   8  29
HETATM   29  O   UNL     1      -9.642  14.883  66.012  1.00  0.00    -0.296 OA 
HETATM   30  C   UNL     1      -8.886  16.038  66.334  1.00  0.00    -0.328 C  
ENDBRANCH   8  29
BRANCH   7  31
HETATM   31  O   UNL     1     -11.974  14.471  67.653  1.00  0.00    -0.374 OA 
HETATM   32  C   UNL     1     -12.079  15.631  68.460  1.00  0.00     0.011 C  
ENDBRANCH   7  31
ENDBRANCH   2   3
TORSDOF 6
ENDMDL
MODEL      235
REMARK 921   NORMALIZED FREE ENERGY PREDICTED BY IDOCK:   -3.74 KCAL/MOL
REMARK 922        TOTAL FREE ENERGY PREDICTED BY IDOCK:   -5.91 KCAL/MOL
REMARK 923 INTER-LIGAND FREE ENERGY PREDICTED BY IDOCK:   -5.58 KCAL/MOL
REMARK 924 INTRA-LIGAND FREE ENERGY PREDICTED BY IDOCK:   -0.32 KCAL/MOL
REMARK 927      BINDING AFFINITY PREDICTED BY RF-SCORE:    0.00 PKD
ROOT
HETATM    1  C   UNL     1     -12.005  11.332  69.260  1.00  0.00    -0.342 C  
HETATM    2  O   UNL     1     -12.149  11.709  67.892  1.00  0.00    -0.613 OA 
ENDROOT
BRANCH   2   3
HETATM    3  C   UNL     1     -11.083  11.446  67.067  1.00  0.00    -0.303 A  
HETATM    4  C   UNL     1      -9.981  10.711  67.539  1.00  0.00    -0.201 A  
HETATM    5  C   UNL     1      -8.892  10.398  66.728  1.00  0.00    -0.130 A  
HETATM    6  C   UNL     1      -8.914  10.880  65.422  1.00  0.00    -0.209 A  
HETATM    7  C   UNL     1     -11.118  11.880  65.722  1.00  0.00    -0.317 A  
HETATM    8  C   UNL     1     -10.011  11.588  64.900  1.00  0.00    -0.259 A  
BRANCH   5   9
HETATM    9  N   UNL     1      -7.788   9.756  67.302  1.00  0.00    -0.099 NA 
HETATM   10  H   UNL     1      -7.637   9.775  68.312  1.00  0.00     0.000 HD 
BRANCH   9  11
HETATM   11  C   UNL     1      -6.859   9.060  66.420  1.00  0.00    -0.079 C  
BRANCH  11  12
HETATM   12  C   UNL     1      -7.450   7.799  65.810  1.00  0.00    -0.078 A  
HETATM   13  C   UNL     1      -7.940   6.763  66.647  1.00  0.00    -0.108 A  
HETATM   14  H2  UNL     1     -10.007   5.372  68.320  1.00  0.00     0.000 HD 
HETATM   15  C   UNL     1      -8.579   5.596  66.069  1.00  0.00    -0.137 A  
HETATM   16  H1  UNL     1      -9.982   3.748  68.567  1.00  0.00     0.000 HD 
HETATM   17  C   UNL     1      -7.784   6.874  68.148  1.00  0.00    -0.113 C  
HETATM   18  C   UNL     1      -8.600   5.458  64.674  1.00  0.00    -0.097 A  
HETATM   19  N   UNL     1      -9.094   4.392  64.037  1.00  0.00    -0.147 NA 
HETATM   20  C   UNL     1      -8.102   6.476  63.883  1.00  0.00    -0.025 A  
HETATM   21  C   UNL     1      -7.560   7.640  64.425  1.00  0.00    -0.107 A  
HETATM   22  C   UNL     1      -9.616   3.422  64.777  1.00  0.00    -0.159 A  
HETATM   23  N   UNL     1      -9.755   3.463  66.096  1.00  0.00    -0.044 NA 
HETATM   24  N   UNL     1     -10.088   2.302  64.124  1.00  0.00    -0.317 NA 
HETATM   25  C   UNL     1      -9.245   4.533  66.723  1.00  0.00    -0.132 A  
HETATM   26  H2  UNL     1     -10.038   2.222  63.108  1.00  0.00     0.000 HD 
HETATM   27  H1  UNL     1     -10.488   1.557  64.692  1.00  0.00     0.000 HD 
HETATM   28  N   UNL     1      -9.502   4.515  68.096  1.00  0.00    -0.141 NA 
ENDBRANCH  11  12
ENDBRANCH   9  11
ENDBRANCH   5   9
BRANCH   8  29
HETATM   29  O   UNL     1      -9.799  11.913  63.582  1.00  0.00    -0.334 OA 
HETATM   30  C   UNL     1      -9.283  10.942  62.687  1.00  0.00    -0.330 C  
ENDBRANCH   8  29
BRANCH   7  31
HETATM   31  O   UNL     1     -12.132  12.586  65.132  1.00  0.00    -0.417 OA 
HETATM   32  C   UNL     1     -12.775  12.097  63.968  1.00  0.00    -0.344 C  
ENDBRANCH   7  31
ENDBRANCH   2   3
TORSDOF 6
ENDMDL
MODEL      236
REMARK 921   NORMALIZED FREE ENERGY PREDICTED BY IDOCK:   -3.74 KCAL/MOL
REMARK 922        TOTAL FREE ENERGY PREDICTED BY IDOCK:   -5.90 KCAL/MOL
REMARK 923 INTER-LIGAND FREE ENERGY PREDICTED BY IDOCK:   -5.25 KCAL/MOL
REMARK 924 INTRA-LIGAND FREE ENERGY PREDICTED BY IDOCK:   -0.65 KCAL/MOL
REMARK 927      BINDING AFFINITY PREDICTED BY RF-SCORE:    0.00 PKD
ROOT
HETATM    1  C   UNL     1      -9.761   6.365  73.827  1.00  0.00    -0.193 C  
HETATM    2  O   UNL     1      -8.698   5.553  73.333  1.00  0.00    -0.116 OA 
ENDROOT
BRANCH   2   3
HETATM    3  C   UNL     1      -8.717   5.266  71.990  1.00  0.00    -0.130 A  
HETATM    4  C   UNL     1      -9.297   6.166  71.078  1.00  0.00    -0.176 A  
HETATM    5  C   UNL     1      -9.313   5.927  69.705  1.00  0.00    -0.140 A  
HETATM    6  C   UNL     1      -8.762   4.727  69.262  1.00  0.00    -0.106 A  
HETATM    7  C   UNL     1      -8.109   4.079  71.521  1.00  0.00    -0.077 A  
HETATM    8  C   UNL     1      -8.141   3.818  70.136  1.00  0.00    -0.046 A  
BRANCH   5   9
HETATM    9  N   UNL     1     -10.004   6.819  68.875  1.00  0.00    -0.151 NA 
HETATM   10  H   UNL     1     -10.072   6.655  67.870  1.00  0.00     0.000 HD 
BRANCH   9  11
HETATM   11  C   UNL     1     -10.624   7.989  69.486  1.00  0.00    -0.214 C  
BRANCH  11  12
HETATM   12  C   UNL     1     -10.570   9.222  68.598  1.00  0.00    -0.219 A  
HETATM   13  C   UNL     1     -11.105  10.455  69.054  1.00  0.00    -0.297 A  
HETATM   14  H2  UNL     1     -11.019  13.082  70.504  1.00  0.00     0.000 HD 
HETATM   15  C   UNL     1     -10.981  11.650  68.243  1.00  0.00    -0.273 A  
HETATM   16  H1  UNL     1     -11.980  14.344  70.079  1.00  0.00     0.000 HD 
HETATM   17  C   UNL     1     -11.815  10.517  70.389  1.00  0.00    -0.431 C  
HETATM   18  C   UNL     1     -10.430  11.542  66.958  1.00  0.00    -0.228 A  
HETATM   19  N   UNL     1     -10.336  12.561  66.099  1.00  0.00    -0.248 NA 
HETATM   20  C   UNL     1      -9.931  10.325  66.534  1.00  0.00    -0.280 A  
HETATM   21  C   UNL     1      -9.969   9.187  67.336  1.00  0.00    -0.262 A  
HETATM   22  C   UNL     1     -10.771  13.748  66.503  1.00  0.00    -0.284 A  
HETATM   23  N   UNL     1     -11.220  14.018  67.722  1.00  0.00    -0.270 NA 
HETATM   24  N   UNL     1     -10.714  14.791  65.602  1.00  0.00    -0.316 NA 
HETATM   25  C   UNL     1     -11.320  12.985  68.570  1.00  0.00    -0.288 A  
HETATM   26  H2  UNL     1     -10.350  14.656  64.659  1.00  0.00     0.000 HD 
HETATM   27  H1  UNL     1     -11.048  15.703  65.912  1.00  0.00     0.000 HD 
HETATM   28  N   UNL     1     -11.736  13.383  69.844  1.00  0.00    -0.290 NA 
ENDBRANCH  11  12
ENDBRANCH   9  11
ENDBRANCH   5   9
BRANCH   8  29
HETATM   29  O   UNL     1      -7.645   2.739  69.445  1.00  0.00    -0.044 OA 
HETATM   30  C   UNL     1      -8.392   2.175  68.381  1.00  0.00    -0.058 C  
ENDBRANCH   8  29
BRANCH   7  31
HETATM   31  O   UNL     1      -7.498   3.130  72.295  1.00  0.00    -0.049 OA 
HETATM   32  C   UNL     1      -8.254   2.116  72.932  1.00  0.00    -0.058 C  
ENDBRANCH   7  31
ENDBRANCH   2   3
TORSDOF 6
ENDMDL
MODEL      237
REMARK 921   NORMALIZED FREE ENERGY PREDICTED BY IDOCK:   -3.69 KCAL/MOL
REMARK 922        TOTAL FREE ENERGY PREDICTED BY IDOCK:   -5.84 KCAL/MOL
REMARK 923 INTER-LIGAND FREE ENERGY PREDICTED BY IDOCK:   -5.00 KCAL/MOL
REMARK 924 INTRA-LIGAND FREE ENERGY PREDICTED BY IDOCK:   -0.84 KCAL/MOL
REMARK 927      BINDING AFFINITY PREDICTED BY RF-SCORE:    0.00 PKD
ROOT
HETATM    1  C   UNL     1      -9.538  13.367  68.848  1.00  0.00     0.167 C  
HETATM    2  O   UNL     1     -10.714  12.650  68.481  1.00  0.00    -0.236 OA 
ENDROOT
BRANCH   2   3
HETATM    3  C   UNL     1     -10.646  11.907  67.327  1.00  0.00    -0.228 A  
HETATM    4  C   UNL     1     -10.261  10.555  67.373  1.00  0.00    -0.253 A  
HETATM    5  C   UNL     1     -10.206   9.758  66.230  1.00  0.00    -0.212 A  
HETATM    6  C   UNL     1     -10.511  10.367  65.016  1.00  0.00    -0.139 A  
HETATM    7  C   UNL     1     -11.009  12.497  66.095  1.00  0.00    -0.284 A  
HETATM    8  C   UNL     1     -10.933  11.705  64.931  1.00  0.00    -0.284 A  
BRANCH   5   9
HETATM    9  N   UNL     1      -9.711   8.453  66.345  1.00  0.00    -0.305 NA 
HETATM   10  H   UNL     1      -8.943   8.130  65.756  1.00  0.00     0.000 HD 
BRANCH   9  11
HETATM   11  C   UNL     1     -10.323   7.567  67.328  1.00  0.00    -0.296 C  
BRANCH  11  12
HETATM   12  C   UNL     1      -9.381   7.198  68.462  1.00  0.00    -0.136 A  
HETATM   13  C   UNL     1      -9.854   7.158  69.800  1.00  0.00    -0.173 A  
HETATM   14  H2  UNL     1     -11.151   5.878  72.185  1.00  0.00     0.000 HD 
HETATM   15  C   UNL     1      -8.980   6.727  70.873  1.00  0.00    -0.150 A  
HETATM   16  H1  UNL     1     -10.817   6.355  73.721  1.00  0.00     0.000 HD 
HETATM   17  C   UNL     1     -11.276   7.577  70.105  1.00  0.00    -0.213 C  
HETATM   18  C   UNL     1      -7.633   6.464  70.584  1.00  0.00    -0.103 A  
HETATM   19  N   UNL     1      -6.723   6.134  71.504  1.00  0.00    -0.054 NA 
HETATM   20  C   UNL     1      -7.195   6.525  69.274  1.00  0.00    -0.090 A  
HETATM   21  C   UNL     1      -8.046   6.858  68.222  1.00  0.00    -0.119 A  
HETATM   22  C   UNL     1      -7.132   6.028  72.763  1.00  0.00    -0.081 A  
HETATM   23  N   UNL     1      -8.391   6.148  73.165  1.00  0.00    -0.118 NA 
HETATM   24  N   UNL     1      -6.186   5.729  73.720  1.00  0.00    -0.062 NA 
HETATM   25  C   UNL     1      -9.291   6.491  72.233  1.00  0.00    -0.137 A  
HETATM   26  H2  UNL     1      -5.206   5.594  73.471  1.00  0.00     0.000 HD 
HETATM   27  H1  UNL     1      -6.499   5.647  74.687  1.00  0.00     0.000 HD 
HETATM   28  N   UNL     1     -10.593   6.525  72.741  1.00  0.00    -0.219 NA 
ENDBRANCH  11  12
ENDBRANCH   9  11
ENDBRANCH   5   9
BRANCH   8  29
HETATM   29  O   UNL     1     -11.209  12.047  63.629  1.00  0.00    -0.386 OA 
HETATM   30  C   UNL     1     -12.547  12.029  63.160  1.00  0.00    -0.220 C  
ENDBRANCH   8  29
BRANCH   7  31
HETATM   31  O   UNL     1     -11.415  13.792  65.912  1.00  0.00    -0.311 OA 
HETATM   32  C   UNL     1     -10.508  14.779  65.456  1.00  0.00    -0.359 C  
ENDBRANCH   7  31
ENDBRANCH   2   3
TORSDOF 6
ENDMDL
MODEL      238
REMARK 921   NORMALIZED FREE ENERGY PREDICTED BY IDOCK:   -3.66 KCAL/MOL
REMARK 922        TOTAL FREE ENERGY PREDICTED BY IDOCK:   -5.79 KCAL/MOL
REMARK 923 INTER-LIGAND FREE ENERGY PREDICTED BY IDOCK:   -5.14 KCAL/MOL
REMARK 924 INTRA-LIGAND FREE ENERGY PREDICTED BY IDOCK:   -0.66 KCAL/MOL
REMARK 927      BINDING AFFINITY PREDICTED BY RF-SCORE:    0.00 PKD
ROOT
HETATM    1  C   UNL     1     -12.113  14.106  66.263  1.00  0.00    -0.442 C  
HETATM    2  O   UNL     1     -11.054  15.058  66.336  1.00  0.00    -0.335 OA 
ENDROOT
BRANCH   2   3
HETATM    3  C   UNL     1     -10.002  14.746  67.164  1.00  0.00    -0.236 A  
HETATM    4  C   UNL     1      -9.607  13.408  67.337  1.00  0.00    -0.223 A  
HETATM    5  C   UNL     1      -8.529  13.049  68.144  1.00  0.00    -0.176 A  
HETATM    6  C   UNL     1      -7.870  14.075  68.817  1.00  0.00    -0.097 A  
HETATM    7  C   UNL     1      -9.289  15.783  67.807  1.00  0.00    -0.206 A  
HETATM    8  C   UNL     1      -8.212  15.428  68.644  1.00  0.00    -0.158 A  
BRANCH   5   9
HETATM    9  N   UNL     1      -8.265  11.689  68.349  1.00  0.00    -0.151 NA 
HETATM   10  H   UNL     1      -7.318  11.361  68.539  1.00  0.00     0.000 HD 
BRANCH   9  11
HETATM   11  C   UNL     1      -9.382  10.753  68.284  1.00  0.00    -0.161 C  
BRANCH  11  12
HETATM   12  C   UNL     1      -9.171   9.515  69.141  1.00  0.00    -0.163 A  
HETATM   13  C   UNL     1      -9.761   8.279  68.768  1.00  0.00    -0.160 A  
HETATM   14  H2  UNL     1      -9.889   5.663  67.303  1.00  0.00     0.000 HD 
HETATM   15  C   UNL     1      -9.495   7.080  69.538  1.00  0.00    -0.147 A  
HETATM   16  H1  UNL     1     -10.754   4.387  67.869  1.00  0.00     0.000 HD 
HETATM   17  C   UNL     1     -10.680   8.219  67.568  1.00  0.00    -0.217 C  
HETATM   18  C   UNL     1      -8.742   7.186  70.717  1.00  0.00    -0.147 A  
HETATM   19  N   UNL     1      -8.498   6.163  71.541  1.00  0.00    -0.127 NA 
HETATM   20  C   UNL     1      -8.192   8.406  71.064  1.00  0.00    -0.145 A  
HETATM   21  C   UNL     1      -8.372   9.549  70.287  1.00  0.00    -0.221 A  
HETATM   22  C   UNL     1      -8.982   4.974  71.204  1.00  0.00    -0.137 A  
HETATM   23  N   UNL     1      -9.622   4.707  70.072  1.00  0.00    -0.169 NA 
HETATM   24  N   UNL     1      -8.768   3.926  72.075  1.00  0.00    -0.099 NA 
HETATM   25  C   UNL     1      -9.869   5.744  69.261  1.00  0.00    -0.170 A  
HETATM   26  H2  UNL     1      -8.256   4.059  72.947  1.00  0.00     0.000 HD 
HETATM   27  H1  UNL     1      -9.139   3.012  71.816  1.00  0.00     0.000 HD 
HETATM   28  N   UNL     1     -10.484   5.350  68.069  1.00  0.00    -0.159 NA 
ENDBRANCH  11  12
ENDBRANCH   9  11
ENDBRANCH   5   9
BRANCH   8  29
HETATM   29  O   UNL     1      -7.385  16.237  69.386  1.00  0.00    -0.230 OA 
HETATM   30  C   UNL     1      -6.108  16.594  68.886  1.00  0.00    -0.154 C  
ENDBRANCH   8  29
BRANCH   7  31
HETATM   31  O   UNL     1      -9.557  17.122  67.712  1.00  0.00    -0.249 OA 
HETATM   32  C   UNL     1      -8.905  17.925  66.745  1.00  0.00    -0.258 C  
ENDBRANCH   7  31
ENDBRANCH   2   3
TORSDOF 6
ENDMDL
MODEL      239
REMARK 921   NORMALIZED FREE ENERGY PREDICTED BY IDOCK:   -3.65 KCAL/MOL
REMARK 922        TOTAL FREE ENERGY PREDICTED BY IDOCK:   -5.79 KCAL/MOL
REMARK 923 INTER-LIGAND FREE ENERGY PREDICTED BY IDOCK:   -6.17 KCAL/MOL
REMARK 924 INTRA-LIGAND FREE ENERGY PREDICTED BY IDOCK:    0.38 KCAL/MOL
REMARK 927      BINDING AFFINITY PREDICTED BY RF-SCORE:    0.00 PKD
ROOT
HETATM    1  C   UNL     1     -10.697  19.657  66.929  1.00  0.00    -0.453 C  
HETATM    2  O   UNL     1      -9.286  19.584  66.735  1.00  0.00    -0.321 OA 
ENDROOT
BRANCH   2   3
HETATM    3  C   UNL     1      -8.661  18.449  67.191  1.00  0.00    -0.262 A  
HETATM    4  C   UNL     1      -8.794  17.234  66.494  1.00  0.00    -0.290 A  
HETATM    5  C   UNL     1      -8.155  16.067  66.906  1.00  0.00    -0.247 A  
HETATM    6  C   UNL     1      -7.399  16.134  68.073  1.00  0.00    -0.138 A  
HETATM    7  C   UNL     1      -7.843  18.517  68.342  1.00  0.00    -0.310 A  
HETATM    8  C   UNL     1      -7.211  17.335  68.779  1.00  0.00    -0.245 A  
BRANCH   5   9
HETATM    9  N   UNL     1      -8.424  14.875  66.221  1.00  0.00    -0.349 NA 
HETATM   10  H   UNL     1      -7.727  14.455  65.605  1.00  0.00     0.000 HD 
BRANCH   9  11
HETATM   11  C   UNL     1      -9.728  14.250  66.411  1.00  0.00    -0.299 C  
BRANCH  11  12
HETATM   12  C   UNL     1      -9.709  12.750  66.168  1.00  0.00    -0.246 A  
HETATM   13  C   UNL     1      -8.904  11.906  66.978  1.00  0.00    -0.190 A  
HETATM   14  H2  UNL     1      -8.306  10.221  69.388  1.00  0.00     0.000 HD 
HETATM   15  C   UNL     1      -8.946  10.467  66.802  1.00  0.00    -0.149 A  
HETATM   16  H1  UNL     1      -7.221   8.989  69.345  1.00  0.00     0.000 HD 
HETATM   17  C   UNL     1      -7.993  12.514  68.021  1.00  0.00    -0.153 C  
HETATM   18  C   UNL     1      -9.702   9.936  65.748  1.00  0.00    -0.266 A  
HETATM   19  N   UNL     1      -9.753   8.635  65.448  1.00  0.00     0.243 NA 
HETATM   20  C   UNL     1     -10.464  10.783  64.965  1.00  0.00    -0.307 A  
HETATM   21  C   UNL     1     -10.497  12.160  65.176  1.00  0.00    -0.317 A  
HETATM   22  C   UNL     1      -9.062   7.800  66.214  1.00  0.00    -0.178 A  
HETATM   23  N   UNL     1      -8.387   8.149  67.302  1.00  0.00    -0.120 NA 
HETATM   24  N   UNL     1      -9.079   6.462  65.880  1.00  0.00    -0.311 NA 
HETATM   25  C   UNL     1      -8.335   9.459  67.584  1.00  0.00    -0.119 A  
HETATM   26  H2  UNL     1      -9.604   6.125  65.073  1.00  0.00     0.000 HD 
HETATM   27  H1  UNL     1      -8.548   5.820  66.468  1.00  0.00     0.000 HD 
HETATM   28  N   UNL     1      -7.661   9.716  68.781  1.00  0.00    -0.079 NA 
ENDBRANCH  11  12
ENDBRANCH   9  11
ENDBRANCH   5   9
BRANCH   8  29
HETATM   29  O   UNL     1      -6.394  17.139  69.866  1.00  0.00    -0.209 OA 
HETATM   30  C   UNL     1      -5.880  15.847  70.143  1.00  0.00    -0.157 C  
ENDBRANCH   8  29
BRANCH   7  31
HETATM   31  O   UNL     1      -7.615  19.634  69.100  1.00  0.00    -0.350 OA 
HETATM   32  C   UNL     1      -6.377  19.820  69.763  1.00  0.00    -0.352 C  
ENDBRANCH   7  31
ENDBRANCH   2   3
TORSDOF 6
ENDMDL
MODEL      240
REMARK 921   NORMALIZED FREE ENERGY PREDICTED BY IDOCK:   -3.65 KCAL/MOL
REMARK 922        TOTAL FREE ENERGY PREDICTED BY IDOCK:   -5.79 KCAL/MOL
REMARK 923 INTER-LIGAND FREE ENERGY PREDICTED BY IDOCK:   -4.97 KCAL/MOL
REMARK 924 INTRA-LIGAND FREE ENERGY PREDICTED BY IDOCK:   -0.82 KCAL/MOL
REMARK 927      BINDING AFFINITY PREDICTED BY RF-SCORE:    0.00 PKD
ROOT
HETATM    1  C   UNL     1      -9.849   5.035  70.741  1.00  0.00    -0.208 C  
HETATM    2  O   UNL     1      -8.656   5.591  70.192  1.00  0.00    -0.117 OA 
ENDROOT
BRANCH   2   3
HETATM    3  C   UNL     1      -8.731   6.052  68.900  1.00  0.00    -0.122 A  
HETATM    4  C   UNL     1      -9.429   7.237  68.607  1.00  0.00    -0.137 A  
HETATM    5  C   UNL     1      -9.506   7.755  67.315  1.00  0.00    -0.148 A  
HETATM    6  C   UNL     1      -8.892   7.026  66.301  1.00  0.00    -0.164 A  
HETATM    7  C   UNL     1      -8.063   5.352  67.869  1.00  0.00    -0.100 A  
HETATM    8  C   UNL     1      -8.155   5.856  66.556  1.00  0.00    -0.102 A  
BRANCH   5   9
HETATM    9  N   UNL     1     -10.309   8.881  67.089  1.00  0.00    -0.271 NA 
HETATM   10  H   UNL     1     -11.130   9.063  67.667  1.00  0.00     0.000 HD 
BRANCH   9  11
HETATM   11  C   UNL     1      -9.941   9.784  66.005  1.00  0.00    -0.272 C  
BRANCH  11  12
HETATM   12  C   UNL     1      -9.451  11.135  66.499  1.00  0.00    -0.215 A  
HETATM   13  C   UNL     1     -10.322  12.256  66.499  1.00  0.00    -0.250 A  
HETATM   14  H2  UNL     1     -12.438  14.051  67.643  1.00  0.00     0.000 HD 
HETATM   15  C   UNL     1      -9.884  13.524  67.045  1.00  0.00    -0.251 A  
HETATM   16  H1  UNL     1     -12.554  15.636  67.230  1.00  0.00     0.000 HD 
HETATM   17  C   UNL     1     -11.713  12.123  65.916  1.00  0.00    -0.393 C  
HETATM   18  C   UNL     1      -8.552  13.656  67.465  1.00  0.00    -0.197 A  
HETATM   19  N   UNL     1      -8.021  14.797  67.914  1.00  0.00    -0.130 NA 
HETATM   20  C   UNL     1      -7.720  12.553  67.440  1.00  0.00    -0.167 A  
HETATM   21  C   UNL     1      -8.154  11.306  66.994  1.00  0.00    -0.149 A  
HETATM   22  C   UNL     1      -8.814  15.858  67.986  1.00  0.00    -0.178 A  
HETATM   23  N   UNL     1     -10.115  15.854  67.720  1.00  0.00    -0.241 NA 
HETATM   24  N   UNL     1      -8.257  17.047  68.409  1.00  0.00    -0.240 NA 
HETATM   25  C   UNL     1     -10.632  14.706  67.260  1.00  0.00    -0.284 A  
HETATM   26  H2  UNL     1      -7.270  17.109  68.658  1.00  0.00     0.000 HD 
HETATM   27  H1  UNL     1      -8.867  17.862  68.464  1.00  0.00     0.000 HD 
HETATM   28  N   UNL     1     -12.015  14.785  67.075  1.00  0.00    -0.294 NA 
ENDBRANCH  11  12
ENDBRANCH   9  11
ENDBRANCH   5   9
BRANCH   8  29
HETATM   29  O   UNL     1      -7.620   5.355  65.394  1.00  0.00    -0.076 OA 
HETATM   30  C   UNL     1      -8.474   4.873  64.370  1.00  0.00    -0.137 C  
ENDBRANCH   8  29
BRANCH   7  31
HETATM   31  O   UNL     1      -7.338   4.201  68.019  1.00  0.00    -0.063 OA 
HETATM   32  C   UNL     1      -7.970   2.934  67.969  1.00  0.00    -0.062 C  
ENDBRANCH   7  31
ENDBRANCH   2   3
TORSDOF 6
ENDMDL
MODEL      241
REMARK 921   NORMALIZED FREE ENERGY PREDICTED BY IDOCK:   -3.62 KCAL/MOL
REMARK 922        TOTAL FREE ENERGY PREDICTED BY IDOCK:   -5.75 KCAL/MOL
REMARK 923 INTER-LIGAND FREE ENERGY PREDICTED BY IDOCK:   -5.00 KCAL/MOL
REMARK 924 INTRA-LIGAND FREE ENERGY PREDICTED BY IDOCK:   -0.75 KCAL/MOL
REMARK 927      BINDING AFFINITY PREDICTED BY RF-SCORE:    0.00 PKD
ROOT
HETATM    1  C   UNL     1      -7.782  15.759  68.816  1.00  0.00    -0.177 C  
HETATM    2  O   UNL     1      -8.952  15.452  68.061  1.00  0.00    -0.169 OA 
ENDROOT
BRANCH   2   3
HETATM    3  C   UNL     1      -9.471  14.190  68.218  1.00  0.00    -0.211 A  
HETATM    4  C   UNL     1      -8.699  13.059  67.897  1.00  0.00    -0.189 A  
HETATM    5  C   UNL     1      -9.176  11.760  68.067  1.00  0.00    -0.181 A  
HETATM    6  C   UNL     1     -10.479  11.618  68.536  1.00  0.00    -0.236 A  
HETATM    7  C   UNL     1     -10.771  14.030  68.748  1.00  0.00    -0.259 A  
HETATM    8  C   UNL     1     -11.271  12.721  68.901  1.00  0.00    -0.283 A  
BRANCH   5   9
HETATM    9  N   UNL     1      -8.387  10.691  67.623  1.00  0.00    -0.114 NA 
HETATM   10  H   UNL     1      -7.676  10.278  68.228  1.00  0.00     0.000 HD 
BRANCH   9  11
HETATM   11  C   UNL     1      -8.609  10.184  66.274  1.00  0.00    -0.131 C  
BRANCH  11  12
HETATM   12  C   UNL     1      -8.952   8.703  66.245  1.00  0.00    -0.211 A  
HETATM   13  C   UNL     1      -8.271   7.829  65.359  1.00  0.00    -0.140 A  
HETATM   14  H2  UNL     1      -6.037   6.006  64.525  1.00  0.00     0.000 HD 
HETATM   15  C   UNL     1      -8.539   6.405  65.386  1.00  0.00    -0.088 A  
HETATM   16  H1  UNL     1      -6.253   4.808  63.424  1.00  0.00     0.000 HD 
HETATM   17  C   UNL     1      -7.268   8.391  64.375  1.00  0.00    -0.087 C  
HETATM   18  C   UNL     1      -9.560   5.924  66.218  1.00  0.00    -0.119 A  
HETATM   19  N   UNL     1      -9.941   4.645  66.269  1.00  0.00    -0.223 NA 
HETATM   20  C   UNL     1     -10.218   6.801  67.060  1.00  0.00    -0.304 A  
HETATM   21  C   UNL     1      -9.913   8.160  67.103  1.00  0.00    -0.304 A  
HETATM   22  C   UNL     1      -9.293   3.779  65.499  1.00  0.00    -0.160 A  
HETATM   23  N   UNL     1      -8.244   4.074  64.742  1.00  0.00    -0.096 NA 
HETATM   24  N   UNL     1      -9.713   2.466  65.518  1.00  0.00    -0.340 NA 
HETATM   25  C   UNL     1      -7.879   5.363  64.692  1.00  0.00    -0.105 A  
HETATM   26  H2  UNL     1     -10.495   2.169  66.103  1.00  0.00     0.000 HD 
HETATM   27  H1  UNL     1      -9.216   1.801  64.927  1.00  0.00     0.000 HD 
HETATM   28  N   UNL     1      -6.728   5.558  63.925  1.00  0.00    -0.037 NA 
ENDBRANCH  11  12
ENDBRANCH   9  11
ENDBRANCH   5   9
BRANCH   8  29
HETATM   29  O   UNL     1     -12.495  12.308  69.369  1.00  0.00     0.001 OA 
HETATM   30  C   UNL     1     -12.637  11.897  70.718  1.00  0.00    -0.234 C  
ENDBRANCH   8  29
BRANCH   7  31
HETATM   31  O   UNL     1     -11.619  15.041  69.116  1.00  0.00    -0.278 OA 
HETATM   32  C   UNL     1     -11.707  15.458  70.466  1.00  0.00    -0.325 C  
ENDBRANCH   7  31
ENDBRANCH   2   3
TORSDOF 6
ENDMDL
MODEL      242
REMARK 921   NORMALIZED FREE ENERGY PREDICTED BY IDOCK:   -3.61 KCAL/MOL
REMARK 922        TOTAL FREE ENERGY PREDICTED BY IDOCK:   -5.73 KCAL/MOL
REMARK 923 INTER-LIGAND FREE ENERGY PREDICTED BY IDOCK:   -4.96 KCAL/MOL
REMARK 924 INTRA-LIGAND FREE ENERGY PREDICTED BY IDOCK:   -0.77 KCAL/MOL
REMARK 927      BINDING AFFINITY PREDICTED BY RF-SCORE:    0.00 PKD
ROOT
HETATM    1  C   UNL     1      -6.610  14.954  69.972  1.00  0.00    -0.162 C  
HETATM    2  O   UNL     1      -7.690  15.724  69.447  1.00  0.00    -0.219 OA 
ENDROOT
BRANCH   2   3
HETATM    3  C   UNL     1      -8.387  15.171  68.401  1.00  0.00    -0.154 A  
HETATM    4  C   UNL     1      -8.075  13.880  67.942  1.00  0.00    -0.158 A  
HETATM    5  C   UNL     1      -8.775  13.270  66.902  1.00  0.00    -0.142 A  
HETATM    6  C   UNL     1      -9.786  14.012  66.296  1.00  0.00    -0.311 A  
HETATM    7  C   UNL     1      -9.454  15.891  67.815  1.00  0.00    -0.216 A  
HETATM    8  C   UNL     1     -10.152  15.292  66.747  1.00  0.00    -0.258 A  
BRANCH   5   9
HETATM    9  N   UNL     1      -8.334  12.026  66.432  1.00  0.00    -0.391 NA 
HETATM   10  H   UNL     1      -8.651  11.663  65.533  1.00  0.00     0.000 HD 
BRANCH   9  11
HETATM   11  C   UNL     1      -7.409  11.264  67.263  1.00  0.00    -0.122 C  
BRANCH  11  12
HETATM   12  C   UNL     1      -8.090  10.153  68.044  1.00  0.00    -0.112 A  
HETATM   13  C   UNL     1      -7.825   8.794  67.731  1.00  0.00    -0.102 A  
HETATM   14  H2  UNL     1      -6.297   6.216  67.900  1.00  0.00     0.000 HD 
HETATM   15  C   UNL     1      -8.410   7.732  68.527  1.00  0.00    -0.129 A  
HETATM   16  H1  UNL     1      -7.005   4.762  67.618  1.00  0.00     0.000 HD 
HETATM   17  C   UNL     1      -6.936   8.455  66.555  1.00  0.00    -0.071 C  
HETATM   18  C   UNL     1      -9.329   8.068  69.532  1.00  0.00    -0.156 A  
HETATM   19  N   UNL     1      -9.983   7.170  70.274  1.00  0.00    -0.186 NA 
HETATM   20  C   UNL     1      -9.580   9.399  69.805  1.00  0.00    -0.216 A  
HETATM   21  C   UNL     1      -8.961  10.431  69.102  1.00  0.00    -0.188 A  
HETATM   22  C   UNL     1      -9.724   5.887  70.057  1.00  0.00    -0.167 A  
HETATM   23  N   UNL     1      -8.808   5.429  69.213  1.00  0.00    -0.101 NA 
HETATM   24  N   UNL     1     -10.430   4.957  70.792  1.00  0.00    -0.157 NA 
HETATM   25  C   UNL     1      -8.168   6.340  68.466  1.00  0.00    -0.112 A  
HETATM   26  H2  UNL     1     -11.127   5.246  71.480  1.00  0.00     0.000 HD 
HETATM   27  H1  UNL     1     -10.232   3.972  70.625  1.00  0.00     0.000 HD 
HETATM   28  N   UNL     1      -7.180   5.765  67.662  1.00  0.00    -0.074 NA 
ENDBRANCH  11  12
ENDBRANCH   9  11
ENDBRANCH   5   9
BRANCH   8  29
HETATM   29  O   UNL     1     -11.199  15.788  66.008  1.00  0.00    -0.160 OA 
HETATM   30  C   UNL     1     -11.192  15.663  64.596  1.00  0.00    -0.369 C  
ENDBRANCH   8  29
BRANCH   7  31
HETATM   31  O   UNL     1      -9.871  17.144  68.176  1.00  0.00    -0.260 OA 
HETATM   32  C   UNL     1      -9.225  18.298  67.666  1.00  0.00    -0.267 C  
ENDBRANCH   7  31
ENDBRANCH   2   3
TORSDOF 6
ENDMDL
MODEL      243
REMARK 921   NORMALIZED FREE ENERGY PREDICTED BY IDOCK:   -3.59 KCAL/MOL
REMARK 922        TOTAL FREE ENERGY PREDICTED BY IDOCK:   -5.70 KCAL/MOL
REMARK 923 INTER-LIGAND FREE ENERGY PREDICTED BY IDOCK:   -5.06 KCAL/MOL
REMARK 924 INTRA-LIGAND FREE ENERGY PREDICTED BY IDOCK:   -0.63 KCAL/MOL
REMARK 927      BINDING AFFINITY PREDICTED BY RF-SCORE:    0.00 PKD
ROOT
HETATM    1  C   UNL     1      -9.690   6.416  73.771  1.00  0.00    -0.193 C  
HETATM    2  O   UNL     1      -8.727   5.727  72.976  1.00  0.00    -0.124 OA 
ENDROOT
BRANCH   2   3
HETATM    3  C   UNL     1      -8.901   5.781  71.615  1.00  0.00    -0.136 A  
HETATM    4  C   UNL     1      -9.396   6.948  71.006  1.00  0.00    -0.156 A  
HETATM    5  C   UNL     1      -9.562   7.055  69.626  1.00  0.00    -0.150 A  
HETATM    6  C   UNL     1      -9.254   5.933  68.861  1.00  0.00    -0.126 A  
HETATM    7  C   UNL     1      -8.538   4.670  70.820  1.00  0.00    -0.097 A  
HETATM    8  C   UNL     1      -8.724   4.760  69.426  1.00  0.00    -0.083 A  
BRANCH   5   9
HETATM    9  N   UNL     1     -10.160   8.211  69.108  1.00  0.00    -0.197 NA 
HETATM   10  H   UNL     1     -10.509   8.236  68.150  1.00  0.00     0.000 HD 
BRANCH   9  11
HETATM   11  C   UNL     1     -10.271   9.378  69.977  1.00  0.00    -0.229 C  
BRANCH  11  12
HETATM   12  C   UNL     1     -10.459  10.674  69.206  1.00  0.00    -0.252 A  
HETATM   13  C   UNL     1      -9.330  11.405  68.751  1.00  0.00    -0.115 A  
HETATM   14  H2  UNL     1      -7.134  12.084  66.822  1.00  0.00     0.000 HD 
HETATM   15  C   UNL     1      -9.507  12.598  67.946  1.00  0.00    -0.204 A  
HETATM   16  H1  UNL     1      -6.472  13.585  66.746  1.00  0.00     0.000 HD 
HETATM   17  C   UNL     1      -7.938  10.938  69.116  1.00  0.00    -0.114 C  
HETATM   18  C   UNL     1     -10.805  13.079  67.726  1.00  0.00    -0.240 A  
HETATM   19  N   UNL     1     -11.080  14.207  67.065  1.00  0.00    -0.300 NA 
HETATM   20  C   UNL     1     -11.886  12.356  68.195  1.00  0.00    -0.372 A  
HETATM   21  C   UNL     1     -11.732  11.163  68.899  1.00  0.00    -0.406 A  
HETATM   22  C   UNL     1     -10.058  14.894  66.569  1.00  0.00    -0.271 A  
HETATM   23  N   UNL     1      -8.790  14.506  66.613  1.00  0.00    -0.222 NA 
HETATM   24  N   UNL     1     -10.337  16.080  65.924  1.00  0.00    -0.349 NA 
HETATM   25  C   UNL     1      -8.527  13.379  67.290  1.00  0.00    -0.200 A  
HETATM   26  H2  UNL     1     -11.295  16.418  65.830  1.00  0.00     0.000 HD 
HETATM   27  H1  UNL     1      -9.553  16.608  65.543  1.00  0.00     0.000 HD 
HETATM   28  N   UNL     1      -7.178  13.022  67.219  1.00  0.00    -0.105 NA 
ENDBRANCH  11  12
ENDBRANCH   9  11
ENDBRANCH   5   9
BRANCH   8  29
HETATM   29  O   UNL     1      -8.470   3.822  68.453  1.00  0.00    -0.088 OA 
HETATM   30  C   UNL     1      -9.388   3.640  67.389  1.00  0.00    -0.203 C  
ENDBRANCH   8  29
BRANCH   7  31
HETATM   31  O   UNL     1      -8.031   3.484  71.281  1.00  0.00    -0.058 OA 
HETATM   32  C   UNL     1      -8.888   2.481  71.796  1.00  0.00    -0.075 C  
ENDBRANCH   7  31
ENDBRANCH   2   3
TORSDOF 6
ENDMDL
MODEL      244
REMARK 921   NORMALIZED FREE ENERGY PREDICTED BY IDOCK:   -3.59 KCAL/MOL
REMARK 922        TOTAL FREE ENERGY PREDICTED BY IDOCK:   -5.70 KCAL/MOL
REMARK 923 INTER-LIGAND FREE ENERGY PREDICTED BY IDOCK:   -5.43 KCAL/MOL
REMARK 924 INTRA-LIGAND FREE ENERGY PREDICTED BY IDOCK:   -0.27 KCAL/MOL
REMARK 927      BINDING AFFINITY PREDICTED BY RF-SCORE:    0.00 PKD
ROOT
HETATM    1  C   UNL     1     -10.146   4.520  66.977  1.00  0.00    -0.138 C  
HETATM    2  O   UNL     1     -10.250   5.760  66.280  1.00  0.00    -0.153 OA 
ENDROOT
BRANCH   2   3
HETATM    3  C   UNL     1      -9.915   6.891  66.983  1.00  0.00    -0.197 A  
HETATM    4  C   UNL     1      -8.993   7.811  66.453  1.00  0.00    -0.196 A  
HETATM    5  C   UNL     1      -8.647   8.985  67.121  1.00  0.00    -0.116 A  
HETATM    6  C   UNL     1      -9.223   9.200  68.369  1.00  0.00    -0.132 A  
HETATM    7  C   UNL     1     -10.537   7.150  68.226  1.00  0.00    -0.188 A  
HETATM    8  C   UNL     1     -10.174   8.323  68.919  1.00  0.00    -0.210 A  
BRANCH   5   9
HETATM    9  N   UNL     1      -7.642   9.796  66.577  1.00  0.00    -0.098 NA 
HETATM   10  H   UNL     1      -6.657   9.546  66.673  1.00  0.00     0.000 HD 
BRANCH   9  11
HETATM   11  C   UNL     1      -8.041  11.008  65.870  1.00  0.00    -0.075 C  
BRANCH  11  12
HETATM   12  C   UNL     1      -8.516  12.110  66.802  1.00  0.00    -0.138 A  
HETATM   13  C   UNL     1      -9.756  12.760  66.567  1.00  0.00    -0.255 A  
HETATM   14  H2  UNL     1     -12.733  13.083  66.764  1.00  0.00     0.000 HD 
HETATM   15  C   UNL     1     -10.250  13.754  67.499  1.00  0.00    -0.241 A  
HETATM   16  H1  UNL     1     -13.460  14.553  66.673  1.00  0.00     0.000 HD 
HETATM   17  C   UNL     1     -10.559  12.418  65.331  1.00  0.00    -0.316 C  
HETATM   18  C   UNL     1      -9.431  14.143  68.569  1.00  0.00    -0.202 A  
HETATM   19  N   UNL     1      -9.752  15.100  69.445  1.00  0.00    -0.222 NA 
HETATM   20  C   UNL     1      -8.221  13.504  68.766  1.00  0.00     0.044 A  
HETATM   21  C   UNL     1      -7.773  12.489  67.924  1.00  0.00    -0.138 A  
HETATM   22  C   UNL     1     -10.929  15.697  69.299  1.00  0.00    -0.267 A  
HETATM   23  N   UNL     1     -11.844  15.362  68.398  1.00  0.00    -0.313 NA 
HETATM   24  N   UNL     1     -11.243  16.715  70.175  1.00  0.00    -0.435 NA 
HETATM   25  C   UNL     1     -11.504  14.409  67.519  1.00  0.00    -0.349 A  
HETATM   26  H2  UNL     1     -10.595  16.999  70.910  1.00  0.00     0.000 HD 
HETATM   27  H1  UNL     1     -12.147  17.173  70.063  1.00  0.00     0.000 HD 
HETATM   28  N   UNL     1     -12.556  14.082  66.659  1.00  0.00    -0.260 NA 
ENDBRANCH  11  12
ENDBRANCH   9  11
ENDBRANCH   5   9
BRANCH   8  29
HETATM   29  O   UNL     1     -10.615   8.783  70.137  1.00  0.00    -0.211 OA 
HETATM   30  C   UNL     1     -11.754   9.624  70.206  1.00  0.00    -0.155 C  
ENDBRANCH   8  29
BRANCH   7  31
HETATM   31  O   UNL     1     -11.459   6.349  68.845  1.00  0.00    -0.314 OA 
HETATM   32  C   UNL     1     -11.167   5.734  70.087  1.00  0.00    -0.149 C  
ENDBRANCH   7  31
ENDBRANCH   2   3
TORSDOF 6
ENDMDL
MODEL      245
REMARK 921   NORMALIZED FREE ENERGY PREDICTED BY IDOCK:   -3.57 KCAL/MOL
REMARK 922        TOTAL FREE ENERGY PREDICTED BY IDOCK:   -5.67 KCAL/MOL
REMARK 923 INTER-LIGAND FREE ENERGY PREDICTED BY IDOCK:   -5.52 KCAL/MOL
REMARK 924 INTRA-LIGAND FREE ENERGY PREDICTED BY IDOCK:   -0.15 KCAL/MOL
REMARK 927      BINDING AFFINITY PREDICTED BY RF-SCORE:    0.00 PKD
ROOT
HETATM    1  C   UNL     1     -12.813  13.442  65.101  1.00  0.00    -0.316 C  
HETATM    2  O   UNL     1     -12.184  14.691  64.823  1.00  0.00    -0.423 OA 
ENDROOT
BRANCH   2   3
HETATM    3  C   UNL     1     -10.997  14.939  65.470  1.00  0.00    -0.350 A  
HETATM    4  C   UNL     1     -10.337  13.910  66.164  1.00  0.00    -0.303 A  
HETATM    5  C   UNL     1      -9.118  14.111  66.810  1.00  0.00    -0.247 A  
HETATM    6  C   UNL     1      -8.588  15.397  66.779  1.00  0.00    -0.308 A  
HETATM    7  C   UNL     1     -10.418  16.226  65.397  1.00  0.00    -0.343 A  
HETATM    8  C   UNL     1      -9.198  16.445  66.068  1.00  0.00    -0.293 A  
BRANCH   5   9
HETATM    9  N   UNL     1      -8.579  13.064  67.569  1.00  0.00    -0.180 NA 
HETATM   10  H   UNL     1      -8.241  13.224  68.518  1.00  0.00     0.000 HD 
BRANCH   9  11
HETATM   11  C   UNL     1      -8.514  11.738  66.966  1.00  0.00    -0.175 C  
BRANCH  11  12
HETATM   12  C   UNL     1      -8.800  10.620  67.955  1.00  0.00    -0.130 A  
HETATM   13  C   UNL     1      -7.731   9.952  68.608  1.00  0.00    -0.081 A  
HETATM   14  H2  UNL     1      -5.672   9.580  70.759  1.00  0.00     0.000 HD 
HETATM   15  C   UNL     1      -8.004   8.943  69.612  1.00  0.00    -0.092 A  
HETATM   16  H1  UNL     1      -5.084   8.099  71.158  1.00  0.00     0.000 HD 
HETATM   17  C   UNL     1      -6.302  10.291  68.245  1.00  0.00    -0.048 C  
HETATM   18  C   UNL     1      -9.332   8.558  69.842  1.00  0.00    -0.159 A  
HETATM   19  N   UNL     1      -9.693   7.589  70.688  1.00  0.00    -0.175 NA 
HETATM   20  C   UNL     1     -10.353   9.215  69.181  1.00  0.00    -0.223 A  
HETATM   21  C   UNL     1     -10.109  10.244  68.274  1.00  0.00    -0.176 A  
HETATM   22  C   UNL     1      -8.731   6.975  71.365  1.00  0.00    -0.125 A  
HETATM   23  N   UNL     1      -7.445   7.302  71.324  1.00  0.00    -0.078 NA 
HETATM   24  N   UNL     1      -9.097   5.945  72.207  1.00  0.00    -0.142 NA 
HETATM   25  C   UNL     1      -7.096   8.268  70.463  1.00  0.00    -0.037 A  
HETATM   26  H2  UNL     1     -10.073   5.666  72.306  1.00  0.00     0.000 HD 
HETATM   27  H1  UNL     1      -8.358   5.473  72.727  1.00  0.00     0.000 HD 
HETATM   28  N   UNL     1      -5.738   8.586  70.545  1.00  0.00    -0.028 NA 
ENDBRANCH  11  12
ENDBRANCH   9  11
ENDBRANCH   5   9
BRANCH   8  29
HETATM   29  O   UNL     1      -8.454  17.597  66.163  1.00  0.00    -0.441 OA 
HETATM   30  C   UNL     1      -7.648  17.827  67.306  1.00  0.00    -0.201 C  
ENDBRANCH   8  29
BRANCH   7  31
HETATM   31  O   UNL     1     -10.945  17.308  64.744  1.00  0.00    -0.950 OA 
HETATM   32  C   UNL     1     -10.951  18.588  65.351  1.00  0.00     0.502 C  
ENDBRANCH   7  31
ENDBRANCH   2   3
TORSDOF 6
ENDMDL
MODEL      246
REMARK 921   NORMALIZED FREE ENERGY PREDICTED BY IDOCK:   -3.55 KCAL/MOL
REMARK 922        TOTAL FREE ENERGY PREDICTED BY IDOCK:   -5.65 KCAL/MOL
REMARK 923 INTER-LIGAND FREE ENERGY PREDICTED BY IDOCK:   -4.99 KCAL/MOL
REMARK 924 INTRA-LIGAND FREE ENERGY PREDICTED BY IDOCK:   -0.66 KCAL/MOL
REMARK 927      BINDING AFFINITY PREDICTED BY RF-SCORE:    0.00 PKD
ROOT
HETATM    1  C   UNL     1      -5.262  11.214  71.000  1.00  0.00    -0.114 C  
HETATM    2  O   UNL     1      -5.412  10.331  69.891  1.00  0.00    -0.037 OA 
ENDROOT
BRANCH   2   3
HETATM    3  C   UNL     1      -6.674  10.222  69.358  1.00  0.00    -0.063 A  
HETATM    4  C   UNL     1      -7.129  11.157  68.412  1.00  0.00    -0.076 A  
HETATM    5  C   UNL     1      -8.391  11.068  67.825  1.00  0.00    -0.118 A  
HETATM    6  C   UNL     1      -9.215  10.028  68.246  1.00  0.00    -0.129 A  
HETATM    7  C   UNL     1      -7.499   9.137  69.733  1.00  0.00    -0.069 A  
HETATM    8  C   UNL     1      -8.786   9.053  69.163  1.00  0.00    -0.135 A  
BRANCH   5   9
HETATM    9  N   UNL     1      -8.810  12.098  66.973  1.00  0.00    -0.197 NA 
HETATM   10  H   UNL     1      -8.299  12.308  66.114  1.00  0.00     0.000 HD 
BRANCH   9  11
HETATM   11  C   UNL     1      -9.995  12.861  67.345  1.00  0.00    -0.217 C  
BRANCH  11  12
HETATM   12  C   UNL     1      -9.904  14.327  66.955  1.00  0.00    -0.264 A  
HETATM   13  C   UNL     1      -9.417  15.285  67.883  1.00  0.00    -0.197 A  
HETATM   14  H2  UNL     1      -7.288  16.860  69.295  1.00  0.00     0.000 HD 
HETATM   15  C   UNL     1      -9.252  16.669  67.487  1.00  0.00    -0.207 A  
HETATM   16  H1  UNL     1      -7.585  18.336  69.951  1.00  0.00     0.000 HD 
HETATM   17  C   UNL     1      -9.079  14.856  69.294  1.00  0.00    -0.097 C  
HETATM   18  C   UNL     1      -9.688  17.066  66.215  1.00  0.00    -0.283 A  
HETATM   19  N   UNL     1      -9.653  18.327  65.774  1.00  0.00    -0.422 NA 
HETATM   20  C   UNL     1     -10.172  16.116  65.336  1.00  0.00    -0.294 A  
HETATM   21  C   UNL     1     -10.259  14.767  65.676  1.00  0.00    -0.382 A  
HETATM   22  C   UNL     1      -9.152  19.249  66.587  1.00  0.00    -0.338 A  
HETATM   23  N   UNL     1      -8.611  19.002  67.773  1.00  0.00    -0.292 NA 
HETATM   24  N   UNL     1      -9.154  20.557  66.150  1.00  0.00    -0.584 NA 
HETATM   25  C   UNL     1      -8.663  17.735  68.208  1.00  0.00    -0.277 A  
HETATM   26  H2  UNL     1      -9.528  20.808  65.234  1.00  0.00     0.000 HD 
HETATM   27  H1  UNL     1      -8.770  21.265  66.774  1.00  0.00     0.000 HD 
HETATM   28  N   UNL     1      -8.009  17.568  69.432  1.00  0.00     0.173 NA 
ENDBRANCH  11  12
ENDBRANCH   9  11
ENDBRANCH   5   9
BRANCH   8  29
HETATM   29  O   UNL     1      -9.770   8.118  69.377  1.00  0.00    -0.167 OA 
HETATM   30  C   UNL     1     -11.075   8.535  69.742  1.00  0.00    -0.062 C  
ENDBRANCH   8  29
BRANCH   7  31
HETATM   31  O   UNL     1      -7.175   8.153  70.627  1.00  0.00    -0.050 OA 
HETATM   32  C   UNL     1      -7.123   8.423  72.017  1.00  0.00    -0.093 C  
ENDBRANCH   7  31
ENDBRANCH   2   3
TORSDOF 6
ENDMDL
MODEL      247
REMARK 921   NORMALIZED FREE ENERGY PREDICTED BY IDOCK:   -3.54 KCAL/MOL
REMARK 922        TOTAL FREE ENERGY PREDICTED BY IDOCK:   -5.64 KCAL/MOL
REMARK 923 INTER-LIGAND FREE ENERGY PREDICTED BY IDOCK:   -4.99 KCAL/MOL
REMARK 924 INTRA-LIGAND FREE ENERGY PREDICTED BY IDOCK:   -0.65 KCAL/MOL
REMARK 927      BINDING AFFINITY PREDICTED BY RF-SCORE:    0.00 PKD
ROOT
HETATM    1  C   UNL     1     -12.132  14.319  69.137  1.00  0.00    -0.302 C  
HETATM    2  O   UNL     1     -11.414  14.850  68.025  1.00  0.00    -0.313 OA 
ENDROOT
BRANCH   2   3
HETATM    3  C   UNL     1     -10.968  13.946  67.093  1.00  0.00    -0.291 A  
HETATM    4  C   UNL     1      -9.933  13.049  67.411  1.00  0.00    -0.228 A  
HETATM    5  C   UNL     1      -9.469  12.097  66.505  1.00  0.00    -0.231 A  
HETATM    6  C   UNL     1     -10.047  12.090  65.239  1.00  0.00    -0.289 A  
HETATM    7  C   UNL     1     -11.587  13.889  65.823  1.00  0.00    -0.338 A  
HETATM    8  C   UNL     1     -11.108  12.945  64.892  1.00  0.00    -0.297 A  
BRANCH   5   9
HETATM    9  N   UNL     1      -8.363  11.313  66.860  1.00  0.00    -0.149 NA 
HETATM   10  H   UNL     1      -7.768  11.572  67.648  1.00  0.00     0.000 HD 
BRANCH   9  11
HETATM   11  C   UNL     1      -8.085  10.117  66.073  1.00  0.00    -0.129 C  
BRANCH  11  12
HETATM   12  C   UNL     1      -7.825   8.889  66.931  1.00  0.00    -0.101 A  
HETATM   13  C   UNL     1      -8.908   8.092  67.384  1.00  0.00    -0.134 A  
HETATM   14  H2  UNL     1     -10.953   5.907  67.157  1.00  0.00     0.000 HD 
HETATM   15  C   UNL     1      -8.658   6.876  68.134  1.00  0.00    -0.123 A  
HETATM   16  H1  UNL     1     -11.586   5.163  68.477  1.00  0.00     0.000 HD 
HETATM   17  C   UNL     1     -10.329   8.520  67.090  1.00  0.00    -0.377 C  
HETATM   18  C   UNL     1      -7.341   6.566  68.500  1.00  0.00    -0.087 A  
HETATM   19  N   UNL     1      -7.003   5.514  69.252  1.00  0.00    -0.061 NA 
HETATM   20  C   UNL     1      -6.306   7.369  68.059  1.00  0.00    -0.048 A  
HETATM   21  C   UNL     1      -6.526   8.495  67.268  1.00  0.00    -0.058 A  
HETATM   22  C   UNL     1      -7.978   4.706  69.651  1.00  0.00    -0.065 A  
HETATM   23  N   UNL     1      -9.252   4.819  69.296  1.00  0.00    -0.109 NA 
HETATM   24  N   UNL     1      -7.637   3.644  70.462  1.00  0.00    -0.041 NA 
HETATM   25  C   UNL     1      -9.578   5.885  68.552  1.00  0.00    -0.123 A  
HETATM   26  H2  UNL     1      -6.670   3.484  70.746  1.00  0.00     0.000 HD 
HETATM   27  H1  UNL     1      -8.385   3.024  70.769  1.00  0.00     0.000 HD 
HETATM   28  N   UNL     1     -10.924   5.877  68.175  1.00  0.00    -0.244 NA 
ENDBRANCH  11  12
ENDBRANCH   9  11
ENDBRANCH   5   9
BRANCH   8  29
HETATM   29  O   UNL     1     -11.523  12.710  63.603  1.00  0.00    -0.429 OA 
HETATM   30  C   UNL     1     -12.718  11.985  63.365  1.00  0.00    -0.398 C  
ENDBRANCH   8  29
BRANCH   7  31
HETATM   31  O   UNL     1     -12.611  14.689  65.392  1.00  0.00    -0.265 OA 
HETATM   32  C   UNL     1     -12.366  15.763  64.502  1.00  0.00     0.244 C  
ENDBRANCH   7  31
ENDBRANCH   2   3
TORSDOF 6
ENDMDL
MODEL      248
REMARK 921   NORMALIZED FREE ENERGY PREDICTED BY IDOCK:   -3.54 KCAL/MOL
REMARK 922        TOTAL FREE ENERGY PREDICTED BY IDOCK:   -5.64 KCAL/MOL
REMARK 923 INTER-LIGAND FREE ENERGY PREDICTED BY IDOCK:   -4.94 KCAL/MOL
REMARK 924 INTRA-LIGAND FREE ENERGY PREDICTED BY IDOCK:   -0.70 KCAL/MOL
REMARK 927      BINDING AFFINITY PREDICTED BY RF-SCORE:    0.00 PKD
ROOT
HETATM    1  C   UNL     1      -8.226   8.675  67.168  1.00  0.00    -0.107 C  
HETATM    2  O   UNL     1      -8.236   9.781  68.068  1.00  0.00    -0.108 OA 
ENDROOT
BRANCH   2   3
HETATM    3  C   UNL     1      -8.982   9.636  69.212  1.00  0.00    -0.172 A  
HETATM    4  C   UNL     1      -8.474   8.913  70.306  1.00  0.00    -0.168 A  
HETATM    5  C   UNL     1      -9.186   8.764  71.495  1.00  0.00    -0.262 A  
HETATM    6  C   UNL     1     -10.456   9.332  71.550  1.00  0.00    -0.385 A  
HETATM    7  C   UNL     1     -10.249  10.256  69.303  1.00  0.00    -0.227 A  
HETATM    8  C   UNL     1     -10.986  10.092  70.493  1.00  0.00    -0.326 A  
BRANCH   5   9
HETATM    9  N   UNL     1      -8.657   7.940  72.497  1.00  0.00    -0.136 NA 
HETATM   10  H   UNL     1      -7.944   8.287  73.139  1.00  0.00     0.000 HD 
BRANCH   9  11
HETATM   11  C   UNL     1      -9.153   6.572  72.598  1.00  0.00    -0.131 C  
BRANCH  11  12
HETATM   12  C   UNL     1      -9.350   5.911  71.243  1.00  0.00    -0.172 A  
HETATM   13  C   UNL     1      -8.300   5.156  70.658  1.00  0.00    -0.111 A  
HETATM   14  H2  UNL     1      -6.673   2.678  70.187  1.00  0.00     0.000 HD 
HETATM   15  C   UNL     1      -8.513   4.457  69.405  1.00  0.00    -0.091 A  
HETATM   16  H1  UNL     1      -5.836   2.435  68.796  1.00  0.00     0.000 HD 
HETATM   17  C   UNL     1      -6.952   5.089  71.341  1.00  0.00    -0.049 C  
HETATM   18  C   UNL     1      -9.728   4.634  68.729  1.00  0.00    -0.160 A  
HETATM   19  N   UNL     1     -10.003   4.100  67.536  1.00  0.00    -0.080 NA 
HETATM   20  C   UNL     1     -10.728   5.388  69.315  1.00  0.00    -0.198 A  
HETATM   21  C   UNL     1     -10.565   5.998  70.558  1.00  0.00    -0.329 A  
HETATM   22  C   UNL     1      -9.073   3.338  66.975  1.00  0.00    -0.174 A  
HETATM   23  N   UNL     1      -7.922   3.002  67.543  1.00  0.00    -0.075 NA 
HETATM   24  N   UNL     1      -9.337   2.820  65.724  1.00  0.00    -0.329 NA 
HETATM   25  C   UNL     1      -7.654   3.554  68.735  1.00  0.00    -0.053 A  
HETATM   26  H2  UNL     1     -10.217   3.016  65.246  1.00  0.00     0.000 HD 
HETATM   27  H1  UNL     1      -8.623   2.235  65.293  1.00  0.00     0.000 HD 
HETATM   28  N   UNL     1      -6.455   3.086  69.279  1.00  0.00    -0.029 NA 
ENDBRANCH  11  12
ENDBRANCH   9  11
ENDBRANCH   5   9
BRANCH   8  29
HETATM   29  O   UNL     1     -12.233  10.571  70.815  1.00  0.00    -0.306 OA 
HETATM   30  C   UNL     1     -13.224   9.690  71.317  1.00  0.00    -0.355 C  
ENDBRANCH   8  29
BRANCH   7  31
HETATM   31  O   UNL     1     -10.852  10.999  68.323  1.00  0.00    -0.185 OA 
HETATM   32  C   UNL     1     -10.599  12.387  68.206  1.00  0.00    -0.222 C  
ENDBRANCH   7  31
ENDBRANCH   2   3
TORSDOF 6
ENDMDL
MODEL      249
REMARK 921   NORMALIZED FREE ENERGY PREDICTED BY IDOCK:   -3.53 KCAL/MOL
REMARK 922        TOTAL FREE ENERGY PREDICTED BY IDOCK:   -5.63 KCAL/MOL
REMARK 923 INTER-LIGAND FREE ENERGY PREDICTED BY IDOCK:   -5.04 KCAL/MOL
REMARK 924 INTRA-LIGAND FREE ENERGY PREDICTED BY IDOCK:   -0.59 KCAL/MOL
REMARK 927      BINDING AFFINITY PREDICTED BY RF-SCORE:    0.00 PKD
ROOT
HETATM    1  C   UNL     1     -12.181  12.539  68.295  1.00  0.00     0.144 C  
HETATM    2  O   UNL     1     -11.115  13.485  68.236  1.00  0.00    -0.241 OA 
ENDROOT
BRANCH   2   3
HETATM    3  C   UNL     1      -9.852  12.977  68.056  1.00  0.00    -0.224 A  
HETATM    4  C   UNL     1      -9.630  11.589  68.102  1.00  0.00    -0.187 A  
HETATM    5  C   UNL     1      -8.369  11.030  67.897  1.00  0.00    -0.124 A  
HETATM    6  C   UNL     1      -7.312  11.909  67.682  1.00  0.00    -0.123 A  
HETATM    7  C   UNL     1      -8.779  13.855  67.779  1.00  0.00    -0.187 A  
HETATM    8  C   UNL     1      -7.496  13.300  67.594  1.00  0.00    -0.171 A  
BRANCH   5   9
HETATM    9  N   UNL     1      -8.211   9.648  68.066  1.00  0.00    -0.109 NA 
HETATM   10  H   UNL     1      -7.324   9.257  68.384  1.00  0.00     0.000 HD 
BRANCH   9  11
HETATM   11  C   UNL     1      -9.349   8.783  67.773  1.00  0.00    -0.141 C  
BRANCH  11  12
HETATM   12  C   UNL     1      -9.542   7.686  68.807  1.00  0.00    -0.153 A  
HETATM   13  C   UNL     1     -10.208   7.966  70.029  1.00  0.00    -0.208 A  
HETATM   14  H2  UNL     1     -12.607   8.280  71.805  1.00  0.00     0.000 HD 
HETATM   15  C   UNL     1     -10.465   6.903  70.982  1.00  0.00    -0.235 A  
HETATM   16  H1  UNL     1     -12.519   8.085  73.433  1.00  0.00     0.000 HD 
HETATM   17  C   UNL     1     -10.640   9.382  70.341  1.00  0.00    -0.316 C  
HETATM   18  C   UNL     1      -9.945   5.626  70.727  1.00  0.00    -0.195 A  
HETATM   19  N   UNL     1     -10.057   4.594  71.568  1.00  0.00    -0.196 NA 
HETATM   20  C   UNL     1      -9.288   5.386  69.535  1.00  0.00    -0.166 A  
HETATM   21  C   UNL     1      -9.106   6.379  68.575  1.00  0.00    -0.126 A  
HETATM   22  C   UNL     1     -10.723   4.792  72.700  1.00  0.00    -0.199 A  
HETATM   23  N   UNL     1     -11.352   5.915  73.024  1.00  0.00    -0.218 NA 
HETATM   24  N   UNL     1     -10.803   3.740  73.588  1.00  0.00    -0.222 NA 
HETATM   25  C   UNL     1     -11.221   6.945  72.177  1.00  0.00    -0.258 A  
HETATM   26  H2  UNL     1     -10.366   2.841  73.383  1.00  0.00     0.000 HD 
HETATM   27  H1  UNL     1     -11.313   3.893  74.457  1.00  0.00     0.000 HD 
HETATM   28  N   UNL     1     -11.974   8.055  72.572  1.00  0.00    -0.353 NA 
ENDBRANCH  11  12
ENDBRANCH   9  11
ENDBRANCH   5   9
BRANCH   8  29
HETATM   29  O   UNL     1      -6.305  13.935  67.337  1.00  0.00    -0.320 OA 
HETATM   30  C   UNL     1      -5.359  14.115  68.377  1.00  0.00    -0.104 C  
ENDBRANCH   8  29
BRANCH   7  31
HETATM   31  O   UNL     1      -8.860  15.219  67.690  1.00  0.00    -0.169 OA 
HETATM   32  C   UNL     1      -8.753  16.028  68.848  1.00  0.00    -0.236 C  
ENDBRANCH   7  31
ENDBRANCH   2   3
TORSDOF 6
ENDMDL
MODEL      250
REMARK 921   NORMALIZED FREE ENERGY PREDICTED BY IDOCK:   -3.53 KCAL/MOL
REMARK 922        TOTAL FREE ENERGY PREDICTED BY IDOCK:   -5.62 KCAL/MOL
REMARK 923 INTER-LIGAND FREE ENERGY PREDICTED BY IDOCK:   -4.65 KCAL/MOL
REMARK 924 INTRA-LIGAND FREE ENERGY PREDICTED BY IDOCK:   -0.97 KCAL/MOL
REMARK 927      BINDING AFFINITY PREDICTED BY RF-SCORE:    0.00 PKD
ROOT
HETATM    1  C   UNL     1      -7.633   5.449  64.718  1.00  0.00    -0.084 C  
HETATM    2  O   UNL     1      -7.776   4.725  65.939  1.00  0.00    -0.089 OA 
ENDROOT
BRANCH   2   3
HETATM    3  C   UNL     1      -7.951   5.471  67.079  1.00  0.00    -0.102 A  
HETATM    4  C   UNL     1      -7.229   6.662  67.267  1.00  0.00    -0.085 A  
HETATM    5  C   UNL     1      -7.396   7.463  68.396  1.00  0.00    -0.103 A  
HETATM    6  C   UNL     1      -8.287   7.015  69.366  1.00  0.00    -0.133 A  
HETATM    7  C   UNL     1      -8.896   5.057  68.046  1.00  0.00    -0.103 A  
HETATM    8  C   UNL     1      -9.054   5.849  69.202  1.00  0.00    -0.122 A  
BRANCH   5   9
HETATM    9  N   UNL     1      -6.562   8.577  68.559  1.00  0.00    -0.058 NA 
HETATM   10  H   UNL     1      -5.664   8.635  68.078  1.00  0.00     0.000 HD 
BRANCH   9  11
HETATM   11  C   UNL     1      -7.012   9.653  69.435  1.00  0.00    -0.056 C  
BRANCH  11  12
HETATM   12  C   UNL     1      -7.641  10.811  68.678  1.00  0.00    -0.106 A  
HETATM   13  C   UNL     1      -9.037  11.052  68.773  1.00  0.00    -0.161 A  
HETATM   14  H2  UNL     1     -11.515  12.204  70.013  1.00  0.00     0.000 HD 
HETATM   15  C   UNL     1      -9.626  12.203  68.118  1.00  0.00    -0.208 A  
HETATM   16  H1  UNL     1     -12.866  12.519  69.133  1.00  0.00     0.000 HD 
HETATM   17  C   UNL     1      -9.912  10.096  69.554  1.00  0.00    -0.257 C  
HETATM   18  C   UNL     1      -8.817  13.004  67.298  1.00  0.00    -0.208 A  
HETATM   19  N   UNL     1      -9.269  14.043  66.590  1.00  0.00    -0.263 NA 
HETATM   20  C   UNL     1      -7.464  12.737  67.212  1.00  0.00    -0.101 A  
HETATM   21  C   UNL     1      -6.870  11.682  67.902  1.00  0.00    -0.074 A  
HETATM   22  C   UNL     1     -10.558  14.342  66.692  1.00  0.00    -0.282 A  
HETATM   23  N   UNL     1     -11.416  13.738  67.505  1.00  0.00    -0.312 NA 
HETATM   24  N   UNL     1     -11.035  15.387  65.929  1.00  0.00    -0.318 NA 
HETATM   25  C   UNL     1     -10.952  12.691  68.201  1.00  0.00    -0.236 A  
HETATM   26  H2  UNL     1     -10.419  15.912  65.308  1.00  0.00     0.000 HD 
HETATM   27  H1  UNL     1     -12.025  15.618  66.008  1.00  0.00     0.000 HD 
HETATM   28  N   UNL     1     -11.910  12.168  69.074  1.00  0.00    -0.314 NA 
ENDBRANCH  11  12
ENDBRANCH   9  11
ENDBRANCH   5   9
BRANCH   8  29
HETATM   29  O   UNL     1      -9.882   5.653  70.281  1.00  0.00    -0.175 OA 
HETATM   30  C   UNL     1     -11.140   6.303  70.336  1.00  0.00    -0.352 C  
ENDBRANCH   8  29
BRANCH   7  31
HETATM   31  O   UNL     1      -9.673   3.932  67.979  1.00  0.00    -0.151 OA 
HETATM   32  C   UNL     1      -9.191   2.688  68.455  1.00  0.00    -0.197 C  
ENDBRANCH   7  31
ENDBRANCH   2   3
TORSDOF 6
ENDMDL
MODEL      251
REMARK 921   NORMALIZED FREE ENERGY PREDICTED BY IDOCK:   -3.52 KCAL/MOL
REMARK 922        TOTAL FREE ENERGY PREDICTED BY IDOCK:   -5.61 KCAL/MOL
REMARK 923 INTER-LIGAND FREE ENERGY PREDICTED BY IDOCK:   -5.01 KCAL/MOL
REMARK 924 INTRA-LIGAND FREE ENERGY PREDICTED BY IDOCK:   -0.59 KCAL/MOL
REMARK 927      BINDING AFFINITY PREDICTED BY RF-SCORE:    0.00 PKD
ROOT
HETATM    1  C   UNL     1      -7.114  14.955  69.424  1.00  0.00    -0.175 C  
HETATM    2  O   UNL     1      -8.193  15.668  68.824  1.00  0.00    -0.156 OA 
ENDROOT
BRANCH   2   3
HETATM    3  C   UNL     1      -8.864  15.028  67.810  1.00  0.00    -0.171 A  
HETATM    4  C   UNL     1      -8.547  13.700  67.474  1.00  0.00    -0.197 A  
HETATM    5  C   UNL     1      -9.221  13.005  66.472  1.00  0.00    -0.181 A  
HETATM    6  C   UNL     1     -10.209  13.694  65.775  1.00  0.00    -0.317 A  
HETATM    7  C   UNL     1      -9.909  15.698  67.133  1.00  0.00    -0.229 A  
HETATM    8  C   UNL     1     -10.581  15.010  66.102  1.00  0.00    -0.310 A  
BRANCH   5   9
HETATM    9  N   UNL     1      -8.774  11.723  66.126  1.00  0.00    -0.368 NA 
HETATM   10  H   UNL     1      -8.808  11.399  65.158  1.00  0.00     0.000 HD 
BRANCH   9  11
HETATM   11  C   UNL     1      -8.259  10.863  67.185  1.00  0.00    -0.126 C  
BRANCH  11  12
HETATM   12  C   UNL     1      -8.337   9.384  66.840  1.00  0.00    -0.127 A  
HETATM   13  C   UNL     1      -8.287   8.407  67.868  1.00  0.00    -0.131 A  
HETATM   14  H2  UNL     1      -9.455   6.647  70.001  1.00  0.00     0.000 HD 
HETATM   15  C   UNL     1      -8.443   7.001  67.549  1.00  0.00    -0.122 A  
HETATM   16  H1  UNL     1      -8.749   5.234  70.449  1.00  0.00     0.000 HD 
HETATM   17  C   UNL     1      -8.061   8.837  69.301  1.00  0.00    -0.110 C  
HETATM   18  C   UNL     1      -8.527   6.618  66.203  1.00  0.00    -0.135 A  
HETATM   19  N   UNL     1      -8.597   5.349  65.791  1.00  0.00    -0.133 NA 
HETATM   20  C   UNL     1      -8.557   7.590  65.221  1.00  0.00    -0.023 A  
HETATM   21  C   UNL     1      -8.492   8.950  65.520  1.00  0.00    -0.174 A  
HETATM   22  C   UNL     1      -8.613   4.401  66.721  1.00  0.00    -0.107 A  
HETATM   23  N   UNL     1      -8.642   4.621  68.029  1.00  0.00    -0.102 NA 
HETATM   24  N   UNL     1      -8.642   3.089  66.297  1.00  0.00    -0.115 NA 
HETATM   25  C   UNL     1      -8.559   5.898  68.428  1.00  0.00    -0.113 A  
HETATM   26  H2  UNL     1      -8.652   2.855  65.304  1.00  0.00     0.000 HD 
HETATM   27  H1  UNL     1      -8.653   2.362  67.011  1.00  0.00     0.000 HD 
HETATM   28  N   UNL     1      -8.666   6.028  69.815  1.00  0.00    -0.129 NA 
ENDBRANCH  11  12
ENDBRANCH   9  11
ENDBRANCH   5   9
BRANCH   8  29
HETATM   29  O   UNL     1     -11.604  15.443  65.293  1.00  0.00    -0.212 OA 
HETATM   30  C   UNL     1     -12.121  14.589  64.287  1.00  0.00    -0.425 C  
ENDBRANCH   8  29
BRANCH   7  31
HETATM   31  O   UNL     1     -10.329  16.979  67.371  1.00  0.00    -0.304 OA 
HETATM   32  C   UNL     1      -9.675  18.080  66.765  1.00  0.00    -0.323 C  
ENDBRANCH   7  31
ENDBRANCH   2   3
TORSDOF 6
ENDMDL
MODEL      252
REMARK 921   NORMALIZED FREE ENERGY PREDICTED BY IDOCK:   -3.52 KCAL/MOL
REMARK 922        TOTAL FREE ENERGY PREDICTED BY IDOCK:   -5.60 KCAL/MOL
REMARK 923 INTER-LIGAND FREE ENERGY PREDICTED BY IDOCK:   -4.71 KCAL/MOL
REMARK 924 INTRA-LIGAND FREE ENERGY PREDICTED BY IDOCK:   -0.89 KCAL/MOL
REMARK 927      BINDING AFFINITY PREDICTED BY RF-SCORE:    0.00 PKD
ROOT
HETATM    1  C   UNL     1     -11.967  12.730  69.159  1.00  0.00    -0.246 C  
HETATM    2  O   UNL     1     -12.488  11.490  69.631  1.00  0.00    -0.165 OA 
ENDROOT
BRANCH   2   3
HETATM    3  C   UNL     1     -11.580  10.602  70.157  1.00  0.00    -0.330 A  
HETATM    4  C   UNL     1     -10.205  10.764  69.914  1.00  0.00     0.100 A  
HETATM    5  C   UNL     1      -9.249   9.903  70.450  1.00  0.00     0.019 A  
HETATM    6  C   UNL     1      -9.712   8.836  71.215  1.00  0.00    -0.335 A  
HETATM    7  C   UNL     1     -12.033   9.548  70.982  1.00  0.00    -0.328 A  
HETATM    8  C   UNL     1     -11.075   8.659  71.510  1.00  0.00    -0.288 A  
BRANCH   5   9
HETATM    9  N   UNL     1      -7.909  10.069  70.074  1.00  0.00    -0.216 NA 
HETATM   10  H   UNL     1      -7.197  10.310  70.764  1.00  0.00     0.000 HD 
BRANCH   9  11
HETATM   11  C   UNL     1      -7.560   9.888  68.670  1.00  0.00    -0.080 C  
BRANCH  11  12
HETATM   12  C   UNL     1      -8.098   8.591  68.087  1.00  0.00    -0.119 A  
HETATM   13  C   UNL     1      -7.545   7.345  68.484  1.00  0.00    -0.114 A  
HETATM   14  H2  UNL     1      -7.276   4.933  70.248  1.00  0.00     0.000 HD 
HETATM   15  C   UNL     1      -8.110   6.104  67.992  1.00  0.00    -0.114 A  
HETATM   16  H1  UNL     1      -6.706   3.499  69.686  1.00  0.00     0.000 HD 
HETATM   17  C   UNL     1      -6.354   7.317  69.417  1.00  0.00    -0.035 C  
HETATM   18  C   UNL     1      -9.131   6.159  67.033  1.00  0.00    -0.118 A  
HETATM   19  N   UNL     1      -9.672   5.081  66.457  1.00  0.00    -0.162 NA 
HETATM   20  C   UNL     1      -9.640   7.386  66.652  1.00  0.00    -0.251 A  
HETATM   21  C   UNL     1      -9.162   8.584  67.180  1.00  0.00    -0.173 A  
HETATM   22  C   UNL     1      -9.227   3.891  66.840  1.00  0.00    -0.174 A  
HETATM   23  N   UNL     1      -8.340   3.686  67.806  1.00  0.00    -0.091 NA 
HETATM   24  N   UNL     1      -9.753   2.779  66.216  1.00  0.00    -0.364 NA 
HETATM   25  C   UNL     1      -7.797   4.776  68.367  1.00  0.00    -0.081 A  
HETATM   26  H2  UNL     1     -10.461   2.868  65.486  1.00  0.00     0.000 HD 
HETATM   27  H1  UNL     1      -9.411   1.865  66.509  1.00  0.00     0.000 HD 
HETATM   28  N   UNL     1      -6.931   4.456  69.416  1.00  0.00    -0.049 NA 
ENDBRANCH  11  12
ENDBRANCH   9  11
ENDBRANCH   5   9
BRANCH   8  29
HETATM   29  O   UNL     1     -11.261   7.558  72.312  1.00  0.00    -0.252 OA 
HETATM   30  C   UNL     1     -11.136   6.255  71.767  1.00  0.00    -0.273 C  
ENDBRANCH   8  29
BRANCH   7  31
HETATM   31  O   UNL     1     -13.336   9.287  71.311  1.00  0.00    -0.332 OA 
HETATM   32  C   UNL     1     -13.856   9.670  72.572  1.00  0.00    -0.139 C  
ENDBRANCH   7  31
ENDBRANCH   2   3
TORSDOF 6
ENDMDL
MODEL      253
REMARK 921   NORMALIZED FREE ENERGY PREDICTED BY IDOCK:   -3.48 KCAL/MOL
REMARK 922        TOTAL FREE ENERGY PREDICTED BY IDOCK:   -5.55 KCAL/MOL
REMARK 923 INTER-LIGAND FREE ENERGY PREDICTED BY IDOCK:   -5.21 KCAL/MOL
REMARK 924 INTRA-LIGAND FREE ENERGY PREDICTED BY IDOCK:   -0.34 KCAL/MOL
REMARK 927      BINDING AFFINITY PREDICTED BY RF-SCORE:    0.00 PKD
ROOT
HETATM    1  C   UNL     1      -7.955   4.321  63.587  1.00  0.00    -0.089 C  
HETATM    2  O   UNL     1      -7.465   3.784  64.814  1.00  0.00    -0.070 OA 
ENDROOT
BRANCH   2   3
HETATM    3  C   UNL     1      -7.542   4.600  65.916  1.00  0.00    -0.090 A  
HETATM    4  C   UNL     1      -7.110   5.937  65.843  1.00  0.00    -0.074 A  
HETATM    5  C   UNL     1      -7.196   6.807  66.929  1.00  0.00    -0.081 A  
HETATM    6  C   UNL     1      -7.695   6.288  68.120  1.00  0.00    -0.104 A  
HETATM    7  C   UNL     1      -8.101   4.103  67.116  1.00  0.00    -0.100 A  
HETATM    8  C   UNL     1      -8.170   4.969  68.226  1.00  0.00    -0.089 A  
BRANCH   5   9
HETATM    9  N   UNL     1      -6.647   8.090  66.807  1.00  0.00    -0.055 NA 
HETATM   10  H   UNL     1      -5.979   8.306  66.067  1.00  0.00     0.000 HD 
BRANCH   9  11
HETATM   11  C   UNL     1      -7.055   9.108  67.768  1.00  0.00    -0.079 C  
BRANCH  11  12
HETATM   12  C   UNL     1      -8.309   9.855  67.345  1.00  0.00    -0.118 A  
HETATM   13  C   UNL     1      -8.443  10.329  66.014  1.00  0.00    -0.144 A  
HETATM   14  H2  UNL     1      -9.158  10.098  63.108  1.00  0.00     0.000 HD 
HETATM   15  C   UNL     1      -9.671  10.970  65.585  1.00  0.00    -0.276 A  
HETATM   16  H1  UNL     1      -9.574  11.405  62.205  1.00  0.00     0.000 HD 
HETATM   17  C   UNL     1      -7.293  10.172  65.042  1.00  0.00    -0.139 C  
HETATM   18  C   UNL     1     -10.673  11.216  66.535  1.00  0.00    -0.260 A  
HETATM   19  N   UNL     1     -11.810  11.864  66.269  1.00  0.00    -0.528 NA 
HETATM   20  C   UNL     1     -10.509  10.757  67.829  1.00  0.00    -0.243 A  
HETATM   21  C   UNL     1      -9.368  10.066  68.233  1.00  0.00    -0.136 A  
HETATM   22  C   UNL     1     -12.006  12.275  65.022  1.00  0.00    -0.354 A  
HETATM   23  N   UNL     1     -11.194  12.024  64.003  1.00  0.00    -0.365 NA 
HETATM   24  N   UNL     1     -13.160  12.982  64.755  1.00  0.00    -0.730 NA 
HETATM   25  C   UNL     1     -10.051  11.383  64.287  1.00  0.00    -0.297 A  
HETATM   26  H2  UNL     1     -13.840  13.181  65.489  1.00  0.00     0.000 HD 
HETATM   27  H1  UNL     1     -13.310  13.298  63.797  1.00  0.00     0.000 HD 
HETATM   28  N   UNL     1      -9.300  11.107  63.141  1.00  0.00    -0.310 NA 
ENDBRANCH  11  12
ENDBRANCH   9  11
ENDBRANCH   5   9
BRANCH   8  29
HETATM   29  O   UNL     1      -8.645   4.721  69.492  1.00  0.00    -0.084 OA 
HETATM   30  C   UNL     1      -9.967   5.096  69.838  1.00  0.00    -0.246 C  
ENDBRANCH   8  29
BRANCH   7  31
HETATM   31  O   UNL     1      -8.572   2.833  67.316  1.00  0.00    -0.091 OA 
HETATM   32  C   UNL     1      -7.705   1.797  67.739  1.00  0.00    -0.058 C  
ENDBRANCH   7  31
ENDBRANCH   2   3
TORSDOF 6
ENDMDL
MODEL      254
REMARK 921   NORMALIZED FREE ENERGY PREDICTED BY IDOCK:   -3.45 KCAL/MOL
REMARK 922        TOTAL FREE ENERGY PREDICTED BY IDOCK:   -5.51 KCAL/MOL
REMARK 923 INTER-LIGAND FREE ENERGY PREDICTED BY IDOCK:   -4.84 KCAL/MOL
REMARK 924 INTRA-LIGAND FREE ENERGY PREDICTED BY IDOCK:   -0.66 KCAL/MOL
REMARK 927      BINDING AFFINITY PREDICTED BY RF-SCORE:    0.00 PKD
ROOT
HETATM    1  C   UNL     1      -8.673   8.162  72.534  1.00  0.00    -0.203 C  
HETATM    2  O   UNL     1      -8.848   6.987  71.745  1.00  0.00    -0.126 OA 
ENDROOT
BRANCH   2   3
HETATM    3  C   UNL     1      -8.617   7.112  70.397  1.00  0.00    -0.142 A  
HETATM    4  C   UNL     1      -8.144   8.325  69.865  1.00  0.00    -0.117 A  
HETATM    5  C   UNL     1      -7.870   8.486  68.508  1.00  0.00    -0.108 A  
HETATM    6  C   UNL     1      -8.122   7.399  67.676  1.00  0.00    -0.114 A  
HETATM    7  C   UNL     1      -8.814   5.998  69.549  1.00  0.00    -0.125 A  
HETATM    8  C   UNL     1      -8.561   6.158  68.171  1.00  0.00    -0.115 A  
BRANCH   5   9
HETATM    9  N   UNL     1      -7.505   9.755  68.042  1.00  0.00    -0.082 NA 
HETATM   10  H   UNL     1      -7.225   9.897  67.071  1.00  0.00     0.000 HD 
BRANCH   9  11
HETATM   11  C   UNL     1      -7.536  10.870  68.982  1.00  0.00    -0.135 C  
BRANCH  11  12
HETATM   12  C   UNL     1      -7.899  12.192  68.324  1.00  0.00    -0.153 A  
HETATM   13  C   UNL     1      -9.260  12.562  68.166  1.00  0.00    -0.209 A  
HETATM   14  H2  UNL     1     -11.867  13.762  69.042  1.00  0.00     0.000 HD 
HETATM   15  C   UNL     1      -9.607  13.856  67.613  1.00  0.00    -0.215 A  
HETATM   16  H1  UNL     1     -12.962  14.351  67.968  1.00  0.00     0.000 HD 
HETATM   17  C   UNL     1     -10.351  11.594  68.568  1.00  0.00    -0.224 C  
HETATM   18  C   UNL     1      -8.582  14.684  67.133  1.00  0.00    -0.223 A  
HETATM   19  N   UNL     1      -8.790  15.861  66.538  1.00  0.00    -0.275 NA 
HETATM   20  C   UNL     1      -7.265  14.292  67.286  1.00  0.00    -0.006 A  
HETATM   21  C   UNL     1      -6.915  13.086  67.891  1.00  0.00    -0.127 A  
HETATM   22  C   UNL     1     -10.046  16.276  66.420  1.00  0.00    -0.305 A  
HETATM   23  N   UNL     1     -11.103  15.647  66.917  1.00  0.00    -0.242 NA 
HETATM   24  N   UNL     1     -10.266  17.471  65.768  1.00  0.00    -0.602 NA 
HETATM   25  C   UNL     1     -10.881  14.462  67.501  1.00  0.00    -0.282 A  
HETATM   26  H2  UNL     1      -9.492  18.018  65.390  1.00  0.00     0.000 HD 
HETATM   27  H1  UNL     1     -11.230  17.790  65.677  1.00  0.00     0.000 HD 
HETATM   28  N   UNL     1     -12.043  13.914  68.049  1.00  0.00    -0.343 NA 
ENDBRANCH  11  12
ENDBRANCH   9  11
ENDBRANCH   5   9
BRANCH   8  29
HETATM   29  O   UNL     1      -8.694   5.246  67.152  1.00  0.00    -0.109 OA 
HETATM   30  C   UNL     1      -7.608   4.400  66.813  1.00  0.00    -0.086 C  
ENDBRANCH   8  29
BRANCH   7  31
HETATM   31  O   UNL     1      -9.252   4.760  69.937  1.00  0.00    -0.108 OA 
HETATM   32  C   UNL     1      -8.397   3.875  70.637  1.00  0.00    -0.069 C  
ENDBRANCH   7  31
ENDBRANCH   2   3
TORSDOF 6
ENDMDL
MODEL      255
REMARK 921   NORMALIZED FREE ENERGY PREDICTED BY IDOCK:   -3.44 KCAL/MOL
REMARK 922        TOTAL FREE ENERGY PREDICTED BY IDOCK:   -5.50 KCAL/MOL
REMARK 923 INTER-LIGAND FREE ENERGY PREDICTED BY IDOCK:   -4.95 KCAL/MOL
REMARK 924 INTRA-LIGAND FREE ENERGY PREDICTED BY IDOCK:   -0.55 KCAL/MOL
REMARK 927      BINDING AFFINITY PREDICTED BY RF-SCORE:    0.00 PKD
ROOT
HETATM    1  C   UNL     1      -9.248  17.409  66.631  1.00  0.00    -0.261 C  
HETATM    2  O   UNL     1      -9.160  16.350  65.680  1.00  0.00    -0.446 OA 
ENDROOT
BRANCH   2   3
HETATM    3  C   UNL     1      -9.389  15.080  66.152  1.00  0.00    -0.292 A  
HETATM    4  C   UNL     1      -8.747  14.628  67.318  1.00  0.00    -0.224 A  
HETATM    5  C   UNL     1      -8.972  13.357  67.846  1.00  0.00    -0.201 A  
HETATM    6  C   UNL     1      -9.838  12.523  67.145  1.00  0.00    -0.210 A  
HETATM    7  C   UNL     1     -10.311  14.243  65.482  1.00  0.00    -0.355 A  
HETATM    8  C   UNL     1     -10.527  12.948  65.996  1.00  0.00    -0.276 A  
BRANCH   5   9
HETATM    9  N   UNL     1      -8.213  12.944  68.948  1.00  0.00    -0.337 NA 
HETATM   10  H   UNL     1      -8.259  13.446  69.835  1.00  0.00     0.000 HD 
BRANCH   9  11
HETATM   11  C   UNL     1      -7.354  11.775  68.795  1.00  0.00    -0.114 C  
BRANCH  11  12
HETATM   12  C   UNL     1      -7.751  10.623  69.703  1.00  0.00    -0.080 A  
HETATM   13  C   UNL     1      -6.823  10.101  70.642  1.00  0.00    -0.015 A  
HETATM   14  H2  UNL     1      -5.400   9.995  73.282  1.00  0.00     0.000 HD 
HETATM   15  C   UNL     1      -7.225   9.058  71.565  1.00  0.00    -0.036 A  
HETATM   16  H1  UNL     1      -4.755   8.605  73.871  1.00  0.00     0.000 HD 
HETATM   17  C   UNL     1      -5.407  10.632  70.671  1.00  0.00    -0.085 C  
HETATM   18  C   UNL     1      -8.503   8.496  71.436  1.00  0.00    -0.172 A  
HETATM   19  N   UNL     1      -8.951   7.482  72.181  1.00  0.00    -0.126 NA 
HETATM   20  C   UNL     1      -9.382   9.013  70.502  1.00  0.00    -0.262 A  
HETATM   21  C   UNL     1      -9.035  10.072  69.665  1.00  0.00    -0.221 A  
HETATM   22  C   UNL     1      -8.139   6.998  73.113  1.00  0.00    -0.101 A  
HETATM   23  N   UNL     1      -6.946   7.496  73.414  1.00  0.00    -0.069 NA 
HETATM   24  N   UNL     1      -8.583   5.923  73.855  1.00  0.00    -0.117 NA 
HETATM   25  C   UNL     1      -6.505   8.506  72.651  1.00  0.00    -0.082 A  
HETATM   26  H2  UNL     1      -9.503   5.514  73.693  1.00  0.00     0.000 HD 
HETATM   27  H1  UNL     1      -7.959   5.552  74.570  1.00  0.00     0.000 HD 
HETATM   28  N   UNL     1      -5.274   9.003  73.089  1.00  0.00    -0.072 NA 
ENDBRANCH  11  12
ENDBRANCH   9  11
ENDBRANCH   5   9
BRANCH   8  29
HETATM   29  O   UNL     1     -11.346  11.952  65.522  1.00  0.00    -0.322 OA 
HETATM   30  C   UNL     1     -10.802  10.685  65.191  1.00  0.00     0.110 C  
ENDBRANCH   8  29
BRANCH   7  31
HETATM   31  O   UNL     1     -11.013  14.563  64.352  1.00  0.00    -0.291 OA 
HETATM   32  C   UNL     1     -12.424  14.691  64.387  1.00  0.00    -0.288 C  
ENDBRANCH   7  31
ENDBRANCH   2   3
TORSDOF 6
ENDMDL
MODEL      256
REMARK 921   NORMALIZED FREE ENERGY PREDICTED BY IDOCK:   -3.40 KCAL/MOL
REMARK 922        TOTAL FREE ENERGY PREDICTED BY IDOCK:   -5.45 KCAL/MOL
REMARK 923 INTER-LIGAND FREE ENERGY PREDICTED BY IDOCK:   -4.63 KCAL/MOL
REMARK 924 INTRA-LIGAND FREE ENERGY PREDICTED BY IDOCK:   -0.82 KCAL/MOL
REMARK 927      BINDING AFFINITY PREDICTED BY RF-SCORE:    0.00 PKD
ROOT
HETATM    1  C   UNL     1      -8.168   8.329  72.325  1.00  0.00    -0.155 C  
HETATM    2  O   UNL     1      -8.123   6.920  72.111  1.00  0.00    -0.098 OA 
ENDROOT
BRANCH   2   3
HETATM    3  C   UNL     1      -7.978   6.500  70.811  1.00  0.00    -0.115 A  
HETATM    4  C   UNL     1      -7.647   7.419  69.800  1.00  0.00    -0.095 A  
HETATM    5  C   UNL     1      -7.462   7.032  68.474  1.00  0.00    -0.102 A  
HETATM    6  C   UNL     1      -7.659   5.687  68.171  1.00  0.00    -0.081 A  
HETATM    7  C   UNL     1      -8.117   5.128  70.501  1.00  0.00    -0.095 A  
HETATM    8  C   UNL     1      -7.956   4.730  69.158  1.00  0.00    -0.071 A  
BRANCH   5   9
HETATM    9  N   UNL     1      -7.241   8.022  67.508  1.00  0.00    -0.086 NA 
HETATM   10  H   UNL     1      -7.012   7.774  66.545  1.00  0.00     0.000 HD 
BRANCH   9  11
HETATM   11  C   UNL     1      -7.346   9.419  67.916  1.00  0.00    -0.083 C  
BRANCH  11  12
HETATM   12  C   UNL     1      -8.444  10.171  67.182  1.00  0.00    -0.125 A  
HETATM   13  C   UNL     1      -9.192  11.175  67.850  1.00  0.00    -0.154 A  
HETATM   14  H2  UNL     1      -9.726  13.959  68.836  1.00  0.00     0.000 HD 
HETATM   15  C   UNL     1     -10.183  11.950  67.130  1.00  0.00    -0.230 A  
HETATM   16  H1  UNL     1     -11.247  14.510  69.115  1.00  0.00     0.000 HD 
HETATM   17  C   UNL     1      -8.958  11.429  69.323  1.00  0.00     0.332 C  
HETATM   18  C   UNL     1     -10.470  11.612  65.799  1.00  0.00    -0.263 A  
HETATM   19  N   UNL     1     -11.414  12.208  65.065  1.00  0.00    -0.331 NA 
HETATM   20  C   UNL     1      -9.736  10.619  65.178  1.00  0.00    -0.327 A  
HETATM   21  C   UNL     1      -8.724   9.923  65.835  1.00  0.00    -0.154 A  
HETATM   22  C   UNL     1     -12.101  13.194  65.629  1.00  0.00    -0.449 A  
HETATM   23  N   UNL     1     -11.869  13.685  66.840  1.00  0.00    -0.390 NA 
HETATM   24  N   UNL     1     -13.104  13.781  64.888  1.00  0.00    -0.642 NA 
HETATM   25  C   UNL     1     -10.927  13.070  67.570  1.00  0.00    -0.259 A  
HETATM   26  H2  UNL     1     -13.312  13.469  63.939  1.00  0.00     0.000 HD 
HETATM   27  H1  UNL     1     -13.632  14.538  65.321  1.00  0.00     0.000 HD 
HETATM   28  N   UNL     1     -10.711  13.702  68.797  1.00  0.00    -0.251 NA 
ENDBRANCH  11  12
ENDBRANCH   9  11
ENDBRANCH   5   9
BRANCH   8  29
HETATM   29  O   UNL     1      -8.059   3.476  68.606  1.00  0.00    -0.065 OA 
HETATM   30  C   UNL     1      -9.321   2.993  68.178  1.00  0.00    -0.198 C  
ENDBRANCH   8  29
BRANCH   7  31
HETATM   31  O   UNL     1      -8.420   4.130  71.388  1.00  0.00    -0.092 OA 
HETATM   32  C   UNL     1      -7.394   3.372  72.003  1.00  0.00    -0.051 C  
ENDBRANCH   7  31
ENDBRANCH   2   3
TORSDOF 6
ENDMDL
MODEL      257
REMARK 921   NORMALIZED FREE ENERGY PREDICTED BY IDOCK:   -3.40 KCAL/MOL
REMARK 922        TOTAL FREE ENERGY PREDICTED BY IDOCK:   -5.44 KCAL/MOL
REMARK 923 INTER-LIGAND FREE ENERGY PREDICTED BY IDOCK:   -5.39 KCAL/MOL
REMARK 924 INTRA-LIGAND FREE ENERGY PREDICTED BY IDOCK:   -0.05 KCAL/MOL
REMARK 927      BINDING AFFINITY PREDICTED BY RF-SCORE:    0.00 PKD
ROOT
HETATM    1  C   UNL     1     -12.347  12.961  70.022  1.00  0.00    -0.129 C  
HETATM    2  O   UNL     1     -12.651  11.707  70.630  1.00  0.00    -0.297 OA 
ENDROOT
BRANCH   2   3
HETATM    3  C   UNL     1     -11.650  10.766  70.632  1.00  0.00    -0.290 A  
HETATM    4  C   UNL     1     -10.505  10.943  69.835  1.00  0.00     0.043 A  
HETATM    5  C   UNL     1      -9.455  10.028  69.828  1.00  0.00    -0.207 A  
HETATM    6  C   UNL     1      -9.597   8.892  70.620  1.00  0.00    -0.262 A  
HETATM    7  C   UNL     1     -11.756   9.637  71.475  1.00  0.00    -0.400 A  
HETATM    8  C   UNL     1     -10.708   8.694  71.457  1.00  0.00    -0.282 A  
BRANCH   5   9
HETATM    9  N   UNL     1      -8.399  10.222  68.927  1.00  0.00    -0.127 NA 
HETATM   10  H   UNL     1      -7.456  10.424  69.260  1.00  0.00     0.000 HD 
BRANCH   9  11
HETATM   11  C   UNL     1      -8.685  10.128  67.500  1.00  0.00    -0.125 C  
BRANCH  11  12
HETATM   12  C   UNL     1      -9.034   8.716  67.056  1.00  0.00    -0.152 A  
HETATM   13  C   UNL     1      -8.325   8.108  65.986  1.00  0.00    -0.132 A  
HETATM   14  H2  UNL     1      -6.071   6.553  64.759  1.00  0.00     0.000 HD 
HETATM   15  C   UNL     1      -8.599   6.734  65.615  1.00  0.00    -0.126 A  
HETATM   16  H1  UNL     1      -6.253   5.704  63.366  1.00  0.00     0.000 HD 
HETATM   17  C   UNL     1      -7.287   8.904  65.227  1.00  0.00    -0.088 C  
HETATM   18  C   UNL     1      -9.651   6.059  66.250  1.00  0.00    -0.102 A  
HETATM   19  N   UNL     1     -10.039   4.819  65.937  1.00  0.00    -0.230 NA 
HETATM   20  C   UNL     1     -10.335   6.680  67.278  1.00  0.00    -0.296 A  
HETATM   21  C   UNL     1     -10.026   7.972  67.701  1.00  0.00    -0.234 A  
HETATM   22  C   UNL     1      -9.368   4.188  64.981  1.00  0.00    -0.165 A  
HETATM   23  N   UNL     1      -8.292   4.665  64.367  1.00  0.00    -0.112 NA 
HETATM   24  N   UNL     1      -9.794   2.926  64.626  1.00  0.00    -0.319 NA 
HETATM   25  C   UNL     1      -7.921   5.913  64.683  1.00  0.00    -0.123 A  
HETATM   26  H2  UNL     1     -10.597   2.491  65.082  1.00  0.00     0.000 HD 
HETATM   27  H1  UNL     1      -9.279   2.441  63.892  1.00  0.00     0.000 HD 
HETATM   28  N   UNL     1      -6.742   6.296  64.037  1.00  0.00    -0.037 NA 
ENDBRANCH  11  12
ENDBRANCH   9  11
ENDBRANCH   5   9
BRANCH   8  29
HETATM   29  O   UNL     1     -10.585   7.519  72.161  1.00  0.00    -0.208 OA 
HETATM   30  C   UNL     1      -9.397   7.248  72.884  1.00  0.00    -0.154 C  
ENDBRANCH   8  29
BRANCH   7  31
HETATM   31  O   UNL     1     -12.803   9.352  72.310  1.00  0.00    -0.392 OA 
HETATM   32  C   UNL     1     -13.945   8.665  71.831  1.00  0.00    -0.442 C  
ENDBRANCH   7  31
ENDBRANCH   2   3
TORSDOF 6
ENDMDL
MODEL      258
REMARK 921   NORMALIZED FREE ENERGY PREDICTED BY IDOCK:   -3.39 KCAL/MOL
REMARK 922        TOTAL FREE ENERGY PREDICTED BY IDOCK:   -5.44 KCAL/MOL
REMARK 923 INTER-LIGAND FREE ENERGY PREDICTED BY IDOCK:   -4.66 KCAL/MOL
REMARK 924 INTRA-LIGAND FREE ENERGY PREDICTED BY IDOCK:   -0.77 KCAL/MOL
REMARK 927      BINDING AFFINITY PREDICTED BY RF-SCORE:    0.00 PKD
ROOT
HETATM    1  C   UNL     1     -10.041  11.570  63.082  1.00  0.00    -0.359 C  
HETATM    2  O   UNL     1      -8.779  11.327  63.701  1.00  0.00     0.048 OA 
ENDROOT
BRANCH   2   3
HETATM    3  C   UNL     1      -8.808  10.817  64.976  1.00  0.00    -0.177 A  
HETATM    4  C   UNL     1      -9.471  11.510  66.005  1.00  0.00    -0.249 A  
HETATM    5  C   UNL     1      -9.548  11.015  67.306  1.00  0.00    -0.165 A  
HETATM    6  C   UNL     1      -8.902   9.810  67.566  1.00  0.00    -0.129 A  
HETATM    7  C   UNL     1      -8.206   9.566  65.241  1.00  0.00    -0.130 A  
HETATM    8  C   UNL     1      -8.259   9.068  66.559  1.00  0.00    -0.114 A  
BRANCH   5   9
HETATM    9  N   UNL     1     -10.132  11.815  68.296  1.00  0.00    -0.192 NA 
HETATM   10  H   UNL     1     -11.129  11.749  68.503  1.00  0.00     0.000 HD 
BRANCH   9  11
HETATM   11  C   UNL     1      -9.277  12.746  69.024  1.00  0.00     0.504 C  
BRANCH  11  12
HETATM   12  C   UNL     1      -9.435  14.185  68.559  1.00  0.00    -0.202 A  
HETATM   13  C   UNL     1      -8.501  15.173  68.964  1.00  0.00    -0.214 A  
HETATM   14  H2  UNL     1      -5.953  16.747  68.761  1.00  0.00     0.000 HD 
HETATM   15  C   UNL     1      -8.603  16.528  68.458  1.00  0.00    -0.223 A  
HETATM   16  H1  UNL     1      -5.815  18.266  69.370  1.00  0.00     0.000 HD 
HETATM   17  C   UNL     1      -7.400  14.810  69.937  1.00  0.00     0.005 C  
HETATM   18  C   UNL     1      -9.702  16.870  67.657  1.00  0.00    -0.249 A  
HETATM   19  N   UNL     1      -9.936  18.102  67.198  1.00  0.00    -0.321 NA 
HETATM   20  C   UNL     1     -10.606  15.890  67.291  1.00  0.00    -0.314 A  
HETATM   21  C   UNL     1     -10.473  14.566  67.704  1.00  0.00    -0.246 A  
HETATM   22  C   UNL     1      -9.057  19.049  67.503  1.00  0.00    -0.288 A  
HETATM   23  N   UNL     1      -7.923  18.849  68.164  1.00  0.00    -0.289 NA 
HETATM   24  N   UNL     1      -9.319  20.331  67.067  1.00  0.00    -0.425 NA 
HETATM   25  C   UNL     1      -7.707  17.610  68.628  1.00  0.00    -0.281 A  
HETATM   26  H2  UNL     1     -10.158  20.544  66.528  1.00  0.00     0.000 HD 
HETATM   27  H1  UNL     1      -8.644  21.058  67.301  1.00  0.00     0.000 HD 
HETATM   28  N   UNL     1      -6.460  17.486  69.247  1.00  0.00    -0.240 NA 
ENDBRANCH  11  12
ENDBRANCH   9  11
ENDBRANCH   5   9
BRANCH   8  29
HETATM   29  O   UNL     1      -7.739   7.903  67.069  1.00  0.00    -0.097 OA 
HETATM   30  C   UNL     1      -8.605   6.912  67.596  1.00  0.00    -0.121 C  
ENDBRANCH   8  29
BRANCH   7  31
HETATM   31  O   UNL     1      -7.546   8.783  64.332  1.00  0.00    -0.106 OA 
HETATM   32  C   UNL     1      -6.238   9.117  63.902  1.00  0.00    -0.088 C  
ENDBRANCH   7  31
ENDBRANCH   2   3
TORSDOF 6
ENDMDL
MODEL      259
REMARK 921   NORMALIZED FREE ENERGY PREDICTED BY IDOCK:   -3.35 KCAL/MOL
REMARK 922        TOTAL FREE ENERGY PREDICTED BY IDOCK:   -5.38 KCAL/MOL
REMARK 923 INTER-LIGAND FREE ENERGY PREDICTED BY IDOCK:   -5.86 KCAL/MOL
REMARK 924 INTRA-LIGAND FREE ENERGY PREDICTED BY IDOCK:    0.48 KCAL/MOL
REMARK 927      BINDING AFFINITY PREDICTED BY RF-SCORE:    0.00 PKD
ROOT
HETATM    1  C   UNL     1      -6.302   7.916  71.722  1.00  0.00    -0.040 C  
HETATM    2  O   UNL     1      -7.377   8.248  72.597  1.00  0.00    -0.109 OA 
ENDROOT
BRANCH   2   3
HETATM    3  C   UNL     1      -8.552   7.559  72.417  1.00  0.00    -0.122 A  
HETATM    4  C   UNL     1      -9.560   8.077  71.586  1.00  0.00    -0.218 A  
HETATM    5  C   UNL     1     -10.755   7.398  71.354  1.00  0.00    -0.219 A  
HETATM    6  C   UNL     1     -10.936   6.187  72.016  1.00  0.00    -0.305 A  
HETATM    7  C   UNL     1      -8.725   6.300  73.038  1.00  0.00    -0.124 A  
HETATM    8  C   UNL     1      -9.940   5.617  72.827  1.00  0.00    -0.173 A  
BRANCH   5   9
HETATM    9  N   UNL     1     -11.752   8.030  70.600  1.00  0.00    -0.444 NA 
HETATM   10  H   UNL     1     -11.939   7.749  69.637  1.00  0.00     0.000 HD 
BRANCH   9  11
HETATM   11  C   UNL     1     -12.517   9.102  71.228  1.00  0.00    -0.300 C  
BRANCH  11  12
HETATM   12  C   UNL     1     -12.255  10.462  70.604  1.00  0.00    -0.441 A  
HETATM   13  C   UNL     1     -11.745  10.556  69.282  1.00  0.00    -0.281 A  
HETATM   14  H2  UNL     1     -11.959  10.661  66.291  1.00  0.00     0.000 HD 
HETATM   15  C   UNL     1     -11.572  11.852  68.655  1.00  0.00    -0.366 A  
HETATM   16  H1  UNL     1     -10.824  11.398  65.360  1.00  0.00     0.000 HD 
HETATM   17  C   UNL     1     -11.373   9.296  68.531  1.00  0.00     0.356 C  
HETATM   18  C   UNL     1     -11.805  13.007  69.414  1.00  0.00    -0.322 A  
HETATM   19  N   UNL     1     -11.606  14.249  68.963  1.00  0.00    -0.285 NA 
HETATM   20  C   UNL     1     -12.286  12.887  70.705  1.00  0.00    -0.385 A  
HETATM   21  C   UNL     1     -12.536  11.647  71.291  1.00  0.00    -0.425 A  
HETATM   22  C   UNL     1     -11.184  14.388  67.712  1.00  0.00    -0.300 A  
HETATM   23  N   UNL     1     -11.020  13.392  66.851  1.00  0.00    -0.281 NA 
HETATM   24  N   UNL     1     -10.937  15.667  67.259  1.00  0.00    -0.302 NA 
HETATM   25  C   UNL     1     -11.212  12.152  67.320  1.00  0.00    -0.306 A  
HETATM   26  H2  UNL     1     -11.074  16.478  67.863  1.00  0.00     0.000 HD 
HETATM   27  H1  UNL     1     -10.613  15.774  66.298  1.00  0.00     0.000 HD 
HETATM   28  N   UNL     1     -11.082  11.182  66.322  1.00  0.00    -0.179 NA 
ENDBRANCH  11  12
ENDBRANCH   9  11
ENDBRANCH   5   9
BRANCH   8  29
HETATM   29  O   UNL     1     -10.352   4.405  73.328  1.00  0.00    -0.152 OA 
HETATM   30  C   UNL     1     -11.735   4.104  73.403  1.00  0.00     0.031 C  
ENDBRANCH   8  29
BRANCH   7  31
HETATM   31  O   UNL     1      -7.820   5.676  73.854  1.00  0.00    -0.100 OA 
HETATM   32  C   UNL     1      -6.936   4.696  73.341  1.00  0.00    -0.070 C  
ENDBRANCH   7  31
ENDBRANCH   2   3
TORSDOF 6
ENDMDL
MODEL      260
REMARK 921   NORMALIZED FREE ENERGY PREDICTED BY IDOCK:   -3.31 KCAL/MOL
REMARK 922        TOTAL FREE ENERGY PREDICTED BY IDOCK:   -5.32 KCAL/MOL
REMARK 923 INTER-LIGAND FREE ENERGY PREDICTED BY IDOCK:   -4.46 KCAL/MOL
REMARK 924 INTRA-LIGAND FREE ENERGY PREDICTED BY IDOCK:   -0.86 KCAL/MOL
REMARK 927      BINDING AFFINITY PREDICTED BY RF-SCORE:    0.00 PKD
ROOT
HETATM    1  C   UNL     1     -12.158  13.601  68.402  1.00  0.00    -0.277 C  
HETATM    2  O   UNL     1     -11.395  14.625  67.768  1.00  0.00    -0.294 OA 
ENDROOT
BRANCH   2   3
HETATM    3  C   UNL     1     -10.029  14.508  67.840  1.00  0.00    -0.226 A  
HETATM    4  C   UNL     1      -9.379  13.403  67.261  1.00  0.00    -0.233 A  
HETATM    5  C   UNL     1      -7.993  13.258  67.286  1.00  0.00    -0.125 A  
HETATM    6  C   UNL     1      -7.263  14.241  67.950  1.00  0.00    -0.166 A  
HETATM    7  C   UNL     1      -9.272  15.527  68.460  1.00  0.00    -0.197 A  
HETATM    8  C   UNL     1      -7.871  15.378  68.511  1.00  0.00    -0.134 A  
BRANCH   5   9
HETATM    9  N   UNL     1      -7.431  12.078  66.783  1.00  0.00    -0.361 NA 
HETATM   10  H   UNL     1      -6.423  11.993  66.649  1.00  0.00     0.000 HD 
BRANCH   9  11
HETATM   11  C   UNL     1      -8.325  10.974  66.455  1.00  0.00    -0.165 C  
BRANCH  11  12
HETATM   12  C   UNL     1      -7.885   9.652  67.064  1.00  0.00    -0.098 A  
HETATM   13  C   UNL     1      -8.464   9.196  68.277  1.00  0.00    -0.125 A  
HETATM   14  H2  UNL     1     -10.531   7.795  69.941  1.00  0.00     0.000 HD 
HETATM   15  C   UNL     1      -8.106   7.900  68.817  1.00  0.00    -0.126 A  
HETATM   16  H1  UNL     1     -10.184   7.168  71.418  1.00  0.00     0.000 HD 
HETATM   17  C   UNL     1      -9.452  10.075  69.012  1.00  0.00    -0.190 C  
HETATM   18  C   UNL     1      -7.097   7.159  68.184  1.00  0.00    -0.085 A  
HETATM   19  N   UNL     1      -6.635   5.989  68.636  1.00  0.00    -0.056 NA 
HETATM   20  C   UNL     1      -6.539   7.634  67.012  1.00  0.00    -0.062 A  
HETATM   21  C   UNL     1      -6.934   8.841  66.438  1.00  0.00    -0.082 A  
HETATM   22  C   UNL     1      -7.188   5.494  69.737  1.00  0.00    -0.065 A  
HETATM   23  N   UNL     1      -8.216   6.034  70.379  1.00  0.00    -0.114 NA 
HETATM   24  N   UNL     1      -6.684   4.308  70.228  1.00  0.00    -0.032 NA 
HETATM   25  C   UNL     1      -8.661   7.213  69.922  1.00  0.00    -0.141 A  
HETATM   26  H2  UNL     1      -5.914   3.828  69.762  1.00  0.00     0.000 HD 
HETATM   27  H1  UNL     1      -7.108   3.928  71.074  1.00  0.00     0.000 HD 
HETATM   28  N   UNL     1      -9.784   7.663  70.622  1.00  0.00    -0.175 NA 
ENDBRANCH  11  12
ENDBRANCH   9  11
ENDBRANCH   5   9
BRANCH   8  29
HETATM   29  O   UNL     1      -6.929  16.209  69.069  1.00  0.00    -0.153 OA 
HETATM   30  C   UNL     1      -5.849  15.662  69.806  1.00  0.00    -0.145 C  
ENDBRANCH   8  29
BRANCH   7  31
HETATM   31  O   UNL     1      -9.775  16.658  69.045  1.00  0.00    -0.260 OA 
HETATM   32  C   UNL     1     -10.110  17.791  68.264  1.00  0.00    -0.371 C  
ENDBRANCH   7  31
ENDBRANCH   2   3
TORSDOF 6
ENDMDL
MODEL      261
REMARK 921   NORMALIZED FREE ENERGY PREDICTED BY IDOCK:   -3.29 KCAL/MOL
REMARK 922        TOTAL FREE ENERGY PREDICTED BY IDOCK:   -5.30 KCAL/MOL
REMARK 923 INTER-LIGAND FREE ENERGY PREDICTED BY IDOCK:   -4.77 KCAL/MOL
REMARK 924 INTRA-LIGAND FREE ENERGY PREDICTED BY IDOCK:   -0.52 KCAL/MOL
REMARK 927      BINDING AFFINITY PREDICTED BY RF-SCORE:    0.00 PKD
ROOT
HETATM    1  C   UNL     1      -6.889  14.748  69.451  1.00  0.00    -0.162 C  
HETATM    2  O   UNL     1      -8.156  15.221  69.001  1.00  0.00    -0.169 OA 
ENDROOT
BRANCH   2   3
HETATM    3  C   UNL     1      -8.897  14.357  68.231  1.00  0.00    -0.182 A  
HETATM    4  C   UNL     1      -8.921  12.983  68.528  1.00  0.00    -0.048 A  
HETATM    5  C   UNL     1      -9.680  12.076  67.790  1.00  0.00    -0.192 A  
HETATM    6  C   UNL     1     -10.395  12.579  66.707  1.00  0.00    -0.241 A  
HETATM    7  C   UNL     1      -9.673  14.864  67.164  1.00  0.00    -0.228 A  
HETATM    8  C   UNL     1     -10.426  13.950  66.398  1.00  0.00    -0.284 A  
BRANCH   5   9
HETATM    9  N   UNL     1      -9.566  10.710  68.081  1.00  0.00    -0.153 NA 
HETATM   10  H   UNL     1      -9.593  10.012  67.338  1.00  0.00     0.000 HD 
BRANCH   9  11
HETATM   11  C   UNL     1      -9.408  10.314  69.476  1.00  0.00    -0.178 C  
BRANCH  11  12
HETATM   12  C   UNL     1      -9.647   8.830  69.702  1.00  0.00    -0.171 A  
HETATM   13  C   UNL     1      -8.593   7.899  69.506  1.00  0.00    -0.137 A  
HETATM   14  H2  UNL     1      -6.177   6.319  70.328  1.00  0.00     0.000 HD 
HETATM   15  C   UNL     1      -8.794   6.494  69.798  1.00  0.00    -0.143 A  
HETATM   16  H1  UNL     1      -5.793   4.884  69.628  1.00  0.00     0.000 HD 
HETATM   17  C   UNL     1      -7.258   8.378  68.979  1.00  0.00    -0.070 C  
HETATM   18  C   UNL     1     -10.075   6.055  70.166  1.00  0.00    -0.194 A  
HETATM   19  N   UNL     1     -10.391   4.776  70.385  1.00  0.00    -0.185 NA 
HETATM   20  C   UNL     1     -11.087   6.982  70.334  1.00  0.00    -0.323 A  
HETATM   21  C   UNL     1     -10.885   8.346  70.136  1.00  0.00    -0.238 A  
HETATM   22  C   UNL     1      -9.423   3.875  70.271  1.00  0.00    -0.185 A  
HETATM   23  N   UNL     1      -8.149   4.156  70.030  1.00  0.00    -0.058 NA 
HETATM   24  N   UNL     1      -9.757   2.550  70.455  1.00  0.00    -0.058 NA 
HETATM   25  C   UNL     1      -7.848   5.442  69.800  1.00  0.00    -0.081 A  
HETATM   26  H2  UNL     1     -10.714   2.271  70.673  1.00  0.00     0.000 HD 
HETATM   27  H1  UNL     1      -9.014   1.858  70.367  1.00  0.00     0.000 HD 
HETATM   28  N   UNL     1      -6.476   5.642  69.626  1.00  0.00    -0.040 NA 
ENDBRANCH  11  12
ENDBRANCH   9  11
ENDBRANCH   5   9
BRANCH   8  29
HETATM   29  O   UNL     1     -11.235  14.188  65.312  1.00  0.00    -0.306 OA 
HETATM   30  C   UNL     1     -12.556  13.676  65.288  1.00  0.00    -0.469 C  
ENDBRANCH   8  29
BRANCH   7  31
HETATM   31  O   UNL     1      -9.753  16.175  66.780  1.00  0.00    -0.227 OA 
HETATM   32  C   UNL     1      -8.815  16.723  65.872  1.00  0.00    -0.053 C  
ENDBRANCH   7  31
ENDBRANCH   2   3
TORSDOF 6
ENDMDL
MODEL      262
REMARK 921   NORMALIZED FREE ENERGY PREDICTED BY IDOCK:   -3.28 KCAL/MOL
REMARK 922        TOTAL FREE ENERGY PREDICTED BY IDOCK:   -5.28 KCAL/MOL
REMARK 923 INTER-LIGAND FREE ENERGY PREDICTED BY IDOCK:   -4.30 KCAL/MOL
REMARK 924 INTRA-LIGAND FREE ENERGY PREDICTED BY IDOCK:   -0.98 KCAL/MOL
REMARK 927      BINDING AFFINITY PREDICTED BY RF-SCORE:    0.00 PKD
ROOT
HETATM    1  C   UNL     1     -12.100  12.490  69.193  1.00  0.00    -0.138 C  
HETATM    2  O   UNL     1     -12.548  11.178  69.525  1.00  0.00    -0.245 OA 
ENDROOT
BRANCH   2   3
HETATM    3  C   UNL     1     -11.666  10.384  70.219  1.00  0.00    -0.321 A  
HETATM    4  C   UNL     1     -10.280  10.569  70.076  1.00  0.00    -0.024 A  
HETATM    5  C   UNL     1      -9.352   9.805  70.782  1.00  0.00     0.152 A  
HETATM    6  C   UNL     1      -9.851   8.809  71.617  1.00  0.00    -0.378 A  
HETATM    7  C   UNL     1     -12.161   9.409  71.114  1.00  0.00    -0.323 A  
HETATM    8  C   UNL     1     -11.230   8.616  71.814  1.00  0.00    -0.326 A  
BRANCH   5   9
HETATM    9  N   UNL     1      -7.989   9.977  70.504  1.00  0.00    -0.424 NA 
HETATM   10  H   UNL     1      -7.404  10.569  71.095  1.00  0.00     0.000 HD 
BRANCH   9  11
HETATM   11  C   UNL     1      -7.429   9.286  69.348  1.00  0.00    -0.078 C  
BRANCH  11  12
HETATM   12  C   UNL     1      -7.423   7.775  69.505  1.00  0.00    -0.094 A  
HETATM   13  C   UNL     1      -8.346   6.977  68.779  1.00  0.00    -0.122 A  
HETATM   14  H2  UNL     1      -9.312   5.433  66.394  1.00  0.00     0.000 HD 
HETATM   15  C   UNL     1      -8.289   5.531  68.864  1.00  0.00    -0.102 A  
HETATM   16  H1  UNL     1     -10.387   4.199  66.531  1.00  0.00     0.000 HD 
HETATM   17  C   UNL     1      -9.399   7.643  67.921  1.00  0.00    -0.146 C  
HETATM   18  C   UNL     1      -7.386   4.941  69.761  1.00  0.00    -0.056 A  
HETATM   19  N   UNL     1      -7.300   3.625  69.976  1.00  0.00    -0.041 NA 
HETATM   20  C   UNL     1      -6.509   5.743  70.467  1.00  0.00    -0.036 A  
HETATM   21  C   UNL     1      -6.498   7.130  70.332  1.00  0.00    -0.046 A  
HETATM   22  C   UNL     1      -8.104   2.835  69.276  1.00  0.00    -0.047 A  
HETATM   23  N   UNL     1      -8.933   3.245  68.324  1.00  0.00    -0.124 NA 
HETATM   24  N   UNL     1      -8.047   1.480  69.527  1.00  0.00    -0.045 NA 
HETATM   25  C   UNL     1      -9.017   4.568  68.127  1.00  0.00    -0.116 A  
HETATM   26  H2  UNL     1      -7.408   1.098  70.225  1.00  0.00     0.000 HD 
HETATM   27  H1  UNL     1      -8.664   0.872  68.990  1.00  0.00     0.000 HD 
HETATM   28  N   UNL     1      -9.861   4.892  67.062  1.00  0.00    -0.176 NA 
ENDBRANCH  11  12
ENDBRANCH   9  11
ENDBRANCH   5   9
BRANCH   8  29
HETATM   29  O   UNL     1     -11.456   7.601  72.714  1.00  0.00    -0.355 OA 
HETATM   30  C   UNL     1     -11.146   6.263  72.364  1.00  0.00    -0.270 C  
ENDBRANCH   8  29
BRANCH   7  31
HETATM   31  O   UNL     1     -13.481   9.138  71.358  1.00  0.00    -0.350 OA 
HETATM   32  C   UNL     1     -14.053   9.403  72.627  1.00  0.00    -0.072 C  
ENDBRANCH   7  31
ENDBRANCH   2   3
TORSDOF 6
ENDMDL
MODEL      263
REMARK 921   NORMALIZED FREE ENERGY PREDICTED BY IDOCK:   -3.24 KCAL/MOL
REMARK 922        TOTAL FREE ENERGY PREDICTED BY IDOCK:   -5.24 KCAL/MOL
REMARK 923 INTER-LIGAND FREE ENERGY PREDICTED BY IDOCK:   -5.18 KCAL/MOL
REMARK 924 INTRA-LIGAND FREE ENERGY PREDICTED BY IDOCK:   -0.06 KCAL/MOL
REMARK 927      BINDING AFFINITY PREDICTED BY RF-SCORE:    0.00 PKD
ROOT
HETATM    1  C   UNL     1      -7.549   6.379  63.029  1.00  0.00    -0.081 C  
HETATM    2  O   UNL     1      -6.756   5.786  64.056  1.00  0.00    -0.036 OA 
ENDROOT
BRANCH   2   3
HETATM    3  C   UNL     1      -7.416   5.400  65.197  1.00  0.00    -0.073 A  
HETATM    4  C   UNL     1      -7.710   6.339  66.201  1.00  0.00    -0.096 A  
HETATM    5  C   UNL     1      -8.403   5.995  67.361  1.00  0.00    -0.105 A  
HETATM    6  C   UNL     1      -8.764   4.660  67.513  1.00  0.00    -0.107 A  
HETATM    7  C   UNL     1      -7.840   4.059  65.338  1.00  0.00    -0.089 A  
HETATM    8  C   UNL     1      -8.521   3.697  66.518  1.00  0.00    -0.107 A  
BRANCH   5   9
HETATM    9  N   UNL     1      -8.562   6.964  68.361  1.00  0.00    -0.126 NA 
HETATM   10  H   UNL     1      -8.340   6.754  69.335  1.00  0.00     0.000 HD 
BRANCH   9  11
HETATM   11  C   UNL     1      -9.052   8.282  67.973  1.00  0.00    -0.137 C  
BRANCH  11  12
HETATM   12  C   UNL     1     -10.015   8.879  68.986  1.00  0.00    -0.195 A  
HETATM   13  C   UNL     1     -10.296  10.270  68.971  1.00  0.00    -0.229 A  
HETATM   14  H2  UNL     1     -11.746  12.738  68.068  1.00  0.00     0.000 HD 
HETATM   15  C   UNL     1     -11.275  10.829  69.882  1.00  0.00    -0.371 A  
HETATM   16  H1  UNL     1     -11.873  14.072  69.017  1.00  0.00     0.000 HD 
HETATM   17  C   UNL     1      -9.562  11.173  68.004  1.00  0.00    -0.181 C  
HETATM   18  C   UNL     1     -11.850   9.995  70.852  1.00  0.00    -0.368 A  
HETATM   19  N   UNL     1     -12.705  10.417  71.788  1.00  0.00    -0.435 NA 
HETATM   20  C   UNL     1     -11.547   8.646  70.854  1.00  0.00    -0.307 A  
HETATM   21  C   UNL     1     -10.670   8.081  69.929  1.00  0.00    -0.242 A  
HETATM   22  C   UNL     1     -13.043  11.701  71.777  1.00  0.00    -0.382 A  
HETATM   23  N   UNL     1     -12.657  12.580  70.861  1.00  0.00    -0.304 NA 
HETATM   24  N   UNL     1     -13.891  12.148  72.768  1.00  0.00    -0.306 NA 
HETATM   25  C   UNL     1     -11.791  12.145  69.935  1.00  0.00    -0.319 A  
HETATM   26  H2  UNL     1     -14.247  11.515  73.484  1.00  0.00     0.000 HD 
HETATM   27  H1  UNL     1     -14.150  13.134  72.760  1.00  0.00     0.000 HD 
HETATM   28  N   UNL     1     -11.501  13.123  68.979  1.00  0.00    -0.278 NA 
ENDBRANCH  11  12
ENDBRANCH   9  11
ENDBRANCH   5   9
BRANCH   8  29
HETATM   29  O   UNL     1      -9.011   2.470  66.897  1.00  0.00    -0.130 OA 
HETATM   30  C   UNL     1      -8.628   1.907  68.140  1.00  0.00    -0.074 C  
ENDBRANCH   8  29
BRANCH   7  31
HETATM   31  O   UNL     1      -7.635   3.052  64.433  1.00  0.00    -0.073 OA 
HETATM   32  C   UNL     1      -6.468   3.025  63.630  1.00  0.00    -0.030 C  
ENDBRANCH   7  31
ENDBRANCH   2   3
TORSDOF 6
ENDMDL
MODEL      264
REMARK 921   NORMALIZED FREE ENERGY PREDICTED BY IDOCK:   -3.22 KCAL/MOL
REMARK 922        TOTAL FREE ENERGY PREDICTED BY IDOCK:   -5.20 KCAL/MOL
REMARK 923 INTER-LIGAND FREE ENERGY PREDICTED BY IDOCK:   -4.55 KCAL/MOL
REMARK 924 INTRA-LIGAND FREE ENERGY PREDICTED BY IDOCK:   -0.65 KCAL/MOL
REMARK 927      BINDING AFFINITY PREDICTED BY RF-SCORE:    0.00 PKD
ROOT
HETATM    1  C   UNL     1     -12.116  13.107  68.111  1.00  0.00    -0.184 C  
HETATM    2  O   UNL     1     -11.336  14.101  67.449  1.00  0.00    -0.298 OA 
ENDROOT
BRANCH   2   3
HETATM    3  C   UNL     1      -9.980  14.065  67.668  1.00  0.00    -0.237 A  
HETATM    4  C   UNL     1      -9.213  12.981  67.207  1.00  0.00    -0.213 A  
HETATM    5  C   UNL     1      -7.832  12.918  67.383  1.00  0.00    -0.170 A  
HETATM    6  C   UNL     1      -7.232  13.964  68.078  1.00  0.00    -0.141 A  
HETATM    7  C   UNL     1      -9.351  15.149  68.321  1.00  0.00    -0.193 A  
HETATM    8  C   UNL     1      -7.957  15.083  68.525  1.00  0.00    -0.144 A  
BRANCH   5   9
HETATM    9  N   UNL     1      -7.156  11.755  66.990  1.00  0.00    -0.199 NA 
HETATM   10  H   UNL     1      -6.381  11.388  67.542  1.00  0.00     0.000 HD 
BRANCH   9  11
HETATM   11  C   UNL     1      -7.591  11.084  65.771  1.00  0.00     0.058 C  
BRANCH  11  12
HETATM   12  C   UNL     1      -8.167   9.701  66.028  1.00  0.00    -0.119 A  
HETATM   13  C   UNL     1      -7.435   8.542  65.657  1.00  0.00    -0.085 A  
HETATM   14  H2  UNL     1      -5.412   6.363  66.064  1.00  0.00     0.000 HD 
HETATM   15  C   UNL     1      -7.944   7.223  65.975  1.00  0.00    -0.115 A  
HETATM   16  H1  UNL     1      -5.529   4.911  65.306  1.00  0.00     0.000 HD 
HETATM   17  C   UNL     1      -6.122   8.689  64.919  1.00  0.00    -0.060 C  
HETATM   18  C   UNL     1      -9.219   7.109  66.547  1.00  0.00    -0.162 A  
HETATM   19  N   UNL     1      -9.817   5.944  66.812  1.00  0.00    -0.151 NA 
HETATM   20  C   UNL     1      -9.917   8.254  66.883  1.00  0.00    -0.343 A  
HETATM   21  C   UNL     1      -9.402   9.530  66.658  1.00  0.00    -0.207 A  
HETATM   22  C   UNL     1      -9.147   4.832  66.536  1.00  0.00    -0.121 A  
HETATM   23  N   UNL     1      -7.898   4.790  66.089  1.00  0.00    -0.098 NA 
HETATM   24  N   UNL     1      -9.779   3.629  66.769  1.00  0.00    -0.379 NA 
HETATM   25  C   UNL     1      -7.314   5.965  65.817  1.00  0.00    -0.076 A  
HETATM   26  H2  UNL     1     -10.728   3.594  67.140  1.00  0.00     0.000 HD 
HETATM   27  H1  UNL     1      -9.264   2.775  66.556  1.00  0.00     0.000 HD 
HETATM   28  N   UNL     1      -5.983   5.817  65.420  1.00  0.00    -0.024 NA 
ENDBRANCH  11  12
ENDBRANCH   9  11
ENDBRANCH   5   9
BRANCH   8  29
HETATM   29  O   UNL     1      -7.127  15.987  69.143  1.00  0.00    -0.171 OA 
HETATM   30  C   UNL     1      -5.911  15.548  69.725  1.00  0.00    -0.138 C  
ENDBRANCH   8  29
BRANCH   7  31
HETATM   31  O   UNL     1      -9.974  16.269  68.803  1.00  0.00    -0.217 OA 
HETATM   32  C   UNL     1     -10.338  17.326  67.935  1.00  0.00    -0.360 C  
ENDBRANCH   7  31
ENDBRANCH   2   3
TORSDOF 6
ENDMDL
MODEL      265
REMARK 921   NORMALIZED FREE ENERGY PREDICTED BY IDOCK:   -3.22 KCAL/MOL
REMARK 922        TOTAL FREE ENERGY PREDICTED BY IDOCK:   -5.20 KCAL/MOL
REMARK 923 INTER-LIGAND FREE ENERGY PREDICTED BY IDOCK:   -4.32 KCAL/MOL
REMARK 924 INTRA-LIGAND FREE ENERGY PREDICTED BY IDOCK:   -0.88 KCAL/MOL
REMARK 927      BINDING AFFINITY PREDICTED BY RF-SCORE:    0.00 PKD
ROOT
HETATM    1  C   UNL     1      -8.462   7.666  73.759  1.00  0.00    -0.212 C  
HETATM    2  O   UNL     1      -8.800   8.619  72.754  1.00  0.00    -0.374 OA 
ENDROOT
BRANCH   2   3
HETATM    3  C   UNL     1      -8.904   8.146  71.468  1.00  0.00    -0.154 A  
HETATM    4  C   UNL     1      -8.174   7.014  71.066  1.00  0.00    -0.117 A  
HETATM    5  C   UNL     1      -8.271   6.484  69.781  1.00  0.00    -0.126 A  
HETATM    6  C   UNL     1      -9.098   7.149  68.880  1.00  0.00    -0.131 A  
HETATM    7  C   UNL     1      -9.785   8.777  70.561  1.00  0.00    -0.190 A  
HETATM    8  C   UNL     1      -9.872   8.262  69.252  1.00  0.00    -0.186 A  
BRANCH   5   9
HETATM    9  N   UNL     1      -7.430   5.420  69.427  1.00  0.00    -0.068 NA 
HETATM   10  H   UNL     1      -7.226   4.671  70.089  1.00  0.00     0.000 HD 
BRANCH   9  11
HETATM   11  C   UNL     1      -6.855   5.413  68.087  1.00  0.00    -0.060 C  
BRANCH  11  12
HETATM   12  C   UNL     1      -7.686   4.625  67.088  1.00  0.00    -0.090 A  
HETATM   13  C   UNL     1      -7.945   5.156  65.797  1.00  0.00    -0.108 A  
HETATM   14  H2  UNL     1      -7.332   5.691  62.908  1.00  0.00     0.000 HD 
HETATM   15  C   UNL     1      -8.668   4.372  64.815  1.00  0.00    -0.140 A  
HETATM   16  H1  UNL     1      -8.514   5.957  61.800  1.00  0.00     0.000 HD 
HETATM   17  C   UNL     1      -7.470   6.550  65.451  1.00  0.00    -0.080 C  
HETATM   18  C   UNL     1      -9.205   3.135  65.199  1.00  0.00    -0.150 A  
HETATM   19  N   UNL     1      -9.950   2.365  64.401  1.00  0.00    -0.040 NA 
HETATM   20  C   UNL     1      -8.950   2.648  66.467  1.00  0.00    -0.150 A  
HETATM   21  C   UNL     1      -8.186   3.356  67.394  1.00  0.00    -0.086 A  
HETATM   22  C   UNL     1     -10.170   2.793  63.164  1.00  0.00    -0.142 A  
HETATM   23  N   UNL     1      -9.642   3.890  62.635  1.00  0.00    -0.115 NA 
HETATM   24  N   UNL     1     -10.974   2.021  62.352  1.00  0.00    -0.151 NA 
HETATM   25  C   UNL     1      -8.907   4.659  63.450  1.00  0.00    -0.126 A  
HETATM   26  H2  UNL     1     -11.385   1.150  62.690  1.00  0.00     0.000 HD 
HETATM   27  H1  UNL     1     -11.143   2.350  61.402  1.00  0.00     0.000 HD 
HETATM   28  N   UNL     1      -8.342   5.750  62.783  1.00  0.00    -0.094 NA 
ENDBRANCH  11  12
ENDBRANCH   9  11
ENDBRANCH   5   9
BRANCH   8  29
HETATM   29  O   UNL     1     -10.629   8.704  68.194  1.00  0.00    -0.204 OA 
HETATM   30  C   UNL     1     -10.230   8.412  66.865  1.00  0.00    -0.313 C  
ENDBRANCH   8  29
BRANCH   7  31
HETATM   31  O   UNL     1     -10.563   9.872  70.827  1.00  0.00    -0.304 OA 
HETATM   32  C   UNL     1     -11.830   9.729  71.444  1.00  0.00    -0.408 C  
ENDBRANCH   7  31
ENDBRANCH   2   3
TORSDOF 6
ENDMDL
MODEL      266
REMARK 921   NORMALIZED FREE ENERGY PREDICTED BY IDOCK:   -3.20 KCAL/MOL
REMARK 922        TOTAL FREE ENERGY PREDICTED BY IDOCK:   -5.17 KCAL/MOL
REMARK 923 INTER-LIGAND FREE ENERGY PREDICTED BY IDOCK:   -4.88 KCAL/MOL
REMARK 924 INTRA-LIGAND FREE ENERGY PREDICTED BY IDOCK:   -0.29 KCAL/MOL
REMARK 927      BINDING AFFINITY PREDICTED BY RF-SCORE:    0.00 PKD
ROOT
HETATM    1  C   UNL     1     -12.458  14.248  66.462  1.00  0.00    -0.207 C  
HETATM    2  O   UNL     1     -11.982  13.033  65.886  1.00  0.00    -0.392 OA 
ENDROOT
BRANCH   2   3
HETATM    3  C   UNL     1     -10.878  12.466  66.474  1.00  0.00    -0.250 A  
HETATM    4  C   UNL     1     -10.973  11.212  67.105  1.00  0.00    -0.350 A  
HETATM    5  C   UNL     1      -9.871  10.588  67.689  1.00  0.00    -0.166 A  
HETATM    6  C   UNL     1      -8.662  11.278  67.662  1.00  0.00    -0.131 A  
HETATM    7  C   UNL     1      -9.631  13.129  66.404  1.00  0.00    -0.255 A  
HETATM    8  C   UNL     1      -8.517  12.516  67.013  1.00  0.00    -0.161 A  
BRANCH   5   9
HETATM    9  N   UNL     1     -10.070   9.392  68.390  1.00  0.00    -0.178 NA 
HETATM   10  H   UNL     1     -10.307   8.529  67.898  1.00  0.00     0.000 HD 
BRANCH   9  11
HETATM   11  C   UNL     1      -9.930   9.411  69.841  1.00  0.00    -0.212 C  
BRANCH  11  12
HETATM   12  C   UNL     1      -9.997   8.026  70.463  1.00  0.00    -0.193 A  
HETATM   13  C   UNL     1      -8.803   7.341  70.813  1.00  0.00    -0.150 A  
HETATM   14  H2  UNL     1      -6.510   6.627  72.612  1.00  0.00     0.000 HD 
HETATM   15  C   UNL     1      -8.866   6.056  71.480  1.00  0.00    -0.139 A  
HETATM   16  H1  UNL     1      -5.733   5.185  72.504  1.00  0.00     0.000 HD 
HETATM   17  C   UNL     1      -7.461   7.955  70.477  1.00  0.00    -0.073 C  
HETATM   18  C   UNL     1     -10.117   5.451  71.668  1.00  0.00    -0.203 A  
HETATM   19  N   UNL     1     -10.287   4.239  72.202  1.00  0.00    -0.160 NA 
HETATM   20  C   UNL     1     -11.262   6.134  71.304  1.00  0.00    -0.348 A  
HETATM   21  C   UNL     1     -11.220   7.406  70.737  1.00  0.00    -0.293 A  
HETATM   22  C   UNL     1      -9.202   3.584  72.598  1.00  0.00    -0.104 A  
HETATM   23  N   UNL     1      -7.969   4.073  72.575  1.00  0.00    -0.081 NA 
HETATM   24  N   UNL     1      -9.371   2.314  73.110  1.00  0.00    -0.079 NA 
HETATM   25  C   UNL     1      -7.811   5.286  72.026  1.00  0.00    -0.108 A  
HETATM   26  H2  UNL     1     -10.298   1.893  73.183  1.00  0.00     0.000 HD 
HETATM   27  H1  UNL     1      -8.539   1.811  73.413  1.00  0.00     0.000 HD 
HETATM   28  N   UNL     1      -6.492   5.739  72.111  1.00  0.00    -0.052 NA 
ENDBRANCH  11  12
ENDBRANCH   9  11
ENDBRANCH   5   9
BRANCH   8  29
HETATM   29  O   UNL     1      -7.220  12.962  67.098  1.00  0.00    -0.105 OA 
HETATM   30  C   UNL     1      -6.521  12.877  68.328  1.00  0.00    -0.086 C  
ENDBRANCH   8  29
BRANCH   7  31
HETATM   31  O   UNL     1      -9.398  14.339  65.809  1.00  0.00    -0.135 OA 
HETATM   32  C   UNL     1      -9.177  15.500  66.590  1.00  0.00    -0.271 C  
ENDBRANCH   7  31
ENDBRANCH   2   3
TORSDOF 6
ENDMDL
MODEL      267
REMARK 921   NORMALIZED FREE ENERGY PREDICTED BY IDOCK:   -3.09 KCAL/MOL
REMARK 922        TOTAL FREE ENERGY PREDICTED BY IDOCK:   -5.02 KCAL/MOL
REMARK 923 INTER-LIGAND FREE ENERGY PREDICTED BY IDOCK:   -4.51 KCAL/MOL
REMARK 924 INTRA-LIGAND FREE ENERGY PREDICTED BY IDOCK:   -0.51 KCAL/MOL
REMARK 927      BINDING AFFINITY PREDICTED BY RF-SCORE:    0.00 PKD
ROOT
HETATM    1  C   UNL     1      -9.531  13.366  68.839  1.00  0.00     0.197 C  
HETATM    2  O   UNL     1     -10.694  12.655  68.422  1.00  0.00    -0.227 OA 
ENDROOT
BRANCH   2   3
HETATM    3  C   UNL     1     -10.581  11.909  67.274  1.00  0.00    -0.228 A  
HETATM    4  C   UNL     1     -10.249  10.545  67.342  1.00  0.00    -0.253 A  
HETATM    5  C   UNL     1     -10.151   9.745  66.204  1.00  0.00    -0.245 A  
HETATM    6  C   UNL     1     -10.357  10.364  64.974  1.00  0.00    -0.249 A  
HETATM    7  C   UNL     1     -10.845  12.511  66.022  1.00  0.00    -0.276 A  
HETATM    8  C   UNL     1     -10.725  11.716  64.864  1.00  0.00    -0.296 A  
BRANCH   5   9
HETATM    9  N   UNL     1      -9.711   8.423  66.347  1.00  0.00    -0.305 NA 
HETATM   10  H   UNL     1      -8.914   8.075  65.813  1.00  0.00     0.000 HD 
BRANCH   9  11
HETATM   11  C   UNL     1     -10.422   7.557  67.280  1.00  0.00    -0.321 C  
BRANCH  11  12
HETATM   12  C   UNL     1      -9.576   7.150  68.476  1.00  0.00    -0.139 A  
HETATM   13  C   UNL     1      -8.837   5.939  68.449  1.00  0.00    -0.111 A  
HETATM   14  H2  UNL     1      -6.458   4.223  67.816  1.00  0.00     0.000 HD 
HETATM   15  C   UNL     1      -7.966   5.588  69.553  1.00  0.00    -0.094 A  
HETATM   16  H1  UNL     1      -6.103   2.871  68.678  1.00  0.00     0.000 HD 
HETATM   17  C   UNL     1      -8.969   5.006  67.265  1.00  0.00    -0.113 C  
HETATM   18  C   UNL     1      -7.956   6.406  70.693  1.00  0.00    -0.112 A  
HETATM   19  N   UNL     1      -7.250   6.140  71.796  1.00  0.00    -0.086 NA 
HETATM   20  C   UNL     1      -8.698   7.572  70.698  1.00  0.00    -0.141 A  
HETATM   21  C   UNL     1      -9.475   7.963  69.609  1.00  0.00    -0.160 A  
HETATM   22  C   UNL     1      -6.498   5.047  71.795  1.00  0.00    -0.031 A  
HETATM   23  N   UNL     1      -6.332   4.239  70.755  1.00  0.00    -0.021 NA 
HETATM   24  N   UNL     1      -5.802   4.748  72.948  1.00  0.00    -0.016 NA 
HETATM   25  C   UNL     1      -7.055   4.511  69.659  1.00  0.00    -0.050 A  
HETATM   26  H2  UNL     1      -5.863   5.346  73.772  1.00  0.00     0.000 HD 
HETATM   27  H1  UNL     1      -5.224   3.908  72.948  1.00  0.00     0.000 HD 
HETATM   28  N   UNL     1      -6.759   3.647  68.602  1.00  0.00    -0.045 NA 
ENDBRANCH  11  12
ENDBRANCH   9  11
ENDBRANCH   5   9
BRANCH   8  29
HETATM   29  O   UNL     1     -10.906  12.067  63.548  1.00  0.00    -0.395 OA 
HETATM   30  C   UNL     1     -12.211  12.087  62.994  1.00  0.00    -0.026 C  
ENDBRANCH   8  29
BRANCH   7  31
HETATM   31  O   UNL     1     -11.192  13.819  65.817  1.00  0.00    -0.295 OA 
HETATM   32  C   UNL     1     -12.548  14.190  65.641  1.00  0.00    -0.470 C  
ENDBRANCH   7  31
ENDBRANCH   2   3
TORSDOF 6
ENDMDL
MODEL      268
REMARK 921   NORMALIZED FREE ENERGY PREDICTED BY IDOCK:   -3.05 KCAL/MOL
REMARK 922        TOTAL FREE ENERGY PREDICTED BY IDOCK:   -4.97 KCAL/MOL
REMARK 923 INTER-LIGAND FREE ENERGY PREDICTED BY IDOCK:   -4.91 KCAL/MOL
REMARK 924 INTRA-LIGAND FREE ENERGY PREDICTED BY IDOCK:   -0.06 KCAL/MOL
REMARK 927      BINDING AFFINITY PREDICTED BY RF-SCORE:    0.00 PKD
ROOT
HETATM    1  C   UNL     1      -9.716  13.420  66.585  1.00  0.00    -0.275 C  
HETATM    2  O   UNL     1      -8.956  14.371  67.328  1.00  0.00    -0.191 OA 
ENDROOT
BRANCH   2   3
HETATM    3  C   UNL     1      -8.039  13.865  68.217  1.00  0.00    -0.150 A  
HETATM    4  C   UNL     1      -7.708  12.499  68.198  1.00  0.00    -0.141 A  
HETATM    5  C   UNL     1      -6.764  11.949  69.063  1.00  0.00    -0.099 A  
HETATM    6  C   UNL     1      -6.178  12.806  69.990  1.00  0.00    -0.060 A  
HETATM    7  C   UNL     1      -7.394  14.735  69.125  1.00  0.00    -0.151 A  
HETATM    8  C   UNL     1      -6.454  14.185  70.020  1.00  0.00    -0.103 A  
BRANCH   5   9
HETATM    9  N   UNL     1      -6.570  10.562  69.054  1.00  0.00    -0.056 NA 
HETATM   10  H   UNL     1      -5.814  10.135  69.590  1.00  0.00     0.000 HD 
BRANCH   9  11
HETATM   11  C   UNL     1      -7.477   9.744  68.256  1.00  0.00    -0.080 C  
BRANCH  11  12
HETATM   12  C   UNL     1      -8.817   9.512  68.934  1.00  0.00    -0.137 A  
HETATM   13  C   UNL     1      -8.869   9.061  70.279  1.00  0.00    -0.210 A  
HETATM   14  H2  UNL     1      -8.880   9.406  73.260  1.00  0.00     0.000 HD 
HETATM   15  C   UNL     1     -10.144   8.917  70.954  1.00  0.00    -0.304 A  
HETATM   16  H1  UNL     1      -9.586   8.314  74.263  1.00  0.00     0.000 HD 
HETATM   17  C   UNL     1      -7.587   8.721  71.006  1.00  0.00    -0.124 C  
HETATM   18  C   UNL     1     -11.324   9.119  70.222  1.00  0.00    -0.188 A  
HETATM   19  N   UNL     1     -12.550   8.941  70.721  1.00  0.00     0.015 NA 
HETATM   20  C   UNL     1     -11.244   9.543  68.909  1.00  0.00     0.037 A  
HETATM   21  C   UNL     1     -10.023   9.765  68.273  1.00  0.00    -0.175 A  
HETATM   22  C   UNL     1     -12.650   8.575  71.993  1.00  0.00    -0.364 A  
HETATM   23  N   UNL     1     -11.627   8.448  72.829  1.00  0.00    -0.296 NA 
HETATM   24  N   UNL     1     -13.914   8.350  72.497  1.00  0.00    -0.626 NA 
HETATM   25  C   UNL     1     -10.402   8.617  72.312  1.00  0.00    -0.306 A  
HETATM   26  H2  UNL     1     -14.743   8.461  71.913  1.00  0.00     0.000 HD 
HETATM   27  H1  UNL     1     -13.991   8.069  73.474  1.00  0.00     0.000 HD 
HETATM   28  N   UNL     1      -9.401   8.530  73.284  1.00  0.00    -0.135 NA 
ENDBRANCH  11  12
ENDBRANCH   9  11
ENDBRANCH   5   9
BRANCH   8  29
HETATM   29  O   UNL     1      -5.717  14.809  70.998  1.00  0.00    -0.143 OA 
HETATM   30  C   UNL     1      -5.320  14.089  72.153  1.00  0.00    -0.215 C  
ENDBRANCH   8  29
BRANCH   7  31
HETATM   31  O   UNL     1      -7.609  16.083  69.237  1.00  0.00    -0.221 OA 
HETATM   32  C   UNL     1      -6.558  17.006  69.014  1.00  0.00    -0.216 C  
ENDBRANCH   7  31
ENDBRANCH   2   3
TORSDOF 6
ENDMDL
MODEL      269
REMARK 921   NORMALIZED FREE ENERGY PREDICTED BY IDOCK:   -2.95 KCAL/MOL
REMARK 922        TOTAL FREE ENERGY PREDICTED BY IDOCK:   -4.84 KCAL/MOL
REMARK 923 INTER-LIGAND FREE ENERGY PREDICTED BY IDOCK:   -4.48 KCAL/MOL
REMARK 924 INTRA-LIGAND FREE ENERGY PREDICTED BY IDOCK:   -0.36 KCAL/MOL
REMARK 927      BINDING AFFINITY PREDICTED BY RF-SCORE:    0.00 PKD
ROOT
HETATM    1  C   UNL     1     -11.942  11.349  69.361  1.00  0.00    -0.339 C  
HETATM    2  O   UNL     1     -12.191  11.662  67.992  1.00  0.00    -0.551 OA 
ENDROOT
BRANCH   2   3
HETATM    3  C   UNL     1     -11.164  11.425  67.111  1.00  0.00    -0.296 A  
HETATM    4  C   UNL     1      -9.977  10.815  67.551  1.00  0.00    -0.203 A  
HETATM    5  C   UNL     1      -8.922  10.531  66.685  1.00  0.00    -0.141 A  
HETATM    6  C   UNL     1      -9.070  10.916  65.355  1.00  0.00    -0.218 A  
HETATM    7  C   UNL     1     -11.325  11.758  65.747  1.00  0.00    -0.250 A  
HETATM    8  C   UNL     1     -10.254  11.497  64.868  1.00  0.00    -0.275 A  
BRANCH   5   9
HETATM    9  N   UNL     1      -7.732  10.020  67.220  1.00  0.00    -0.095 NA 
HETATM   10  H   UNL     1      -7.567  10.021  68.227  1.00  0.00     0.000 HD 
BRANCH   9  11
HETATM   11  C   UNL     1      -6.734   9.487  66.298  1.00  0.00    -0.075 C  
BRANCH  11  12
HETATM   12  C   UNL     1      -6.636   7.971  66.342  1.00  0.00    -0.051 A  
HETATM   13  C   UNL     1      -6.779   7.212  65.152  1.00  0.00    -0.047 A  
HETATM   14  H2  UNL     1      -5.808   5.913  62.626  1.00  0.00     0.000 HD 
HETATM   15  C   UNL     1      -6.605   5.773  65.177  1.00  0.00    -0.043 A  
HETATM   16  H1  UNL     1      -6.557   4.605  61.973  1.00  0.00     0.000 HD 
HETATM   17  C   UNL     1      -7.124   7.909  63.854  1.00  0.00    -0.080 C  
HETATM   18  C   UNL     1      -6.408   5.136  66.411  1.00  0.00    -0.036 A  
HETATM   19  N   UNL     1      -6.310   3.812  66.560  1.00  0.00    -0.035 NA 
HETATM   20  C   UNL     1      -6.289   5.900  67.557  1.00  0.00    -0.041 A  
HETATM   21  C   UNL     1      -6.372   7.291  67.534  1.00  0.00    -0.048 A  
HETATM   22  C   UNL     1      -6.380   3.063  65.466  1.00  0.00    -0.031 A  
HETATM   23  N   UNL     1      -6.462   3.534  64.228  1.00  0.00    -0.033 NA 
HETATM   24  N   UNL     1      -6.322   1.694  65.623  1.00  0.00    -0.022 NA 
HETATM   25  C   UNL     1      -6.571   4.863  64.094  1.00  0.00    -0.042 A  
HETATM   26  H2  UNL     1      -6.229   1.272  66.547  1.00  0.00     0.000 HD 
HETATM   27  H1  UNL     1      -6.376   1.119  64.783  1.00  0.00     0.000 HD 
HETATM   28  N   UNL     1      -6.581   5.261  62.754  1.00  0.00    -0.025 NA 
ENDBRANCH  11  12
ENDBRANCH   9  11
ENDBRANCH   5   9
BRANCH   8  29
HETATM   29  O   UNL     1     -10.157  11.743  63.519  1.00  0.00    -0.365 OA 
HETATM   30  C   UNL     1      -9.338  10.920  62.706  1.00  0.00    -0.342 C  
ENDBRANCH   8  29
BRANCH   7  31
HETATM   31  O   UNL     1     -12.431  12.339  65.186  1.00  0.00    -0.563 OA 
HETATM   32  C   UNL     1     -12.906  11.920  63.919  1.00  0.00    -0.232 C  
ENDBRANCH   7  31
ENDBRANCH   2   3
TORSDOF 6
ENDMDL
MODEL      270
REMARK 921   NORMALIZED FREE ENERGY PREDICTED BY IDOCK:   -2.91 KCAL/MOL
REMARK 922        TOTAL FREE ENERGY PREDICTED BY IDOCK:   -4.78 KCAL/MOL
REMARK 923 INTER-LIGAND FREE ENERGY PREDICTED BY IDOCK:   -5.10 KCAL/MOL
REMARK 924 INTRA-LIGAND FREE ENERGY PREDICTED BY IDOCK:    0.33 KCAL/MOL
REMARK 927      BINDING AFFINITY PREDICTED BY RF-SCORE:    0.00 PKD
ROOT
HETATM    1  C   UNL     1      -9.268  17.369  66.708  1.00  0.00    -0.260 C  
HETATM    2  O   UNL     1      -9.487  16.088  66.121  1.00  0.00    -0.284 OA 
ENDROOT
BRANCH   2   3
HETATM    3  C   UNL     1      -9.795  15.062  66.982  1.00  0.00    -0.238 A  
HETATM    4  C   UNL     1      -9.232  13.787  66.799  1.00  0.00    -0.255 A  
HETATM    5  C   UNL     1      -9.495  12.726  67.663  1.00  0.00    -0.190 A  
HETATM    6  C   UNL     1     -10.382  12.964  68.710  1.00  0.00    -0.143 A  
HETATM    7  C   UNL     1     -10.649  15.306  68.082  1.00  0.00    -0.254 A  
HETATM    8  C   UNL     1     -10.939  14.233  68.948  1.00  0.00    -0.257 A  
BRANCH   5   9
HETATM    9  N   UNL     1      -8.981  11.461  67.352  1.00  0.00    -0.152 NA 
HETATM   10  H   UNL     1      -7.974  11.299  67.312  1.00  0.00     0.000 HD 
BRANCH   9  11
HETATM   11  C   UNL     1      -9.924  10.380  67.085  1.00  0.00    -0.195 C  
BRANCH  11  12
HETATM   12  C   UNL     1      -9.853   9.263  68.113  1.00  0.00    -0.185 A  
HETATM   13  C   UNL     1      -9.558   7.935  67.706  1.00  0.00    -0.174 A  
HETATM   14  H2  UNL     1      -7.743   5.651  67.001  1.00  0.00     0.000 HD 
HETATM   15  C   UNL     1      -9.409   6.884  68.693  1.00  0.00    -0.135 A  
HETATM   16  H1  UNL     1      -8.210   4.085  67.160  1.00  0.00     0.000 HD 
HETATM   17  C   UNL     1      -9.408   7.618  66.235  1.00  0.00    -0.189 C  
HETATM   18  C   UNL     1      -9.675   7.176  70.039  1.00  0.00    -0.171 A  
HETATM   19  N   UNL     1      -9.642   6.270  71.020  1.00  0.00    -0.175 NA 
HETATM   20  C   UNL     1      -9.976   8.475  70.405  1.00  0.00    -0.203 A  
HETATM   21  C   UNL     1     -10.040   9.512  69.476  1.00  0.00    -0.218 A  
HETATM   22  C   UNL     1      -9.314   5.025  70.696  1.00  0.00    -0.160 A  
HETATM   23  N   UNL     1      -8.940   4.629  69.486  1.00  0.00    -0.087 NA 
HETATM   24  N   UNL     1      -9.321   4.080  71.700  1.00  0.00    -0.126 NA 
HETATM   25  C   UNL     1      -8.989   5.545  68.509  1.00  0.00    -0.110 A  
HETATM   26  H2  UNL     1      -9.570   4.327  72.658  1.00  0.00     0.000 HD 
HETATM   27  H1  UNL     1      -9.070   3.124  71.451  1.00  0.00     0.000 HD 
HETATM   28  N   UNL     1      -8.513   5.049  67.293  1.00  0.00    -0.106 NA 
ENDBRANCH  11  12
ENDBRANCH   9  11
ENDBRANCH   5   9
BRANCH   8  29
HETATM   29  O   UNL     1     -11.745  14.210  70.061  1.00  0.00    -0.276 OA 
HETATM   30  C   UNL     1     -12.374  13.002  70.455  1.00  0.00    -0.287 C  
ENDBRANCH   8  29
BRANCH   7  31
HETATM   31  O   UNL     1     -11.248  16.499  68.384  1.00  0.00    -0.359 OA 
HETATM   32  C   UNL     1     -10.901  17.208  69.560  1.00  0.00     0.086 C  
ENDBRANCH   7  31
ENDBRANCH   2   3
TORSDOF 6
ENDMDL
MODEL      271
REMARK 921   NORMALIZED FREE ENERGY PREDICTED BY IDOCK:   -2.87 KCAL/MOL
REMARK 922        TOTAL FREE ENERGY PREDICTED BY IDOCK:   -4.73 KCAL/MOL
REMARK 923 INTER-LIGAND FREE ENERGY PREDICTED BY IDOCK:   -3.68 KCAL/MOL
REMARK 924 INTRA-LIGAND FREE ENERGY PREDICTED BY IDOCK:   -1.04 KCAL/MOL
REMARK 927      BINDING AFFINITY PREDICTED BY RF-SCORE:    0.00 PKD
ROOT
HETATM    1  C   UNL     1     -11.938  15.237  70.027  1.00  0.00    -0.343 C  
HETATM    2  O   UNL     1     -11.679  13.888  70.410  1.00  0.00    -0.275 OA 
ENDROOT
BRANCH   2   3
HETATM    3  C   UNL     1     -10.797  13.185  69.625  1.00  0.00     0.298 A  
HETATM    4  C   UNL     1      -9.443  13.560  69.566  1.00  0.00     1.121 A  
HETATM    5  C   UNL     1      -8.510  12.858  68.805  1.00  0.00     0.159 A  
HETATM    6  C   UNL     1      -8.979  11.779  68.061  1.00  0.00    -0.176 A  
HETATM    7  C   UNL     1     -11.249  12.053  68.910  1.00  0.00    -0.261 A  
HETATM    8  C   UNL     1     -10.317  11.350  68.119  1.00  0.00    -0.188 A  
BRANCH   5   9
HETATM    9  N   UNL     1      -7.204  13.357  68.713  1.00  0.00    -0.111 NA 
HETATM   10  H   UNL     1      -6.540  13.232  69.478  1.00  0.00     0.000 HD 
BRANCH   9  11
HETATM   11  C   UNL     1      -6.820  14.063  67.496  1.00  0.00    -0.131 C  
BRANCH  11  12
HETATM   12  C   UNL     1      -7.245  15.522  67.495  1.00  0.00    -0.222 A  
HETATM   13  C   UNL     1      -8.468  15.909  66.887  1.00  0.00    -0.275 A  
HETATM   14  H2  UNL     1     -11.430  16.385  66.805  1.00  0.00     0.000 HD 
HETATM   15  C   UNL     1      -8.915  17.286  66.956  1.00  0.00    -0.245 A  
HETATM   16  H1  UNL     1     -12.111  17.475  65.783  1.00  0.00     0.000 HD 
HETATM   17  C   UNL     1      -9.300  14.880  66.154  1.00  0.00    -0.307 C  
HETATM   18  C   UNL     1      -8.068  18.245  67.531  1.00  0.00    -0.239 A  
HETATM   19  N   UNL     1      -8.345  19.551  67.581  1.00  0.00    -0.297 NA 
HETATM   20  C   UNL     1      -6.876  17.842  68.103  1.00  0.00    -0.206 A  
HETATM   21  C   UNL     1      -6.473  16.508  68.116  1.00  0.00    -0.141 A  
HETATM   22  C   UNL     1      -9.505  19.953  67.076  1.00  0.00    -0.380 A  
HETATM   23  N   UNL     1     -10.444  19.148  66.594  1.00  0.00    -0.416 NA 
HETATM   24  N   UNL     1      -9.774  21.306  67.088  1.00  0.00    -0.411 NA 
HETATM   25  C   UNL     1     -10.148  17.842  66.539  1.00  0.00    -0.370 A  
HETATM   26  H2  UNL     1      -9.105  21.974  67.472  1.00  0.00     0.000 HD 
HETATM   27  H1  UNL     1     -10.664  21.615  66.700  1.00  0.00     0.000 HD 
HETATM   28  N   UNL     1     -11.223  17.074  66.083  1.00  0.00     0.419 NA 
ENDBRANCH  11  12
ENDBRANCH   9  11
ENDBRANCH   5   9
BRANCH   8  29
HETATM   29  O   UNL     1     -10.510  10.245  67.326  1.00  0.00    -0.221 OA 
HETATM   30  C   UNL     1      -9.805  10.119  66.103  1.00  0.00    -0.237 C  
ENDBRANCH   8  29
BRANCH   7  31
HETATM   31  O   UNL     1     -12.531  11.572  68.894  1.00  0.00    -0.331 OA 
HETATM   32  C   UNL     1     -13.032  10.806  69.974  1.00  0.00     0.103 C  
ENDBRANCH   7  31
ENDBRANCH   2   3
TORSDOF 6
ENDMDL
MODEL      272
REMARK 921   NORMALIZED FREE ENERGY PREDICTED BY IDOCK:   -2.79 KCAL/MOL
REMARK 922        TOTAL FREE ENERGY PREDICTED BY IDOCK:   -4.62 KCAL/MOL
REMARK 923 INTER-LIGAND FREE ENERGY PREDICTED BY IDOCK:   -3.80 KCAL/MOL
REMARK 924 INTRA-LIGAND FREE ENERGY PREDICTED BY IDOCK:   -0.81 KCAL/MOL
REMARK 927      BINDING AFFINITY PREDICTED BY RF-SCORE:    0.00 PKD
ROOT
HETATM    1  C   UNL     1      -5.454  12.452  67.012  1.00  0.00     0.045 C  
HETATM    2  O   UNL     1      -5.321  13.499  67.971  1.00  0.00    -0.101 OA 
ENDROOT
BRANCH   2   3
HETATM    3  C   UNL     1      -5.285  13.122  69.291  1.00  0.00    -0.074 A  
HETATM    4  C   UNL     1      -5.240  11.761  69.642  1.00  0.00    -0.067 A  
HETATM    5  C   UNL     1      -5.175  11.337  70.968  1.00  0.00    -0.115 A  
HETATM    6  C   UNL     1      -5.198  12.321  71.952  1.00  0.00     0.138 A  
HETATM    7  C   UNL     1      -5.249  14.113  70.299  1.00  0.00    -0.098 A  
HETATM    8  C   UNL     1      -5.208  13.692  71.644  1.00  0.00    -0.194 A  
BRANCH   5   9
HETATM    9  N   UNL     1      -5.242   9.963  71.238  1.00  0.00    -0.066 NA 
HETATM   10  H   UNL     1      -4.855   9.579  72.101  1.00  0.00     0.000 HD 
BRANCH   9  11
HETATM   11  C   UNL     1      -5.877   9.097  70.252  1.00  0.00    -0.035 C  
BRANCH  11  12
HETATM   12  C   UNL     1      -7.081   8.351  70.805  1.00  0.00    -0.050 A  
HETATM   13  C   UNL     1      -8.392   8.851  70.591  1.00  0.00    -0.190 A  
HETATM   14  H2  UNL     1     -10.944   9.208  69.053  1.00  0.00     0.000 HD 
HETATM   15  C   UNL     1      -9.545   8.100  71.046  1.00  0.00    -0.189 A  
HETATM   16  H1  UNL     1     -12.371   9.540  69.795  1.00  0.00     0.000 HD 
HETATM   17  C   UNL     1      -8.582  10.180  69.891  1.00  0.00    -0.100 C  
HETATM   18  C   UNL     1      -9.339   6.936  71.800  1.00  0.00    -0.145 A  
HETATM   19  N   UNL     1     -10.325   6.208  72.333  1.00  0.00    -0.189 NA 
HETATM   20  C   UNL     1      -8.051   6.480  72.007  1.00  0.00    -0.107 A  
HETATM   21  C   UNL     1      -6.937   7.149  71.503  1.00  0.00    -0.064 A  
HETATM   22  C   UNL     1     -11.572   6.605  72.110  1.00  0.00    -0.298 A  
HETATM   23  N   UNL     1     -11.917   7.625  71.334  1.00  0.00    -0.300 NA 
HETATM   24  N   UNL     1     -12.589   5.880  72.694  1.00  0.00    -0.429 NA 
HETATM   25  C   UNL     1     -10.918   8.353  70.815  1.00  0.00    -0.247 A  
HETATM   26  H2  UNL     1     -12.391   5.067  73.277  1.00  0.00     0.000 HD 
HETATM   27  H1  UNL     1     -13.546   6.185  72.523  1.00  0.00     0.000 HD 
HETATM   28  N   UNL     1     -11.382   9.358  69.962  1.00  0.00    -0.192 NA 
ENDBRANCH  11  12
ENDBRANCH   9  11
ENDBRANCH   5   9
BRANCH   8  29
HETATM   29  O   UNL     1      -5.187  14.450  72.790  1.00  0.00    -0.214 OA 
HETATM   30  C   UNL     1      -5.255  13.819  74.057  1.00  0.00    -0.214 C  
ENDBRANCH   8  29
BRANCH   7  31
HETATM   31  O   UNL     1      -5.271  15.467  70.096  1.00  0.00    -0.111 OA 
HETATM   32  C   UNL     1      -6.413  16.099  69.545  1.00  0.00    -0.199 C  
ENDBRANCH   7  31
ENDBRANCH   2   3
TORSDOF 6
ENDMDL
MODEL      273
REMARK 921   NORMALIZED FREE ENERGY PREDICTED BY IDOCK:   -2.74 KCAL/MOL
REMARK 922        TOTAL FREE ENERGY PREDICTED BY IDOCK:   -4.56 KCAL/MOL
REMARK 923 INTER-LIGAND FREE ENERGY PREDICTED BY IDOCK:   -3.71 KCAL/MOL
REMARK 924 INTRA-LIGAND FREE ENERGY PREDICTED BY IDOCK:   -0.85 KCAL/MOL
REMARK 927      BINDING AFFINITY PREDICTED BY RF-SCORE:    0.00 PKD
ROOT
HETATM    1  C   UNL     1     -11.990  11.252  67.848  1.00  0.00    -0.002 C  
HETATM    2  O   UNL     1     -10.719  11.818  68.158  1.00  0.00    -0.197 OA 
ENDROOT
BRANCH   2   3
HETATM    3  C   UNL     1      -9.615  11.095  67.777  1.00  0.00    -0.172 A  
HETATM    4  C   UNL     1      -9.765   9.857  67.127  1.00  0.00    -0.224 A  
HETATM    5  C   UNL     1      -8.672   9.104  66.699  1.00  0.00    -0.127 A  
HETATM    6  C   UNL     1      -7.405   9.609  66.977  1.00  0.00    -0.087 A  
HETATM    7  C   UNL     1      -8.323  11.623  68.002  1.00  0.00    -0.148 A  
HETATM    8  C   UNL     1      -7.212  10.857  67.593  1.00  0.00    -0.093 A  
BRANCH   5   9
HETATM    9  N   UNL     1      -8.903   7.833  66.156  1.00  0.00    -0.157 NA 
HETATM   10  H   UNL     1      -8.263   7.432  65.470  1.00  0.00     0.000 HD 
BRANCH   9  11
HETATM   11  C   UNL     1     -10.082   7.098  66.599  1.00  0.00    -0.159 C  
BRANCH  11  12
HETATM   12  C   UNL     1      -9.776   6.086  67.691  1.00  0.00    -0.120 A  
HETATM   13  C   UNL     1     -10.286   6.274  69.002  1.00  0.00    -0.251 A  
HETATM   14  H2  UNL     1     -12.350   6.057  71.170  1.00  0.00     0.000 HD 
HETATM   15  C   UNL     1     -10.064   5.270  70.024  1.00  0.00    -0.336 A  
HETATM   16  H1  UNL     1     -11.946   6.039  72.761  1.00  0.00     0.000 HD 
HETATM   17  C   UNL     1     -11.056   7.534  69.334  1.00  0.00    -0.016 C  
HETATM   18  C   UNL     1      -9.243   4.173  69.727  1.00  0.00    -0.143 A  
HETATM   19  N   UNL     1      -8.911   3.229  70.612  1.00  0.00    -0.084 NA 
HETATM   20  C   UNL     1      -8.747   4.023  68.446  1.00  0.00    -0.126 A  
HETATM   21  C   UNL     1      -9.021   4.939  67.432  1.00  0.00    -0.111 A  
HETATM   22  C   UNL     1      -9.412   3.331  71.837  1.00  0.00    -0.139 A  
HETATM   23  N   UNL     1     -10.280   4.256  72.228  1.00  0.00    -0.185 NA 
HETATM   24  N   UNL     1      -9.036   2.381  72.764  1.00  0.00    -0.077 NA 
HETATM   25  C   UNL     1     -10.595   5.203  71.334  1.00  0.00    -0.137 A  
HETATM   26  H2  UNL     1      -8.396   1.626  72.518  1.00  0.00     0.000 HD 
HETATM   27  H1  UNL     1      -9.420   2.460  73.705  1.00  0.00     0.000 HD 
HETATM   28  N   UNL     1     -11.564   6.087  71.817  1.00  0.00    -0.266 NA 
ENDBRANCH  11  12
ENDBRANCH   9  11
ENDBRANCH   5   9
BRANCH   8  29
HETATM   29  O   UNL     1      -5.872  11.138  67.716  1.00  0.00    -0.046 OA 
HETATM   30  C   UNL     1      -5.250  11.085  68.989  1.00  0.00    -0.041 C  
ENDBRANCH   8  29
BRANCH   7  31
HETATM   31  O   UNL     1      -8.037  12.817  68.606  1.00  0.00    -0.110 OA 
HETATM   32  C   UNL     1      -7.577  13.922  67.848  1.00  0.00    -0.156 C  
ENDBRANCH   7  31
ENDBRANCH   2   3
TORSDOF 6
ENDMDL
MODEL      274
REMARK 921   NORMALIZED FREE ENERGY PREDICTED BY IDOCK:   -2.57 KCAL/MOL
REMARK 922        TOTAL FREE ENERGY PREDICTED BY IDOCK:   -4.33 KCAL/MOL
REMARK 923 INTER-LIGAND FREE ENERGY PREDICTED BY IDOCK:   -4.10 KCAL/MOL
REMARK 924 INTRA-LIGAND FREE ENERGY PREDICTED BY IDOCK:   -0.22 KCAL/MOL
REMARK 927      BINDING AFFINITY PREDICTED BY RF-SCORE:    0.00 PKD
ROOT
HETATM    1  C   UNL     1     -12.530  11.894  70.034  1.00  0.00    -0.021 C  
HETATM    2  O   UNL     1     -12.476  12.171  68.636  1.00  0.00    -0.033 OA 
ENDROOT
BRANCH   2   3
HETATM    3  C   UNL     1     -11.349  11.756  67.970  1.00  0.00    -0.288 A  
HETATM    4  C   UNL     1     -10.396  10.950  68.618  1.00  0.00    -0.206 A  
HETATM    5  C   UNL     1      -9.253  10.483  67.971  1.00  0.00    -0.142 A  
HETATM    6  C   UNL     1      -9.062  10.883  66.651  1.00  0.00    -0.175 A  
HETATM    7  C   UNL     1     -11.172  12.106  66.612  1.00  0.00    -0.324 A  
HETATM    8  C   UNL     1     -10.007  11.659  65.957  1.00  0.00    -0.228 A  
BRANCH   5   9
HETATM    9  N   UNL     1      -8.301   9.775  68.716  1.00  0.00    -0.109 NA 
HETATM   10  H   UNL     1      -8.235   9.890  69.727  1.00  0.00     0.000 HD 
BRANCH   9  11
HETATM   11  C   UNL     1      -7.405   8.869  68.006  1.00  0.00    -0.084 C  
BRANCH  11  12
HETATM   12  C   UNL     1      -8.019   7.501  67.757  1.00  0.00    -0.118 A  
HETATM   13  C   UNL     1      -7.273   6.324  68.025  1.00  0.00    -0.087 A  
HETATM   14  H2  UNL     1      -6.223   4.109  69.757  1.00  0.00     0.000 HD 
HETATM   15  C   UNL     1      -7.884   5.019  67.867  1.00  0.00    -0.090 A  
HETATM   16  H1  UNL     1      -5.787   2.651  69.141  1.00  0.00     0.000 HD 
HETATM   17  C   UNL     1      -5.831   6.435  68.468  1.00  0.00    -0.020 C  
HETATM   18  C   UNL     1      -9.180   4.938  67.337  1.00  0.00    -0.125 A  
HETATM   19  N   UNL     1      -9.810   3.788  67.079  1.00  0.00    -0.106 NA 
HETATM   20  C   UNL     1      -9.878   6.101  67.070  1.00  0.00    -0.180 A  
HETATM   21  C   UNL     1      -9.332   7.363  67.296  1.00  0.00    -0.159 A  
HETATM   22  C   UNL     1      -9.173   2.660  67.368  1.00  0.00    -0.160 A  
HETATM   23  N   UNL     1      -7.990   2.587  67.964  1.00  0.00    -0.059 NA 
HETATM   24  N   UNL     1      -9.805   1.472  67.063  1.00  0.00    -0.105 NA 
HETATM   25  C   UNL     1      -7.364   3.747  68.206  1.00  0.00    -0.055 A  
HETATM   26  H2  UNL     1     -10.729   1.461  66.631  1.00  0.00     0.000 HD 
HETATM   27  H1  UNL     1      -9.316   0.606  67.284  1.00  0.00     0.000 HD 
HETATM   28  N   UNL     1      -6.162   3.567  68.896  1.00  0.00    -0.028 NA 
ENDBRANCH  11  12
ENDBRANCH   9  11
ENDBRANCH   5   9
BRANCH   8  29
HETATM   29  O   UNL     1      -9.599  11.880  64.663  1.00  0.00    -0.155 OA 
HETATM   30  C   UNL     1      -9.308  10.782  63.815  1.00  0.00    -0.266 C  
ENDBRANCH   8  29
BRANCH   7  31
HETATM   31  O   UNL     1     -12.026  12.869  65.861  1.00  0.00    -0.406 OA 
HETATM   32  C   UNL     1     -12.548  12.381  64.638  1.00  0.00    -0.375 C  
ENDBRANCH   7  31
ENDBRANCH   2   3
TORSDOF 6
ENDMDL
MODEL      275
REMARK 921   NORMALIZED FREE ENERGY PREDICTED BY IDOCK:   -2.47 KCAL/MOL
REMARK 922        TOTAL FREE ENERGY PREDICTED BY IDOCK:   -4.18 KCAL/MOL
REMARK 923 INTER-LIGAND FREE ENERGY PREDICTED BY IDOCK:   -3.43 KCAL/MOL
REMARK 924 INTRA-LIGAND FREE ENERGY PREDICTED BY IDOCK:   -0.76 KCAL/MOL
REMARK 927      BINDING AFFINITY PREDICTED BY RF-SCORE:    0.00 PKD
ROOT
HETATM    1  C   UNL     1      -7.718   7.796  74.135  1.00  0.00    -0.175 C  
HETATM    2  O   UNL     1      -8.187   8.813  73.252  1.00  0.00    -0.402 OA 
ENDROOT
BRANCH   2   3
HETATM    3  C   UNL     1      -8.292   8.475  71.925  1.00  0.00    -0.156 A  
HETATM    4  C   UNL     1      -7.137   8.289  71.145  1.00  0.00    -0.059 A  
HETATM    5  C   UNL     1      -7.197   7.919  69.803  1.00  0.00    -0.066 A  
HETATM    6  C   UNL     1      -8.462   7.775  69.240  1.00  0.00    -0.138 A  
HETATM    7  C   UNL     1      -9.569   8.269  71.356  1.00  0.00    -0.177 A  
HETATM    8  C   UNL     1      -9.641   7.917  69.993  1.00  0.00    -0.168 A  
BRANCH   5   9
HETATM    9  N   UNL     1      -6.006   7.859  69.068  1.00  0.00    -0.037 NA 
HETATM   10  H   UNL     1      -5.122   7.620  69.519  1.00  0.00     0.000 HD 
BRANCH   9  11
HETATM   11  C   UNL     1      -6.062   8.148  67.639  1.00  0.00    -0.051 C  
BRANCH  11  12
HETATM   12  C   UNL     1      -6.398   6.926  66.799  1.00  0.00    -0.045 A  
HETATM   13  C   UNL     1      -7.059   7.076  65.552  1.00  0.00    -0.068 A  
HETATM   14  H2  UNL     1      -7.197   7.549  62.592  1.00  0.00     0.000 HD 
HETATM   15  C   UNL     1      -7.307   5.921  64.712  1.00  0.00    -0.069 A  
HETATM   16  H1  UNL     1      -8.435   6.981  61.674  1.00  0.00     0.000 HD 
HETATM   17  C   UNL     1      -7.514   8.448  65.105  1.00  0.00    -0.084 C  
HETATM   18  C   UNL     1      -6.989   4.647  65.203  1.00  0.00    -0.062 A  
HETATM   19  N   UNL     1      -7.242   3.510  64.547  1.00  0.00    -0.061 NA 
HETATM   20  C   UNL     1      -6.359   4.528  66.428  1.00  0.00    -0.033 A  
HETATM   21  C   UNL     1      -6.040   5.638  67.209  1.00  0.00    -0.029 A  
HETATM   22  C   UNL     1      -7.807   3.604  63.350  1.00  0.00    -0.072 A  
HETATM   23  N   UNL     1      -8.069   4.743  62.721  1.00  0.00    -0.074 NA 
HETATM   24  N   UNL     1      -8.108   2.431  62.690  1.00  0.00    -0.067 NA 
HETATM   25  C   UNL     1      -7.821   5.875  63.394  1.00  0.00    -0.100 A  
HETATM   26  H2  UNL     1      -7.903   1.522  63.108  1.00  0.00     0.000 HD 
HETATM   27  H1  UNL     1      -8.542   2.502  61.771  1.00  0.00     0.000 HD 
HETATM   28  N   UNL     1      -8.064   7.014  62.623  1.00  0.00    -0.109 NA 
ENDBRANCH  11  12
ENDBRANCH   9  11
ENDBRANCH   5   9
BRANCH   8  29
HETATM   29  O   UNL     1     -10.748   7.685  69.213  1.00  0.00    -0.221 OA 
HETATM   30  C   UNL     1     -11.285   6.377  69.117  1.00  0.00    -0.354 C  
ENDBRANCH   8  29
BRANCH   7  31
HETATM   31  O   UNL     1     -10.768   8.399  72.004  1.00  0.00    -0.267 OA 
HETATM   32  C   UNL     1     -11.423   7.269  72.551  1.00  0.00    -0.281 C  
ENDBRANCH   7  31
ENDBRANCH   2   3
TORSDOF 6
ENDMDL
MODEL      276
REMARK 921   NORMALIZED FREE ENERGY PREDICTED BY IDOCK:   -2.35 KCAL/MOL
REMARK 922        TOTAL FREE ENERGY PREDICTED BY IDOCK:   -4.03 KCAL/MOL
REMARK 923 INTER-LIGAND FREE ENERGY PREDICTED BY IDOCK:   -3.50 KCAL/MOL
REMARK 924 INTRA-LIGAND FREE ENERGY PREDICTED BY IDOCK:   -0.53 KCAL/MOL
REMARK 927      BINDING AFFINITY PREDICTED BY RF-SCORE:    0.00 PKD
ROOT
HETATM    1  C   UNL     1      -5.175   6.634  64.833  1.00  0.00    -0.026 C  
HETATM    2  O   UNL     1      -5.731   7.676  64.034  1.00  0.00    -0.043 OA 
ENDROOT
BRANCH   2   3
HETATM    3  C   UNL     1      -6.493   8.613  64.690  1.00  0.00    -0.066 A  
HETATM    4  C   UNL     1      -6.198   8.966  66.018  1.00  0.00    -0.056 A  
HETATM    5  C   UNL     1      -6.927   9.932  66.711  1.00  0.00    -0.089 A  
HETATM    6  C   UNL     1      -8.000  10.516  66.044  1.00  0.00    -0.149 A  
HETATM    7  C   UNL     1      -7.549   9.257  64.005  1.00  0.00    -0.113 A  
HETATM    8  C   UNL     1      -8.307  10.217  64.705  1.00  0.00    -0.172 A  
BRANCH   5   9
HETATM    9  N   UNL     1      -6.639  10.149  68.065  1.00  0.00    -0.058 NA 
HETATM   10  H   UNL     1      -6.725  11.078  68.476  1.00  0.00     0.000 HD 
BRANCH   9  11
HETATM   11  C   UNL     1      -6.213   9.010  68.870  1.00  0.00    -0.044 C  
BRANCH  11  12
HETATM   12  C   UNL     1      -7.312   8.477  69.774  1.00  0.00    -0.056 A  
HETATM   13  C   UNL     1      -8.274   7.564  69.268  1.00  0.00    -0.130 A  
HETATM   14  H2  UNL     1      -9.322   4.844  68.553  1.00  0.00     0.000 HD 
HETATM   15  C   UNL     1      -9.273   6.992  70.148  1.00  0.00    -0.152 A  
HETATM   16  H1  UNL     1     -10.930   4.519  68.485  1.00  0.00     0.000 HD 
HETATM   17  C   UNL     1      -8.257   7.195  67.800  1.00  0.00    -0.115 C  
HETATM   18  C   UNL     1      -9.346   7.443  71.473  1.00  0.00    -0.144 A  
HETATM   19  N   UNL     1     -10.272   7.041  72.349  1.00  0.00    -0.185 NA 
HETATM   20  C   UNL     1      -8.407   8.345  71.936  1.00  0.00    -0.223 A  
HETATM   21  C   UNL     1      -7.389   8.840  71.122  1.00  0.00    -0.106 A  
HETATM   22  C   UNL     1     -11.158   6.142  71.937  1.00  0.00    -0.274 A  
HETATM   23  N   UNL     1     -11.147   5.555  70.747  1.00  0.00    -0.130 NA 
HETATM   24  N   UNL     1     -12.140   5.758  72.826  1.00  0.00    -0.534 NA 
HETATM   25  C   UNL     1     -10.220   5.976  69.875  1.00  0.00    -0.205 A  
HETATM   26  H2  UNL     1     -12.185   6.150  73.767  1.00  0.00     0.000 HD 
HETATM   27  H1  UNL     1     -12.821   5.068  72.510  1.00  0.00     0.000 HD 
HETATM   28  N   UNL     1     -10.248   5.251  68.681  1.00  0.00    -0.173 NA 
ENDBRANCH  11  12
ENDBRANCH   9  11
ENDBRANCH   5   9
BRANCH   8  29
HETATM   29  O   UNL     1      -9.382  10.957  64.274  1.00  0.00    -0.213 OA 
HETATM   30  C   UNL     1      -9.844  12.052  65.047  1.00  0.00    -0.187 C  
ENDBRANCH   8  29
BRANCH   7  31
HETATM   31  O   UNL     1      -7.930   9.020  62.712  1.00  0.00    -0.127 OA 
HETATM   32  C   UNL     1      -8.898   8.032  62.410  1.00  0.00     0.268 C  
ENDBRANCH   7  31
ENDBRANCH   2   3
TORSDOF 6
ENDMDL
MODEL      277
REMARK 921   NORMALIZED FREE ENERGY PREDICTED BY IDOCK:   -2.29 KCAL/MOL
REMARK 922        TOTAL FREE ENERGY PREDICTED BY IDOCK:   -3.95 KCAL/MOL
REMARK 923 INTER-LIGAND FREE ENERGY PREDICTED BY IDOCK:   -3.62 KCAL/MOL
REMARK 924 INTRA-LIGAND FREE ENERGY PREDICTED BY IDOCK:   -0.33 KCAL/MOL
REMARK 927      BINDING AFFINITY PREDICTED BY RF-SCORE:    0.00 PKD
ROOT
HETATM    1  C   UNL     1      -7.347  11.904  66.485  1.00  0.00     0.175 C  
HETATM    2  O   UNL     1      -7.049  13.088  67.223  1.00  0.00    -0.141 OA 
ENDROOT
BRANCH   2   3
HETATM    3  C   UNL     1      -6.556  12.913  68.493  1.00  0.00    -0.087 A  
HETATM    4  C   UNL     1      -6.203  11.630  68.949  1.00  0.00    -0.057 A  
HETATM    5  C   UNL     1      -5.673  11.412  70.219  1.00  0.00    -0.143 A  
HETATM    6  C   UNL     1      -5.538  12.521  71.050  1.00  0.00    -0.079 A  
HETATM    7  C   UNL     1      -6.360  14.038  69.326  1.00  0.00    -0.110 A  
HETATM    8  C   UNL     1      -5.846  13.824  70.622  1.00  0.00    -0.187 A  
BRANCH   5   9
HETATM    9  N   UNL     1      -5.448  10.094  70.637  1.00  0.00    -0.064 NA 
HETATM   10  H   UNL     1      -4.881   9.894  71.461  1.00  0.00     0.000 HD 
BRANCH   9  11
HETATM   11  C   UNL     1      -6.048   9.014  69.861  1.00  0.00    -0.034 C  
BRANCH  11  12
HETATM   12  C   UNL     1      -7.309   8.454  70.499  1.00  0.00    -0.057 A  
HETATM   13  C   UNL     1      -7.393   7.075  70.824  1.00  0.00    -0.073 A  
HETATM   14  H2  UNL     1      -6.992   4.668  72.571  1.00  0.00     0.000 HD 
HETATM   15  C   UNL     1      -8.562   6.555  71.506  1.00  0.00    -0.129 A  
HETATM   16  H1  UNL     1      -7.950   3.339  72.459  1.00  0.00     0.000 HD 
HETATM   17  C   UNL     1      -6.261   6.145  70.448  1.00  0.00    -0.035 C  
HETATM   18  C   UNL     1      -9.650   7.410  71.733  1.00  0.00    -0.149 A  
HETATM   19  N   UNL     1     -10.803   7.021  72.284  1.00  0.00    -0.223 NA 
HETATM   20  C   UNL     1      -9.546   8.746  71.392  1.00  0.00    -0.337 A  
HETATM   21  C   UNL     1      -8.396   9.276  70.810  1.00  0.00    -0.230 A  
HETATM   22  C   UNL     1     -10.908   5.752  72.659  1.00  0.00    -0.254 A  
HETATM   23  N   UNL     1      -9.928   4.859  72.599  1.00  0.00    -0.160 NA 
HETATM   24  N   UNL     1     -12.112   5.338  73.188  1.00  0.00    -0.437 NA 
HETATM   25  C   UNL     1      -8.781   5.260  72.033  1.00  0.00    -0.130 A  
HETATM   26  H2  UNL     1     -12.895   5.984  73.290  1.00  0.00     0.000 HD 
HETATM   27  H1  UNL     1     -12.193   4.363  73.475  1.00  0.00     0.000 HD 
HETATM   28  N   UNL     1      -7.793   4.272  72.079  1.00  0.00    -0.083 NA 
ENDBRANCH  11  12
ENDBRANCH   9  11
ENDBRANCH   5   9
BRANCH   8  29
HETATM   29  O   UNL     1      -5.587  14.738  71.615  1.00  0.00    -0.081 OA 
HETATM   30  C   UNL     1      -5.139  14.296  72.885  1.00  0.00    -0.269 C  
ENDBRANCH   8  29
BRANCH   7  31
HETATM   31  O   UNL     1      -6.644  15.337  69.002  1.00  0.00    -0.108 OA 
HETATM   32  C   UNL     1      -5.690  16.362  69.215  1.00  0.00    -0.137 C  
ENDBRANCH   7  31
ENDBRANCH   2   3
TORSDOF 6
ENDMDL
MODEL      278
REMARK 921   NORMALIZED FREE ENERGY PREDICTED BY IDOCK:   -2.29 KCAL/MOL
REMARK 922        TOTAL FREE ENERGY PREDICTED BY IDOCK:   -3.94 KCAL/MOL
REMARK 923 INTER-LIGAND FREE ENERGY PREDICTED BY IDOCK:   -3.80 KCAL/MOL
REMARK 924 INTRA-LIGAND FREE ENERGY PREDICTED BY IDOCK:   -0.14 KCAL/MOL
REMARK 927      BINDING AFFINITY PREDICTED BY RF-SCORE:    0.00 PKD
ROOT
HETATM    1  C   UNL     1     -12.406   6.610  70.730  1.00  0.00    -0.156 C  
HETATM    2  O   UNL     1     -11.071   6.387  71.180  1.00  0.00    -0.264 OA 
ENDROOT
BRANCH   2   3
HETATM    3  C   UNL     1     -10.066   6.674  70.289  1.00  0.00    -0.179 A  
HETATM    4  C   UNL     1      -9.657   8.003  70.081  1.00  0.00    -0.175 A  
HETATM    5  C   UNL     1      -8.623   8.335  69.207  1.00  0.00    -0.138 A  
HETATM    6  C   UNL     1      -8.025   7.293  68.505  1.00  0.00    -0.124 A  
HETATM    7  C   UNL     1      -9.411   5.619  69.613  1.00  0.00    -0.138 A  
HETATM    8  C   UNL     1      -8.380   5.948  68.709  1.00  0.00    -0.105 A  
BRANCH   5   9
HETATM    9  N   UNL     1      -8.348   9.689  68.975  1.00  0.00    -0.116 NA 
HETATM   10  H   UNL     1      -9.094  10.342  68.733  1.00  0.00     0.000 HD 
BRANCH   9  11
HETATM   11  C   UNL     1      -6.966  10.141  69.089  1.00  0.00    -0.062 C  
BRANCH  11  12
HETATM   12  C   UNL     1      -6.841  11.654  69.170  1.00  0.00    -0.111 A  
HETATM   13  C   UNL     1      -7.427  12.474  68.170  1.00  0.00    -0.117 A  
HETATM   14  H2  UNL     1      -9.659  14.019  66.889  1.00  0.00     0.000 HD 
HETATM   15  C   UNL     1      -7.380  13.918  68.288  1.00  0.00    -0.117 A  
HETATM   16  H1  UNL     1      -9.378  15.292  65.890  1.00  0.00     0.000 HD 
HETATM   17  C   UNL     1      -8.095  11.834  66.972  1.00  0.00    -0.169 C  
HETATM   18  C   UNL     1      -6.649  14.488  69.340  1.00  0.00    -0.138 A  
HETATM   19  N   UNL     1      -6.476  15.802  69.503  1.00  0.00    -0.168 NA 
HETATM   20  C   UNL     1      -6.075  13.665  70.291  1.00  0.00    -0.121 A  
HETATM   21  C   UNL     1      -6.184  12.277  70.235  1.00  0.00     0.015 A  
HETATM   22  C   UNL     1      -7.055  16.611  68.624  1.00  0.00    -0.183 A  
HETATM   23  N   UNL     1      -7.856  16.218  67.642  1.00  0.00    -0.140 NA 
HETATM   24  N   UNL     1      -6.843  17.967  68.765  1.00  0.00    -0.246 NA 
HETATM   25  C   UNL     1      -8.011  14.896  67.483  1.00  0.00    -0.178 A  
HETATM   26  H2  UNL     1      -6.262  18.335  69.519  1.00  0.00     0.000 HD 
HETATM   27  H1  UNL     1      -7.287  18.588  68.090  1.00  0.00     0.000 HD 
HETATM   28  N   UNL     1      -8.923  14.587  66.470  1.00  0.00    -0.222 NA 
ENDBRANCH  11  12
ENDBRANCH   9  11
ENDBRANCH   5   9
BRANCH   8  29
HETATM   29  O   UNL     1      -7.614   5.117  67.926  1.00  0.00    -0.082 OA 
HETATM   30  C   UNL     1      -6.733   5.667  66.961  1.00  0.00    -0.062 C  
ENDBRANCH   8  29
BRANCH   7  31
HETATM   31  O   UNL     1      -9.697   4.286  69.735  1.00  0.00    -0.200 OA 
HETATM   32  C   UNL     1      -9.103   3.508  70.759  1.00  0.00    -0.111 C  
ENDBRANCH   7  31
ENDBRANCH   2   3
TORSDOF 6
ENDMDL
MODEL      279
REMARK 921   NORMALIZED FREE ENERGY PREDICTED BY IDOCK:   -2.05 KCAL/MOL
REMARK 922        TOTAL FREE ENERGY PREDICTED BY IDOCK:   -3.63 KCAL/MOL
REMARK 923 INTER-LIGAND FREE ENERGY PREDICTED BY IDOCK:   -3.75 KCAL/MOL
REMARK 924 INTRA-LIGAND FREE ENERGY PREDICTED BY IDOCK:    0.12 KCAL/MOL
REMARK 927      BINDING AFFINITY PREDICTED BY RF-SCORE:    0.00 PKD
ROOT
HETATM    1  C   UNL     1     -12.080  13.224  67.137  1.00  0.00    -0.298 C  
HETATM    2  O   UNL     1     -11.142  13.123  68.206  1.00  0.00    -0.242 OA 
ENDROOT
BRANCH   2   3
HETATM    3  C   UNL     1      -9.839  12.860  67.858  1.00  0.00    -0.227 A  
HETATM    4  C   UNL     1      -9.523  11.727  67.088  1.00  0.00    -0.180 A  
HETATM    5  C   UNL     1      -8.219  11.438  66.689  1.00  0.00    -0.163 A  
HETATM    6  C   UNL     1      -7.217  12.302  67.121  1.00  0.00    -0.100 A  
HETATM    7  C   UNL     1      -8.819  13.760  68.241  1.00  0.00    -0.185 A  
HETATM    8  C   UNL     1      -7.494  13.464  67.863  1.00  0.00    -0.149 A  
BRANCH   5   9
HETATM    9  N   UNL     1      -7.973  10.234  66.016  1.00  0.00    -0.132 NA 
HETATM   10  H   UNL     1      -7.038  10.003  65.680  1.00  0.00     0.000 HD 
BRANCH   9  11
HETATM   11  C   UNL     1      -9.091   9.321  65.806  1.00  0.00    -0.209 C  
BRANCH  11  12
HETATM   12  C   UNL     1      -8.657   7.868  65.698  1.00  0.00    -0.159 A  
HETATM   13  C   UNL     1      -9.224   6.888  66.555  1.00  0.00    -0.195 A  
HETATM   14  H2  UNL     1     -11.284   4.867  67.380  1.00  0.00     0.000 HD 
HETATM   15  C   UNL     1      -8.874   5.490  66.400  1.00  0.00    -0.126 A  
HETATM   16  H1  UNL     1     -10.923   3.608  68.370  1.00  0.00     0.000 HD 
HETATM   17  C   UNL     1     -10.192   7.310  67.639  1.00  0.00    -0.257 C  
HETATM   18  C   UNL     1      -7.883   5.140  65.472  1.00  0.00    -0.092 A  
HETATM   19  N   UNL     1      -7.429   3.895  65.299  1.00  0.00    -0.079 NA 
HETATM   20  C   UNL     1      -7.336   6.117  64.661  1.00  0.00    -0.072 A  
HETATM   21  C   UNL     1      -7.725   7.453  64.743  1.00  0.00    -0.114 A  
HETATM   22  C   UNL     1      -7.972   2.935  66.037  1.00  0.00    -0.082 A  
HETATM   23  N   UNL     1      -8.984   3.104  66.879  1.00  0.00    -0.148 NA 
HETATM   24  N   UNL     1      -7.475   1.657  65.891  1.00  0.00    -0.060 NA 
HETATM   25  C   UNL     1      -9.421   4.359  67.051  1.00  0.00    -0.175 A  
HETATM   26  H2  UNL     1      -6.718   1.455  65.238  1.00  0.00     0.000 HD 
HETATM   27  H1  UNL     1      -7.891   0.919  66.458  1.00  0.00     0.000 HD 
HETATM   28  N   UNL     1     -10.529   4.423  67.901  1.00  0.00     0.306 NA 
ENDBRANCH  11  12
ENDBRANCH   9  11
ENDBRANCH   5   9
BRANCH   8  29
HETATM   29  O   UNL     1      -6.339  14.161  68.126  1.00  0.00    -0.104 OA 
HETATM   30  C   UNL     1      -5.681  13.997  69.371  1.00  0.00    -0.088 C  
ENDBRANCH   8  29
BRANCH   7  31
HETATM   31  O   UNL     1      -8.990  14.904  68.974  1.00  0.00    -0.194 OA 
HETATM   32  C   UNL     1     -10.254  15.540  69.041  1.00  0.00    -0.229 C  
ENDBRANCH   7  31
ENDBRANCH   2   3
TORSDOF 6
ENDMDL
MODEL      280
REMARK 921   NORMALIZED FREE ENERGY PREDICTED BY IDOCK:   -1.65 KCAL/MOL
REMARK 922        TOTAL FREE ENERGY PREDICTED BY IDOCK:   -3.08 KCAL/MOL
REMARK 923 INTER-LIGAND FREE ENERGY PREDICTED BY IDOCK:   -3.65 KCAL/MOL
REMARK 924 INTRA-LIGAND FREE ENERGY PREDICTED BY IDOCK:    0.57 KCAL/MOL
REMARK 927      BINDING AFFINITY PREDICTED BY RF-SCORE:    0.00 PKD
ROOT
HETATM    1  C   UNL     1      -7.953   5.041  62.808  1.00  0.00    -0.083 C  
HETATM    2  O   UNL     1      -6.774   5.787  63.106  1.00  0.00    -0.031 OA 
ENDROOT
BRANCH   2   3
HETATM    3  C   UNL     1      -6.521   6.032  64.434  1.00  0.00    -0.033 A  
HETATM    4  C   UNL     1      -6.528   7.348  64.928  1.00  0.00    -0.037 A  
HETATM    5  C   UNL     1      -6.304   7.640  66.273  1.00  0.00    -0.045 A  
HETATM    6  C   UNL     1      -6.029   6.568  67.117  1.00  0.00    -0.021 A  
HETATM    7  C   UNL     1      -6.298   4.948  65.314  1.00  0.00    -0.035 A  
HETATM    8  C   UNL     1      -6.048   5.235  66.671  1.00  0.00    -0.030 A  
BRANCH   5   9
HETATM    9  N   UNL     1      -6.220   8.982  66.665  1.00  0.00    -0.060 NA 
HETATM   10  H   UNL     1      -5.353   9.364  67.045  1.00  0.00     0.000 HD 
BRANCH   9  11
HETATM   11  C   UNL     1      -7.405   9.819  66.516  1.00  0.00    -0.095 C  
BRANCH  11  12
HETATM   12  C   UNL     1      -8.341   9.740  67.711  1.00  0.00    -0.114 A  
HETATM   13  C   UNL     1      -9.516  10.536  67.751  1.00  0.00    -0.162 A  
HETATM   14  H2  UNL     1     -12.395  11.160  67.173  1.00  0.00     0.000 HD 
HETATM   15  C   UNL     1     -10.452  10.403  68.850  1.00  0.00    -0.232 A  
HETATM   16  H1  UNL     1     -13.277  12.168  68.122  1.00  0.00     0.000 HD 
HETATM   17  C   UNL     1      -9.785  11.533  66.645  1.00  0.00    -0.221 C  
HETATM   18  C   UNL     1     -10.121   9.564  69.924  1.00  0.00    -0.232 A  
HETATM   19  N   UNL     1     -10.871   9.423  71.020  1.00  0.00    -0.308 NA 
HETATM   20  C   UNL     1      -8.962   8.812  69.865  1.00  0.00    -0.152 A  
HETATM   21  C   UNL     1      -8.094   8.869  68.776  1.00  0.00    -0.114 A  
HETATM   22  C   UNL     1     -12.009  10.103  71.078  1.00  0.00    -0.378 A  
HETATM   23  N   UNL     1     -12.496  10.852  70.097  1.00  0.00    -0.308 NA 
HETATM   24  N   UNL     1     -12.764   9.993  72.227  1.00  0.00    -0.264 NA 
HETATM   25  C   UNL     1     -11.728  10.994  69.008  1.00  0.00    -0.333 A  
HETATM   26  H2  UNL     1     -12.459   9.408  73.005  1.00  0.00     0.000 HD 
HETATM   27  H1  UNL     1     -13.638  10.515  72.271  1.00  0.00     0.000 HD 
HETATM   28  N   UNL     1     -12.357  11.742  68.009  1.00  0.00    -0.197 NA 
ENDBRANCH  11  12
ENDBRANCH   9  11
ENDBRANCH   5   9
BRANCH   8  29
HETATM   29  O   UNL     1      -5.786   4.370  67.707  1.00  0.00    -0.020 OA 
HETATM   30  C   UNL     1      -6.710   3.343  68.023  1.00  0.00    -0.045 C  
ENDBRANCH   8  29
BRANCH   7  31
HETATM   31  O   UNL     1      -6.282   3.624  64.969  1.00  0.00    -0.023 OA 
HETATM   32  C   UNL     1      -7.479   2.868  64.937  1.00  0.00    -0.075 C  
ENDBRANCH   7  31
ENDBRANCH   2   3
TORSDOF 6
ENDMDL
MODEL      281
REMARK 921   NORMALIZED FREE ENERGY PREDICTED BY IDOCK:   -1.05 KCAL/MOL
REMARK 922        TOTAL FREE ENERGY PREDICTED BY IDOCK:   -2.27 KCAL/MOL
REMARK 923 INTER-LIGAND FREE ENERGY PREDICTED BY IDOCK:   -5.88 KCAL/MOL
REMARK 924 INTRA-LIGAND FREE ENERGY PREDICTED BY IDOCK:    3.62 KCAL/MOL
REMARK 927      BINDING AFFINITY PREDICTED BY RF-SCORE:    0.00 PKD
ROOT
HETATM    1  C   UNL     1      -5.125  16.084  70.142  1.00  0.00    -0.136 C  
HETATM    2  O   UNL     1      -6.367  16.718  69.843  1.00  0.00    -0.215 OA 
ENDROOT
BRANCH   2   3
HETATM    3  C   UNL     1      -7.374  15.909  69.376  1.00  0.00    -0.217 A  
HETATM    4  C   UNL     1      -8.675  16.415  69.212  1.00  0.00    -0.108 A  
HETATM    5  C   UNL     1      -9.719  15.637  68.715  1.00  0.00    -0.212 A  
HETATM    6  C   UNL     1      -9.435  14.307  68.420  1.00  0.00    -0.213 A  
HETATM    7  C   UNL     1      -7.085  14.572  69.018  1.00  0.00    -0.124 A  
HETATM    8  C   UNL     1      -8.140  13.771  68.537  1.00  0.00    -0.128 A  
BRANCH   5   9
HETATM    9  N   UNL     1     -11.009  16.183  68.682  1.00  0.00    -0.317 NA 
HETATM   10  H   UNL     1     -11.194  17.114  69.058  1.00  0.00     0.000 HD 
BRANCH   9  11
HETATM   11  C   UNL     1     -12.081  15.386  68.097  1.00  0.00     0.128 C  
BRANCH  11  12
HETATM   12  C   UNL     1     -11.629  14.579  66.890  1.00  0.00    -0.399 A  
HETATM   13  C   UNL     1     -11.416  13.181  67.005  1.00  0.00    -0.379 A  
HETATM   14  H2  UNL     1     -12.249  10.297  67.002  1.00  0.00     0.000 HD 
HETATM   15  C   UNL     1     -11.065  12.396  65.839  1.00  0.00    -0.349 A  
HETATM   16  H1  UNL     1     -11.198   9.086  66.647  1.00  0.00     0.000 HD 
HETATM   17  C   UNL     1     -11.547  12.511  68.356  1.00  0.00    -0.368 C  
HETATM   18  C   UNL     1     -10.828  13.056  64.625  1.00  0.00    -0.354 A  
HETATM   19  N   UNL     1     -10.427  12.444  63.507  1.00  0.00    -0.429 NA 
HETATM   20  C   UNL     1     -11.028  14.422  64.545  1.00  0.00    -0.290 A  
HETATM   21  C   UNL     1     -11.446  15.176  65.640  1.00  0.00    -0.192 A  
HETATM   22  C   UNL     1     -10.270  11.126  63.551  1.00  0.00    -0.390 A  
HETATM   23  N   UNL     1     -10.555  10.362  64.598  1.00  0.00    -0.019 NA 
HETATM   24  N   UNL     1      -9.816  10.497  62.411  1.00  0.00    -0.725 NA 
HETATM   25  C   UNL     1     -10.944  10.991  65.716  1.00  0.00    -0.032 A  
HETATM   26  H2  UNL     1      -9.608  11.025  61.563  1.00  0.00     0.000 HD 
HETATM   27  H1  UNL     1      -9.695   9.486  62.445  1.00  0.00     0.000 HD 
HETATM   28  N   UNL     1     -11.285  10.098  66.735  1.00  0.00     0.035 NA 
ENDBRANCH  11  12
ENDBRANCH   9  11
ENDBRANCH   5   9
BRANCH   8  29
HETATM   29  O   UNL     1      -8.121  12.453  68.146  1.00  0.00    -0.146 OA 
HETATM   30  C   UNL     1      -7.337  12.055  67.034  1.00  0.00    -0.097 C  
ENDBRANCH   8  29
BRANCH   7  31
HETATM   31  O   UNL     1      -5.864  13.961  69.112  1.00  0.00    -0.080 OA 
HETATM   32  C   UNL     1      -5.517  13.208  70.260  1.00  0.00    -0.128 C  
ENDBRANCH   7  31
ENDBRANCH   2   3
TORSDOF 6
ENDMDL
MODEL      282
REMARK 921   NORMALIZED FREE ENERGY PREDICTED BY IDOCK:   -0.62 KCAL/MOL
REMARK 922        TOTAL FREE ENERGY PREDICTED BY IDOCK:   -1.69 KCAL/MOL
REMARK 923 INTER-LIGAND FREE ENERGY PREDICTED BY IDOCK:   -1.63 KCAL/MOL
REMARK 924 INTRA-LIGAND FREE ENERGY PREDICTED BY IDOCK:   -0.06 KCAL/MOL
REMARK 927      BINDING AFFINITY PREDICTED BY RF-SCORE:    0.00 PKD
ROOT
HETATM    1  C   UNL     1      -6.446  11.060  67.150  1.00  0.00    -0.084 C  
HETATM    2  O   UNL     1      -6.199  12.051  68.145  1.00  0.00    -0.050 OA 
ENDROOT
BRANCH   2   3
HETATM    3  C   UNL     1      -5.874  11.595  69.399  1.00  0.00    -0.071 A  
HETATM    4  C   UNL     1      -5.647  10.225  69.621  1.00  0.00    -0.038 A  
HETATM    5  C   UNL     1      -5.287   9.724  70.871  1.00  0.00    -0.057 A  
HETATM    6  C   UNL     1      -5.197  10.635  71.919  1.00  0.00     0.086 A  
HETATM    7  C   UNL     1      -5.722  12.517  70.459  1.00  0.00    -0.170 A  
HETATM    8  C   UNL     1      -5.381  12.016  71.732  1.00  0.00     0.226 A  
BRANCH   5   9
HETATM    9  N   UNL     1      -5.184   8.336  71.035  1.00  0.00    -0.029 NA 
HETATM   10  H   UNL     1      -4.598   7.936  71.768  1.00  0.00     0.000 HD 
BRANCH   9  11
HETATM   11  C   UNL     1      -5.938   7.477  70.128  1.00  0.00    -0.023 C  
BRANCH  11  12
HETATM   12  C   UNL     1      -6.993   6.645  70.838  1.00  0.00    -0.067 A  
HETATM   13  C   UNL     1      -6.841   5.238  70.945  1.00  0.00    -0.048 A  
HETATM   14  H2  UNL     1      -5.846   2.702  72.204  1.00  0.00     0.000 HD 
HETATM   15  C   UNL     1      -7.803   4.452  71.692  1.00  0.00    -0.080 A  
HETATM   16  H1  UNL     1      -6.625   1.269  72.015  1.00  0.00     0.000 HD 
HETATM   17  C   UNL     1      -5.672   4.557  70.267  1.00  0.00    -0.013 C  
HETATM   18  C   UNL     1      -8.943   5.088  72.205  1.00  0.00    -0.131 A  
HETATM   19  N   UNL     1      -9.929   4.452  72.843  1.00  0.00    -0.148 NA 
HETATM   20  C   UNL     1      -9.073   6.458  72.073  1.00  0.00    -0.141 A  
HETATM   21  C   UNL     1      -8.113   7.237  71.429  1.00  0.00    -0.102 A  
HETATM   22  C   UNL     1      -9.803   3.142  73.018  1.00  0.00    -0.122 A  
HETATM   23  N   UNL     1      -8.736   2.429  72.677  1.00  0.00    -0.066 NA 
HETATM   24  N   UNL     1     -10.839   2.476  73.639  1.00  0.00    -0.174 NA 
HETATM   25  C   UNL     1      -7.760   3.078  72.027  1.00  0.00    -0.054 A  
HETATM   26  H2  UNL     1     -11.673   2.972  73.953  1.00  0.00     0.000 HD 
HETATM   27  H1  UNL     1     -10.742   1.470  73.773  1.00  0.00     0.000 HD 
HETATM   28  N   UNL     1      -6.657   2.259  71.773  1.00  0.00    -0.018 NA 
ENDBRANCH  11  12
ENDBRANCH   9  11
ENDBRANCH   5   9
BRANCH   8  29
HETATM   29  O   UNL     1      -5.198  12.697  72.912  1.00  0.00    -0.357 OA 
HETATM   30  C   UNL     1      -5.143  11.987  74.138  1.00  0.00     0.327 C  
ENDBRANCH   8  29
BRANCH   7  31
HETATM   31  O   UNL     1      -5.896  13.873  70.376  1.00  0.00    -0.134 OA 
HETATM   32  C   UNL     1      -5.887  14.529  69.122  1.00  0.00    -0.092 C  
ENDBRANCH   7  31
ENDBRANCH   2   3
TORSDOF 6
ENDMDL
MODEL      283
REMARK 921   NORMALIZED FREE ENERGY PREDICTED BY IDOCK:    0.16 KCAL/MOL
REMARK 922        TOTAL FREE ENERGY PREDICTED BY IDOCK:   -0.63 KCAL/MOL
REMARK 923 INTER-LIGAND FREE ENERGY PREDICTED BY IDOCK:   -1.67 KCAL/MOL
REMARK 924 INTRA-LIGAND FREE ENERGY PREDICTED BY IDOCK:    1.04 KCAL/MOL
REMARK 927      BINDING AFFINITY PREDICTED BY RF-SCORE:    0.00 PKD
ROOT
HETATM    1  C   UNL     1      -8.598   3.958  67.691  1.00  0.00    -0.101 C  
HETATM    2  O   UNL     1      -7.365   4.134  68.386  1.00  0.00    -0.058 OA 
ENDROOT
BRANCH   2   3
HETATM    3  C   UNL     1      -7.215   5.307  69.085  1.00  0.00    -0.058 A  
HETATM    4  C   UNL     1      -6.520   6.389  68.516  1.00  0.00    -0.049 A  
HETATM    5  C   UNL     1      -6.369   7.606  69.179  1.00  0.00    -0.036 A  
HETATM    6  C   UNL     1      -6.904   7.703  70.460  1.00  0.00    -0.047 A  
HETATM    7  C   UNL     1      -7.803   5.438  70.363  1.00  0.00    -0.088 A  
HETATM    8  C   UNL     1      -7.635   6.658  71.050  1.00  0.00    -0.085 A  
BRANCH   5   9
HETATM    9  N   UNL     1      -5.572   8.597  68.590  1.00  0.00    -0.037 NA 
HETATM   10  H   UNL     1      -5.010   9.227  69.164  1.00  0.00     0.000 HD 
BRANCH   9  11
HETATM   11  C   UNL     1      -5.568   8.705  67.136  1.00  0.00    -0.038 C  
BRANCH  11  12
HETATM   12  C   UNL     1      -6.923   9.091  66.565  1.00  0.00    -0.080 A  
HETATM   13  C   UNL     1      -7.656  10.167  67.130  1.00  0.00    -0.092 A  
HETATM   14  H2  UNL     1      -8.423  13.048  67.470  1.00  0.00     0.000 HD 
HETATM   15  C   UNL     1      -8.910  10.588  66.537  1.00  0.00    -0.155 A  
HETATM   16  H1  UNL     1      -9.908  13.499  68.007  1.00  0.00     0.000 HD 
HETATM   17  C   UNL     1      -7.129  10.868  68.363  1.00  0.00    -0.073 C  
HETATM   18  C   UNL     1      -9.439   9.845  65.473  1.00  0.00    -0.252 A  
HETATM   19  N   UNL     1     -10.620  10.097  64.900  1.00  0.00     0.189 NA 
HETATM   20  C   UNL     1      -8.711   8.792  64.952  1.00  0.00    -0.161 A  
HETATM   21  C   UNL     1      -7.465   8.428  65.460  1.00  0.00    -0.085 A  
HETATM   22  C   UNL     1     -11.316  11.131  65.358  1.00  0.00     0.194 A  
HETATM   23  N   UNL     1     -10.894  11.979  66.287  1.00  0.00    -0.267 NA 
HETATM   24  N   UNL     1     -12.554  11.367  64.797  1.00  0.00     0.616 NA 
HETATM   25  C   UNL     1      -9.714  11.707  66.861  1.00  0.00    -0.195 A  
HETATM   26  H2  UNL     1     -12.922  10.770  64.057  1.00  0.00     0.000 HD 
HETATM   27  H1  UNL     1     -13.089  12.161  65.148  1.00  0.00     0.000 HD 
HETATM   28  N   UNL     1      -9.329  12.693  67.774  1.00  0.00    -0.191 NA 
ENDBRANCH  11  12
ENDBRANCH   9  11
ENDBRANCH   5   9
BRANCH   8  29
HETATM   29  O   UNL     1      -8.087   7.021  72.296  1.00  0.00    -0.096 OA 
HETATM   30  C   UNL     1      -9.474   6.987  72.585  1.00  0.00    -0.142 C  
ENDBRANCH   8  29
BRANCH   7  31
HETATM   31  O   UNL     1      -8.517   4.473  71.022  1.00  0.00    -0.090 OA 
HETATM   32  C   UNL     1      -9.624   3.842  70.405  1.00  0.00    -0.192 C  
ENDBRANCH   7  31
ENDBRANCH   2   3
TORSDOF 6
ENDMDL
MODEL      284
REMARK 921   NORMALIZED FREE ENERGY PREDICTED BY IDOCK:    2.39 KCAL/MOL
REMARK 922        TOTAL FREE ENERGY PREDICTED BY IDOCK:    2.37 KCAL/MOL
REMARK 923 INTER-LIGAND FREE ENERGY PREDICTED BY IDOCK:    1.61 KCAL/MOL
REMARK 924 INTRA-LIGAND FREE ENERGY PREDICTED BY IDOCK:    0.75 KCAL/MOL
REMARK 927      BINDING AFFINITY PREDICTED BY RF-SCORE:    0.00 PKD
ROOT
HETATM    1  C   UNL     1      -5.966   9.179  71.108  1.00  0.00    -0.063 C  
HETATM    2  O   UNL     1      -6.941  10.182  70.830  1.00  0.00    -0.329 OA 
ENDROOT
BRANCH   2   3
HETATM    3  C   UNL     1      -6.464  11.419  70.467  1.00  0.00     0.345 A  
HETATM    4  C   UNL     1      -6.392  11.783  69.111  1.00  0.00    -0.086 A  
HETATM    5  C   UNL     1      -5.942  13.037  68.701  1.00  0.00    -0.071 A  
HETATM    6  C   UNL     1      -5.520  13.917  69.694  1.00  0.00    -0.088 A  
HETATM    7  C   UNL     1      -6.087  12.342  71.468  1.00  0.00     1.488 A  
HETATM    8  C   UNL     1      -5.608  13.604  71.062  1.00  0.00    -0.209 A  
BRANCH   5   9
HETATM    9  N   UNL     1      -5.799  13.284  67.329  1.00  0.00    -0.402 NA 
HETATM   10  H   UNL     1      -5.183  12.709  66.754  1.00  0.00     0.000 HD 
BRANCH   9  11
HETATM   11  C   UNL     1      -6.553  14.388  66.745  1.00  0.00     1.797 C  
BRANCH  11  12
HETATM   12  C   UNL     1      -7.675  14.881  67.645  1.00  0.00    -0.197 A  
HETATM   13  C   UNL     1      -8.958  14.276  67.585  1.00  0.00    -0.194 A  
HETATM   14  H2  UNL     1     -11.030  12.226  68.300  1.00  0.00     0.000 HD 
HETATM   15  C   UNL     1     -10.005  14.690  68.497  1.00  0.00    -0.235 A  
HETATM   16  H1  UNL     1     -12.638  12.543  68.210  1.00  0.00     0.000 HD 
HETATM   17  C   UNL     1      -9.232  13.202  66.555  1.00  0.00    -0.185 C  
HETATM   18  C   UNL     1      -9.765  15.771  69.357  1.00  0.00    -0.286 A  
HETATM   19  N   UNL     1     -10.680  16.284  70.185  1.00  0.00    -0.288 NA 
HETATM   20  C   UNL     1      -8.511  16.352  69.384  1.00  0.00     0.030 A  
HETATM   21  C   UNL     1      -7.470  15.909  68.569  1.00  0.00    -0.139 A  
HETATM   22  C   UNL     1     -11.878  15.713  70.205  1.00  0.00    -0.365 A  
HETATM   23  N   UNL     1     -12.213  14.625  69.524  1.00  0.00    -0.289 NA 
HETATM   24  N   UNL     1     -12.837  16.267  71.028  1.00  0.00    -0.216 NA 
HETATM   25  C   UNL     1     -11.290  14.128  68.689  1.00  0.00    -0.277 A  
HETATM   26  H2  UNL     1     -12.633  17.086  71.601  1.00  0.00     0.000 HD 
HETATM   27  H1  UNL     1     -13.757  15.829  71.044  1.00  0.00     0.000 HD 
HETATM   28  N   UNL     1     -11.713  12.948  68.072  1.00  0.00    -0.343 NA 
ENDBRANCH  11  12
ENDBRANCH   9  11
ENDBRANCH   5   9
BRANCH   8  29
HETATM   29  O   UNL     1      -5.166  14.654  71.831  1.00  0.00    -0.149 OA 
HETATM   30  C   UNL     1      -5.246  15.979  71.334  1.00  0.00    -0.008 C  
ENDBRANCH   8  29
BRANCH   7  31
HETATM   31  O   UNL     1      -6.123  12.123  72.819  1.00  0.00     1.770 OA 
HETATM   32  C   UNL     1      -5.412  12.964  73.710  1.00  0.00     0.604 C  
ENDBRANCH   7  31
ENDBRANCH   2   3
TORSDOF 6
ENDMDL
MODEL      285
REMARK 921   NORMALIZED FREE ENERGY PREDICTED BY IDOCK:    5.52 KCAL/MOL
REMARK 922        TOTAL FREE ENERGY PREDICTED BY IDOCK:    6.60 KCAL/MOL
REMARK 923 INTER-LIGAND FREE ENERGY PREDICTED BY IDOCK:    4.94 KCAL/MOL
REMARK 924 INTRA-LIGAND FREE ENERGY PREDICTED BY IDOCK:    1.66 KCAL/MOL
REMARK 927      BINDING AFFINITY PREDICTED BY RF-SCORE:    0.00 PKD
ROOT
HETATM    1  C   UNL     1      -8.366  10.056  72.598  1.00  0.00     5.584 C  
HETATM    2  O   UNL     1      -7.788   8.773  72.366  1.00  0.00    -0.351 OA 
ENDROOT
BRANCH   2   3
HETATM    3  C   UNL     1      -7.379   8.506  71.082  1.00  0.00    -0.079 A  
HETATM    4  C   UNL     1      -7.296   9.540  70.133  1.00  0.00    -0.124 A  
HETATM    5  C   UNL     1      -6.859   9.318  68.828  1.00  0.00    -0.060 A  
HETATM    6  C   UNL     1      -6.540   8.009  68.478  1.00  0.00    -0.058 A  
HETATM    7  C   UNL     1      -6.997   7.191  70.730  1.00  0.00    -0.061 A  
HETATM    8  C   UNL     1      -6.576   6.953  69.406  1.00  0.00    -0.048 A  
BRANCH   5   9
HETATM    9  N   UNL     1      -6.907  10.379  67.913  1.00  0.00    -0.070 NA 
HETATM   10  H   UNL     1      -6.309  10.385  67.086  1.00  0.00     0.000 HD 
BRANCH   9  11
HETATM   11  C   UNL     1      -7.833  11.474  68.176  1.00  0.00    -0.128 C  
BRANCH  11  12
HETATM   12  C   UNL     1      -8.970  11.544  67.170  1.00  0.00    -0.166 A  
HETATM   13  C   UNL     1      -9.174  12.720  66.402  1.00  0.00    -0.149 A  
HETATM   14  H2  UNL     1      -8.717  14.554  64.070  1.00  0.00     0.000 HD 
HETATM   15  C   UNL     1     -10.205  12.760  65.385  1.00  0.00    -0.299 A  
HETATM   16  H1  UNL     1      -9.857  15.622  63.563  1.00  0.00     0.000 HD 
HETATM   17  C   UNL     1      -8.314  13.939  66.656  1.00  0.00     0.231 C  
HETATM   18  C   UNL     1     -11.070  11.664  65.253  1.00  0.00    -0.236 A  
HETATM   19  N   UNL     1     -12.099  11.623  64.403  1.00  0.00    -0.086 NA 
HETATM   20  C   UNL     1     -10.858  10.537  66.025  1.00  0.00    -0.006 A  
HETATM   21  C   UNL     1      -9.818  10.454  66.949  1.00  0.00    -0.236 A  
HETATM   22  C   UNL     1     -12.294  12.678  63.622  1.00  0.00    -0.492 A  
HETATM   23  N   UNL     1     -11.498  13.739  63.566  1.00  0.00     0.159 NA 
HETATM   24  N   UNL     1     -13.381  12.655  62.774  1.00  0.00     0.727 NA 
HETATM   25  C   UNL     1     -10.476  13.772  64.433  1.00  0.00    -0.241 A  
HETATM   26  H2  UNL     1     -14.014  11.855  62.747  1.00  0.00     0.000 HD 
HETATM   27  H1  UNL     1     -13.531  13.466  62.174  1.00  0.00     0.000 HD 
HETATM   28  N   UNL     1      -9.662  14.893  64.249  1.00  0.00     1.294 NA 
ENDBRANCH  11  12
ENDBRANCH   9  11
ENDBRANCH   5   9
BRANCH   8  29
HETATM   29  O   UNL     1      -6.178   5.776  68.820  1.00  0.00    -0.026 OA 
HETATM   30  C   UNL     1      -6.904   4.583  69.063  1.00  0.00    -0.050 C  
ENDBRANCH   8  29
BRANCH   7  31
HETATM   31  O   UNL     1      -7.014   6.101  71.558  1.00  0.00    -0.072 OA 
HETATM   32  C   UNL     1      -6.054   5.069  71.417  1.00  0.00    -0.022 C  
ENDBRANCH   7  31
ENDBRANCH   2   3
TORSDOF 6
ENDMDL
MODEL      286
REMARK 921   NORMALIZED FREE ENERGY PREDICTED BY IDOCK:    6.80 KCAL/MOL
REMARK 922        TOTAL FREE ENERGY PREDICTED BY IDOCK:    8.33 KCAL/MOL
REMARK 923 INTER-LIGAND FREE ENERGY PREDICTED BY IDOCK:    8.18 KCAL/MOL
REMARK 924 INTRA-LIGAND FREE ENERGY PREDICTED BY IDOCK:    0.16 KCAL/MOL
REMARK 927      BINDING AFFINITY PREDICTED BY RF-SCORE:    0.00 PKD
ROOT
HETATM    1  C   UNL     1      -8.381  10.079  72.589  1.00  0.00     5.584 C  
HETATM    2  O   UNL     1      -7.850   8.774  72.371  1.00  0.00    -0.351 OA 
ENDROOT
BRANCH   2   3
HETATM    3  C   UNL     1      -7.535   8.446  71.075  1.00  0.00    -0.075 A  
HETATM    4  C   UNL     1      -7.513   9.435  70.076  1.00  0.00    -0.107 A  
HETATM    5  C   UNL     1      -7.172   9.152  68.755  1.00  0.00    -0.074 A  
HETATM    6  C   UNL     1      -6.886   7.825  68.444  1.00  0.00    -0.067 A  
HETATM    7  C   UNL     1      -7.186   7.113  70.757  1.00  0.00    -0.071 A  
HETATM    8  C   UNL     1      -6.862   6.812  69.418  1.00  0.00    -0.061 A  
BRANCH   5   9
HETATM    9  N   UNL     1      -7.278  10.170  67.800  1.00  0.00    -0.086 NA 
HETATM   10  H   UNL     1      -7.731  10.001  66.901  1.00  0.00     0.000 HD 
BRANCH   9  11
HETATM   11  C   UNL     1      -6.724  11.480  68.123  1.00  0.00    -0.062 C  
BRANCH  11  12
HETATM   12  C   UNL     1      -7.791  12.546  68.314  1.00  0.00    -0.144 A  
HETATM   13  C   UNL     1      -7.815  13.692  67.477  1.00  0.00    -0.185 A  
HETATM   14  H2  UNL     1      -8.543  15.239  65.011  1.00  0.00     0.000 HD 
HETATM   15  C   UNL     1      -8.878  14.668  67.603  1.00  0.00    -0.184 A  
HETATM   16  H1  UNL     1      -8.670  16.876  65.013  1.00  0.00     0.000 HD 
HETATM   17  C   UNL     1      -6.717  13.896  66.456  1.00  0.00     2.767 C  
HETATM   18  C   UNL     1      -9.813  14.521  68.638  1.00  0.00    -0.232 A  
HETATM   19  N   UNL     1     -10.788  15.398  68.893  1.00  0.00    -0.239 NA 
HETATM   20  C   UNL     1      -9.757  13.403  69.449  1.00  0.00     0.794 A  
HETATM   21  C   UNL     1      -8.789  12.414  69.285  1.00  0.00     0.922 A  
HETATM   22  C   UNL     1     -10.885  16.458  68.100  1.00  0.00    -0.346 A  
HETATM   23  N   UNL     1     -10.136  16.673  67.025  1.00  0.00    -0.274 NA 
HETATM   24  N   UNL     1     -11.864  17.386  68.387  1.00  0.00     0.817 NA 
HETATM   25  C   UNL     1      -9.155  15.791  66.788  1.00  0.00    -0.249 A  
HETATM   26  H2  UNL     1     -12.492  17.263  69.182  1.00  0.00     0.000 HD 
HETATM   27  H1  UNL     1     -11.938  18.199  67.778  1.00  0.00     0.000 HD 
HETATM   28  N   UNL     1      -8.471  16.067  65.601  1.00  0.00     0.272 NA 
ENDBRANCH  11  12
ENDBRANCH   9  11
ENDBRANCH   5   9
BRANCH   8  29
HETATM   29  O   UNL     1      -6.514   5.606  68.860  1.00  0.00    -0.039 OA 
HETATM   30  C   UNL     1      -6.125   5.542  67.498  1.00  0.00    -0.029 C  
ENDBRANCH   8  29
BRANCH   7  31
HETATM   31  O   UNL     1      -7.151   6.061  71.632  1.00  0.00    -0.074 OA 
HETATM   32  C   UNL     1      -6.214   5.012  71.468  1.00  0.00    -0.029 C  
ENDBRANCH   7  31
ENDBRANCH   2   3
TORSDOF 6
ENDMDL
MODEL      287
REMARK 921   NORMALIZED FREE ENERGY PREDICTED BY IDOCK:    8.01 KCAL/MOL
REMARK 922        TOTAL FREE ENERGY PREDICTED BY IDOCK:    9.96 KCAL/MOL
REMARK 923 INTER-LIGAND FREE ENERGY PREDICTED BY IDOCK:    5.23 KCAL/MOL
REMARK 924 INTRA-LIGAND FREE ENERGY PREDICTED BY IDOCK:    4.73 KCAL/MOL
REMARK 927      BINDING AFFINITY PREDICTED BY RF-SCORE:    0.00 PKD
ROOT
HETATM    1  C   UNL     1      -6.395  16.928  70.315  1.00  0.00     0.357 C  
HETATM    2  O   UNL     1      -7.773  16.883  70.678  1.00  0.00     2.777 OA 
ENDROOT
BRANCH   2   3
HETATM    3  C   UNL     1      -8.659  16.543  69.684  1.00  0.00     0.498 A  
HETATM    4  C   UNL     1      -8.460  16.996  68.368  1.00  0.00    -0.239 A  
HETATM    5  C   UNL     1      -9.319  16.652  67.325  1.00  0.00    -0.230 A  
HETATM    6  C   UNL     1     -10.421  15.863  67.643  1.00  0.00    -0.289 A  
HETATM    7  C   UNL     1      -9.750  15.695  69.982  1.00  0.00    -0.011 A  
HETATM    8  C   UNL     1     -10.637  15.361  68.938  1.00  0.00    -0.244 A  
BRANCH   5   9
HETATM    9  N   UNL     1      -9.113  17.231  66.066  1.00  0.00    -0.517 NA 
HETATM   10  H   UNL     1      -8.171  17.442  65.733  1.00  0.00     0.000 HD 
BRANCH   9  11
HETATM   11  C   UNL     1     -10.281  17.525  65.243  1.00  0.00     0.454 C  
BRANCH  11  12
HETATM   12  C   UNL     1     -10.946  16.276  64.689  1.00  0.00    -0.212 A  
HETATM   13  C   UNL     1     -10.376  14.998  64.927  1.00  0.00    -0.317 A  
HETATM   14  H2  UNL     1      -9.905  12.485  66.498  1.00  0.00     0.000 HD 
HETATM   15  C   UNL     1     -11.052  13.800  64.469  1.00  0.00    -0.388 A  
HETATM   16  H1  UNL     1      -9.479  11.072  65.777  1.00  0.00     0.000 HD 
HETATM   17  C   UNL     1      -9.053  14.890  65.653  1.00  0.00     0.370 C  
HETATM   18  C   UNL     1     -12.211  13.931  63.691  1.00  0.00    -0.181 A  
HETATM   19  N   UNL     1     -12.871  12.901  63.155  1.00  0.00    -0.413 NA 
HETATM   20  C   UNL     1     -12.735  15.190  63.461  1.00  0.00     1.321 A  
HETATM   21  C   UNL     1     -12.141  16.345  63.966  1.00  0.00     1.124 A  
HETATM   22  C   UNL     1     -12.408  11.681  63.399  1.00  0.00    -0.221 A  
HETATM   23  N   UNL     1     -11.386  11.402  64.198  1.00  0.00    -0.269 NA 
HETATM   24  N   UNL     1     -13.063  10.619  62.812  1.00  0.00     2.391 NA 
HETATM   25  C   UNL     1     -10.726  12.446  64.719  1.00  0.00    -0.298 A  
HETATM   26  H2  UNL     1     -13.875  10.765  62.211  1.00  0.00     0.000 HD 
HETATM   27  H1  UNL     1     -12.708   9.682  62.999  1.00  0.00     0.000 HD 
HETATM   28  N   UNL     1      -9.714  12.048  65.597  1.00  0.00    -0.240 NA 
ENDBRANCH  11  12
ENDBRANCH   9  11
ENDBRANCH   5   9
BRANCH   8  29
HETATM   29  O   UNL     1     -11.767  14.580  68.976  1.00  0.00    -0.278 OA 
HETATM   30  C   UNL     1     -11.760  13.293  68.382  1.00  0.00    -0.354 C  
ENDBRANCH   8  29
BRANCH   7  31
HETATM   31  O   UNL     1     -10.049  15.172  71.212  1.00  0.00     0.621 OA 
HETATM   32  C   UNL     1     -11.107  15.704  71.988  1.00  0.00     0.018 C  
ENDBRANCH   7  31
ENDBRANCH   2   3
TORSDOF 6
ENDMDL
MODEL      288
REMARK 921   NORMALIZED FREE ENERGY PREDICTED BY IDOCK:   24.45 KCAL/MOL
REMARK 922        TOTAL FREE ENERGY PREDICTED BY IDOCK:   32.17 KCAL/MOL
REMARK 923 INTER-LIGAND FREE ENERGY PREDICTED BY IDOCK:   32.53 KCAL/MOL
REMARK 924 INTRA-LIGAND FREE ENERGY PREDICTED BY IDOCK:   -0.36 KCAL/MOL
REMARK 927      BINDING AFFINITY PREDICTED BY RF-SCORE:    0.00 PKD
ROOT
HETATM    1  C   UNL     1      -5.299  13.495  64.051  1.00  0.00    15.618 C  
HETATM    2  O   UNL     1      -5.198  14.644  64.891  1.00  0.00    13.043 OA 
ENDROOT
BRANCH   2   3
HETATM    3  C   UNL     1      -5.356  14.435  66.239  1.00  0.00     4.795 A  
HETATM    4  C   UNL     1      -5.462  13.129  66.749  1.00  0.00     1.336 A  
HETATM    5  C   UNL     1      -5.595  12.871  68.112  1.00  0.00    -0.088 A  
HETATM    6  C   UNL     1      -5.661  13.970  68.963  1.00  0.00    -0.088 A  
HETATM    7  C   UNL     1      -5.366  15.540  67.120  1.00  0.00     0.463 A  
HETATM    8  C   UNL     1      -5.524  15.290  68.498  1.00  0.00    -0.097 A  
BRANCH   5   9
HETATM    9  N   UNL     1      -5.803  11.550  68.529  1.00  0.00    -0.045 NA 
HETATM   10  H   UNL     1      -5.346  11.186  69.367  1.00  0.00     0.000 HD 
BRANCH   9  11
HETATM   11  C   UNL     1      -6.688  10.706  67.734  1.00  0.00    -0.068 C  
BRANCH  11  12
HETATM   12  C   UNL     1      -7.652   9.893  68.582  1.00  0.00    -0.080 A  
HETATM   13  C   UNL     1      -8.612   9.050  67.963  1.00  0.00    -0.129 A  
HETATM   14  H2  UNL     1      -9.583   6.498  66.715  1.00  0.00     0.000 HD 
HETATM   15  C   UNL     1      -9.477   8.211  68.768  1.00  0.00    -0.148 A  
HETATM   16  H1  UNL     1     -11.169   6.072  66.721  1.00  0.00     0.000 HD 
HETATM   17  C   UNL     1      -8.735   9.036  66.455  1.00  0.00    -0.149 C  
HETATM   18  C   UNL     1      -9.430   8.333  70.164  1.00  0.00    -0.167 A  
HETATM   19  N   UNL     1     -10.232   7.667  71.000  1.00  0.00    -0.194 NA 
HETATM   20  C   UNL     1      -8.496   9.174  70.741  1.00  0.00    -0.256 A  
HETATM   21  C   UNL     1      -7.602   9.924  69.979  1.00  0.00    -0.179 A  
HETATM   22  C   UNL     1     -11.107   6.822  70.468  1.00  0.00    -0.298 A  
HETATM   23  N   UNL     1     -11.194   6.531  69.176  1.00  0.00    -0.320 NA 
HETATM   24  N   UNL     1     -11.964   6.165  71.326  1.00  0.00    -0.104 NA 
HETATM   25  C   UNL     1     -10.392   7.216  68.349  1.00  0.00    -0.194 A  
HETATM   26  H2  UNL     1     -11.927   6.322  72.333  1.00  0.00     0.000 HD 
HETATM   27  H1  UNL     1     -12.637   5.517  70.918  1.00  0.00     0.000 HD 
HETATM   28  N   UNL     1     -10.510   6.790  67.023  1.00  0.00    -0.268 NA 
ENDBRANCH  11  12
ENDBRANCH   9  11
ENDBRANCH   5   9
BRANCH   8  29
HETATM   29  O   UNL     1      -5.585  16.183  69.541  1.00  0.00    -0.121 OA 
HETATM   30  C   UNL     1      -6.080  15.766  70.803  1.00  0.00     0.313 C  
ENDBRANCH   8  29
BRANCH   7  31
HETATM   31  O   UNL     1      -5.256  16.856  66.759  1.00  0.00    -0.214 OA 
HETATM   32  C   UNL     1      -6.082  17.402  65.747  1.00  0.00     0.176 C  
ENDBRANCH   7  31
ENDBRANCH   2   3
TORSDOF 6
ENDMDL
MODEL      289
REMARK 921   NORMALIZED FREE ENERGY PREDICTED BY IDOCK:   38.17 KCAL/MOL
REMARK 922        TOTAL FREE ENERGY PREDICTED BY IDOCK:   50.70 KCAL/MOL
REMARK 923 INTER-LIGAND FREE ENERGY PREDICTED BY IDOCK:   49.95 KCAL/MOL
REMARK 924 INTRA-LIGAND FREE ENERGY PREDICTED BY IDOCK:    0.75 KCAL/MOL
REMARK 927      BINDING AFFINITY PREDICTED BY RF-SCORE:    0.00 PKD
ROOT
HETATM    1  C   UNL     1      -8.534  15.466  67.707  1.00  0.00    -0.150 C  
HETATM    2  O   UNL     1      -8.570  16.595  66.836  1.00  0.00    -0.184 OA 
ENDROOT
BRANCH   2   3
HETATM    3  C   UNL     1      -9.567  17.513  67.060  1.00  0.00    -0.268 A  
HETATM    4  C   UNL     1     -10.364  17.429  68.216  1.00  0.00    -0.374 A  
HETATM    5  C   UNL     1     -11.368  18.355  68.496  1.00  0.00     1.428 A  
HETATM    6  C   UNL     1     -11.586  19.359  67.557  1.00  0.00     0.941 A  
HETATM    7  C   UNL     1      -9.761  18.571  66.143  1.00  0.00    -0.232 A  
HETATM    8  C   UNL     1     -10.789  19.498  66.406  1.00  0.00    -0.340 A  
BRANCH   5   9
HETATM    9  N   UNL     1     -12.187  18.142  69.612  1.00  0.00     6.363 NA 
HETATM   10  H   UNL     1     -11.954  18.548  70.519  1.00  0.00     0.000 HD 
BRANCH   9  11
HETATM   11  C   UNL     1     -13.382  17.322  69.443  1.00  0.00     9.219 C  
BRANCH  11  12
HETATM   12  C   UNL     1     -13.066  15.858  69.188  1.00  0.00     1.775 A  
HETATM   13  C   UNL     1     -12.062  15.201  69.945  1.00  0.00    -0.373 A  
HETATM   14  H2  UNL     1     -10.996  13.684  72.305  1.00  0.00     0.000 HD 
HETATM   15  C   UNL     1     -11.815  13.784  69.760  1.00  0.00    -0.394 A  
HETATM   16  H1  UNL     1      -9.684  12.702  72.192  1.00  0.00     0.000 HD 
HETATM   17  C   UNL     1     -11.239  15.988  70.942  1.00  0.00    -0.365 C  
HETATM   18  C   UNL     1     -12.502  13.105  68.744  1.00  0.00     0.383 A  
HETATM   19  N   UNL     1     -12.300  11.820  68.436  1.00  0.00    -0.239 NA 
HETATM   20  C   UNL     1     -13.465  13.773  68.011  1.00  0.00     5.312 A  
HETATM   21  C   UNL     1     -13.770  15.115  68.235  1.00  0.00     6.379 A  
HETATM   22  C   UNL     1     -11.410  11.149  69.156  1.00  0.00    -0.273 A  
HETATM   23  N   UNL     1     -10.763  11.633  70.209  1.00  0.00     0.869 NA 
HETATM   24  N   UNL     1     -11.169   9.835  68.813  1.00  0.00    -0.469 NA 
HETATM   25  C   UNL     1     -10.967  12.926  70.499  1.00  0.00     1.811 A  
HETATM   26  H2  UNL     1     -11.658   9.394  68.033  1.00  0.00     0.000 HD 
HETATM   27  H1  UNL     1     -10.486   9.319  69.366  1.00  0.00     0.000 HD 
HETATM   28  N   UNL     1     -10.295  13.321  71.659  1.00  0.00     7.165 NA 
ENDBRANCH  11  12
ENDBRANCH   9  11
ENDBRANCH   5   9
BRANCH   8  29
HETATM   29  O   UNL     1     -11.185  20.589  65.669  1.00  0.00     0.490 OA 
HETATM   30  C   UNL     1     -12.414  21.232  65.959  1.00  0.00     8.409 C  
ENDBRANCH   8  29
BRANCH   7  31
HETATM   31  O   UNL     1      -9.048  18.778  64.993  1.00  0.00     1.443 OA 
HETATM   32  C   UNL     1      -8.195  19.901  64.860  1.00  0.00     1.622 C  
ENDBRANCH   7  31
ENDBRANCH   2   3
TORSDOF 6
ENDMDL
