MODEL        1
REMARK 921   NORMALIZED FREE ENERGY PREDICTED BY IDOCK:   -7.03 KCAL/MOL
REMARK 922        TOTAL FREE ENERGY PREDICTED BY IDOCK:   -9.48 KCAL/MOL
REMARK 923 INTER-LIGAND FREE ENERGY PREDICTED BY IDOCK:   -8.67 KCAL/MOL
REMARK 924 INTRA-LIGAND FREE ENERGY PREDICTED BY IDOCK:   -0.80 KCAL/MOL
REMARK 927      BINDING AFFINITY PREDICTED BY RF-SCORE:    0.00 PKD
ROOT
HETATM    1  C   UNL     1     -10.825  11.331  64.209  1.00  0.00    -0.398 C  
HETATM    2  C   UNL     1     -11.103  12.152  65.433  1.00  0.00    -0.362 A  
HETATM    3  C   UNL     1     -12.204  13.007  65.484  1.00  0.00    -0.521 A  
HETATM    4  C   UNL     1     -12.393  13.856  66.583  1.00  0.00    -0.411 A  
HETATM    5  C   UNL     1     -11.537  13.838  67.697  1.00  0.00    -0.381 A  
HETATM    6  C   UNL     1     -10.460  12.931  67.648  1.00  0.00    -0.228 A  
HETATM    7  C   UNL     1     -10.233  12.118  66.528  1.00  0.00    -0.230 A  
ENDROOT
BRANCH   5   8
HETATM    8  C   UNL     1     -11.677  14.802  68.847  1.00  0.00    -0.340 C  
HETATM    9  C   UNL     1     -11.067  16.018  68.838  1.00  0.00    -0.331 C  
BRANCH   8  10
HETATM   10  C   UNL     1     -12.478  14.508  70.090  1.00  0.00    -0.321 A  
HETATM   11  N   UNL     1     -13.239  15.520  70.583  1.00  0.00    -0.436 NA 
HETATM   12  C   UNL     1     -12.463  13.253  70.707  1.00  0.00    -0.403 A  
HETATM   13  C   UNL     1     -13.260  13.035  71.833  1.00  0.00    -0.527 A  
HETATM   14  C   UNL     1     -13.978  15.289  71.690  1.00  0.00    -0.529 A  
HETATM   15  C   UNL     1     -14.027  14.071  72.339  1.00  0.00    -0.622 A  
ENDBRANCH   8  10
BRANCH   9  16
HETATM   16  C   UNL     1     -10.281  16.691  67.750  1.00  0.00    -0.292 C  
BRANCH  16  17
HETATM   17  N   UNL     1     -10.596  18.113  67.572  1.00  0.00    -0.413 NA 
HETATM   18  C   UNL     1      -9.856  20.317  67.744  1.00  0.00    -0.534 C  
HETATM   19  C   UNL     1     -10.047  20.031  66.265  1.00  0.00    -0.603 C  
HETATM   20  C   UNL     1      -9.678  18.945  68.357  1.00  0.00    -0.379 C  
HETATM   21  C   UNL     1     -10.481  18.570  66.183  1.00  0.00    -0.413 C  
ENDBRANCH  16  17
ENDBRANCH   9  16
ENDBRANCH   5   8
TORSDOF 4
ENDMDL
MODEL        2
REMARK 921   NORMALIZED FREE ENERGY PREDICTED BY IDOCK:   -7.01 KCAL/MOL
REMARK 922        TOTAL FREE ENERGY PREDICTED BY IDOCK:   -9.46 KCAL/MOL
REMARK 923 INTER-LIGAND FREE ENERGY PREDICTED BY IDOCK:   -8.43 KCAL/MOL
REMARK 924 INTRA-LIGAND FREE ENERGY PREDICTED BY IDOCK:   -1.03 KCAL/MOL
REMARK 927      BINDING AFFINITY PREDICTED BY RF-SCORE:    0.00 PKD
ROOT
HETATM    1  C   UNL     1     -12.090  11.846  63.661  1.00  0.00    -0.580 C  
HETATM    2  C   UNL     1     -12.002  12.472  65.023  1.00  0.00    -0.478 A  
HETATM    3  C   UNL     1     -12.595  13.708  65.279  1.00  0.00    -0.512 A  
HETATM    4  C   UNL     1     -12.410  14.340  66.516  1.00  0.00    -0.345 A  
HETATM    5  C   UNL     1     -11.692  13.738  67.562  1.00  0.00    -0.410 A  
HETATM    6  C   UNL     1     -11.146  12.467  67.301  1.00  0.00    -0.319 A  
HETATM    7  C   UNL     1     -11.278  11.853  66.046  1.00  0.00    -0.377 A  
ENDROOT
BRANCH   5   8
HETATM    8  C   UNL     1     -11.414  14.439  68.868  1.00  0.00    -0.319 C  
HETATM    9  C   UNL     1     -10.326  15.240  69.031  1.00  0.00    -0.242 C  
BRANCH   8  10
HETATM   10  C   UNL     1     -12.290  14.311  70.088  1.00  0.00    -0.353 A  
HETATM   11  N   UNL     1     -12.975  15.420  70.472  1.00  0.00    -0.388 NA 
HETATM   12  C   UNL     1     -12.416  13.108  70.791  1.00  0.00    -0.389 A  
HETATM   13  C   UNL     1     -13.275  13.045  71.890  1.00  0.00    -0.527 A  
HETATM   14  C   UNL     1     -13.777  15.338  71.556  1.00  0.00    -0.520 A  
HETATM   15  C   UNL     1     -13.964  14.180  72.285  1.00  0.00    -0.646 A  
ENDBRANCH   8  10
BRANCH   9  16
HETATM   16  C   UNL     1      -9.298  15.681  68.028  1.00  0.00    -0.193 C  
BRANCH  16  17
HETATM   17  N   UNL     1      -9.338  17.113  67.717  1.00  0.00    -0.242 NA 
HETATM   18  C   UNL     1     -10.194  18.795  66.347  1.00  0.00    -0.464 C  
HETATM   19  C   UNL     1     -10.766  19.024  67.736  1.00  0.00    -0.441 C  
HETATM   20  C   UNL     1      -9.820  17.329  66.349  1.00  0.00    -0.299 C  
HETATM   21  C   UNL     1     -10.228  17.881  68.593  1.00  0.00    -0.385 C  
ENDBRANCH  16  17
ENDBRANCH   9  16
ENDBRANCH   5   8
TORSDOF 4
ENDMDL
MODEL        3
REMARK 921   NORMALIZED FREE ENERGY PREDICTED BY IDOCK:   -6.99 KCAL/MOL
REMARK 922        TOTAL FREE ENERGY PREDICTED BY IDOCK:   -9.43 KCAL/MOL
REMARK 923 INTER-LIGAND FREE ENERGY PREDICTED BY IDOCK:   -8.46 KCAL/MOL
REMARK 924 INTRA-LIGAND FREE ENERGY PREDICTED BY IDOCK:   -0.97 KCAL/MOL
REMARK 927      BINDING AFFINITY PREDICTED BY RF-SCORE:    0.00 PKD
ROOT
HETATM    1  C   UNL     1     -11.321  11.667  63.646  1.00  0.00    -0.485 C  
HETATM    2  C   UNL     1     -11.291  12.613  64.810  1.00  0.00    -0.350 A  
HETATM    3  C   UNL     1     -12.457  13.240  65.249  1.00  0.00    -0.543 A  
HETATM    4  C   UNL     1     -12.404  14.210  66.259  1.00  0.00    -0.451 A  
HETATM    5  C   UNL     1     -11.206  14.540  66.914  1.00  0.00    -0.340 A  
HETATM    6  C   UNL     1     -10.048  13.859  66.491  1.00  0.00    -0.286 A  
HETATM    7  C   UNL     1     -10.085  12.928  65.442  1.00  0.00    -0.265 A  
ENDROOT
BRANCH   5   8
HETATM    8  C   UNL     1     -11.117  15.639  67.943  1.00  0.00    -0.324 C  
HETATM    9  C   UNL     1     -11.469  15.433  69.240  1.00  0.00    -0.344 C  
BRANCH   8  10
HETATM   10  C   UNL     1     -10.651  17.039  67.632  1.00  0.00    -0.333 A  
HETATM   11  N   UNL     1     -10.336  17.831  68.691  1.00  0.00    -0.367 NA 
HETATM   12  C   UNL     1     -10.527  17.509  66.320  1.00  0.00    -0.283 A  
HETATM   13  C   UNL     1     -10.051  18.803  66.099  1.00  0.00    -0.421 A  
HETATM   14  C   UNL     1      -9.905  19.088  68.448  1.00  0.00    -0.392 A  
HETATM   15  C   UNL     1      -9.741  19.611  67.181  1.00  0.00    -0.471 A  
ENDBRANCH   8  10
BRANCH   9  16
HETATM   16  C   UNL     1     -11.879  14.166  69.935  1.00  0.00    -0.325 C  
BRANCH  16  17
HETATM   17  N   UNL     1     -12.374  14.362  71.302  1.00  0.00    -0.341 NA 
HETATM   18  C   UNL     1     -12.435  15.739  73.183  1.00  0.00    -0.599 C  
HETATM   19  C   UNL     1     -13.844  15.704  72.617  1.00  0.00    -0.648 C  
HETATM   20  C   UNL     1     -11.563  15.362  72.004  1.00  0.00    -0.459 C  
HETATM   21  C   UNL     1     -13.759  14.838  71.363  1.00  0.00    -0.431 C  
ENDBRANCH  16  17
ENDBRANCH   9  16
ENDBRANCH   5   8
TORSDOF 4
ENDMDL
MODEL        4
REMARK 921   NORMALIZED FREE ENERGY PREDICTED BY IDOCK:   -6.84 KCAL/MOL
REMARK 922        TOTAL FREE ENERGY PREDICTED BY IDOCK:   -9.25 KCAL/MOL
REMARK 923 INTER-LIGAND FREE ENERGY PREDICTED BY IDOCK:   -8.84 KCAL/MOL
REMARK 924 INTRA-LIGAND FREE ENERGY PREDICTED BY IDOCK:   -0.41 KCAL/MOL
REMARK 927      BINDING AFFINITY PREDICTED BY RF-SCORE:    0.00 PKD
ROOT
HETATM    1  C   UNL     1     -12.167   6.808  71.683  1.00  0.00    -0.410 C  
HETATM    2  C   UNL     1     -12.104   8.280  71.397  1.00  0.00    -0.331 A  
HETATM    3  C   UNL     1     -13.196   9.105  71.665  1.00  0.00    -0.438 A  
HETATM    4  C   UNL     1     -13.174  10.455  71.288  1.00  0.00    -0.431 A  
HETATM    5  C   UNL     1     -12.047  11.047  70.697  1.00  0.00    -0.471 A  
HETATM    6  C   UNL     1     -10.936  10.209  70.481  1.00  0.00    -0.380 A  
HETATM    7  C   UNL     1     -10.970   8.844  70.804  1.00  0.00    -0.305 A  
ENDROOT
BRANCH   5   8
HETATM    8  C   UNL     1     -12.037  12.474  70.210  1.00  0.00    -0.373 C  
HETATM    9  C   UNL     1     -11.767  12.784  68.913  1.00  0.00    -0.370 C  
BRANCH   8  10
HETATM   10  C   UNL     1     -12.308  13.661  71.098  1.00  0.00    -0.318 A  
HETATM   11  N   UNL     1     -11.552  14.771  70.886  1.00  0.00    -0.287 NA 
HETATM   12  C   UNL     1     -13.299  13.643  72.085  1.00  0.00    -0.587 A  
HETATM   13  C   UNL     1     -13.526  14.791  72.847  1.00  0.00    -0.541 A  
HETATM   14  C   UNL     1     -11.775  15.858  71.658  1.00  0.00    -0.485 A  
HETATM   15  C   UNL     1     -12.747  15.917  72.636  1.00  0.00    -0.554 A  
ENDBRANCH   8  10
BRANCH   9  16
HETATM   16  C   UNL     1     -11.551  11.880  67.733  1.00  0.00    -0.323 C  
BRANCH  16  17
HETATM   17  N   UNL     1     -12.131  12.377  66.480  1.00  0.00    -0.598 NA 
HETATM   18  C   UNL     1     -12.410  14.185  65.035  1.00  0.00    -0.452 C  
HETATM   19  C   UNL     1     -11.558  13.162  64.301  1.00  0.00    -0.440 C  
HETATM   20  C   UNL     1     -12.209  13.841  66.494  1.00  0.00    -0.430 C  
HETATM   21  C   UNL     1     -11.353  12.017  65.290  1.00  0.00    -0.312 C  
ENDBRANCH  16  17
ENDBRANCH   9  16
ENDBRANCH   5   8
TORSDOF 4
ENDMDL
MODEL        5
REMARK 921   NORMALIZED FREE ENERGY PREDICTED BY IDOCK:   -6.77 KCAL/MOL
REMARK 922        TOTAL FREE ENERGY PREDICTED BY IDOCK:   -9.15 KCAL/MOL
REMARK 923 INTER-LIGAND FREE ENERGY PREDICTED BY IDOCK:   -8.42 KCAL/MOL
REMARK 924 INTRA-LIGAND FREE ENERGY PREDICTED BY IDOCK:   -0.73 KCAL/MOL
REMARK 927      BINDING AFFINITY PREDICTED BY RF-SCORE:    0.00 PKD
ROOT
HETATM    1  C   UNL     1     -11.959  11.788  63.838  1.00  0.00    -0.427 C  
HETATM    2  C   UNL     1     -11.776  12.579  65.100  1.00  0.00    -0.422 A  
HETATM    3  C   UNL     1     -10.918  12.130  66.104  1.00  0.00    -0.335 A  
HETATM    4  C   UNL     1     -10.841  12.811  67.326  1.00  0.00    -0.277 A  
HETATM    5  C   UNL     1     -11.556  13.995  67.568  1.00  0.00    -0.397 A  
HETATM    6  C   UNL     1     -12.377  14.459  66.523  1.00  0.00    -0.272 A  
HETATM    7  C   UNL     1     -12.503  13.753  65.317  1.00  0.00    -0.512 A  
ENDROOT
BRANCH   5   8
HETATM    8  C   UNL     1     -11.549  14.692  68.905  1.00  0.00    -0.340 C  
HETATM    9  C   UNL     1     -10.778  15.790  69.134  1.00  0.00    -0.246 C  
BRANCH   8  10
HETATM   10  C   UNL     1     -12.366  14.240  70.088  1.00  0.00    -0.353 A  
HETATM   11  N   UNL     1     -12.208  12.951  70.487  1.00  0.00    -0.361 NA 
HETATM   12  C   UNL     1     -13.237  15.101  70.765  1.00  0.00    -0.433 A  
HETATM   13  C   UNL     1     -13.935  14.630  71.879  1.00  0.00    -0.573 A  
HETATM   14  C   UNL     1     -12.917  12.514  71.551  1.00  0.00    -0.280 A  
HETATM   15  C   UNL     1     -13.779  13.312  72.277  1.00  0.00    -0.686 A  
ENDBRANCH   8  10
BRANCH   9  16
HETATM   16  C   UNL     1      -9.921  16.577  68.184  1.00  0.00    -0.248 C  
BRANCH  16  17
HETATM   17  N   UNL     1     -10.514  17.847  67.750  1.00  0.00    -0.388 NA 
HETATM   18  C   UNL     1     -10.328  20.170  67.676  1.00  0.00    -0.466 C  
HETATM   19  C   UNL     1     -10.207  19.672  66.245  1.00  0.00    -0.598 C  
HETATM   20  C   UNL     1      -9.947  18.966  68.510  1.00  0.00    -0.406 C  
HETATM   21  C   UNL     1     -10.282  18.150  66.334  1.00  0.00    -0.399 C  
ENDBRANCH  16  17
ENDBRANCH   9  16
ENDBRANCH   5   8
TORSDOF 4
ENDMDL
MODEL        6
REMARK 921   NORMALIZED FREE ENERGY PREDICTED BY IDOCK:   -6.75 KCAL/MOL
REMARK 922        TOTAL FREE ENERGY PREDICTED BY IDOCK:   -9.13 KCAL/MOL
REMARK 923 INTER-LIGAND FREE ENERGY PREDICTED BY IDOCK:   -8.34 KCAL/MOL
REMARK 924 INTRA-LIGAND FREE ENERGY PREDICTED BY IDOCK:   -0.78 KCAL/MOL
REMARK 927      BINDING AFFINITY PREDICTED BY RF-SCORE:    0.00 PKD
ROOT
HETATM    1  C   UNL     1     -10.302   8.616  71.290  1.00  0.00    -0.308 C  
HETATM    2  C   UNL     1     -10.643   9.782  70.410  1.00  0.00    -0.365 A  
HETATM    3  C   UNL     1      -9.744  10.233  69.444  1.00  0.00    -0.242 A  
HETATM    4  C   UNL     1     -10.018  11.393  68.706  1.00  0.00    -0.188 A  
HETATM    5  C   UNL     1     -11.221  12.103  68.851  1.00  0.00    -0.320 A  
HETATM    6  C   UNL     1     -12.138  11.601  69.795  1.00  0.00    -0.357 A  
HETATM    7  C   UNL     1     -11.846  10.474  70.577  1.00  0.00    -0.442 A  
ENDROOT
BRANCH   5   8
HETATM    8  C   UNL     1     -11.496  13.396  68.127  1.00  0.00    -0.339 C  
HETATM    9  C   UNL     1     -11.526  14.589  68.781  1.00  0.00    -0.322 C  
BRANCH   8  10
HETATM   10  C   UNL     1     -11.768  13.484  66.647  1.00  0.00    -0.387 A  
HETATM   11  N   UNL     1     -12.199  12.350  66.034  1.00  0.00    -0.624 NA 
HETATM   12  C   UNL     1     -11.607  14.673  65.928  1.00  0.00    -0.327 A  
HETATM   13  C   UNL     1     -11.915  14.697  64.567  1.00  0.00    -0.473 A  
HETATM   14  C   UNL     1     -12.463  12.395  64.709  1.00  0.00    -0.401 A  
HETATM   15  C   UNL     1     -12.344  13.537  63.943  1.00  0.00    -0.397 A  
ENDBRANCH   8  10
BRANCH   9  16
HETATM   16  C   UNL     1     -11.210  14.907  70.214  1.00  0.00    -0.231 C  
BRANCH  16  17
HETATM   17  N   UNL     1     -12.288  15.597  70.930  1.00  0.00    -0.410 NA 
HETATM   18  C   UNL     1     -14.309  15.408  72.078  1.00  0.00    -0.653 C  
HETATM   19  C   UNL     1     -13.270  15.865  73.088  1.00  0.00    -0.692 C  
HETATM   20  C   UNL     1     -13.488  14.756  70.987  1.00  0.00    -0.347 C  
HETATM   21  C   UNL     1     -11.953  15.930  72.318  1.00  0.00    -0.518 C  
ENDBRANCH  16  17
ENDBRANCH   9  16
ENDBRANCH   5   8
TORSDOF 4
ENDMDL
MODEL        7
REMARK 921   NORMALIZED FREE ENERGY PREDICTED BY IDOCK:   -6.73 KCAL/MOL
REMARK 922        TOTAL FREE ENERGY PREDICTED BY IDOCK:   -9.11 KCAL/MOL
REMARK 923 INTER-LIGAND FREE ENERGY PREDICTED BY IDOCK:   -8.26 KCAL/MOL
REMARK 924 INTRA-LIGAND FREE ENERGY PREDICTED BY IDOCK:   -0.85 KCAL/MOL
REMARK 927      BINDING AFFINITY PREDICTED BY RF-SCORE:    0.00 PKD
ROOT
HETATM    1  C   UNL     1      -7.654  20.625  67.380  1.00  0.00    -0.375 C  
HETATM    2  C   UNL     1      -8.453  19.356  67.356  1.00  0.00    -0.330 A  
HETATM    3  C   UNL     1      -9.825  19.382  67.102  1.00  0.00    -0.438 A  
HETATM    4  C   UNL     1     -10.586  18.209  67.196  1.00  0.00    -0.362 A  
HETATM    5  C   UNL     1     -10.004  16.962  67.476  1.00  0.00    -0.268 A  
HETATM    6  C   UNL     1      -8.610  16.949  67.679  1.00  0.00    -0.212 A  
HETATM    7  C   UNL     1      -7.850  18.127  67.641  1.00  0.00    -0.224 A  
ENDROOT
BRANCH   5   8
HETATM    8  C   UNL     1     -10.818  15.707  67.663  1.00  0.00    -0.307 C  
HETATM    9  C   UNL     1     -11.293  15.340  68.884  1.00  0.00    -0.315 C  
BRANCH   8  10
HETATM   10  C   UNL     1     -11.162  14.760  66.543  1.00  0.00    -0.342 A  
HETATM   11  N   UNL     1     -12.408  14.216  66.559  1.00  0.00    -0.442 NA 
HETATM   12  C   UNL     1     -10.259  14.459  65.517  1.00  0.00    -0.386 A  
HETATM   13  C   UNL     1     -10.654  13.604  64.487  1.00  0.00    -0.428 A  
HETATM   14  C   UNL     1     -12.753  13.370  65.563  1.00  0.00    -0.410 A  
HETATM   15  C   UNL     1     -11.921  13.044  64.511  1.00  0.00    -0.450 A  
ENDBRANCH   8  10
BRANCH   9  16
HETATM   16  C   UNL     1     -11.240  16.069  70.196  1.00  0.00    -0.373 C  
BRANCH  16  17
HETATM   17  N   UNL     1     -12.320  15.719  71.124  1.00  0.00    -0.420 NA 
HETATM   18  C   UNL     1     -13.387  14.041  72.341  1.00  0.00    -0.617 C  
HETATM   19  C   UNL     1     -12.747  14.977  73.351  1.00  0.00    -0.654 C  
HETATM   20  C   UNL     1     -12.594  14.279  71.075  1.00  0.00    -0.358 C  
HETATM   21  C   UNL     1     -12.017  16.033  72.524  1.00  0.00    -0.545 C  
ENDBRANCH  16  17
ENDBRANCH   9  16
ENDBRANCH   5   8
TORSDOF 4
ENDMDL
MODEL        8
REMARK 921   NORMALIZED FREE ENERGY PREDICTED BY IDOCK:   -6.72 KCAL/MOL
REMARK 922        TOTAL FREE ENERGY PREDICTED BY IDOCK:   -9.10 KCAL/MOL
REMARK 923 INTER-LIGAND FREE ENERGY PREDICTED BY IDOCK:   -8.45 KCAL/MOL
REMARK 924 INTRA-LIGAND FREE ENERGY PREDICTED BY IDOCK:   -0.65 KCAL/MOL
REMARK 927      BINDING AFFINITY PREDICTED BY RF-SCORE:    0.00 PKD
ROOT
HETATM    1  C   UNL     1     -13.473  13.636  72.329  1.00  0.00    -0.652 C  
HETATM    2  C   UNL     1     -12.737  13.970  71.065  1.00  0.00    -0.431 A  
HETATM    3  C   UNL     1     -12.709  15.278  70.581  1.00  0.00    -0.470 A  
HETATM    4  C   UNL     1     -12.120  15.563  69.342  1.00  0.00    -0.302 A  
HETATM    5  C   UNL     1     -11.480  14.575  68.574  1.00  0.00    -0.327 A  
HETATM    6  C   UNL     1     -11.475  13.271  69.105  1.00  0.00    -0.357 A  
HETATM    7  C   UNL     1     -12.111  12.968  70.318  1.00  0.00    -0.388 A  
ENDROOT
BRANCH   5   8
HETATM    8  C   UNL     1     -10.916  14.848  67.203  1.00  0.00    -0.323 C  
HETATM    9  C   UNL     1     -10.074  15.891  66.972  1.00  0.00    -0.268 C  
BRANCH   8  10
HETATM   10  C   UNL     1     -11.237  14.017  65.987  1.00  0.00    -0.310 A  
HETATM   11  N   UNL     1     -10.203  13.718  65.157  1.00  0.00    -0.356 NA 
HETATM   12  C   UNL     1     -12.530  13.551  65.722  1.00  0.00    -0.514 A  
HETATM   13  C   UNL     1     -12.752  12.752  64.600  1.00  0.00    -0.439 A  
HETATM   14  C   UNL     1     -10.453  12.965  64.063  1.00  0.00    -0.368 A  
HETATM   15  C   UNL     1     -11.698  12.457  63.750  1.00  0.00    -0.566 A  
ENDBRANCH   8  10
BRANCH   9  16
HETATM   16  C   UNL     1      -9.458  16.862  67.938  1.00  0.00    -0.239 C  
BRANCH  16  17
HETATM   17  N   UNL     1      -9.916  18.246  67.775  1.00  0.00    -0.317 NA 
HETATM   18  C   UNL     1      -9.329  20.470  67.395  1.00  0.00    -0.511 C  
HETATM   19  C   UNL     1     -10.112  20.007  66.178  1.00  0.00    -0.588 C  
HETATM   20  C   UNL     1      -8.812  19.183  68.001  1.00  0.00    -0.313 C  
HETATM   21  C   UNL     1     -10.437  18.538  66.436  1.00  0.00    -0.406 C  
ENDBRANCH  16  17
ENDBRANCH   9  16
ENDBRANCH   5   8
TORSDOF 4
ENDMDL
MODEL        9
REMARK 921   NORMALIZED FREE ENERGY PREDICTED BY IDOCK:   -6.65 KCAL/MOL
REMARK 922        TOTAL FREE ENERGY PREDICTED BY IDOCK:   -9.01 KCAL/MOL
REMARK 923 INTER-LIGAND FREE ENERGY PREDICTED BY IDOCK:   -8.07 KCAL/MOL
REMARK 924 INTRA-LIGAND FREE ENERGY PREDICTED BY IDOCK:   -0.93 KCAL/MOL
REMARK 927      BINDING AFFINITY PREDICTED BY RF-SCORE:    0.00 PKD
ROOT
HETATM    1  C   UNL     1      -6.981  18.378  67.988  1.00  0.00    -0.231 C  
HETATM    2  C   UNL     1      -8.141  17.476  68.293  1.00  0.00    -0.268 A  
HETATM    3  C   UNL     1      -9.449  17.884  68.031  1.00  0.00    -0.279 A  
HETATM    4  C   UNL     1     -10.532  17.087  68.425  1.00  0.00    -0.370 A  
HETATM    5  C   UNL     1     -10.355  15.831  69.028  1.00  0.00    -0.223 A  
HETATM    6  C   UNL     1      -9.026  15.415  69.236  1.00  0.00    -0.261 A  
HETATM    7  C   UNL     1      -7.937  16.231  68.896  1.00  0.00    -0.230 A  
ENDROOT
BRANCH   5   8
HETATM    8  C   UNL     1     -11.508  15.000  69.532  1.00  0.00    -0.317 C  
HETATM    9  C   UNL     1     -11.945  13.902  68.858  1.00  0.00    -0.393 C  
BRANCH   8  10
HETATM   10  C   UNL     1     -12.271  15.309  70.795  1.00  0.00    -0.360 A  
HETATM   11  N   UNL     1     -13.566  14.902  70.845  1.00  0.00    -0.324 NA 
HETATM   12  C   UNL     1     -11.681  15.968  71.880  1.00  0.00    -0.594 A  
HETATM   13  C   UNL     1     -12.432  16.189  73.036  1.00  0.00    -0.590 A  
HETATM   14  C   UNL     1     -14.277  15.154  71.966  1.00  0.00    -0.577 A  
HETATM   15  C   UNL     1     -13.756  15.781  73.079  1.00  0.00    -0.583 A  
ENDBRANCH   8  10
BRANCH   9  16
HETATM   16  C   UNL     1     -11.381  13.236  67.637  1.00  0.00    -0.296 C  
BRANCH  16  17
HETATM   17  N   UNL     1     -12.089  13.559  66.393  1.00  0.00    -0.415 NA 
HETATM   18  C   UNL     1     -12.055  14.706  64.364  1.00  0.00    -0.481 C  
HETATM   19  C   UNL     1     -12.034  13.224  64.032  1.00  0.00    -0.525 C  
HETATM   20  C   UNL     1     -11.527  14.767  65.780  1.00  0.00    -0.322 C  
HETATM   21  C   UNL     1     -12.005  12.504  65.378  1.00  0.00    -0.437 C  
ENDBRANCH  16  17
ENDBRANCH   9  16
ENDBRANCH   5   8
TORSDOF 4
ENDMDL
MODEL       10
REMARK 921   NORMALIZED FREE ENERGY PREDICTED BY IDOCK:   -6.54 KCAL/MOL
REMARK 922        TOTAL FREE ENERGY PREDICTED BY IDOCK:   -8.87 KCAL/MOL
REMARK 923 INTER-LIGAND FREE ENERGY PREDICTED BY IDOCK:   -8.04 KCAL/MOL
REMARK 924 INTRA-LIGAND FREE ENERGY PREDICTED BY IDOCK:   -0.83 KCAL/MOL
REMARK 927      BINDING AFFINITY PREDICTED BY RF-SCORE:    0.00 PKD
ROOT
HETATM    1  C   UNL     1      -7.986  20.841  67.154  1.00  0.00    -0.258 C  
HETATM    2  C   UNL     1      -8.728  19.595  67.537  1.00  0.00    -0.364 A  
HETATM    3  C   UNL     1      -8.077  18.551  68.193  1.00  0.00    -0.310 A  
HETATM    4  C   UNL     1      -8.746  17.345  68.444  1.00  0.00    -0.271 A  
HETATM    5  C   UNL     1     -10.098  17.158  68.115  1.00  0.00    -0.311 A  
HETATM    6  C   UNL     1     -10.752  18.243  67.499  1.00  0.00    -0.381 A  
HETATM    7  C   UNL     1     -10.074  19.433  67.195  1.00  0.00    -0.490 A  
ENDROOT
BRANCH   5   8
HETATM    8  C   UNL     1     -10.807  15.840  68.301  1.00  0.00    -0.305 C  
HETATM    9  C   UNL     1     -10.943  14.952  67.279  1.00  0.00    -0.323 C  
BRANCH   8  10
HETATM   10  C   UNL     1     -11.427  15.402  69.603  1.00  0.00    -0.320 A  
HETATM   11  N   UNL     1     -11.326  16.261  70.652  1.00  0.00    -0.369 NA 
HETATM   12  C   UNL     1     -12.094  14.179  69.737  1.00  0.00    -0.409 A  
HETATM   13  C   UNL     1     -12.681  13.851  70.960  1.00  0.00    -0.428 A  
HETATM   14  C   UNL     1     -11.879  15.904  71.831  1.00  0.00    -0.506 A  
HETATM   15  C   UNL     1     -12.568  14.724  72.030  1.00  0.00    -0.401 A  
ENDBRANCH   8  10
BRANCH   9  16
HETATM   16  C   UNL     1     -10.380  14.995  65.888  1.00  0.00    -0.313 C  
BRANCH  16  17
HETATM   17  N   UNL     1     -11.196  14.298  64.887  1.00  0.00    -0.360 NA 
HETATM   18  C   UNL     1     -11.565  12.335  63.685  1.00  0.00    -0.581 C  
HETATM   19  C   UNL     1     -12.754  12.512  64.613  1.00  0.00    -0.434 C  
HETATM   20  C   UNL     1     -10.470  13.147  64.342  1.00  0.00    -0.407 C  
HETATM   21  C   UNL     1     -12.458  13.775  65.419  1.00  0.00    -0.500 C  
ENDBRANCH  16  17
ENDBRANCH   9  16
ENDBRANCH   5   8
TORSDOF 4
ENDMDL
MODEL       11
REMARK 921   NORMALIZED FREE ENERGY PREDICTED BY IDOCK:   -6.49 KCAL/MOL
REMARK 922        TOTAL FREE ENERGY PREDICTED BY IDOCK:   -8.81 KCAL/MOL
REMARK 923 INTER-LIGAND FREE ENERGY PREDICTED BY IDOCK:   -8.58 KCAL/MOL
REMARK 924 INTRA-LIGAND FREE ENERGY PREDICTED BY IDOCK:   -0.22 KCAL/MOL
REMARK 927      BINDING AFFINITY PREDICTED BY RF-SCORE:    0.00 PKD
ROOT
HETATM    1  C   UNL     1     -13.551  16.082  73.137  1.00  0.00    -0.517 C  
HETATM    2  C   UNL     1     -13.167  14.953  72.227  1.00  0.00    -0.468 A  
HETATM    3  C   UNL     1     -13.733  13.687  72.383  1.00  0.00    -0.697 A  
HETATM    4  C   UNL     1     -13.285  12.610  71.607  1.00  0.00    -0.394 A  
HETATM    5  C   UNL     1     -12.313  12.764  70.605  1.00  0.00    -0.381 A  
HETATM    6  C   UNL     1     -11.791  14.060  70.429  1.00  0.00    -0.356 A  
HETATM    7  C   UNL     1     -12.193  15.132  71.239  1.00  0.00    -0.395 A  
ENDROOT
BRANCH   5   8
HETATM    8  C   UNL     1     -11.762  11.601  69.820  1.00  0.00    -0.425 C  
HETATM    9  C   UNL     1     -11.681  11.630  68.462  1.00  0.00    -0.378 C  
BRANCH   8  10
HETATM   10  C   UNL     1     -11.271  10.324  70.452  1.00  0.00    -0.332 A  
HETATM   11  N   UNL     1     -10.035   9.893  70.088  1.00  0.00    -0.256 NA 
HETATM   12  C   UNL     1     -12.034   9.614  71.387  1.00  0.00    -0.480 A  
HETATM   13  C   UNL     1     -11.505   8.459  71.966  1.00  0.00    -0.418 A  
HETATM   14  C   UNL     1      -9.560   8.756  70.643  1.00  0.00    -0.199 A  
HETATM   15  C   UNL     1     -10.248   8.017  71.584  1.00  0.00    -0.256 A  
ENDBRANCH   8  10
BRANCH   9  16
HETATM   16  C   UNL     1     -11.975  12.750  67.506  1.00  0.00    -0.281 C  
BRANCH  16  17
HETATM   17  N   UNL     1     -12.057  12.335  66.101  1.00  0.00    -0.627 NA 
HETATM   18  C   UNL     1     -12.044  12.991  63.863  1.00  0.00    -0.541 C  
HETATM   19  C   UNL     1     -10.784  12.174  64.090  1.00  0.00    -0.405 C  
HETATM   20  C   UNL     1     -12.415  13.474  65.249  1.00  0.00    -0.482 C  
HETATM   21  C   UNL     1     -10.797  11.804  65.571  1.00  0.00    -0.297 C  
ENDBRANCH  16  17
ENDBRANCH   9  16
ENDBRANCH   5   8
TORSDOF 4
ENDMDL
MODEL       12
REMARK 921   NORMALIZED FREE ENERGY PREDICTED BY IDOCK:   -6.47 KCAL/MOL
REMARK 922        TOTAL FREE ENERGY PREDICTED BY IDOCK:   -8.79 KCAL/MOL
REMARK 923 INTER-LIGAND FREE ENERGY PREDICTED BY IDOCK:   -7.60 KCAL/MOL
REMARK 924 INTRA-LIGAND FREE ENERGY PREDICTED BY IDOCK:   -1.19 KCAL/MOL
REMARK 927      BINDING AFFINITY PREDICTED BY RF-SCORE:    0.00 PKD
ROOT
HETATM    1  C   UNL     1      -8.581  19.957  67.504  1.00  0.00    -0.393 C  
HETATM    2  C   UNL     1      -9.128  18.614  67.888  1.00  0.00    -0.314 A  
HETATM    3  C   UNL     1     -10.436  18.257  67.561  1.00  0.00    -0.431 A  
HETATM    4  C   UNL     1     -10.979  17.050  68.024  1.00  0.00    -0.252 A  
HETATM    5  C   UNL     1     -10.223  16.127  68.765  1.00  0.00    -0.238 A  
HETATM    6  C   UNL     1      -8.889  16.483  69.040  1.00  0.00    -0.223 A  
HETATM    7  C   UNL     1      -8.356  17.714  68.629  1.00  0.00    -0.267 A  
ENDROOT
BRANCH   5   8
HETATM    8  C   UNL     1     -10.815  14.865  69.340  1.00  0.00    -0.274 C  
HETATM    9  C   UNL     1     -10.616  13.653  68.755  1.00  0.00    -0.247 C  
BRANCH   8  10
HETATM   10  C   UNL     1     -11.671  14.834  70.579  1.00  0.00    -0.293 A  
HETATM   11  N   UNL     1     -12.481  13.754  70.739  1.00  0.00    -0.360 NA 
HETATM   12  C   UNL     1     -11.632  15.852  71.538  1.00  0.00    -0.537 A  
HETATM   13  C   UNL     1     -12.422  15.742  72.684  1.00  0.00    -0.546 A  
HETATM   14  C   UNL     1     -13.255  13.688  71.844  1.00  0.00    -0.411 A  
HETATM   15  C   UNL     1     -13.254  14.645  72.839  1.00  0.00    -0.609 A  
ENDBRANCH   8  10
BRANCH   9  16
HETATM   16  C   UNL     1      -9.752  13.280  67.585  1.00  0.00    -0.219 C  
BRANCH  16  17
HETATM   17  N   UNL     1     -10.478  13.153  66.317  1.00  0.00    -0.280 NA 
HETATM   18  C   UNL     1     -12.549  13.056  65.248  1.00  0.00    -0.516 C  
HETATM   19  C   UNL     1     -11.883  14.347  64.803  1.00  0.00    -0.439 C  
HETATM   20  C   UNL     1     -11.862  12.729  66.556  1.00  0.00    -0.405 C  
HETATM   21  C   UNL     1     -10.557  14.404  65.557  1.00  0.00    -0.347 C  
ENDBRANCH  16  17
ENDBRANCH   9  16
ENDBRANCH   5   8
TORSDOF 4
ENDMDL
MODEL       13
REMARK 921   NORMALIZED FREE ENERGY PREDICTED BY IDOCK:   -6.44 KCAL/MOL
REMARK 922        TOTAL FREE ENERGY PREDICTED BY IDOCK:   -8.74 KCAL/MOL
REMARK 923 INTER-LIGAND FREE ENERGY PREDICTED BY IDOCK:   -8.51 KCAL/MOL
REMARK 924 INTRA-LIGAND FREE ENERGY PREDICTED BY IDOCK:   -0.24 KCAL/MOL
REMARK 927      BINDING AFFINITY PREDICTED BY RF-SCORE:    0.00 PKD
ROOT
HETATM    1  C   UNL     1     -10.586  12.348  63.844  1.00  0.00    -0.470 C  
HETATM    2  C   UNL     1     -10.975  12.203  65.285  1.00  0.00    -0.349 A  
HETATM    3  C   UNL     1     -11.881  13.087  65.871  1.00  0.00    -0.468 A  
HETATM    4  C   UNL     1     -12.151  13.019  67.245  1.00  0.00    -0.304 A  
HETATM    5  C   UNL     1     -11.587  12.032  68.069  1.00  0.00    -0.407 A  
HETATM    6  C   UNL     1     -10.715  11.117  67.448  1.00  0.00    -0.294 A  
HETATM    7  C   UNL     1     -10.396  11.213  66.085  1.00  0.00    -0.302 A  
ENDROOT
BRANCH   5   8
HETATM    8  C   UNL     1     -11.801  11.996  69.561  1.00  0.00    -0.390 C  
HETATM    9  C   UNL     1     -11.921  13.137  70.292  1.00  0.00    -0.366 C  
BRANCH   8  10
HETATM   10  C   UNL     1     -11.889  10.722  70.362  1.00  0.00    -0.358 A  
HETATM   11  N   UNL     1     -10.721  10.073  70.612  1.00  0.00    -0.297 NA 
HETATM   12  C   UNL     1     -13.105  10.229  70.848  1.00  0.00    -0.423 A  
HETATM   13  C   UNL     1     -13.111   9.065  71.618  1.00  0.00    -0.420 A  
HETATM   14  C   UNL     1     -10.761   8.933  71.336  1.00  0.00    -0.312 A  
HETATM   15  C   UNL     1     -11.921   8.399  71.862  1.00  0.00    -0.397 A  
ENDBRANCH   8  10
BRANCH   9  16
HETATM   16  C   UNL     1     -11.985  14.567  69.839  1.00  0.00    -0.328 C  
BRANCH  16  17
HETATM   17  N   UNL     1     -12.604  15.478  70.807  1.00  0.00    -0.438 NA 
HETATM   18  C   UNL     1     -14.024  15.714  72.642  1.00  0.00    -0.608 C  
HETATM   19  C   UNL     1     -12.626  16.067  73.119  1.00  0.00    -0.625 C  
HETATM   20  C   UNL     1     -13.782  14.855  71.420  1.00  0.00    -0.450 C  
HETATM   21  C   UNL     1     -11.716  15.855  71.911  1.00  0.00    -0.499 C  
ENDBRANCH  16  17
ENDBRANCH   9  16
ENDBRANCH   5   8
TORSDOF 4
ENDMDL
MODEL       14
REMARK 921   NORMALIZED FREE ENERGY PREDICTED BY IDOCK:   -6.43 KCAL/MOL
REMARK 922        TOTAL FREE ENERGY PREDICTED BY IDOCK:   -8.73 KCAL/MOL
REMARK 923 INTER-LIGAND FREE ENERGY PREDICTED BY IDOCK:   -8.48 KCAL/MOL
REMARK 924 INTRA-LIGAND FREE ENERGY PREDICTED BY IDOCK:   -0.26 KCAL/MOL
REMARK 927      BINDING AFFINITY PREDICTED BY RF-SCORE:    0.00 PKD
ROOT
HETATM    1  C   UNL     1     -12.646  16.134  74.039  1.00  0.00    -0.694 C  
HETATM    2  C   UNL     1     -12.556  15.225  72.849  1.00  0.00    -0.512 A  
HETATM    3  C   UNL     1     -13.446  14.161  72.696  1.00  0.00    -0.634 A  
HETATM    4  C   UNL     1     -13.285  13.247  71.646  1.00  0.00    -0.446 A  
HETATM    5  C   UNL     1     -12.281  13.396  70.674  1.00  0.00    -0.427 A  
HETATM    6  C   UNL     1     -11.425  14.505  70.818  1.00  0.00    -0.188 A  
HETATM    7  C   UNL     1     -11.545  15.392  71.898  1.00  0.00    -0.521 A  
ENDROOT
BRANCH   5   8
HETATM    8  C   UNL     1     -12.042  12.377  69.588  1.00  0.00    -0.271 C  
HETATM    9  C   UNL     1     -11.930  11.050  69.866  1.00  0.00    -0.427 C  
BRANCH   8  10
HETATM   10  C   UNL     1     -11.897  12.730  68.130  1.00  0.00    -0.324 A  
HETATM   11  N   UNL     1     -11.679  11.702  67.268  1.00  0.00    -0.611 NA 
HETATM   12  C   UNL     1     -11.998  14.047  67.668  1.00  0.00    -0.404 A  
HETATM   13  C   UNL     1     -11.894  14.301  66.299  1.00  0.00    -0.420 A  
HETATM   14  C   UNL     1     -11.554  11.981  65.952  1.00  0.00    -0.300 A  
HETATM   15  C   UNL     1     -11.661  13.252  65.424  1.00  0.00    -0.370 A  
ENDBRANCH   8  10
BRANCH   9  16
HETATM   16  C   UNL     1     -12.115  10.321  71.166  1.00  0.00    -0.395 C  
BRANCH  16  17
HETATM   17  N   UNL     1     -11.472   9.003  71.213  1.00  0.00    -0.294 NA 
HETATM   18  C   UNL     1      -9.563   7.775  71.742  1.00  0.00    -0.204 C  
HETATM   19  C   UNL     1     -10.647   7.344  72.716  1.00  0.00    -0.345 C  
HETATM   20  C   UNL     1     -10.014   9.144  71.282  1.00  0.00    -0.303 C  
HETATM   21  C   UNL     1     -11.864   8.201  72.376  1.00  0.00    -0.388 C  
ENDBRANCH  16  17
ENDBRANCH   9  16
ENDBRANCH   5   8
TORSDOF 4
ENDMDL
MODEL       15
REMARK 921   NORMALIZED FREE ENERGY PREDICTED BY IDOCK:   -6.41 KCAL/MOL
REMARK 922        TOTAL FREE ENERGY PREDICTED BY IDOCK:   -8.71 KCAL/MOL
REMARK 923 INTER-LIGAND FREE ENERGY PREDICTED BY IDOCK:   -7.80 KCAL/MOL
REMARK 924 INTRA-LIGAND FREE ENERGY PREDICTED BY IDOCK:   -0.90 KCAL/MOL
REMARK 927      BINDING AFFINITY PREDICTED BY RF-SCORE:    0.00 PKD
ROOT
HETATM    1  C   UNL     1     -13.756  13.408  72.395  1.00  0.00    -0.698 C  
HETATM    2  C   UNL     1     -12.937  13.883  71.231  1.00  0.00    -0.414 A  
HETATM    3  C   UNL     1     -12.931  15.229  70.866  1.00  0.00    -0.522 A  
HETATM    4  C   UNL     1     -12.259  15.647  69.709  1.00  0.00    -0.293 A  
HETATM    5  C   UNL     1     -11.514  14.759  68.916  1.00  0.00    -0.321 A  
HETATM    6  C   UNL     1     -11.491  13.413  69.330  1.00  0.00    -0.345 A  
HETATM    7  C   UNL     1     -12.208  12.977  70.454  1.00  0.00    -0.386 A  
ENDROOT
BRANCH   5   8
HETATM    8  C   UNL     1     -10.856  15.176  67.625  1.00  0.00    -0.295 C  
HETATM    9  C   UNL     1     -11.360  14.810  66.416  1.00  0.00    -0.339 C  
BRANCH   8  10
HETATM   10  C   UNL     1      -9.601  16.008  67.559  1.00  0.00    -0.222 A  
HETATM   11  N   UNL     1      -9.068  16.218  66.326  1.00  0.00    -0.304 NA 
HETATM   12  C   UNL     1      -9.010  16.559  68.701  1.00  0.00    -0.236 A  
HETATM   13  C   UNL     1      -7.871  17.354  68.566  1.00  0.00    -0.268 A  
HETATM   14  C   UNL     1      -7.949  16.968  66.228  1.00  0.00    -0.308 A  
HETATM   15  C   UNL     1      -7.324  17.558  67.309  1.00  0.00    -0.203 A  
ENDBRANCH   8  10
BRANCH   9  16
HETATM   16  C   UNL     1     -12.629  14.078  66.085  1.00  0.00    -0.367 C  
BRANCH  16  17
HETATM   17  N   UNL     1     -12.427  12.824  65.351  1.00  0.00    -0.614 NA 
HETATM   18  C   UNL     1     -11.526  11.780  63.471  1.00  0.00    -0.489 C  
HETATM   19  C   UNL     1     -10.751  11.267  64.673  1.00  0.00    -0.371 C  
HETATM   20  C   UNL     1     -12.101  13.096  63.947  1.00  0.00    -0.470 C  
HETATM   21  C   UNL     1     -11.330  12.006  65.878  1.00  0.00    -0.337 C  
ENDBRANCH  16  17
ENDBRANCH   9  16
ENDBRANCH   5   8
TORSDOF 4
ENDMDL
MODEL       16
REMARK 921   NORMALIZED FREE ENERGY PREDICTED BY IDOCK:   -6.39 KCAL/MOL
REMARK 922        TOTAL FREE ENERGY PREDICTED BY IDOCK:   -8.69 KCAL/MOL
REMARK 923 INTER-LIGAND FREE ENERGY PREDICTED BY IDOCK:   -7.91 KCAL/MOL
REMARK 924 INTRA-LIGAND FREE ENERGY PREDICTED BY IDOCK:   -0.78 KCAL/MOL
REMARK 927      BINDING AFFINITY PREDICTED BY RF-SCORE:    0.00 PKD
ROOT
HETATM    1  C   UNL     1      -7.764  20.307  67.394  1.00  0.00    -0.352 C  
HETATM    2  C   UNL     1      -8.659  19.188  67.840  1.00  0.00    -0.340 A  
HETATM    3  C   UNL     1      -8.121  17.980  68.286  1.00  0.00    -0.296 A  
HETATM    4  C   UNL     1      -8.960  16.900  68.589  1.00  0.00    -0.266 A  
HETATM    5  C   UNL     1     -10.360  17.001  68.528  1.00  0.00    -0.359 A  
HETATM    6  C   UNL     1     -10.884  18.244  68.125  1.00  0.00    -0.097 A  
HETATM    7  C   UNL     1     -10.049  19.313  67.766  1.00  0.00    -0.488 A  
ENDROOT
BRANCH   5   8
HETATM    8  C   UNL     1     -11.273  15.825  68.770  1.00  0.00    -0.342 C  
HETATM    9  C   UNL     1     -11.614  14.968  67.769  1.00  0.00    -0.336 C  
BRANCH   8  10
HETATM   10  C   UNL     1     -11.886  15.506  70.109  1.00  0.00    -0.356 A  
HETATM   11  N   UNL     1     -11.556  16.320  71.146  1.00  0.00    -0.405 NA 
HETATM   12  C   UNL     1     -12.771  14.436  70.287  1.00  0.00    -0.318 A  
HETATM   13  C   UNL     1     -13.336  14.219  71.545  1.00  0.00    -0.429 A  
HETATM   14  C   UNL     1     -12.097  16.069  72.358  1.00  0.00    -0.535 A  
HETATM   15  C   UNL     1     -12.990  15.045  72.602  1.00  0.00    -0.493 A  
ENDBRANCH   8  10
BRANCH   9  16
HETATM   16  C   UNL     1     -11.128  14.907  66.350  1.00  0.00    -0.342 C  
BRANCH  16  17
HETATM   17  N   UNL     1     -11.302  13.598  65.710  1.00  0.00    -0.303 NA 
HETATM   18  C   UNL     1     -12.646  12.231  64.383  1.00  0.00    -0.447 C  
HETATM   19  C   UNL     1     -11.385  12.516  63.586  1.00  0.00    -0.555 C  
HETATM   20  C   UNL     1     -12.712  13.372  65.374  1.00  0.00    -0.426 C  
HETATM   21  C   UNL     1     -10.552  13.451  64.459  1.00  0.00    -0.425 C  
ENDBRANCH  16  17
ENDBRANCH   9  16
ENDBRANCH   5   8
TORSDOF 4
ENDMDL
MODEL       17
REMARK 921   NORMALIZED FREE ENERGY PREDICTED BY IDOCK:   -6.36 KCAL/MOL
REMARK 922        TOTAL FREE ENERGY PREDICTED BY IDOCK:   -8.65 KCAL/MOL
REMARK 923 INTER-LIGAND FREE ENERGY PREDICTED BY IDOCK:   -8.30 KCAL/MOL
REMARK 924 INTRA-LIGAND FREE ENERGY PREDICTED BY IDOCK:   -0.35 KCAL/MOL
REMARK 927      BINDING AFFINITY PREDICTED BY RF-SCORE:    0.00 PKD
ROOT
HETATM    1  C   UNL     1     -11.502   7.323  72.519  1.00  0.00    -0.322 C  
HETATM    2  C   UNL     1     -11.716   8.642  71.836  1.00  0.00    -0.422 A  
HETATM    3  C   UNL     1     -10.772   9.142  70.939  1.00  0.00    -0.343 A  
HETATM    4  C   UNL     1     -10.920  10.425  70.395  1.00  0.00    -0.320 A  
HETATM    5  C   UNL     1     -12.041  11.226  70.667  1.00  0.00    -0.480 A  
HETATM    6  C   UNL     1     -13.008  10.682  71.534  1.00  0.00    -0.566 A  
HETATM    7  C   UNL     1     -12.839   9.422  72.127  1.00  0.00    -0.480 A  
ENDROOT
BRANCH   5   8
HETATM    8  C   UNL     1     -12.176  12.639  70.157  1.00  0.00    -0.310 C  
HETATM    9  C   UNL     1     -11.944  12.952  68.853  1.00  0.00    -0.291 C  
BRANCH   8  10
HETATM   10  C   UNL     1     -12.557  13.808  71.028  1.00  0.00    -0.371 A  
HETATM   11  N   UNL     1     -13.868  13.918  71.369  1.00  0.00    -0.207 NA 
HETATM   12  C   UNL     1     -11.615  14.735  71.486  1.00  0.00    -0.288 A  
HETATM   13  C   UNL     1     -12.028  15.773  72.323  1.00  0.00    -0.592 A  
HETATM   14  C   UNL     1     -14.244  14.949  72.157  1.00  0.00    -0.522 A  
HETATM   15  C   UNL     1     -13.366  15.888  72.661  1.00  0.00    -0.553 A  
ENDBRANCH   8  10
BRANCH   9  16
HETATM   16  C   UNL     1     -11.647  12.054  67.687  1.00  0.00    -0.321 C  
BRANCH  16  17
HETATM   17  N   UNL     1     -11.181  12.759  66.488  1.00  0.00    -0.293 NA 
HETATM   18  C   UNL     1     -10.572  12.610  64.242  1.00  0.00    -0.408 C  
HETATM   19  C   UNL     1     -11.848  13.433  64.299  1.00  0.00    -0.470 C  
HETATM   20  C   UNL     1     -10.598  11.815  65.530  1.00  0.00    -0.276 C  
HETATM   21  C   UNL     1     -12.246  13.469  65.772  1.00  0.00    -0.461 C  
ENDBRANCH  16  17
ENDBRANCH   9  16
ENDBRANCH   5   8
TORSDOF 4
ENDMDL
MODEL       18
REMARK 921   NORMALIZED FREE ENERGY PREDICTED BY IDOCK:   -6.31 KCAL/MOL
REMARK 922        TOTAL FREE ENERGY PREDICTED BY IDOCK:   -8.59 KCAL/MOL
REMARK 923 INTER-LIGAND FREE ENERGY PREDICTED BY IDOCK:   -7.82 KCAL/MOL
REMARK 924 INTRA-LIGAND FREE ENERGY PREDICTED BY IDOCK:   -0.77 KCAL/MOL
REMARK 927      BINDING AFFINITY PREDICTED BY RF-SCORE:    0.00 PKD
ROOT
HETATM    1  C   UNL     1      -7.422  20.011  66.530  1.00  0.00    -0.304 C  
HETATM    2  C   UNL     1      -8.366  18.894  66.863  1.00  0.00    -0.289 A  
HETATM    3  C   UNL     1      -7.945  17.810  67.635  1.00  0.00    -0.216 A  
HETATM    4  C   UNL     1      -8.795  16.716  67.844  1.00  0.00    -0.205 A  
HETATM    5  C   UNL     1     -10.112  16.689  67.356  1.00  0.00    -0.274 A  
HETATM    6  C   UNL     1     -10.535  17.815  66.624  1.00  0.00    -0.300 A  
HETATM    7  C   UNL     1      -9.672  18.889  66.362  1.00  0.00    -0.395 A  
ENDROOT
BRANCH   5   8
HETATM    8  C   UNL     1     -11.009  15.486  67.502  1.00  0.00    -0.316 C  
HETATM    9  C   UNL     1     -11.641  15.204  68.673  1.00  0.00    -0.358 C  
BRANCH   8  10
HETATM   10  C   UNL     1     -11.273  14.502  66.391  1.00  0.00    -0.341 A  
HETATM   11  N   UNL     1     -10.234  14.219  65.561  1.00  0.00    -0.340 NA 
HETATM   12  C   UNL     1     -12.518  13.885  66.221  1.00  0.00    -0.454 A  
HETATM   13  C   UNL     1     -12.684  12.952  65.196  1.00  0.00    -0.443 A  
HETATM   14  C   UNL     1     -10.432  13.333  64.561  1.00  0.00    -0.415 A  
HETATM   15  C   UNL     1     -11.627  12.674  64.346  1.00  0.00    -0.415 A  
ENDBRANCH   8  10
BRANCH   9  16
HETATM   16  C   UNL     1     -11.699  15.994  69.949  1.00  0.00    -0.271 C  
BRANCH  16  17
HETATM   17  N   UNL     1     -11.875  15.179  71.155  1.00  0.00    -0.314 NA 
HETATM   18  C   UNL     1     -12.669  15.069  73.344  1.00  0.00    -0.654 C  
HETATM   19  C   UNL     1     -13.531  14.131  72.516  1.00  0.00    -0.634 C  
HETATM   20  C   UNL     1     -12.102  16.033  72.325  1.00  0.00    -0.527 C  
HETATM   21  C   UNL     1     -13.019  14.264  71.084  1.00  0.00    -0.353 C  
ENDBRANCH  16  17
ENDBRANCH   9  16
ENDBRANCH   5   8
TORSDOF 4
ENDMDL
MODEL       19
REMARK 921   NORMALIZED FREE ENERGY PREDICTED BY IDOCK:   -6.30 KCAL/MOL
REMARK 922        TOTAL FREE ENERGY PREDICTED BY IDOCK:   -8.58 KCAL/MOL
REMARK 923 INTER-LIGAND FREE ENERGY PREDICTED BY IDOCK:   -7.78 KCAL/MOL
REMARK 924 INTRA-LIGAND FREE ENERGY PREDICTED BY IDOCK:   -0.80 KCAL/MOL
REMARK 927      BINDING AFFINITY PREDICTED BY RF-SCORE:    0.00 PKD
ROOT
HETATM    1  C   UNL     1     -13.386  13.681  72.538  1.00  0.00    -0.638 C  
HETATM    2  C   UNL     1     -12.834  13.832  71.151  1.00  0.00    -0.409 A  
HETATM    3  C   UNL     1     -12.263  12.745  70.489  1.00  0.00    -0.389 A  
HETATM    4  C   UNL     1     -11.645  12.919  69.243  1.00  0.00    -0.368 A  
HETATM    5  C   UNL     1     -11.634  14.158  68.582  1.00  0.00    -0.352 A  
HETATM    6  C   UNL     1     -12.261  15.231  69.244  1.00  0.00    -0.218 A  
HETATM    7  C   UNL     1     -12.832  15.077  70.516  1.00  0.00    -0.380 A  
ENDROOT
BRANCH   5   8
HETATM    8  C   UNL     1     -10.902  14.381  67.282  1.00  0.00    -0.290 C  
HETATM    9  C   UNL     1      -9.886  15.279  67.180  1.00  0.00    -0.225 C  
BRANCH   8  10
HETATM   10  C   UNL     1     -11.231  13.654  66.003  1.00  0.00    -0.296 A  
HETATM   11  N   UNL     1     -12.548  13.470  65.722  1.00  0.00    -0.458 NA 
HETATM   12  C   UNL     1     -10.238  13.200  65.128  1.00  0.00    -0.299 A  
HETATM   13  C   UNL     1     -10.611  12.568  63.940  1.00  0.00    -0.472 A  
HETATM   14  C   UNL     1     -12.878  12.831  64.579  1.00  0.00    -0.241 A  
HETATM   15  C   UNL     1     -11.954  12.374  63.661  1.00  0.00    -0.626 A  
ENDBRANCH   8  10
BRANCH   9  16
HETATM   16  C   UNL     1      -9.221  16.104  68.244  1.00  0.00    -0.197 C  
BRANCH  16  17
HETATM   17  N   UNL     1      -9.151  17.537  67.940  1.00  0.00    -0.256 NA 
HETATM   18  C   UNL     1      -9.562  19.231  66.391  1.00  0.00    -0.425 C  
HETATM   19  C   UNL     1     -10.500  19.468  67.561  1.00  0.00    -0.596 C  
HETATM   20  C   UNL     1      -9.223  17.759  66.492  1.00  0.00    -0.265 C  
HETATM   21  C   UNL     1     -10.243  18.317  68.531  1.00  0.00    -0.379 C  
ENDBRANCH  16  17
ENDBRANCH   9  16
ENDBRANCH   5   8
TORSDOF 4
ENDMDL
MODEL       20
REMARK 921   NORMALIZED FREE ENERGY PREDICTED BY IDOCK:   -6.26 KCAL/MOL
REMARK 922        TOTAL FREE ENERGY PREDICTED BY IDOCK:   -8.53 KCAL/MOL
REMARK 923 INTER-LIGAND FREE ENERGY PREDICTED BY IDOCK:   -7.93 KCAL/MOL
REMARK 924 INTRA-LIGAND FREE ENERGY PREDICTED BY IDOCK:   -0.59 KCAL/MOL
REMARK 927      BINDING AFFINITY PREDICTED BY RF-SCORE:    0.00 PKD
ROOT
HETATM    1  C   UNL     1     -11.123  15.576  64.585  1.00  0.00    -0.373 C  
HETATM    2  C   UNL     1     -11.283  14.969  65.948  1.00  0.00    -0.313 A  
HETATM    3  C   UNL     1     -12.024  13.801  66.125  1.00  0.00    -0.449 A  
HETATM    4  C   UNL     1     -12.267  13.304  67.413  1.00  0.00    -0.236 A  
HETATM    5  C   UNL     1     -11.727  13.908  68.560  1.00  0.00    -0.390 A  
HETATM    6  C   UNL     1     -10.939  15.057  68.356  1.00  0.00    -0.266 A  
HETATM    7  C   UNL     1     -10.738  15.592  67.075  1.00  0.00    -0.314 A  
ENDROOT
BRANCH   5   8
HETATM    8  C   UNL     1     -12.048  13.436  69.956  1.00  0.00    -0.404 C  
HETATM    9  C   UNL     1     -11.912  12.131  70.317  1.00  0.00    -0.389 C  
BRANCH   8  10
HETATM   10  C   UNL     1     -12.547  14.343  71.051  1.00  0.00    -0.349 A  
HETATM   11  N   UNL     1     -13.894  14.428  71.211  1.00  0.00    -0.320 NA 
HETATM   12  C   UNL     1     -11.678  15.056  71.883  1.00  0.00    -0.454 A  
HETATM   13  C   UNL     1     -12.205  15.848  72.905  1.00  0.00    -0.605 A  
HETATM   14  C   UNL     1     -14.377  15.225  72.190  1.00  0.00    -0.555 A  
HETATM   15  C   UNL     1     -13.578  15.941  73.059  1.00  0.00    -0.616 A  
ENDBRANCH   8  10
BRANCH   9  16
HETATM   16  C   UNL     1     -11.356  10.972  69.541  1.00  0.00    -0.287 C  
BRANCH  16  17
HETATM   17  N   UNL     1     -11.488   9.676  70.216  1.00  0.00    -0.251 NA 
HETATM   18  C   UNL     1     -10.615   8.188  71.784  1.00  0.00    -0.313 C  
HETATM   19  C   UNL     1     -11.946   8.674  72.332  1.00  0.00    -0.410 C  
HETATM   20  C   UNL     1     -10.209   9.271  70.808  1.00  0.00    -0.286 C  
HETATM   21  C   UNL     1     -12.465   9.681  71.310  1.00  0.00    -0.355 C  
ENDBRANCH  16  17
ENDBRANCH   9  16
ENDBRANCH   5   8
TORSDOF 4
ENDMDL
MODEL       21
REMARK 921   NORMALIZED FREE ENERGY PREDICTED BY IDOCK:   -6.22 KCAL/MOL
REMARK 922        TOTAL FREE ENERGY PREDICTED BY IDOCK:   -8.48 KCAL/MOL
REMARK 923 INTER-LIGAND FREE ENERGY PREDICTED BY IDOCK:   -7.70 KCAL/MOL
REMARK 924 INTRA-LIGAND FREE ENERGY PREDICTED BY IDOCK:   -0.78 KCAL/MOL
REMARK 927      BINDING AFFINITY PREDICTED BY RF-SCORE:    0.00 PKD
ROOT
HETATM    1  C   UNL     1     -10.156   9.979  65.998  1.00  0.00    -0.318 C  
HETATM    2  C   UNL     1     -10.407  11.297  66.671  1.00  0.00    -0.279 A  
HETATM    3  C   UNL     1      -9.528  11.782  67.639  1.00  0.00    -0.180 A  
HETATM    4  C   UNL     1      -9.828  12.954  68.346  1.00  0.00    -0.197 A  
HETATM    5  C   UNL     1     -10.973  13.720  68.070  1.00  0.00    -0.268 A  
HETATM    6  C   UNL     1     -11.821  13.241  67.053  1.00  0.00    -0.442 A  
HETATM    7  C   UNL     1     -11.556  12.039  66.380  1.00  0.00    -0.381 A  
ENDROOT
BRANCH   5   8
HETATM    8  C   UNL     1     -11.353  14.936  68.877  1.00  0.00    -0.301 C  
HETATM    9  C   UNL     1     -11.196  16.196  68.387  1.00  0.00    -0.358 C  
BRANCH   8  10
HETATM   10  C   UNL     1     -11.916  14.869  70.273  1.00  0.00    -0.312 A  
HETATM   11  N   UNL     1     -12.505  13.701  70.642  1.00  0.00    -0.354 NA 
HETATM   12  C   UNL     1     -11.828  15.944  71.165  1.00  0.00    -0.483 A  
HETATM   13  C   UNL     1     -12.335  15.803  72.458  1.00  0.00    -0.550 A  
HETATM   14  C   UNL     1     -13.012  13.603  71.891  1.00  0.00    -0.341 A  
HETATM   15  C   UNL     1     -12.944  14.614  72.828  1.00  0.00    -0.564 A  
ENDBRANCH   8  10
BRANCH   9  16
HETATM   16  C   UNL     1     -10.765  16.649  67.021  1.00  0.00    -0.174 C  
BRANCH  16  17
HETATM   17  N   UNL     1      -9.949  17.868  67.022  1.00  0.00    -0.310 NA 
HETATM   18  C   UNL     1      -9.771  20.105  66.389  1.00  0.00    -0.538 C  
HETATM   19  C   UNL     1      -9.837  20.081  67.907  1.00  0.00    -0.538 C  
HETATM   20  C   UNL     1     -10.405  18.793  65.980  1.00  0.00    -0.422 C  
HETATM   21  C   UNL     1     -10.003  18.611  68.285  1.00  0.00    -0.384 C  
ENDBRANCH  16  17
ENDBRANCH   9  16
ENDBRANCH   5   8
TORSDOF 4
ENDMDL
MODEL       22
REMARK 921   NORMALIZED FREE ENERGY PREDICTED BY IDOCK:   -6.21 KCAL/MOL
REMARK 922        TOTAL FREE ENERGY PREDICTED BY IDOCK:   -8.46 KCAL/MOL
REMARK 923 INTER-LIGAND FREE ENERGY PREDICTED BY IDOCK:   -7.88 KCAL/MOL
REMARK 924 INTRA-LIGAND FREE ENERGY PREDICTED BY IDOCK:   -0.58 KCAL/MOL
REMARK 927      BINDING AFFINITY PREDICTED BY RF-SCORE:    0.00 PKD
ROOT
HETATM    1  C   UNL     1     -12.540  11.880  63.466  1.00  0.00    -0.579 C  
HETATM    2  C   UNL     1     -12.185  12.887  64.521  1.00  0.00    -0.489 A  
HETATM    3  C   UNL     1     -12.171  14.250  64.228  1.00  0.00    -0.451 A  
HETATM    4  C   UNL     1     -11.727  15.176  65.182  1.00  0.00    -0.179 A  
HETATM    5  C   UNL     1     -11.347  14.789  66.478  1.00  0.00    -0.344 A  
HETATM    6  C   UNL     1     -11.417  13.413  66.770  1.00  0.00    -0.376 A  
HETATM    7  C   UNL     1     -11.808  12.475  65.802  1.00  0.00    -0.494 A  
ENDROOT
BRANCH   5   8
HETATM    8  C   UNL     1     -10.788  15.760  67.487  1.00  0.00    -0.315 C  
HETATM    9  C   UNL     1     -11.339  15.902  68.723  1.00  0.00    -0.378 C  
BRANCH   8  10
HETATM   10  C   UNL     1      -9.603  16.651  67.220  1.00  0.00    -0.243 A  
HETATM   11  N   UNL     1      -9.599  17.867  67.827  1.00  0.00    -0.271 NA 
HETATM   12  C   UNL     1      -8.539  16.252  66.403  1.00  0.00    -0.361 A  
HETATM   13  C   UNL     1      -7.451  17.109  66.229  1.00  0.00    -0.344 A  
HETATM   14  C   UNL     1      -8.546  18.687  67.619  1.00  0.00    -0.272 A  
HETATM   15  C   UNL     1      -7.455  18.352  66.842  1.00  0.00    -0.232 A  
ENDBRANCH   8  10
BRANCH   9  16
HETATM   16  C   UNL     1     -12.449  15.128  69.375  1.00  0.00    -0.034 C  
BRANCH  16  17
HETATM   17  N   UNL     1     -12.921  15.702  70.639  1.00  0.00    -0.459 NA 
HETATM   18  C   UNL     1     -13.687  15.303  72.805  1.00  0.00    -0.584 C  
HETATM   19  C   UNL     1     -12.335  15.983  72.935  1.00  0.00    -0.609 C  
HETATM   20  C   UNL     1     -13.656  14.700  71.417  1.00  0.00    -0.404 C  
HETATM   21  C   UNL     1     -11.840  16.184  71.505  1.00  0.00    -0.463 C  
ENDBRANCH  16  17
ENDBRANCH   9  16
ENDBRANCH   5   8
TORSDOF 4
ENDMDL
MODEL       23
REMARK 921   NORMALIZED FREE ENERGY PREDICTED BY IDOCK:   -6.17 KCAL/MOL
REMARK 922        TOTAL FREE ENERGY PREDICTED BY IDOCK:   -8.42 KCAL/MOL
REMARK 923 INTER-LIGAND FREE ENERGY PREDICTED BY IDOCK:   -7.80 KCAL/MOL
REMARK 924 INTRA-LIGAND FREE ENERGY PREDICTED BY IDOCK:   -0.61 KCAL/MOL
REMARK 927      BINDING AFFINITY PREDICTED BY RF-SCORE:    0.00 PKD
ROOT
HETATM    1  C   UNL     1     -10.509   7.031  73.688  1.00  0.00    -0.414 C  
HETATM    2  C   UNL     1     -10.793   7.973  72.555  1.00  0.00    -0.415 A  
HETATM    3  C   UNL     1      -9.752   8.615  71.884  1.00  0.00    -0.383 A  
HETATM    4  C   UNL     1     -10.027   9.581  70.907  1.00  0.00    -0.308 A  
HETATM    5  C   UNL     1     -11.339   9.892  70.513  1.00  0.00    -0.399 A  
HETATM    6  C   UNL     1     -12.374   9.196  71.166  1.00  0.00    -0.330 A  
HETATM    7  C   UNL     1     -12.108   8.269  72.185  1.00  0.00    -0.425 A  
ENDROOT
BRANCH   5   8
HETATM    8  C   UNL     1     -11.654  10.987  69.525  1.00  0.00    -0.384 C  
HETATM    9  C   UNL     1     -12.268  12.139  69.908  1.00  0.00    -0.240 C  
BRANCH   8  10
HETATM   10  C   UNL     1     -11.337  10.900  68.054  1.00  0.00    -0.312 A  
HETATM   11  N   UNL     1     -11.813  11.898  67.264  1.00  0.00    -0.612 NA 
HETATM   12  C   UNL     1     -10.574   9.858  67.516  1.00  0.00    -0.333 A  
HETATM   13  C   UNL     1     -10.282   9.859  66.151  1.00  0.00    -0.277 A  
HETATM   14  C   UNL     1     -11.538  11.858  65.941  1.00  0.00    -0.224 A  
HETATM   15  C   UNL     1     -10.777  10.872  65.346  1.00  0.00    -0.189 A  
ENDBRANCH   8  10
BRANCH   9  16
HETATM   16  C   UNL     1     -12.640  12.620  71.281  1.00  0.00    -0.240 C  
BRANCH  16  17
HETATM   17  N   UNL     1     -12.991  14.042  71.346  1.00  0.00    -0.338 NA 
HETATM   18  C   UNL     1     -13.808  15.799  72.643  1.00  0.00    -0.597 C  
HETATM   19  C   UNL     1     -12.352  16.114  72.342  1.00  0.00    -0.554 C  
HETATM   20  C   UNL     1     -13.895  14.298  72.472  1.00  0.00    -0.471 C  
HETATM   21  C   UNL     1     -11.835  14.925  71.537  1.00  0.00    -0.361 C  
ENDBRANCH  16  17
ENDBRANCH   9  16
ENDBRANCH   5   8
TORSDOF 4
ENDMDL
MODEL       24
REMARK 921   NORMALIZED FREE ENERGY PREDICTED BY IDOCK:   -6.13 KCAL/MOL
REMARK 922        TOTAL FREE ENERGY PREDICTED BY IDOCK:   -8.36 KCAL/MOL
REMARK 923 INTER-LIGAND FREE ENERGY PREDICTED BY IDOCK:   -8.13 KCAL/MOL
REMARK 924 INTRA-LIGAND FREE ENERGY PREDICTED BY IDOCK:   -0.23 KCAL/MOL
REMARK 927      BINDING AFFINITY PREDICTED BY RF-SCORE:    0.00 PKD
ROOT
HETATM    1  C   UNL     1     -12.794  10.740  71.867  1.00  0.00    -0.460 C  
HETATM    2  C   UNL     1     -12.384  11.516  70.650  1.00  0.00    -0.457 A  
HETATM    3  C   UNL     1     -12.488  12.906  70.622  1.00  0.00    -0.333 A  
HETATM    4  C   UNL     1     -12.214  13.614  69.444  1.00  0.00    -0.307 A  
HETATM    5  C   UNL     1     -11.762  12.976  68.277  1.00  0.00    -0.390 A  
HETATM    6  C   UNL     1     -11.613  11.578  68.342  1.00  0.00    -0.375 A  
HETATM    7  C   UNL     1     -11.939  10.856  69.500  1.00  0.00    -0.401 A  
ENDROOT
BRANCH   5   8
HETATM    8  C   UNL     1     -11.543  13.712  66.980  1.00  0.00    -0.389 C  
HETATM    9  C   UNL     1     -11.299  15.050  66.950  1.00  0.00    -0.302 C  
BRANCH   8  10
HETATM   10  C   UNL     1     -11.586  13.050  65.626  1.00  0.00    -0.354 A  
HETATM   11  N   UNL     1     -12.816  12.768  65.120  1.00  0.00    -0.776 NA 
HETATM   12  C   UNL     1     -10.425  12.751  64.905  1.00  0.00    -0.342 A  
HETATM   13  C   UNL     1     -10.536  12.174  63.639  1.00  0.00    -0.504 A  
HETATM   14  C   UNL     1     -12.892  12.183  63.904  1.00  0.00    -0.306 A  
HETATM   15  C   UNL     1     -11.790  11.878  63.130  1.00  0.00    -0.269 A  
ENDBRANCH   8  10
BRANCH   9  16
HETATM   16  C   UNL     1     -11.087  16.014  68.082  1.00  0.00    -0.344 C  
BRANCH  16  17
HETATM   17  N   UNL     1     -10.077  17.044  67.815  1.00  0.00    -0.291 NA 
HETATM   18  C   UNL     1      -9.425  18.847  66.488  1.00  0.00    -0.361 C  
HETATM   19  C   UNL     1      -9.703  19.400  67.875  1.00  0.00    -0.445 C  
HETATM   20  C   UNL     1     -10.216  17.558  66.448  1.00  0.00    -0.354 C  
HETATM   21  C   UNL     1     -10.175  18.207  68.703  1.00  0.00    -0.366 C  
ENDBRANCH  16  17
ENDBRANCH   9  16
ENDBRANCH   5   8
TORSDOF 4
ENDMDL
MODEL       25
REMARK 921   NORMALIZED FREE ENERGY PREDICTED BY IDOCK:   -6.12 KCAL/MOL
REMARK 922        TOTAL FREE ENERGY PREDICTED BY IDOCK:   -8.35 KCAL/MOL
REMARK 923 INTER-LIGAND FREE ENERGY PREDICTED BY IDOCK:   -7.47 KCAL/MOL
REMARK 924 INTRA-LIGAND FREE ENERGY PREDICTED BY IDOCK:   -0.89 KCAL/MOL
REMARK 927      BINDING AFFINITY PREDICTED BY RF-SCORE:    0.00 PKD
ROOT
HETATM    1  C   UNL     1      -7.311  18.880  68.342  1.00  0.00    -0.318 C  
HETATM    2  C   UNL     1      -8.412  17.882  68.554  1.00  0.00    -0.303 A  
HETATM    3  C   UNL     1      -8.135  16.609  69.050  1.00  0.00    -0.199 A  
HETATM    4  C   UNL     1      -9.148  15.645  69.135  1.00  0.00    -0.256 A  
HETATM    5  C   UNL     1     -10.481  15.931  68.797  1.00  0.00    -0.237 A  
HETATM    6  C   UNL     1     -10.750  17.237  68.347  1.00  0.00    -0.332 A  
HETATM    7  C   UNL     1      -9.731  18.191  68.206  1.00  0.00    -0.344 A  
ENDROOT
BRANCH   5   8
HETATM    8  C   UNL     1     -11.565  14.883  68.803  1.00  0.00    -0.348 C  
HETATM    9  C   UNL     1     -11.991  14.289  67.655  1.00  0.00    -0.400 C  
BRANCH   8  10
HETATM   10  C   UNL     1     -12.270  14.416  70.051  1.00  0.00    -0.351 A  
HETATM   11  N   UNL     1     -12.188  13.092  70.344  1.00  0.00    -0.347 NA 
HETATM   12  C   UNL     1     -12.962  15.297  70.889  1.00  0.00    -0.522 A  
HETATM   13  C   UNL     1     -13.559  14.807  72.052  1.00  0.00    -0.502 A  
HETATM   14  C   UNL     1     -12.799  12.641  71.461  1.00  0.00    -0.268 A  
HETATM   15  C   UNL     1     -13.483  13.455  72.342  1.00  0.00    -0.685 A  
ENDBRANCH   8  10
BRANCH   9  16
HETATM   16  C   UNL     1     -11.467  14.420  66.254  1.00  0.00    -0.359 C  
BRANCH  16  17
HETATM   17  N   UNL     1     -10.589  13.322  65.834  1.00  0.00    -0.278 NA 
HETATM   18  C   UNL     1     -10.353  11.029  65.485  1.00  0.00    -0.321 C  
HETATM   19  C   UNL     1     -10.268  11.693  64.122  1.00  0.00    -0.372 C  
HETATM   20  C   UNL     1     -11.095  12.040  66.333  1.00  0.00    -0.318 C  
HETATM   21  C   UNL     1     -10.476  13.183  64.379  1.00  0.00    -0.407 C  
ENDBRANCH  16  17
ENDBRANCH   9  16
ENDBRANCH   5   8
TORSDOF 4
ENDMDL
MODEL       26
REMARK 921   NORMALIZED FREE ENERGY PREDICTED BY IDOCK:   -6.01 KCAL/MOL
REMARK 922        TOTAL FREE ENERGY PREDICTED BY IDOCK:   -8.22 KCAL/MOL
REMARK 923 INTER-LIGAND FREE ENERGY PREDICTED BY IDOCK:   -7.14 KCAL/MOL
REMARK 924 INTRA-LIGAND FREE ENERGY PREDICTED BY IDOCK:   -1.08 KCAL/MOL
REMARK 927      BINDING AFFINITY PREDICTED BY RF-SCORE:    0.00 PKD
ROOT
HETATM    1  C   UNL     1      -7.286  18.750  67.568  1.00  0.00    -0.225 C  
HETATM    2  C   UNL     1      -8.372  17.794  67.965  1.00  0.00    -0.249 A  
HETATM    3  C   UNL     1      -9.699  18.036  67.610  1.00  0.00    -0.291 A  
HETATM    4  C   UNL     1     -10.722  17.202  68.082  1.00  0.00    -0.366 A  
HETATM    5  C   UNL     1     -10.458  16.065  68.862  1.00  0.00    -0.245 A  
HETATM    6  C   UNL     1      -9.107  15.809  69.166  1.00  0.00    -0.262 A  
HETATM    7  C   UNL     1      -8.083  16.670  68.745  1.00  0.00    -0.247 A  
ENDROOT
BRANCH   5   8
HETATM    8  C   UNL     1     -11.552  15.207  69.447  1.00  0.00    -0.343 C  
HETATM    9  C   UNL     1     -12.046  14.128  68.781  1.00  0.00    -0.326 C  
BRANCH   8  10
HETATM   10  C   UNL     1     -12.192  15.467  70.786  1.00  0.00    -0.403 A  
HETATM   11  N   UNL     1     -13.525  15.223  70.888  1.00  0.00    -0.422 NA 
HETATM   12  C   UNL     1     -11.458  15.921  71.888  1.00  0.00    -0.442 A  
HETATM   13  C   UNL     1     -12.103  16.105  73.112  1.00  0.00    -0.621 A  
HETATM   14  C   UNL     1     -14.129  15.435  72.078  1.00  0.00    -0.549 A  
HETATM   15  C   UNL     1     -13.464  15.864  73.209  1.00  0.00    -0.599 A  
ENDBRANCH   8  10
BRANCH   9  16
HETATM   16  C   UNL     1     -11.598  13.508  67.488  1.00  0.00    -0.350 C  
BRANCH  16  17
HETATM   17  N   UNL     1     -11.023  12.167  67.632  1.00  0.00    -0.231 NA 
HETATM   18  C   UNL     1      -9.295  10.861  68.493  1.00  0.00    -0.181 C  
HETATM   19  C   UNL     1     -10.560  10.458  69.231  1.00  0.00    -0.259 C  
HETATM   20  C   UNL     1      -9.602  12.251  67.982  1.00  0.00    -0.206 C  
HETATM   21  C   UNL     1     -11.659  11.364  68.681  1.00  0.00    -0.320 C  
ENDBRANCH  16  17
ENDBRANCH   9  16
ENDBRANCH   5   8
TORSDOF 4
ENDMDL
MODEL       27
REMARK 921   NORMALIZED FREE ENERGY PREDICTED BY IDOCK:   -5.94 KCAL/MOL
REMARK 922        TOTAL FREE ENERGY PREDICTED BY IDOCK:   -8.14 KCAL/MOL
REMARK 923 INTER-LIGAND FREE ENERGY PREDICTED BY IDOCK:   -7.02 KCAL/MOL
REMARK 924 INTRA-LIGAND FREE ENERGY PREDICTED BY IDOCK:   -1.12 KCAL/MOL
REMARK 927      BINDING AFFINITY PREDICTED BY RF-SCORE:    0.00 PKD
ROOT
HETATM    1  C   UNL     1     -10.332  11.728  63.472  1.00  0.00    -0.490 C  
HETATM    2  C   UNL     1     -10.705  12.258  64.825  1.00  0.00    -0.338 A  
HETATM    3  C   UNL     1     -11.925  12.904  65.027  1.00  0.00    -0.445 A  
HETATM    4  C   UNL     1     -12.216  13.498  66.262  1.00  0.00    -0.468 A  
HETATM    5  C   UNL     1     -11.341  13.413  67.357  1.00  0.00    -0.338 A  
HETATM    6  C   UNL     1     -10.138  12.712  67.148  1.00  0.00    -0.224 A  
HETATM    7  C   UNL     1      -9.814  12.163  65.899  1.00  0.00    -0.265 A  
ENDROOT
BRANCH   5   8
HETATM    8  C   UNL     1     -11.602  14.117  68.665  1.00  0.00    -0.352 C  
HETATM    9  C   UNL     1     -11.278  15.425  68.848  1.00  0.00    -0.296 C  
BRANCH   8  10
HETATM   10  C   UNL     1     -12.222  13.447  69.865  1.00  0.00    -0.271 A  
HETATM   11  N   UNL     1     -12.104  12.095  69.943  1.00  0.00    -0.284 NA 
HETATM   12  C   UNL     1     -12.874  14.172  70.868  1.00  0.00    -0.404 A  
HETATM   13  C   UNL     1     -13.391  13.494  71.974  1.00  0.00    -0.563 A  
HETATM   14  C   UNL     1     -12.638  11.464  71.011  1.00  0.00    -0.386 A  
HETATM   15  C   UNL     1     -13.278  12.115  72.046  1.00  0.00    -0.496 A  
ENDBRANCH   8  10
BRANCH   9  16
HETATM   16  C   UNL     1     -10.745  16.430  67.868  1.00  0.00    -0.332 C  
BRANCH  16  17
HETATM   17  N   UNL     1      -9.282  16.537  67.850  1.00  0.00    -0.209 NA 
HETATM   18  C   UNL     1      -7.250  15.710  68.638  1.00  0.00    -0.129 C  
HETATM   19  C   UNL     1      -7.302  15.405  67.150  1.00  0.00    -0.203 C  
HETATM   20  C   UNL     1      -8.704  15.875  69.023  1.00  0.00    -0.236 C  
HETATM   21  C   UNL     1      -8.662  15.913  66.677  1.00  0.00    -0.289 C  
ENDBRANCH  16  17
ENDBRANCH   9  16
ENDBRANCH   5   8
TORSDOF 4
ENDMDL
MODEL       28
REMARK 921   NORMALIZED FREE ENERGY PREDICTED BY IDOCK:   -5.92 KCAL/MOL
REMARK 922        TOTAL FREE ENERGY PREDICTED BY IDOCK:   -8.11 KCAL/MOL
REMARK 923 INTER-LIGAND FREE ENERGY PREDICTED BY IDOCK:   -7.31 KCAL/MOL
REMARK 924 INTRA-LIGAND FREE ENERGY PREDICTED BY IDOCK:   -0.80 KCAL/MOL
REMARK 927      BINDING AFFINITY PREDICTED BY RF-SCORE:    0.00 PKD
ROOT
HETATM    1  C   UNL     1     -10.214  13.385  64.367  1.00  0.00    -0.262 C  
HETATM    2  C   UNL     1     -10.638  13.335  65.805  1.00  0.00    -0.291 A  
HETATM    3  C   UNL     1      -9.709  13.078  66.814  1.00  0.00    -0.248 A  
HETATM    4  C   UNL     1     -10.129  12.916  68.141  1.00  0.00    -0.240 A  
HETATM    5  C   UNL     1     -11.472  13.072  68.523  1.00  0.00    -0.340 A  
HETATM    6  C   UNL     1     -12.386  13.382  67.498  1.00  0.00    -0.069 A  
HETATM    7  C   UNL     1     -11.982  13.490  66.159  1.00  0.00    -0.454 A  
ENDROOT
BRANCH   5   8
HETATM    8  C   UNL     1     -11.952  12.820  69.930  1.00  0.00    -0.368 C  
HETATM    9  C   UNL     1     -12.096  11.559  70.420  1.00  0.00    -0.471 C  
BRANCH   8  10
HETATM   10  C   UNL     1     -12.321  13.916  70.896  1.00  0.00    -0.377 A  
HETATM   11  N   UNL     1     -13.431  13.719  71.654  1.00  0.00    -0.347 NA 
HETATM   12  C   UNL     1     -11.555  15.080  71.030  1.00  0.00    -0.367 A  
HETATM   13  C   UNL     1     -11.929  16.039  71.973  1.00  0.00    -0.622 A  
HETATM   14  C   UNL     1     -13.785  14.677  72.539  1.00  0.00    -0.467 A  
HETATM   15  C   UNL     1     -13.068  15.840  72.737  1.00  0.00    -0.596 A  
ENDBRANCH   8  10
BRANCH   9  16
HETATM   16  C   UNL     1     -11.738  10.239  69.798  1.00  0.00    -0.191 C  
BRANCH  16  17
HETATM   17  N   UNL     1     -11.127   9.282  70.726  1.00  0.00    -0.262 NA 
HETATM   18  C   UNL     1     -11.419   7.884  72.569  1.00  0.00    -0.455 C  
HETATM   19  C   UNL     1     -11.145   6.986  71.374  1.00  0.00    -0.274 C  
HETATM   20  C   UNL     1     -11.930   9.166  71.947  1.00  0.00    -0.373 C  
HETATM   21  C   UNL     1     -11.009   7.927  70.179  1.00  0.00    -0.233 C  
ENDBRANCH  16  17
ENDBRANCH   9  16
ENDBRANCH   5   8
TORSDOF 4
ENDMDL
MODEL       29
REMARK 921   NORMALIZED FREE ENERGY PREDICTED BY IDOCK:   -5.86 KCAL/MOL
REMARK 922        TOTAL FREE ENERGY PREDICTED BY IDOCK:   -8.04 KCAL/MOL
REMARK 923 INTER-LIGAND FREE ENERGY PREDICTED BY IDOCK:   -7.85 KCAL/MOL
REMARK 924 INTRA-LIGAND FREE ENERGY PREDICTED BY IDOCK:   -0.19 KCAL/MOL
REMARK 927      BINDING AFFINITY PREDICTED BY RF-SCORE:    0.00 PKD
ROOT
HETATM    1  C   UNL     1     -12.696  15.974  74.038  1.00  0.00    -0.682 C  
HETATM    2  C   UNL     1     -12.544  15.316  72.698  1.00  0.00    -0.470 A  
HETATM    3  C   UNL     1     -13.278  14.174  72.377  1.00  0.00    -0.566 A  
HETATM    4  C   UNL     1     -13.046  13.498  71.172  1.00  0.00    -0.285 A  
HETATM    5  C   UNL     1     -12.130  13.968  70.216  1.00  0.00    -0.425 A  
HETATM    6  C   UNL     1     -11.436  15.150  70.537  1.00  0.00    -0.342 A  
HETATM    7  C   UNL     1     -11.622  15.802  71.766  1.00  0.00    -0.541 A  
ENDROOT
BRANCH   5   8
HETATM    8  C   UNL     1     -11.809  13.208  68.954  1.00  0.00    -0.361 C  
HETATM    9  C   UNL     1     -11.697  11.852  68.946  1.00  0.00    -0.381 C  
BRANCH   8  10
HETATM   10  C   UNL     1     -11.575  13.868  67.619  1.00  0.00    -0.348 A  
HETATM   11  N   UNL     1     -10.442  14.606  67.488  1.00  0.00    -0.246 NA 
HETATM   12  C   UNL     1     -12.465  13.720  66.549  1.00  0.00    -0.356 A  
HETATM   13  C   UNL     1     -12.169  14.325  65.326  1.00  0.00    -0.414 A  
HETATM   14  C   UNL     1     -10.195  15.202  66.301  1.00  0.00    -0.288 A  
HETATM   15  C   UNL     1     -11.018  15.085  65.199  1.00  0.00    -0.417 A  
ENDBRANCH   8  10
BRANCH   9  16
HETATM   16  C   UNL     1     -11.955  10.860  70.043  1.00  0.00    -0.350 C  
BRANCH  16  17
HETATM   17  N   UNL     1     -10.982   9.764  70.103  1.00  0.00    -0.270 NA 
HETATM   18  C   UNL     1      -8.737   9.135  70.072  1.00  0.00    -0.186 C  
HETATM   19  C   UNL     1      -9.262   8.821  71.462  1.00  0.00    -0.332 C  
HETATM   20  C   UNL     1      -9.691  10.190  69.555  1.00  0.00    -0.229 C  
HETATM   21  C   UNL     1     -10.716   9.290  71.465  1.00  0.00    -0.355 C  
ENDBRANCH  16  17
ENDBRANCH   9  16
ENDBRANCH   5   8
TORSDOF 4
ENDMDL
MODEL       30
REMARK 921   NORMALIZED FREE ENERGY PREDICTED BY IDOCK:   -5.86 KCAL/MOL
REMARK 922        TOTAL FREE ENERGY PREDICTED BY IDOCK:   -8.03 KCAL/MOL
REMARK 923 INTER-LIGAND FREE ENERGY PREDICTED BY IDOCK:   -7.20 KCAL/MOL
REMARK 924 INTRA-LIGAND FREE ENERGY PREDICTED BY IDOCK:   -0.83 KCAL/MOL
REMARK 927      BINDING AFFINITY PREDICTED BY RF-SCORE:    0.00 PKD
ROOT
HETATM    1  C   UNL     1      -8.147  18.702  68.534  1.00  0.00    -0.370 C  
HETATM    2  C   UNL     1      -8.970  17.451  68.446  1.00  0.00    -0.277 A  
HETATM    3  C   UNL     1      -8.398  16.202  68.688  1.00  0.00    -0.211 A  
HETATM    4  C   UNL     1      -9.141  15.031  68.490  1.00  0.00    -0.188 A  
HETATM    5  C   UNL     1     -10.494  15.059  68.114  1.00  0.00    -0.245 A  
HETATM    6  C   UNL     1     -11.068  16.331  67.924  1.00  0.00    -0.270 A  
HETATM    7  C   UNL     1     -10.315  17.507  68.066  1.00  0.00    -0.368 A  
ENDROOT
BRANCH   5   8
HETATM    8  C   UNL     1     -11.283  13.809  67.816  1.00  0.00    -0.312 C  
HETATM    9  C   UNL     1     -11.798  13.036  68.810  1.00  0.00    -0.355 C  
BRANCH   8  10
HETATM   10  C   UNL     1     -11.557  13.307  66.422  1.00  0.00    -0.347 A  
HETATM   11  N   UNL     1     -12.275  14.122  65.605  1.00  0.00    -0.422 NA 
HETATM   12  C   UNL     1     -11.085  12.070  65.969  1.00  0.00    -0.364 A  
HETATM   13  C   UNL     1     -11.339  11.681  64.653  1.00  0.00    -0.284 A  
HETATM   14  C   UNL     1     -12.530  13.707  64.344  1.00  0.00    -0.264 A  
HETATM   15  C   UNL     1     -12.080  12.509  63.826  1.00  0.00    -0.615 A  
ENDBRANCH   8  10
BRANCH   9  16
HETATM   16  C   UNL     1     -11.816  13.265  70.294  1.00  0.00    -0.234 C  
BRANCH  16  17
HETATM   17  N   UNL     1     -12.754  14.305  70.731  1.00  0.00    -0.340 NA 
HETATM   18  C   UNL     1     -14.351  14.968  72.295  1.00  0.00    -0.540 C  
HETATM   19  C   UNL     1     -13.158  15.893  72.465  1.00  0.00    -0.536 C  
HETATM   20  C   UNL     1     -13.764  13.741  71.632  1.00  0.00    -0.284 C  
HETATM   21  C   UNL     1     -12.114  15.402  71.465  1.00  0.00    -0.371 C  
ENDBRANCH  16  17
ENDBRANCH   9  16
ENDBRANCH   5   8
TORSDOF 4
ENDMDL
MODEL       31
REMARK 921   NORMALIZED FREE ENERGY PREDICTED BY IDOCK:   -5.82 KCAL/MOL
REMARK 922        TOTAL FREE ENERGY PREDICTED BY IDOCK:   -7.99 KCAL/MOL
REMARK 923 INTER-LIGAND FREE ENERGY PREDICTED BY IDOCK:   -7.38 KCAL/MOL
REMARK 924 INTRA-LIGAND FREE ENERGY PREDICTED BY IDOCK:   -0.61 KCAL/MOL
REMARK 927      BINDING AFFINITY PREDICTED BY RF-SCORE:    0.00 PKD
ROOT
HETATM    1  C   UNL     1      -8.667   9.063  66.942  1.00  0.00    -0.132 C  
HETATM    2  C   UNL     1      -9.370  10.261  67.507  1.00  0.00    -0.164 A  
HETATM    3  C   UNL     1     -10.758  10.271  67.652  1.00  0.00    -0.339 A  
HETATM    4  C   UNL     1     -11.419  11.434  68.070  1.00  0.00    -0.377 A  
HETATM    5  C   UNL     1     -10.723  12.601  68.425  1.00  0.00    -0.260 A  
HETATM    6  C   UNL     1      -9.320  12.555  68.321  1.00  0.00    -0.193 A  
HETATM    7  C   UNL     1      -8.655  11.413  67.849  1.00  0.00    -0.140 A  
ENDROOT
BRANCH   5   8
HETATM    8  C   UNL     1     -11.423  13.885  68.796  1.00  0.00    -0.327 C  
HETATM    9  C   UNL     1     -11.288  15.013  68.048  1.00  0.00    -0.339 C  
BRANCH   8  10
HETATM   10  C   UNL     1     -12.306  14.034  70.008  1.00  0.00    -0.337 A  
HETATM   11  N   UNL     1     -12.529  12.916  70.747  1.00  0.00    -0.330 NA 
HETATM   12  C   UNL     1     -12.862  15.264  70.379  1.00  0.00    -0.360 A  
HETATM   13  C   UNL     1     -13.638  15.343  71.536  1.00  0.00    -0.604 A  
HETATM   14  C   UNL     1     -13.307  13.016  71.847  1.00  0.00    -0.446 A  
HETATM   15  C   UNL     1     -13.872  14.199  72.282  1.00  0.00    -0.643 A  
ENDBRANCH   8  10
BRANCH   9  16
HETATM   16  C   UNL     1     -10.584  15.220  66.738  1.00  0.00    -0.304 C  
BRANCH  16  17
HETATM   17  N   UNL     1     -11.281  14.647  65.582  1.00  0.00    -0.335 NA 
HETATM   18  C   UNL     1     -11.493  12.841  64.122  1.00  0.00    -0.450 C  
HETATM   19  C   UNL     1     -12.774  12.901  64.937  1.00  0.00    -0.474 C  
HETATM   20  C   UNL     1     -10.485  13.572  64.982  1.00  0.00    -0.376 C  
HETATM   21  C   UNL     1     -12.583  14.059  65.914  1.00  0.00    -0.449 C  
ENDBRANCH  16  17
ENDBRANCH   9  16
ENDBRANCH   5   8
TORSDOF 4
ENDMDL
MODEL       32
REMARK 921   NORMALIZED FREE ENERGY PREDICTED BY IDOCK:   -5.79 KCAL/MOL
REMARK 922        TOTAL FREE ENERGY PREDICTED BY IDOCK:   -7.94 KCAL/MOL
REMARK 923 INTER-LIGAND FREE ENERGY PREDICTED BY IDOCK:   -7.49 KCAL/MOL
REMARK 924 INTRA-LIGAND FREE ENERGY PREDICTED BY IDOCK:   -0.45 KCAL/MOL
REMARK 927      BINDING AFFINITY PREDICTED BY RF-SCORE:    0.00 PKD
ROOT
HETATM    1  C   UNL     1     -13.586  15.896  72.825  1.00  0.00    -0.589 C  
HETATM    2  C   UNL     1     -13.210  14.645  72.086  1.00  0.00    -0.450 A  
HETATM    3  C   UNL     1     -13.707  13.404  72.486  1.00  0.00    -0.636 A  
HETATM    4  C   UNL     1     -13.260  12.229  71.866  1.00  0.00    -0.481 A  
HETATM    5  C   UNL     1     -12.361  12.248  70.787  1.00  0.00    -0.383 A  
HETATM    6  C   UNL     1     -11.911  13.514  70.366  1.00  0.00    -0.367 A  
HETATM    7  C   UNL     1     -12.310  14.691  71.017  1.00  0.00    -0.403 A  
ENDROOT
BRANCH   5   8
HETATM    8  C   UNL     1     -11.808  10.991  70.166  1.00  0.00    -0.441 C  
HETATM    9  C   UNL     1     -11.648  10.870  68.821  1.00  0.00    -0.378 C  
BRANCH   8  10
HETATM   10  C   UNL     1     -11.402   9.776  70.960  1.00  0.00    -0.387 A  
HETATM   11  N   UNL     1     -10.071   9.586  71.155  1.00  0.00    -0.260 NA 
HETATM   12  C   UNL     1     -12.342   8.886  71.493  1.00  0.00    -0.381 A  
HETATM   13  C   UNL     1     -11.901   7.801  72.253  1.00  0.00    -0.378 A  
HETATM   14  C   UNL     1      -9.672   8.512  71.872  1.00  0.00    -0.287 A  
HETATM   15  C   UNL     1     -10.543   7.605  72.442  1.00  0.00    -0.313 A  
ENDBRANCH   8  10
BRANCH   9  16
HETATM   16  C   UNL     1     -11.845  11.888  67.734  1.00  0.00    -0.219 C  
BRANCH  16  17
HETATM   17  N   UNL     1     -10.600  12.354  67.113  1.00  0.00    -0.223 NA 
HETATM   18  C   UNL     1      -9.265  14.175  66.533  1.00  0.00    -0.247 C  
HETATM   19  C   UNL     1      -8.510  13.397  67.596  1.00  0.00    -0.187 C  
HETATM   20  C   UNL     1     -10.707  13.769  66.745  1.00  0.00    -0.276 C  
HETATM   21  C   UNL     1      -9.430  12.243  67.989  1.00  0.00    -0.206 C  
ENDBRANCH  16  17
ENDBRANCH   9  16
ENDBRANCH   5   8
TORSDOF 4
ENDMDL
MODEL       33
REMARK 921   NORMALIZED FREE ENERGY PREDICTED BY IDOCK:   -5.77 KCAL/MOL
REMARK 922        TOTAL FREE ENERGY PREDICTED BY IDOCK:   -7.92 KCAL/MOL
REMARK 923 INTER-LIGAND FREE ENERGY PREDICTED BY IDOCK:   -6.76 KCAL/MOL
REMARK 924 INTRA-LIGAND FREE ENERGY PREDICTED BY IDOCK:   -1.16 KCAL/MOL
REMARK 927      BINDING AFFINITY PREDICTED BY RF-SCORE:    0.00 PKD
ROOT
HETATM    1  C   UNL     1      -8.276   7.851  66.212  1.00  0.00    -0.117 C  
HETATM    2  C   UNL     1      -8.991   8.982  66.892  1.00  0.00    -0.144 A  
HETATM    3  C   UNL     1     -10.327   9.258  66.603  1.00  0.00    -0.292 A  
HETATM    4  C   UNL     1     -10.953  10.384  67.152  1.00  0.00    -0.263 A  
HETATM    5  C   UNL     1     -10.299  11.234  68.060  1.00  0.00    -0.204 A  
HETATM    6  C   UNL     1      -8.967  10.909  68.379  1.00  0.00    -0.154 A  
HETATM    7  C   UNL     1      -8.315   9.815  67.789  1.00  0.00    -0.114 A  
ENDROOT
BRANCH   5   8
HETATM    8  C   UNL     1     -10.931  12.495  68.594  1.00  0.00    -0.291 C  
HETATM    9  C   UNL     1     -10.750  13.698  67.985  1.00  0.00    -0.258 C  
BRANCH   8  10
HETATM   10  C   UNL     1     -11.790  12.539  69.831  1.00  0.00    -0.303 A  
HETATM   11  N   UNL     1     -12.251  13.758  70.216  1.00  0.00    -0.347 NA 
HETATM   12  C   UNL     1     -12.122  11.385  70.550  1.00  0.00    -0.487 A  
HETATM   13  C   UNL     1     -12.956  11.489  71.665  1.00  0.00    -0.499 A  
HETATM   14  C   UNL     1     -13.033  13.833  71.315  1.00  0.00    -0.334 A  
HETATM   15  C   UNL     1     -13.416  12.735  72.060  1.00  0.00    -0.540 A  
ENDBRANCH   8  10
BRANCH   9  16
HETATM   16  C   UNL     1     -10.052  14.027  66.697  1.00  0.00    -0.276 C  
BRANCH  16  17
HETATM   17  N   UNL     1     -10.901  13.915  65.506  1.00  0.00    -0.297 NA 
HETATM   18  C   UNL     1     -11.546  12.619  63.679  1.00  0.00    -0.575 C  
HETATM   19  C   UNL     1     -12.752  12.714  64.598  1.00  0.00    -0.458 C  
HETATM   20  C   UNL     1     -10.373  12.897  64.592  1.00  0.00    -0.344 C  
HETATM   21  C   UNL     1     -12.282  13.524  65.805  1.00  0.00    -0.461 C  
ENDBRANCH  16  17
ENDBRANCH   9  16
ENDBRANCH   5   8
TORSDOF 4
ENDMDL
MODEL       34
REMARK 921   NORMALIZED FREE ENERGY PREDICTED BY IDOCK:   -5.75 KCAL/MOL
REMARK 922        TOTAL FREE ENERGY PREDICTED BY IDOCK:   -7.90 KCAL/MOL
REMARK 923 INTER-LIGAND FREE ENERGY PREDICTED BY IDOCK:   -7.09 KCAL/MOL
REMARK 924 INTRA-LIGAND FREE ENERGY PREDICTED BY IDOCK:   -0.81 KCAL/MOL
REMARK 927      BINDING AFFINITY PREDICTED BY RF-SCORE:    0.00 PKD
ROOT
HETATM    1  C   UNL     1     -11.307  15.848  64.215  1.00  0.00    -0.181 C  
HETATM    2  C   UNL     1     -11.290  14.850  65.335  1.00  0.00    -0.346 A  
HETATM    3  C   UNL     1     -12.342  13.949  65.504  1.00  0.00    -0.506 A  
HETATM    4  C   UNL     1     -12.376  13.100  66.618  1.00  0.00    -0.207 A  
HETATM    5  C   UNL     1     -11.337  13.065  67.563  1.00  0.00    -0.346 A  
HETATM    6  C   UNL     1     -10.260  13.946  67.347  1.00  0.00    -0.252 A  
HETATM    7  C   UNL     1     -10.245  14.839  66.265  1.00  0.00    -0.309 A  
ENDROOT
BRANCH   5   8
HETATM    8  C   UNL     1     -11.398  12.219  68.809  1.00  0.00    -0.337 C  
HETATM    9  C   UNL     1     -11.900  12.703  69.977  1.00  0.00    -0.358 C  
BRANCH   8  10
HETATM   10  C   UNL     1     -10.907  10.795  68.877  1.00  0.00    -0.227 A  
HETATM   11  N   UNL     1     -10.599  10.309  70.108  1.00  0.00    -0.276 NA 
HETATM   12  C   UNL     1     -10.788   9.993  67.736  1.00  0.00    -0.337 A  
HETATM   13  C   UNL     1     -10.366   8.669  67.872  1.00  0.00    -0.286 A  
HETATM   14  C   UNL     1     -10.166   9.033  70.206  1.00  0.00    -0.201 A  
HETATM   15  C   UNL     1     -10.042   8.180  69.128  1.00  0.00    -0.204 A  
ENDBRANCH   8  10
BRANCH   9  16
HETATM   16  C   UNL     1     -12.562  14.019  70.267  1.00  0.00    -0.291 C  
BRANCH  16  17
HETATM   17  N   UNL     1     -12.373  14.499  71.640  1.00  0.00    -0.345 NA 
HETATM   18  C   UNL     1     -12.062  16.332  73.047  1.00  0.00    -0.629 C  
HETATM   19  C   UNL     1     -13.425  15.748  73.379  1.00  0.00    -0.491 C  
HETATM   20  C   UNL     1     -11.795  15.847  71.639  1.00  0.00    -0.490 C  
HETATM   21  C   UNL     1     -13.618  14.585  72.409  1.00  0.00    -0.466 C  
ENDBRANCH  16  17
ENDBRANCH   9  16
ENDBRANCH   5   8
TORSDOF 4
ENDMDL
MODEL       35
REMARK 921   NORMALIZED FREE ENERGY PREDICTED BY IDOCK:   -5.75 KCAL/MOL
REMARK 922        TOTAL FREE ENERGY PREDICTED BY IDOCK:   -7.89 KCAL/MOL
REMARK 923 INTER-LIGAND FREE ENERGY PREDICTED BY IDOCK:   -7.01 KCAL/MOL
REMARK 924 INTRA-LIGAND FREE ENERGY PREDICTED BY IDOCK:   -0.89 KCAL/MOL
REMARK 927      BINDING AFFINITY PREDICTED BY RF-SCORE:    0.00 PKD
ROOT
HETATM    1  C   UNL     1     -11.896  16.036  71.856  1.00  0.00    -0.619 C  
HETATM    2  C   UNL     1     -11.628  15.084  70.728  1.00  0.00    -0.364 A  
HETATM    3  C   UNL     1     -12.318  13.874  70.637  1.00  0.00    -0.451 A  
HETATM    4  C   UNL     1     -11.981  12.939  69.649  1.00  0.00    -0.358 A  
HETATM    5  C   UNL     1     -11.001  13.199  68.677  1.00  0.00    -0.296 A  
HETATM    6  C   UNL     1     -10.353  14.447  68.755  1.00  0.00    -0.241 A  
HETATM    7  C   UNL     1     -10.645  15.365  69.775  1.00  0.00    -0.304 A  
ENDROOT
BRANCH   5   8
HETATM    8  C   UNL     1     -10.570  12.173  67.660  1.00  0.00    -0.236 C  
HETATM    9  C   UNL     1      -9.705  11.172  67.979  1.00  0.00    -0.183 C  
BRANCH   8  10
HETATM   10  C   UNL     1     -11.037  12.169  66.227  1.00  0.00    -0.310 A  
HETATM   11  N   UNL     1     -10.346  11.386  65.358  1.00  0.00    -0.268 NA 
HETATM   12  C   UNL     1     -12.141  12.916  65.801  1.00  0.00    -0.513 A  
HETATM   13  C   UNL     1     -12.547  12.837  64.468  1.00  0.00    -0.463 A  
HETATM   14  C   UNL     1     -10.744  11.350  64.067  1.00  0.00    -0.387 A  
HETATM   15  C   UNL     1     -11.834  12.045  63.582  1.00  0.00    -0.602 A  
ENDBRANCH   8  10
BRANCH   9  16
HETATM   16  C   UNL     1      -9.114  10.799  69.308  1.00  0.00    -0.037 C  
BRANCH  16  17
HETATM   17  N   UNL     1      -9.664   9.569  69.887  1.00  0.00    -0.209 NA 
HETATM   18  C   UNL     1      -9.556   7.996  71.605  1.00  0.00    -0.218 C  
HETATM   19  C   UNL     1     -10.878   8.728  71.761  1.00  0.00    -0.416 C  
HETATM   20  C   UNL     1      -8.702   8.960  70.811  1.00  0.00    -0.206 C  
HETATM   21  C   UNL     1     -10.895   9.781  70.656  1.00  0.00    -0.329 C  
ENDBRANCH  16  17
ENDBRANCH   9  16
ENDBRANCH   5   8
TORSDOF 4
ENDMDL
MODEL       36
REMARK 921   NORMALIZED FREE ENERGY PREDICTED BY IDOCK:   -5.74 KCAL/MOL
REMARK 922        TOTAL FREE ENERGY PREDICTED BY IDOCK:   -7.89 KCAL/MOL
REMARK 923 INTER-LIGAND FREE ENERGY PREDICTED BY IDOCK:   -7.22 KCAL/MOL
REMARK 924 INTRA-LIGAND FREE ENERGY PREDICTED BY IDOCK:   -0.67 KCAL/MOL
REMARK 927      BINDING AFFINITY PREDICTED BY RF-SCORE:    0.00 PKD
ROOT
HETATM    1  C   UNL     1     -11.555  12.008  63.458  1.00  0.00    -0.553 C  
HETATM    2  C   UNL     1     -11.381  13.020  64.552  1.00  0.00    -0.377 A  
HETATM    3  C   UNL     1     -10.109  13.373  65.001  1.00  0.00    -0.261 A  
HETATM    4  C   UNL     1      -9.958  14.230  66.100  1.00  0.00    -0.330 A  
HETATM    5  C   UNL     1     -11.057  14.819  66.745  1.00  0.00    -0.338 A  
HETATM    6  C   UNL     1     -12.331  14.490  66.244  1.00  0.00    -0.211 A  
HETATM    7  C   UNL     1     -12.493  13.590  65.180  1.00  0.00    -0.495 A  
ENDROOT
BRANCH   5   8
HETATM    8  C   UNL     1     -10.916  15.674  67.979  1.00  0.00    -0.318 C  
HETATM    9  C   UNL     1     -10.315  16.894  67.936  1.00  0.00    -0.332 C  
BRANCH   8  10
HETATM   10  C   UNL     1     -11.405  15.260  69.343  1.00  0.00    -0.294 A  
HETATM   11  N   UNL     1     -11.237  16.154  70.353  1.00  0.00    -0.385 NA 
HETATM   12  C   UNL     1     -12.021  14.025  69.571  1.00  0.00    -0.390 A  
HETATM   13  C   UNL     1     -12.488  13.719  70.851  1.00  0.00    -0.451 A  
HETATM   14  C   UNL     1     -11.673  15.820  71.587  1.00  0.00    -0.464 A  
HETATM   15  C   UNL     1     -12.306  14.628  71.880  1.00  0.00    -0.410 A  
ENDBRANCH   8  10
BRANCH   9  16
HETATM   16  C   UNL     1      -9.801  17.672  66.759  1.00  0.00    -0.304 C  
BRANCH  16  17
HETATM   17  N   UNL     1      -8.918  18.788  67.114  1.00  0.00    -0.276 NA 
HETATM   18  C   UNL     1      -6.923  19.463  68.114  1.00  0.00    -0.306 C  
HETATM   19  C   UNL     1      -6.794  19.760  66.629  1.00  0.00    -0.216 C  
HETATM   20  C   UNL     1      -7.988  18.391  68.176  1.00  0.00    -0.288 C  
HETATM   21  C   UNL     1      -8.092  19.261  65.999  1.00  0.00    -0.221 C  
ENDBRANCH  16  17
ENDBRANCH   9  16
ENDBRANCH   5   8
TORSDOF 4
ENDMDL
MODEL       37
REMARK 921   NORMALIZED FREE ENERGY PREDICTED BY IDOCK:   -5.72 KCAL/MOL
REMARK 922        TOTAL FREE ENERGY PREDICTED BY IDOCK:   -7.86 KCAL/MOL
REMARK 923 INTER-LIGAND FREE ENERGY PREDICTED BY IDOCK:   -7.12 KCAL/MOL
REMARK 924 INTRA-LIGAND FREE ENERGY PREDICTED BY IDOCK:   -0.75 KCAL/MOL
REMARK 927      BINDING AFFINITY PREDICTED BY RF-SCORE:    0.00 PKD
ROOT
HETATM    1  C   UNL     1     -11.341   6.852  72.462  1.00  0.00    -0.291 C  
HETATM    2  C   UNL     1     -11.539   8.136  71.711  1.00  0.00    -0.342 A  
HETATM    3  C   UNL     1     -10.459   8.784  71.110  1.00  0.00    -0.315 A  
HETATM    4  C   UNL     1     -10.630  10.039  70.511  1.00  0.00    -0.313 A  
HETATM    5  C   UNL     1     -11.886  10.662  70.426  1.00  0.00    -0.441 A  
HETATM    6  C   UNL     1     -12.972   9.968  70.994  1.00  0.00    -0.445 A  
HETATM    7  C   UNL     1     -12.799   8.737  71.644  1.00  0.00    -0.392 A  
ENDROOT
BRANCH   5   8
HETATM    8  C   UNL     1     -12.072  12.047  69.861  1.00  0.00    -0.334 C  
HETATM    9  C   UNL     1     -11.830  12.322  68.551  1.00  0.00    -0.359 C  
BRANCH   8  10
HETATM   10  C   UNL     1     -12.521  13.230  70.680  1.00  0.00    -0.298 A  
HETATM   11  N   UNL     1     -12.240  14.464  70.182  1.00  0.00    -0.323 NA 
HETATM   12  C   UNL     1     -13.211  13.082  71.888  1.00  0.00    -0.527 A  
HETATM   13  C   UNL     1     -13.634  14.220  72.578  1.00  0.00    -0.620 A  
HETATM   14  C   UNL     1     -12.638  15.547  70.885  1.00  0.00    -0.456 A  
HETATM   15  C   UNL     1     -13.337  15.475  72.073  1.00  0.00    -0.566 A  
ENDBRANCH   8  10
BRANCH   9  16
HETATM   16  C   UNL     1     -11.471  11.396  67.425  1.00  0.00    -0.251 C  
BRANCH  16  17
HETATM   17  N   UNL     1     -10.121  11.596  66.887  1.00  0.00    -0.208 NA 
HETATM   18  C   UNL     1      -7.988  12.473  67.230  1.00  0.00    -0.173 C  
HETATM   19  C   UNL     1      -7.841  10.962  67.189  1.00  0.00    -0.127 C  
HETATM   20  C   UNL     1      -9.441  12.684  67.596  1.00  0.00    -0.189 C  
HETATM   21  C   UNL     1      -9.257  10.418  67.014  1.00  0.00    -0.147 C  
ENDBRANCH  16  17
ENDBRANCH   9  16
ENDBRANCH   5   8
TORSDOF 4
ENDMDL
MODEL       38
REMARK 921   NORMALIZED FREE ENERGY PREDICTED BY IDOCK:   -5.68 KCAL/MOL
REMARK 922        TOTAL FREE ENERGY PREDICTED BY IDOCK:   -7.81 KCAL/MOL
REMARK 923 INTER-LIGAND FREE ENERGY PREDICTED BY IDOCK:   -7.00 KCAL/MOL
REMARK 924 INTRA-LIGAND FREE ENERGY PREDICTED BY IDOCK:   -0.81 KCAL/MOL
REMARK 927      BINDING AFFINITY PREDICTED BY RF-SCORE:    0.00 PKD
ROOT
HETATM    1  C   UNL     1      -7.218  11.605  66.952  1.00  0.00    -0.125 C  
HETATM    2  C   UNL     1      -8.016  12.855  67.182  1.00  0.00    -0.104 A  
HETATM    3  C   UNL     1      -7.594  13.810  68.106  1.00  0.00    -0.128 A  
HETATM    4  C   UNL     1      -8.403  14.916  68.401  1.00  0.00    -0.153 A  
HETATM    5  C   UNL     1      -9.621  15.149  67.741  1.00  0.00    -0.203 A  
HETATM    6  C   UNL     1     -10.004  14.199  66.775  1.00  0.00    -0.267 A  
HETATM    7  C   UNL     1      -9.228  13.060  66.514  1.00  0.00    -0.187 A  
ENDROOT
BRANCH   5   8
HETATM    8  C   UNL     1     -10.540  16.287  68.105  1.00  0.00    -0.307 C  
HETATM    9  C   UNL     1     -11.635  16.097  68.890  1.00  0.00    -0.298 C  
BRANCH   8  10
HETATM   10  C   UNL     1     -10.342  17.705  67.634  1.00  0.00    -0.368 A  
HETATM   11  N   UNL     1     -10.078  18.638  68.587  1.00  0.00    -0.379 NA 
HETATM   12  C   UNL     1     -10.404  18.056  66.281  1.00  0.00    -0.384 A  
HETATM   13  C   UNL     1     -10.171  19.381  65.907  1.00  0.00    -0.471 A  
HETATM   14  C   UNL     1      -9.885  19.917  68.198  1.00  0.00    -0.405 A  
HETATM   15  C   UNL     1      -9.913  20.331  66.881  1.00  0.00    -0.592 A  
ENDBRANCH   8  10
BRANCH   9  16
HETATM   16  C   UNL     1     -12.095  14.866  69.617  1.00  0.00    -0.295 C  
BRANCH  16  17
HETATM   17  N   UNL     1     -12.835  15.138  70.854  1.00  0.00    -0.388 NA 
HETATM   18  C   UNL     1     -13.530  14.344  72.933  1.00  0.00    -0.516 C  
HETATM   19  C   UNL     1     -12.557  15.480  73.199  1.00  0.00    -0.582 C  
HETATM   20  C   UNL     1     -13.176  13.885  71.535  1.00  0.00    -0.352 C  
HETATM   21  C   UNL     1     -12.083  15.942  71.823  1.00  0.00    -0.492 C  
ENDBRANCH  16  17
ENDBRANCH   9  16
ENDBRANCH   5   8
TORSDOF 4
ENDMDL
MODEL       39
REMARK 921   NORMALIZED FREE ENERGY PREDICTED BY IDOCK:   -5.66 KCAL/MOL
REMARK 922        TOTAL FREE ENERGY PREDICTED BY IDOCK:   -7.78 KCAL/MOL
REMARK 923 INTER-LIGAND FREE ENERGY PREDICTED BY IDOCK:   -6.84 KCAL/MOL
REMARK 924 INTRA-LIGAND FREE ENERGY PREDICTED BY IDOCK:   -0.94 KCAL/MOL
REMARK 927      BINDING AFFINITY PREDICTED BY RF-SCORE:    0.00 PKD
ROOT
HETATM    1  C   UNL     1      -8.764   8.249  67.391  1.00  0.00    -0.125 C  
HETATM    2  C   UNL     1      -9.412   9.560  67.723  1.00  0.00    -0.151 A  
HETATM    3  C   UNL     1     -10.780   9.750  67.524  1.00  0.00    -0.327 A  
HETATM    4  C   UNL     1     -11.357  11.011  67.726  1.00  0.00    -0.365 A  
HETATM    5  C   UNL     1     -10.614  12.106  68.197  1.00  0.00    -0.236 A  
HETATM    6  C   UNL     1      -9.246  11.880  68.441  1.00  0.00    -0.173 A  
HETATM    7  C   UNL     1      -8.649  10.636  68.188  1.00  0.00    -0.123 A  
ENDROOT
BRANCH   5   8
HETATM    8  C   UNL     1     -11.201  13.488  68.339  1.00  0.00    -0.309 C  
HETATM    9  C   UNL     1     -11.986  13.825  69.397  1.00  0.00    -0.397 C  
BRANCH   8  10
HETATM   10  C   UNL     1     -10.986  14.594  67.337  1.00  0.00    -0.308 A  
HETATM   11  N   UNL     1     -10.594  15.799  67.828  1.00  0.00    -0.284 NA 
HETATM   12  C   UNL     1     -11.159  14.398  65.963  1.00  0.00    -0.324 A  
HETATM   13  C   UNL     1     -10.905  15.453  65.084  1.00  0.00    -0.447 A  
HETATM   14  C   UNL     1     -10.382  16.810  66.957  1.00  0.00    -0.300 A  
HETATM   15  C   UNL     1     -10.516  16.684  65.589  1.00  0.00    -0.313 A  
ENDBRANCH   8  10
BRANCH   9  16
HETATM   16  C   UNL     1     -12.336  13.034  70.625  1.00  0.00    -0.310 C  
BRANCH  16  17
HETATM   17  N   UNL     1     -12.671  13.854  71.794  1.00  0.00    -0.324 NA 
HETATM   18  C   UNL     1     -12.670  15.975  72.762  1.00  0.00    -0.547 C  
HETATM   19  C   UNL     1     -14.124  15.592  72.543  1.00  0.00    -0.595 C  
HETATM   20  C   UNL     1     -11.917  15.111  71.775  1.00  0.00    -0.382 C  
HETATM   21  C   UNL     1     -14.088  14.225  71.864  1.00  0.00    -0.499 C  
ENDBRANCH  16  17
ENDBRANCH   9  16
ENDBRANCH   5   8
TORSDOF 4
ENDMDL
MODEL       40
REMARK 921   NORMALIZED FREE ENERGY PREDICTED BY IDOCK:   -5.59 KCAL/MOL
REMARK 922        TOTAL FREE ENERGY PREDICTED BY IDOCK:   -7.70 KCAL/MOL
REMARK 923 INTER-LIGAND FREE ENERGY PREDICTED BY IDOCK:   -7.07 KCAL/MOL
REMARK 924 INTRA-LIGAND FREE ENERGY PREDICTED BY IDOCK:   -0.64 KCAL/MOL
REMARK 927      BINDING AFFINITY PREDICTED BY RF-SCORE:    0.00 PKD
ROOT
HETATM    1  C   UNL     1      -8.299   5.305  65.731  1.00  0.00    -0.123 C  
HETATM    2  C   UNL     1      -8.860   6.643  66.114  1.00  0.00    -0.160 A  
HETATM    3  C   UNL     1     -10.068   6.737  66.806  1.00  0.00    -0.250 A  
HETATM    4  C   UNL     1     -10.644   7.990  67.058  1.00  0.00    -0.364 A  
HETATM    5  C   UNL     1     -10.011   9.190  66.696  1.00  0.00    -0.343 A  
HETATM    6  C   UNL     1      -8.768   9.074  66.044  1.00  0.00    -0.184 A  
HETATM    7  C   UNL     1      -8.212   7.823  65.738  1.00  0.00    -0.132 A  
ENDROOT
BRANCH   5   8
HETATM    8  C   UNL     1     -10.655  10.540  66.885  1.00  0.00    -0.303 C  
HETATM    9  C   UNL     1     -10.863  11.065  68.122  1.00  0.00    -0.274 C  
BRANCH   8  10
HETATM   10  C   UNL     1     -11.129  11.406  65.746  1.00  0.00    -0.153 A  
HETATM   11  N   UNL     1     -12.038  12.371  66.045  1.00  0.00    -0.638 NA 
HETATM   12  C   UNL     1     -10.650  11.249  64.440  1.00  0.00    -0.410 A  
HETATM   13  C   UNL     1     -11.099  12.111  63.438  1.00  0.00    -0.495 A  
HETATM   14  C   UNL     1     -12.476  13.173  65.049  1.00  0.00    -0.460 A  
HETATM   15  C   UNL     1     -12.034  13.087  63.744  1.00  0.00    -0.585 A  
ENDBRANCH   8  10
BRANCH   9  16
HETATM   16  C   UNL     1     -10.443  10.549  69.469  1.00  0.00    -0.235 C  
BRANCH  16  17
HETATM   17  N   UNL     1     -11.485   9.800  70.179  1.00  0.00    -0.238 NA 
HETATM   18  C   UNL     1     -12.162   8.799  72.173  1.00  0.00    -0.448 C  
HETATM   19  C   UNL     1     -13.091   9.977  71.934  1.00  0.00    -0.563 C  
HETATM   20  C   UNL     1     -10.929   9.143  71.366  1.00  0.00    -0.344 C  
HETATM   21  C   UNL     1     -12.592  10.638  70.652  1.00  0.00    -0.365 C  
ENDBRANCH  16  17
ENDBRANCH   9  16
ENDBRANCH   5   8
TORSDOF 4
ENDMDL
MODEL       41
REMARK 921   NORMALIZED FREE ENERGY PREDICTED BY IDOCK:   -5.58 KCAL/MOL
REMARK 922        TOTAL FREE ENERGY PREDICTED BY IDOCK:   -7.69 KCAL/MOL
REMARK 923 INTER-LIGAND FREE ENERGY PREDICTED BY IDOCK:   -6.92 KCAL/MOL
REMARK 924 INTRA-LIGAND FREE ENERGY PREDICTED BY IDOCK:   -0.76 KCAL/MOL
REMARK 927      BINDING AFFINITY PREDICTED BY RF-SCORE:    0.00 PKD
ROOT
HETATM    1  C   UNL     1      -5.968  10.658  69.070  1.00  0.00    -0.040 C  
HETATM    2  C   UNL     1      -7.318  11.281  68.873  1.00  0.00    -0.115 A  
HETATM    3  C   UNL     1      -8.481  10.525  69.020  1.00  0.00    -0.159 A  
HETATM    4  C   UNL     1      -9.731  11.082  68.720  1.00  0.00    -0.199 A  
HETATM    5  C   UNL     1      -9.878  12.424  68.333  1.00  0.00    -0.198 A  
HETATM    6  C   UNL     1      -8.697  13.185  68.240  1.00  0.00    -0.165 A  
HETATM    7  C   UNL     1      -7.436  12.619  68.484  1.00  0.00    -0.121 A  
ENDROOT
BRANCH   5   8
HETATM    8  C   UNL     1     -11.205  13.014  67.928  1.00  0.00    -0.304 C  
HETATM    9  C   UNL     1     -12.149  13.348  68.848  1.00  0.00    -0.289 C  
BRANCH   8  10
HETATM   10  C   UNL     1     -11.602  13.271  66.497  1.00  0.00    -0.350 A  
HETATM   11  N   UNL     1     -12.105  12.218  65.800  1.00  0.00    -0.603 NA 
HETATM   12  C   UNL     1     -11.483  14.533  65.905  1.00  0.00    -0.345 A  
HETATM   13  C   UNL     1     -11.907  14.714  64.587  1.00  0.00    -0.459 A  
HETATM   14  C   UNL     1     -12.481  12.415  64.518  1.00  0.00    -0.435 A  
HETATM   15  C   UNL     1     -12.409  13.635  63.877  1.00  0.00    -0.375 A  
ENDBRANCH   8  10
BRANCH   9  16
HETATM   16  C   UNL     1     -12.077  13.331  70.348  1.00  0.00    -0.327 C  
BRANCH  16  17
HETATM   17  N   UNL     1     -12.660  14.513  70.993  1.00  0.00    -0.317 NA 
HETATM   18  C   UNL     1     -13.493  15.462  72.952  1.00  0.00    -0.629 C  
HETATM   19  C   UNL     1     -12.216  16.209  72.610  1.00  0.00    -0.625 C  
HETATM   20  C   UNL     1     -13.340  14.138  72.237  1.00  0.00    -0.461 C  
HETATM   21  C   UNL     1     -11.671  15.532  71.354  1.00  0.00    -0.408 C  
ENDBRANCH  16  17
ENDBRANCH   9  16
ENDBRANCH   5   8
TORSDOF 4
ENDMDL
MODEL       42
REMARK 921   NORMALIZED FREE ENERGY PREDICTED BY IDOCK:   -5.56 KCAL/MOL
REMARK 922        TOTAL FREE ENERGY PREDICTED BY IDOCK:   -7.67 KCAL/MOL
REMARK 923 INTER-LIGAND FREE ENERGY PREDICTED BY IDOCK:   -6.98 KCAL/MOL
REMARK 924 INTRA-LIGAND FREE ENERGY PREDICTED BY IDOCK:   -0.69 KCAL/MOL
REMARK 927      BINDING AFFINITY PREDICTED BY RF-SCORE:    0.00 PKD
ROOT
HETATM    1  C   UNL     1      -9.160  10.183  65.654  1.00  0.00    -0.216 C  
HETATM    2  C   UNL     1      -9.899  10.658  66.870  1.00  0.00    -0.228 A  
HETATM    3  C   UNL     1      -9.371  10.465  68.146  1.00  0.00    -0.149 A  
HETATM    4  C   UNL     1     -10.118  10.805  69.282  1.00  0.00    -0.200 A  
HETATM    5  C   UNL     1     -11.382  11.411  69.191  1.00  0.00    -0.353 A  
HETATM    6  C   UNL     1     -11.875  11.645  67.893  1.00  0.00    -0.273 A  
HETATM    7  C   UNL     1     -11.158  11.256  66.752  1.00  0.00    -0.314 A  
ENDROOT
BRANCH   5   8
HETATM    8  C   UNL     1     -12.232  11.706  70.400  1.00  0.00    -0.434 C  
HETATM    9  C   UNL     1     -12.823  10.713  71.118  1.00  0.00    -0.518 C  
BRANCH   8  10
HETATM   10  C   UNL     1     -12.510  13.099  70.906  1.00  0.00    -0.323 A  
HETATM   11  N   UNL     1     -11.873  14.120  70.276  1.00  0.00    -0.301 NA 
HETATM   12  C   UNL     1     -13.395  13.345  71.962  1.00  0.00    -0.569 A  
HETATM   13  C   UNL     1     -13.639  14.662  72.357  1.00  0.00    -0.555 A  
HETATM   14  C   UNL     1     -12.107  15.382  70.697  1.00  0.00    -0.369 A  
HETATM   15  C   UNL     1     -12.979  15.700  71.718  1.00  0.00    -0.541 A  
ENDBRANCH   8  10
BRANCH   9  16
HETATM   16  C   UNL     1     -12.697   9.222  70.980  1.00  0.00    -0.165 C  
BRANCH  16  17
HETATM   17  N   UNL     1     -12.024   8.568  72.107  1.00  0.00    -0.361 NA 
HETATM   18  C   UNL     1     -11.153   6.593  72.988  1.00  0.00    -0.238 C  
HETATM   19  C   UNL     1      -9.978   7.527  72.755  1.00  0.00    -0.280 C  
HETATM   20  C   UNL     1     -12.220   7.116  72.051  1.00  0.00    -0.278 C  
HETATM   21  C   UNL     1     -10.575   8.788  72.134  1.00  0.00    -0.316 C  
ENDBRANCH  16  17
ENDBRANCH   9  16
ENDBRANCH   5   8
TORSDOF 4
ENDMDL
MODEL       43
REMARK 921   NORMALIZED FREE ENERGY PREDICTED BY IDOCK:   -5.56 KCAL/MOL
REMARK 922        TOTAL FREE ENERGY PREDICTED BY IDOCK:   -7.66 KCAL/MOL
REMARK 923 INTER-LIGAND FREE ENERGY PREDICTED BY IDOCK:   -6.75 KCAL/MOL
REMARK 924 INTRA-LIGAND FREE ENERGY PREDICTED BY IDOCK:   -0.91 KCAL/MOL
REMARK 927      BINDING AFFINITY PREDICTED BY RF-SCORE:    0.00 PKD
ROOT
HETATM    1  C   UNL     1     -10.105  20.031  66.138  1.00  0.00    -0.588 C  
HETATM    2  C   UNL     1     -10.259  18.671  66.752  1.00  0.00    -0.431 A  
HETATM    3  C   UNL     1     -10.165  18.498  68.133  1.00  0.00    -0.412 A  
HETATM    4  C   UNL     1     -10.193  17.212  68.690  1.00  0.00    -0.336 A  
HETATM    5  C   UNL     1     -10.385  16.062  67.906  1.00  0.00    -0.269 A  
HETATM    6  C   UNL     1     -10.530  16.263  66.520  1.00  0.00    -0.290 A  
HETATM    7  C   UNL     1     -10.447  17.542  65.949  1.00  0.00    -0.251 A  
ENDROOT
BRANCH   5   8
HETATM    8  C   UNL     1     -10.335  14.668  68.479  1.00  0.00    -0.238 C  
HETATM    9  C   UNL     1     -11.332  14.184  69.267  1.00  0.00    -0.324 C  
BRANCH   8  10
HETATM   10  C   UNL     1      -9.195  13.711  68.246  1.00  0.00    -0.198 A  
HETATM   11  N   UNL     1      -9.429  12.400  68.518  1.00  0.00    -0.150 NA 
HETATM   12  C   UNL     1      -7.954  14.133  67.756  1.00  0.00    -0.175 A  
HETATM   13  C   UNL     1      -6.952  13.189  67.524  1.00  0.00    -0.155 A  
HETATM   14  C   UNL     1      -8.432  11.512  68.310  1.00  0.00    -0.159 A  
HETATM   15  C   UNL     1      -7.191  11.855  67.811  1.00  0.00    -0.104 A  
ENDBRANCH   8  10
BRANCH   9  16
HETATM   16  C   UNL     1     -12.653  14.798  69.633  1.00  0.00    -0.062 C  
BRANCH  16  17
HETATM   17  N   UNL     1     -12.629  15.584  70.871  1.00  0.00    -0.433 NA 
HETATM   18  C   UNL     1     -13.497  15.887  73.014  1.00  0.00    -0.653 C  
HETATM   19  C   UNL     1     -12.045  15.474  73.181  1.00  0.00    -0.591 C  
HETATM   20  C   UNL     1     -13.861  15.374  71.638  1.00  0.00    -0.508 C  
HETATM   21  C   UNL     1     -11.522  15.235  71.767  1.00  0.00    -0.421 C  
ENDBRANCH  16  17
ENDBRANCH   9  16
ENDBRANCH   5   8
TORSDOF 4
ENDMDL
MODEL       44
REMARK 921   NORMALIZED FREE ENERGY PREDICTED BY IDOCK:   -5.54 KCAL/MOL
REMARK 922        TOTAL FREE ENERGY PREDICTED BY IDOCK:   -7.63 KCAL/MOL
REMARK 923 INTER-LIGAND FREE ENERGY PREDICTED BY IDOCK:   -6.83 KCAL/MOL
REMARK 924 INTRA-LIGAND FREE ENERGY PREDICTED BY IDOCK:   -0.80 KCAL/MOL
REMARK 927      BINDING AFFINITY PREDICTED BY RF-SCORE:    0.00 PKD
ROOT
HETATM    1  C   UNL     1      -8.443  19.494  66.706  1.00  0.00    -0.337 C  
HETATM    2  C   UNL     1      -8.981  18.095  66.641  1.00  0.00    -0.292 A  
HETATM    3  C   UNL     1     -10.239  17.839  66.096  1.00  0.00    -0.339 A  
HETATM    4  C   UNL     1     -10.784  16.549  66.145  1.00  0.00    -0.155 A  
HETATM    5  C   UNL     1     -10.074  15.458  66.672  1.00  0.00    -0.273 A  
HETATM    6  C   UNL     1      -8.784  15.727  67.170  1.00  0.00    -0.228 A  
HETATM    7  C   UNL     1      -8.255  17.026  67.176  1.00  0.00    -0.214 A  
ENDROOT
BRANCH   5   8
HETATM    8  C   UNL     1     -10.677  14.083  66.807  1.00  0.00    -0.285 C  
HETATM    9  C   UNL     1     -11.368  13.713  67.919  1.00  0.00    -0.325 C  
BRANCH   8  10
HETATM   10  C   UNL     1     -10.561  13.012  65.753  1.00  0.00    -0.277 A  
HETATM   11  N   UNL     1     -10.813  13.384  64.470  1.00  0.00    -0.387 NA 
HETATM   12  C   UNL     1     -10.195  11.697  66.062  1.00  0.00    -0.270 A  
HETATM   13  C   UNL     1     -10.067  10.763  65.033  1.00  0.00    -0.377 A  
HETATM   14  C   UNL     1     -10.708  12.451  63.498  1.00  0.00    -0.430 A  
HETATM   15  C   UNL     1     -10.334  11.142  63.728  1.00  0.00    -0.447 A  
ENDBRANCH   8  10
BRANCH   9  16
HETATM   16  C   UNL     1     -11.770  14.526  69.116  1.00  0.00    -0.314 C  
BRANCH  16  17
HETATM   17  N   UNL     1     -11.878  13.755  70.359  1.00  0.00    -0.287 NA 
HETATM   18  C   UNL     1     -13.251  13.029  72.098  1.00  0.00    -0.558 C  
HETATM   19  C   UNL     1     -12.862  11.796  71.301  1.00  0.00    -0.409 C  
HETATM   20  C   UNL     1     -13.063  14.167  71.118  1.00  0.00    -0.328 C  
HETATM   21  C   UNL     1     -12.008  12.310  70.145  1.00  0.00    -0.298 C  
ENDBRANCH  16  17
ENDBRANCH   9  16
ENDBRANCH   5   8
TORSDOF 4
ENDMDL
MODEL       45
REMARK 921   NORMALIZED FREE ENERGY PREDICTED BY IDOCK:   -5.54 KCAL/MOL
REMARK 922        TOTAL FREE ENERGY PREDICTED BY IDOCK:   -7.63 KCAL/MOL
REMARK 923 INTER-LIGAND FREE ENERGY PREDICTED BY IDOCK:   -6.65 KCAL/MOL
REMARK 924 INTRA-LIGAND FREE ENERGY PREDICTED BY IDOCK:   -0.98 KCAL/MOL
REMARK 927      BINDING AFFINITY PREDICTED BY RF-SCORE:    0.00 PKD
ROOT
HETATM    1  C   UNL     1     -10.738  15.591  64.855  1.00  0.00    -0.415 C  
HETATM    2  C   UNL     1     -10.955  14.691  66.036  1.00  0.00    -0.325 A  
HETATM    3  C   UNL     1     -10.248  14.889  67.222  1.00  0.00    -0.241 A  
HETATM    4  C   UNL     1     -10.368  13.977  68.280  1.00  0.00    -0.247 A  
HETATM    5  C   UNL     1     -11.243  12.880  68.224  1.00  0.00    -0.304 A  
HETATM    6  C   UNL     1     -11.986  12.727  67.038  1.00  0.00    -0.364 A  
HETATM    7  C   UNL     1     -11.830  13.603  65.953  1.00  0.00    -0.406 A  
ENDROOT
BRANCH   5   8
HETATM    8  C   UNL     1     -11.322  11.844  69.317  1.00  0.00    -0.338 C  
HETATM    9  C   UNL     1     -12.073  12.042  70.434  1.00  0.00    -0.407 C  
BRANCH   8  10
HETATM   10  C   UNL     1     -10.583  10.532  69.280  1.00  0.00    -0.236 A  
HETATM   11  N   UNL     1     -11.110   9.509  70.003  1.00  0.00    -0.241 NA 
HETATM   12  C   UNL     1      -9.418  10.354  68.525  1.00  0.00    -0.159 A  
HETATM   13  C   UNL     1      -8.803   9.100  68.501  1.00  0.00    -0.129 A  
HETATM   14  C   UNL     1     -10.479   8.314  69.983  1.00  0.00    -0.231 A  
HETATM   15  C   UNL     1      -9.338   8.062  69.248  1.00  0.00    -0.151 A  
ENDBRANCH   8  10
BRANCH   9  16
HETATM   16  C   UNL     1     -13.011  13.164  70.777  1.00  0.00    -0.001 C  
BRANCH  16  17
HETATM   17  N   UNL     1     -12.502  14.082  71.801  1.00  0.00    -0.285 NA 
HETATM   18  C   UNL     1     -11.997  16.283  72.380  1.00  0.00    -0.630 C  
HETATM   19  C   UNL     1     -13.157  15.852  73.261  1.00  0.00    -0.694 C  
HETATM   20  C   UNL     1     -12.078  15.347  71.194  1.00  0.00    -0.363 C  
HETATM   21  C   UNL     1     -13.495  14.429  72.824  1.00  0.00    -0.485 C  
ENDBRANCH  16  17
ENDBRANCH   9  16
ENDBRANCH   5   8
TORSDOF 4
ENDMDL
MODEL       46
REMARK 921   NORMALIZED FREE ENERGY PREDICTED BY IDOCK:   -5.53 KCAL/MOL
REMARK 922        TOTAL FREE ENERGY PREDICTED BY IDOCK:   -7.63 KCAL/MOL
REMARK 923 INTER-LIGAND FREE ENERGY PREDICTED BY IDOCK:   -6.37 KCAL/MOL
REMARK 924 INTRA-LIGAND FREE ENERGY PREDICTED BY IDOCK:   -1.26 KCAL/MOL
REMARK 927      BINDING AFFINITY PREDICTED BY RF-SCORE:    0.00 PKD
ROOT
HETATM    1  C   UNL     1     -11.086   5.605  73.080  1.00  0.00    -0.315 C  
HETATM    2  C   UNL     1     -11.320   6.941  72.439  1.00  0.00    -0.308 A  
HETATM    3  C   UNL     1     -12.462   7.173  71.672  1.00  0.00    -0.405 A  
HETATM    4  C   UNL     1     -12.618   8.382  70.981  1.00  0.00    -0.058 A  
HETATM    5  C   UNL     1     -11.683   9.425  71.081  1.00  0.00    -0.418 A  
HETATM    6  C   UNL     1     -10.562   9.190  71.900  1.00  0.00    -0.303 A  
HETATM    7  C   UNL     1     -10.372   7.962  72.551  1.00  0.00    -0.349 A  
ENDROOT
BRANCH   5   8
HETATM    8  C   UNL     1     -11.794  10.697  70.279  1.00  0.00    -0.430 C  
HETATM    9  C   UNL     1     -11.356  10.771  68.993  1.00  0.00    -0.349 C  
BRANCH   8  10
HETATM   10  C   UNL     1     -12.375  11.978  70.820  1.00  0.00    -0.308 A  
HETATM   11  N   UNL     1     -12.100  13.117  70.131  1.00  0.00    -0.345 NA 
HETATM   12  C   UNL     1     -13.177  12.007  71.966  1.00  0.00    -0.481 A  
HETATM   13  C   UNL     1     -13.717  13.221  72.392  1.00  0.00    -0.678 A  
HETATM   14  C   UNL     1     -12.614  14.282  70.582  1.00  0.00    -0.355 A  
HETATM   15  C   UNL     1     -13.427  14.382  71.693  1.00  0.00    -0.451 A  
ENDBRANCH   8  10
BRANCH   9  16
HETATM   16  C   UNL     1     -10.819   9.692  68.097  1.00  0.00    -0.190 C  
BRANCH  16  17
HETATM   17  N   UNL     1      -9.360   9.542  68.141  1.00  0.00    -0.133 NA 
HETATM   18  C   UNL     1      -7.367  10.112  69.208  1.00  0.00    -0.098 C  
HETATM   19  C   UNL     1      -7.582   8.626  69.442  1.00  0.00    -0.092 C  
HETATM   20  C   UNL     1      -8.755  10.635  68.909  1.00  0.00    -0.161 C  
HETATM   21  C   UNL     1      -8.917   8.297  68.777  1.00  0.00    -0.144 C  
ENDBRANCH  16  17
ENDBRANCH   9  16
ENDBRANCH   5   8
TORSDOF 4
ENDMDL
MODEL       47
REMARK 921   NORMALIZED FREE ENERGY PREDICTED BY IDOCK:   -5.50 KCAL/MOL
REMARK 922        TOTAL FREE ENERGY PREDICTED BY IDOCK:   -7.59 KCAL/MOL
REMARK 923 INTER-LIGAND FREE ENERGY PREDICTED BY IDOCK:   -6.72 KCAL/MOL
REMARK 924 INTRA-LIGAND FREE ENERGY PREDICTED BY IDOCK:   -0.87 KCAL/MOL
REMARK 927      BINDING AFFINITY PREDICTED BY RF-SCORE:    0.00 PKD
ROOT
HETATM    1  C   UNL     1      -7.134  17.301  67.002  1.00  0.00    -0.221 C  
HETATM    2  C   UNL     1      -8.212  16.258  67.047  1.00  0.00    -0.238 A  
HETATM    3  C   UNL     1      -9.553  16.612  66.896  1.00  0.00    -0.259 A  
HETATM    4  C   UNL     1     -10.562  15.652  67.055  1.00  0.00    -0.311 A  
HETATM    5  C   UNL     1     -10.274  14.300  67.301  1.00  0.00    -0.252 A  
HETATM    6  C   UNL     1      -8.913  13.954  67.400  1.00  0.00    -0.211 A  
HETATM    7  C   UNL     1      -7.899  14.918  67.297  1.00  0.00    -0.235 A  
ENDROOT
BRANCH   5   8
HETATM    8  C   UNL     1     -11.347  13.272  67.558  1.00  0.00    -0.329 C  
HETATM    9  C   UNL     1     -11.984  12.635  66.539  1.00  0.00    -0.401 C  
BRANCH   8  10
HETATM   10  C   UNL     1     -11.811  12.875  68.936  1.00  0.00    -0.309 A  
HETATM   11  N   UNL     1     -12.165  13.881  69.779  1.00  0.00    -0.341 NA 
HETATM   12  C   UNL     1     -11.895  11.537  69.337  1.00  0.00    -0.417 A  
HETATM   13  C   UNL     1     -12.370  11.235  70.615  1.00  0.00    -0.477 A  
HETATM   14  C   UNL     1     -12.596  13.560  71.019  1.00  0.00    -0.359 A  
HETATM   15  C   UNL     1     -12.721  12.263  71.475  1.00  0.00    -0.339 A  
ENDBRANCH   8  10
BRANCH   9  16
HETATM   16  C   UNL     1     -11.730  12.694  65.060  1.00  0.00    -0.359 C  
BRANCH  16  17
HETATM   17  N   UNL     1     -11.152  11.468  64.499  1.00  0.00    -0.304 NA 
HETATM   18  C   UNL     1      -9.545  10.524  63.098  1.00  0.00    -0.375 C  
HETATM   19  C   UNL     1      -9.189  10.112  64.515  1.00  0.00    -0.305 C  
HETATM   20  C   UNL     1     -10.387  11.768  63.284  1.00  0.00    -0.402 C  
HETATM   21  C   UNL     1     -10.227  10.785  65.410  1.00  0.00    -0.276 C  
ENDBRANCH  16  17
ENDBRANCH   9  16
ENDBRANCH   5   8
TORSDOF 4
ENDMDL
MODEL       48
REMARK 921   NORMALIZED FREE ENERGY PREDICTED BY IDOCK:   -5.45 KCAL/MOL
REMARK 922        TOTAL FREE ENERGY PREDICTED BY IDOCK:   -7.53 KCAL/MOL
REMARK 923 INTER-LIGAND FREE ENERGY PREDICTED BY IDOCK:   -7.22 KCAL/MOL
REMARK 924 INTRA-LIGAND FREE ENERGY PREDICTED BY IDOCK:   -0.31 KCAL/MOL
REMARK 927      BINDING AFFINITY PREDICTED BY RF-SCORE:    0.00 PKD
ROOT
HETATM    1  C   UNL     1     -13.158  16.082  73.519  1.00  0.00    -0.665 C  
HETATM    2  C   UNL     1     -12.899  15.109  72.406  1.00  0.00    -0.443 A  
HETATM    3  C   UNL     1     -13.419  13.816  72.455  1.00  0.00    -0.672 A  
HETATM    4  C   UNL     1     -13.077  12.877  71.472  1.00  0.00    -0.390 A  
HETATM    5  C   UNL     1     -12.266  13.207  70.374  1.00  0.00    -0.389 A  
HETATM    6  C   UNL     1     -11.793  14.532  70.316  1.00  0.00    -0.373 A  
HETATM    7  C   UNL     1     -12.085  15.462  71.325  1.00  0.00    -0.424 A  
ENDROOT
BRANCH   5   8
HETATM    8  C   UNL     1     -11.822  12.188  69.355  1.00  0.00    -0.370 C  
HETATM    9  C   UNL     1     -11.889  12.439  68.019  1.00  0.00    -0.376 C  
BRANCH   8  10
HETATM   10  C   UNL     1     -11.286  10.826  69.714  1.00  0.00    -0.300 A  
HETATM   11  N   UNL     1     -12.020  10.089  70.589  1.00  0.00    -0.300 NA 
HETATM   12  C   UNL     1     -10.100  10.323  69.167  1.00  0.00    -0.232 A  
HETATM   13  C   UNL     1      -9.680   9.037  69.511  1.00  0.00    -0.171 A  
HETATM   14  C   UNL     1     -11.574   8.858  70.925  1.00  0.00    -0.283 A  
HETATM   15  C   UNL     1     -10.425   8.292  70.410  1.00  0.00    -0.223 A  
ENDBRANCH   8  10
BRANCH   9  16
HETATM   16  C   UNL     1     -12.267  13.699  67.295  1.00  0.00    -0.275 C  
BRANCH  16  17
HETATM   17  N   UNL     1     -11.166  14.319  66.551  1.00  0.00    -0.323 NA 
HETATM   18  C   UNL     1      -9.753  16.159  66.319  1.00  0.00    -0.332 C  
HETATM   19  C   UNL     1      -8.883  14.987  66.740  1.00  0.00    -0.299 C  
HETATM   20  C   UNL     1     -11.138  15.767  66.785  1.00  0.00    -0.116 C  
HETATM   21  C   UNL     1      -9.842  13.815  66.931  1.00  0.00    -0.264 C  
ENDBRANCH  16  17
ENDBRANCH   9  16
ENDBRANCH   5   8
TORSDOF 4
ENDMDL
MODEL       49
REMARK 921   NORMALIZED FREE ENERGY PREDICTED BY IDOCK:   -5.43 KCAL/MOL
REMARK 922        TOTAL FREE ENERGY PREDICTED BY IDOCK:   -7.50 KCAL/MOL
REMARK 923 INTER-LIGAND FREE ENERGY PREDICTED BY IDOCK:   -6.40 KCAL/MOL
REMARK 924 INTRA-LIGAND FREE ENERGY PREDICTED BY IDOCK:   -1.10 KCAL/MOL
REMARK 927      BINDING AFFINITY PREDICTED BY RF-SCORE:    0.00 PKD
ROOT
HETATM    1  C   UNL     1     -10.367  20.247  67.200  1.00  0.00    -0.419 C  
HETATM    2  C   UNL     1     -10.261  18.753  67.292  1.00  0.00    -0.438 A  
HETATM    3  C   UNL     1     -10.252  18.113  68.531  1.00  0.00    -0.399 A  
HETATM    4  C   UNL     1     -10.035  16.731  68.615  1.00  0.00    -0.276 A  
HETATM    5  C   UNL     1      -9.890  15.928  67.472  1.00  0.00    -0.230 A  
HETATM    6  C   UNL     1      -9.953  16.585  66.228  1.00  0.00    -0.346 A  
HETATM    7  C   UNL     1     -10.113  17.976  66.138  1.00  0.00    -0.334 A  
ENDROOT
BRANCH   5   8
HETATM    8  C   UNL     1      -9.573  14.456  67.546  1.00  0.00    -0.215 C  
HETATM    9  C   UNL     1     -10.534  13.509  67.372  1.00  0.00    -0.247 C  
BRANCH   8  10
HETATM   10  C   UNL     1      -8.196  13.910  67.827  1.00  0.00    -0.173 A  
HETATM   11  N   UNL     1      -8.121  12.625  68.262  1.00  0.00    -0.158 NA 
HETATM   12  C   UNL     1      -7.039  14.674  67.636  1.00  0.00    -0.203 A  
HETATM   13  C   UNL     1      -5.791  14.096  67.876  1.00  0.00    -0.133 A  
HETATM   14  C   UNL     1      -6.902  12.101  68.513  1.00  0.00    -0.086 A  
HETATM   15  C   UNL     1      -5.719  12.788  68.329  1.00  0.00    -0.069 A  
ENDBRANCH   8  10
BRANCH   9  16
HETATM   16  C   UNL     1     -11.977  13.664  66.983  1.00  0.00    -0.406 C  
BRANCH  16  17
HETATM   17  N   UNL     1     -12.327  13.034  65.705  1.00  0.00    -0.493 NA 
HETATM   18  C   UNL     1     -12.118  13.070  63.384  1.00  0.00    -0.591 C  
HETATM   19  C   UNL     1     -11.406  11.819  63.870  1.00  0.00    -0.494 C  
HETATM   20  C   UNL     1     -12.129  13.974  64.597  1.00  0.00    -0.440 C  
HETATM   21  C   UNL     1     -11.517  11.852  65.392  1.00  0.00    -0.251 C  
ENDBRANCH  16  17
ENDBRANCH   9  16
ENDBRANCH   5   8
TORSDOF 4
ENDMDL
MODEL       50
REMARK 921   NORMALIZED FREE ENERGY PREDICTED BY IDOCK:   -5.38 KCAL/MOL
REMARK 922        TOTAL FREE ENERGY PREDICTED BY IDOCK:   -7.44 KCAL/MOL
REMARK 923 INTER-LIGAND FREE ENERGY PREDICTED BY IDOCK:   -6.49 KCAL/MOL
REMARK 924 INTRA-LIGAND FREE ENERGY PREDICTED BY IDOCK:   -0.95 KCAL/MOL
REMARK 927      BINDING AFFINITY PREDICTED BY RF-SCORE:    0.00 PKD
ROOT
HETATM    1  C   UNL     1     -12.271  14.739  64.480  1.00  0.00    -0.443 C  
HETATM    2  C   UNL     1     -11.994  13.826  65.639  1.00  0.00    -0.410 A  
HETATM    3  C   UNL     1     -11.879  14.332  66.933  1.00  0.00    -0.458 A  
HETATM    4  C   UNL     1     -11.506  13.493  67.992  1.00  0.00    -0.342 A  
HETATM    5  C   UNL     1     -11.302  12.114  67.816  1.00  0.00    -0.371 A  
HETATM    6  C   UNL     1     -11.474  11.614  66.511  1.00  0.00    -0.260 A  
HETATM    7  C   UNL     1     -11.792  12.458  65.436  1.00  0.00    -0.460 A  
ENDROOT
BRANCH   5   8
HETATM    8  C   UNL     1     -10.820  11.214  68.925  1.00  0.00    -0.261 C  
HETATM    9  C   UNL     1      -9.547  10.735  68.953  1.00  0.00    -0.204 C  
BRANCH   8  10
HETATM   10  C   UNL     1     -11.688  10.763  70.072  1.00  0.00    -0.336 A  
HETATM   11  N   UNL     1     -11.648   9.443  70.390  1.00  0.00    -0.232 NA 
HETATM   12  C   UNL     1     -12.487  11.654  70.797  1.00  0.00    -0.425 A  
HETATM   13  C   UNL     1     -13.238  11.178  71.874  1.00  0.00    -0.488 A  
HETATM   14  C   UNL     1     -12.406   9.005  71.419  1.00  0.00    -0.318 A  
HETATM   15  C   UNL     1     -13.203   9.830  72.189  1.00  0.00    -0.530 A  
ENDBRANCH   8  10
BRANCH   9  16
HETATM   16  C   UNL     1      -8.385  11.041  68.053  1.00  0.00    -0.125 C  
BRANCH  16  17
HETATM   17  N   UNL     1      -8.089   9.990  67.073  1.00  0.00    -0.116 NA 
HETATM   18  C   UNL     1      -8.812   8.042  66.015  1.00  0.00    -0.196 C  
HETATM   19  C   UNL     1      -8.758   9.126  64.952  1.00  0.00    -0.215 C  
HETATM   20  C   UNL     1      -8.932   8.814  67.311  1.00  0.00    -0.132 C  
HETATM   21  C   UNL     1      -8.331  10.396  65.685  1.00  0.00    -0.163 C  
ENDBRANCH  16  17
ENDBRANCH   9  16
ENDBRANCH   5   8
TORSDOF 4
ENDMDL
MODEL       51
REMARK 921   NORMALIZED FREE ENERGY PREDICTED BY IDOCK:   -5.37 KCAL/MOL
REMARK 922        TOTAL FREE ENERGY PREDICTED BY IDOCK:   -7.43 KCAL/MOL
REMARK 923 INTER-LIGAND FREE ENERGY PREDICTED BY IDOCK:   -6.71 KCAL/MOL
REMARK 924 INTRA-LIGAND FREE ENERGY PREDICTED BY IDOCK:   -0.72 KCAL/MOL
REMARK 927      BINDING AFFINITY PREDICTED BY RF-SCORE:    0.00 PKD
ROOT
HETATM    1  C   UNL     1      -5.619  12.534  68.726  1.00  0.00    -0.061 C  
HETATM    2  C   UNL     1      -6.581  13.684  68.679  1.00  0.00    -0.097 A  
HETATM    3  C   UNL     1      -6.429  14.777  69.533  1.00  0.00    -0.142 A  
HETATM    4  C   UNL     1      -7.395  15.791  69.565  1.00  0.00    -0.186 A  
HETATM    5  C   UNL     1      -8.506  15.792  68.706  1.00  0.00    -0.198 A  
HETATM    6  C   UNL     1      -8.615  14.706  67.816  1.00  0.00    -0.175 A  
HETATM    7  C   UNL     1      -7.682  13.659  67.816  1.00  0.00    -0.166 A  
ENDROOT
BRANCH   5   8
HETATM    8  C   UNL     1      -9.597  16.830  68.786  1.00  0.00    -0.260 C  
HETATM    9  C   UNL     1     -10.719  16.631  69.529  1.00  0.00    -0.306 C  
BRANCH   8  10
HETATM   10  C   UNL     1      -9.550  18.148  68.057  1.00  0.00    -0.300 A  
HETATM   11  N   UNL     1      -8.432  18.903  68.223  1.00  0.00    -0.318 NA 
HETATM   12  C   UNL     1     -10.593  18.580  67.229  1.00  0.00    -0.453 A  
HETATM   13  C   UNL     1     -10.470  19.793  66.550  1.00  0.00    -0.615 A  
HETATM   14  C   UNL     1      -8.352  20.086  67.575  1.00  0.00    -0.334 A  
HETATM   15  C   UNL     1      -9.333  20.565  66.730  1.00  0.00    -0.382 A  
ENDBRANCH   8  10
BRANCH   9  16
HETATM   16  C   UNL     1     -11.070  15.504  70.457  1.00  0.00    -0.345 C  
BRANCH  16  17
HETATM   17  N   UNL     1     -12.368  15.655  71.124  1.00  0.00    -0.397 NA 
HETATM   18  C   UNL     1     -14.137  14.607  72.223  1.00  0.00    -0.588 C  
HETATM   19  C   UNL     1     -13.444  15.491  73.247  1.00  0.00    -0.512 C  
HETATM   20  C   UNL     1     -13.074  14.371  71.172  1.00  0.00    -0.352 C  
HETATM   21  C   UNL     1     -12.264  16.121  72.511  1.00  0.00    -0.520 C  
ENDBRANCH  16  17
ENDBRANCH   9  16
ENDBRANCH   5   8
TORSDOF 4
ENDMDL
MODEL       52
REMARK 921   NORMALIZED FREE ENERGY PREDICTED BY IDOCK:   -5.34 KCAL/MOL
REMARK 922        TOTAL FREE ENERGY PREDICTED BY IDOCK:   -7.39 KCAL/MOL
REMARK 923 INTER-LIGAND FREE ENERGY PREDICTED BY IDOCK:   -6.83 KCAL/MOL
REMARK 924 INTRA-LIGAND FREE ENERGY PREDICTED BY IDOCK:   -0.56 KCAL/MOL
REMARK 927      BINDING AFFINITY PREDICTED BY RF-SCORE:    0.00 PKD
ROOT
HETATM    1  C   UNL     1     -12.340  12.211  63.131  1.00  0.00    -0.383 C  
HETATM    2  C   UNL     1     -12.010  12.498  64.566  1.00  0.00    -0.472 A  
HETATM    3  C   UNL     1     -11.101  11.701  65.261  1.00  0.00    -0.298 A  
HETATM    4  C   UNL     1     -10.886  11.901  66.632  1.00  0.00    -0.315 A  
HETATM    5  C   UNL     1     -11.510  12.939  67.342  1.00  0.00    -0.388 A  
HETATM    6  C   UNL     1     -12.386  13.764  66.611  1.00  0.00    -0.403 A  
HETATM    7  C   UNL     1     -12.649  13.535  65.252  1.00  0.00    -0.517 A  
ENDROOT
BRANCH   5   8
HETATM    8  C   UNL     1     -11.354  13.115  68.831  1.00  0.00    -0.335 C  
HETATM    9  C   UNL     1     -10.872  14.269  69.367  1.00  0.00    -0.197 C  
BRANCH   8  10
HETATM   10  C   UNL     1     -11.697  12.049  69.839  1.00  0.00    -0.299 A  
HETATM   11  N   UNL     1     -12.699  12.330  70.714  1.00  0.00    -0.190 NA 
HETATM   12  C   UNL     1     -11.038  10.815  69.874  1.00  0.00    -0.339 A  
HETATM   13  C   UNL     1     -11.431   9.855  70.807  1.00  0.00    -0.433 A  
HETATM   14  C   UNL     1     -13.040  11.392  71.625  1.00  0.00    -0.393 A  
HETATM   15  C   UNL     1     -12.446  10.148  71.704  1.00  0.00    -0.506 A  
ENDBRANCH   8  10
BRANCH   9  16
HETATM   16  C   UNL     1     -10.524  15.568  68.697  1.00  0.00    -0.237 C  
BRANCH  16  17
HETATM   17  N   UNL     1      -9.261  15.540  67.950  1.00  0.00    -0.186 NA 
HETATM   18  C   UNL     1      -7.920  16.555  66.336  1.00  0.00    -0.352 C  
HETATM   19  C   UNL     1      -7.196  16.699  67.664  1.00  0.00    -0.158 C  
HETATM   20  C   UNL     1      -9.366  16.352  66.734  1.00  0.00    -0.245 C  
HETATM   21  C   UNL     1      -8.121  16.071  68.704  1.00  0.00    -0.187 C  
ENDBRANCH  16  17
ENDBRANCH   9  16
ENDBRANCH   5   8
TORSDOF 4
ENDMDL
MODEL       53
REMARK 921   NORMALIZED FREE ENERGY PREDICTED BY IDOCK:   -5.30 KCAL/MOL
REMARK 922        TOTAL FREE ENERGY PREDICTED BY IDOCK:   -7.35 KCAL/MOL
REMARK 923 INTER-LIGAND FREE ENERGY PREDICTED BY IDOCK:   -6.37 KCAL/MOL
REMARK 924 INTRA-LIGAND FREE ENERGY PREDICTED BY IDOCK:   -0.97 KCAL/MOL
REMARK 927      BINDING AFFINITY PREDICTED BY RF-SCORE:    0.00 PKD
ROOT
HETATM    1  C   UNL     1      -5.196  10.080  69.008  1.00  0.00    -0.035 C  
HETATM    2  C   UNL     1      -6.636  10.419  68.757  1.00  0.00    -0.052 A  
HETATM    3  C   UNL     1      -7.609   9.420  68.735  1.00  0.00    -0.079 A  
HETATM    4  C   UNL     1      -8.931   9.727  68.385  1.00  0.00    -0.123 A  
HETATM    5  C   UNL     1      -9.346  11.041  68.113  1.00  0.00    -0.173 A  
HETATM    6  C   UNL     1      -8.359  12.042  68.191  1.00  0.00    -0.165 A  
HETATM    7  C   UNL     1      -7.022  11.735  68.486  1.00  0.00    -0.083 A  
ENDROOT
BRANCH   5   8
HETATM    8  C   UNL     1     -10.743  11.375  67.654  1.00  0.00    -0.261 C  
HETATM    9  C   UNL     1     -11.783  11.448  68.528  1.00  0.00    -0.386 C  
BRANCH   8  10
HETATM   10  C   UNL     1     -11.109  11.641  66.217  1.00  0.00    -0.290 A  
HETATM   11  N   UNL     1     -12.182  12.445  65.994  1.00  0.00    -0.624 NA 
HETATM   12  C   UNL     1     -10.377  11.107  65.150  1.00  0.00    -0.354 A  
HETATM   13  C   UNL     1     -10.744  11.425  63.842  1.00  0.00    -0.462 A  
HETATM   14  C   UNL     1     -12.532  12.712  64.717  1.00  0.00    -0.484 A  
HETATM   15  C   UNL     1     -11.845  12.236  63.618  1.00  0.00    -0.610 A  
ENDBRANCH   8  10
BRANCH   9  16
HETATM   16  C   UNL     1     -11.789  11.346  70.027  1.00  0.00    -0.359 C  
BRANCH  16  17
HETATM   17  N   UNL     1     -12.209  10.037  70.539  1.00  0.00    -0.251 NA 
HETATM   18  C   UNL     1     -11.968   8.416  72.197  1.00  0.00    -0.438 C  
HETATM   19  C   UNL     1     -13.370   8.983  72.337  1.00  0.00    -0.516 C  
HETATM   20  C   UNL     1     -11.209   9.504  71.470  1.00  0.00    -0.367 C  
HETATM   21  C   UNL     1     -13.478  10.074  71.273  1.00  0.00    -0.258 C  
ENDBRANCH  16  17
ENDBRANCH   9  16
ENDBRANCH   5   8
TORSDOF 4
ENDMDL
MODEL       54
REMARK 921   NORMALIZED FREE ENERGY PREDICTED BY IDOCK:   -5.30 KCAL/MOL
REMARK 922        TOTAL FREE ENERGY PREDICTED BY IDOCK:   -7.34 KCAL/MOL
REMARK 923 INTER-LIGAND FREE ENERGY PREDICTED BY IDOCK:   -6.45 KCAL/MOL
REMARK 924 INTRA-LIGAND FREE ENERGY PREDICTED BY IDOCK:   -0.90 KCAL/MOL
REMARK 927      BINDING AFFINITY PREDICTED BY RF-SCORE:    0.00 PKD
ROOT
HETATM    1  C   UNL     1     -14.035  14.076  72.671  1.00  0.00    -0.428 C  
HETATM    2  C   UNL     1     -13.108  14.193  71.497  1.00  0.00    -0.424 A  
HETATM    3  C   UNL     1     -12.621  13.054  70.857  1.00  0.00    -0.364 A  
HETATM    4  C   UNL     1     -11.666  13.167  69.838  1.00  0.00    -0.327 A  
HETATM    5  C   UNL     1     -11.214  14.413  69.373  1.00  0.00    -0.317 A  
HETATM    6  C   UNL     1     -11.756  15.552  69.998  1.00  0.00    -0.363 A  
HETATM    7  C   UNL     1     -12.670  15.446  71.056  1.00  0.00    -0.510 A  
ENDROOT
BRANCH   5   8
HETATM    8  C   UNL     1     -10.127  14.550  68.337  1.00  0.00    -0.241 C  
HETATM    9  C   UNL     1     -10.411  14.610  67.008  1.00  0.00    -0.263 C  
BRANCH   8  10
HETATM   10  C   UNL     1      -8.659  14.617  68.671  1.00  0.00    -0.172 A  
HETATM   11  N   UNL     1      -8.172  15.826  69.059  1.00  0.00    -0.217 NA 
HETATM   12  C   UNL     1      -7.827  13.494  68.607  1.00  0.00    -0.084 A  
HETATM   13  C   UNL     1      -6.484  13.616  68.968  1.00  0.00    -0.106 A  
HETATM   14  C   UNL     1      -6.862  15.920  69.376  1.00  0.00    -0.200 A  
HETATM   15  C   UNL     1      -5.989  14.851  69.353  1.00  0.00    -0.105 A  
ENDBRANCH   8  10
BRANCH   9  16
HETATM   16  C   UNL     1     -11.739  14.672  66.311  1.00  0.00    -0.320 C  
BRANCH  16  17
HETATM   17  N   UNL     1     -11.787  13.942  65.039  1.00  0.00    -0.355 NA 
HETATM   18  C   UNL     1     -10.672  12.544  63.543  1.00  0.00    -0.417 C  
HETATM   19  C   UNL     1     -11.834  11.746  64.109  1.00  0.00    -0.350 C  
HETATM   20  C   UNL     1     -10.432  13.618  64.582  1.00  0.00    -0.423 C  
HETATM   21  C   UNL     1     -12.510  12.669  65.119  1.00  0.00    -0.463 C  
ENDBRANCH  16  17
ENDBRANCH   9  16
ENDBRANCH   5   8
TORSDOF 4
ENDMDL
MODEL       55
REMARK 921   NORMALIZED FREE ENERGY PREDICTED BY IDOCK:   -5.26 KCAL/MOL
REMARK 922        TOTAL FREE ENERGY PREDICTED BY IDOCK:   -7.29 KCAL/MOL
REMARK 923 INTER-LIGAND FREE ENERGY PREDICTED BY IDOCK:   -6.27 KCAL/MOL
REMARK 924 INTRA-LIGAND FREE ENERGY PREDICTED BY IDOCK:   -1.03 KCAL/MOL
REMARK 927      BINDING AFFINITY PREDICTED BY RF-SCORE:    0.00 PKD
ROOT
HETATM    1  C   UNL     1     -13.273  11.310  71.950  1.00  0.00    -0.491 C  
HETATM    2  C   UNL     1     -12.712   9.990  71.511  1.00  0.00    -0.532 A  
HETATM    3  C   UNL     1     -13.446   8.815  71.670  1.00  0.00    -0.411 A  
HETATM    4  C   UNL     1     -12.871   7.574  71.367  1.00  0.00    -0.381 A  
HETATM    5  C   UNL     1     -11.577   7.461  70.831  1.00  0.00    -0.318 A  
HETATM    6  C   UNL     1     -10.872   8.663  70.629  1.00  0.00    -0.265 A  
HETATM    7  C   UNL     1     -11.420   9.905  70.984  1.00  0.00    -0.466 A  
ENDROOT
BRANCH   5   8
HETATM    8  C   UNL     1     -10.914   6.130  70.577  1.00  0.00    -0.384 C  
HETATM    9  C   UNL     1     -10.577   5.295  71.597  1.00  0.00    -0.261 C  
BRANCH   8  10
HETATM   10  C   UNL     1     -10.560   5.621  69.204  1.00  0.00    -0.264 A  
HETATM   11  N   UNL     1      -9.836   4.473  69.142  1.00  0.00    -0.177 NA 
HETATM   12  C   UNL     1     -10.967   6.279  68.037  1.00  0.00    -0.418 A  
HETATM   13  C   UNL     1     -10.640   5.733  66.795  1.00  0.00    -0.373 A  
HETATM   14  C   UNL     1      -9.510   3.983  67.925  1.00  0.00    -0.173 A  
HETATM   15  C   UNL     1      -9.893   4.568  66.735  1.00  0.00    -0.242 A  
ENDBRANCH   8  10
BRANCH   9  16
HETATM   16  C   UNL     1     -10.856   5.412  73.068  1.00  0.00    -0.276 C  
BRANCH  16  17
HETATM   17  N   UNL     1      -9.793   6.074  73.831  1.00  0.00    -0.178 NA 
HETATM   18  C   UNL     1      -7.607   6.883  73.845  1.00  0.00    -0.106 C  
HETATM   19  C   UNL     1      -8.523   8.089  73.967  1.00  0.00    -0.312 C  
HETATM   20  C   UNL     1      -8.486   5.824  73.217  1.00  0.00    -0.116 C  
HETATM   21  C   UNL     1      -9.943   7.531  73.904  1.00  0.00    -0.121 C  
ENDBRANCH  16  17
ENDBRANCH   9  16
ENDBRANCH   5   8
TORSDOF 4
ENDMDL
MODEL       56
REMARK 921   NORMALIZED FREE ENERGY PREDICTED BY IDOCK:   -5.24 KCAL/MOL
REMARK 922        TOTAL FREE ENERGY PREDICTED BY IDOCK:   -7.27 KCAL/MOL
REMARK 923 INTER-LIGAND FREE ENERGY PREDICTED BY IDOCK:   -6.49 KCAL/MOL
REMARK 924 INTRA-LIGAND FREE ENERGY PREDICTED BY IDOCK:   -0.78 KCAL/MOL
REMARK 927      BINDING AFFINITY PREDICTED BY RF-SCORE:    0.00 PKD
ROOT
HETATM    1  C   UNL     1      -5.553  10.207  69.842  1.00  0.00    -0.043 C  
HETATM    2  C   UNL     1      -6.952  10.623  69.497  1.00  0.00    -0.121 A  
HETATM    3  C   UNL     1      -8.027   9.762  69.719  1.00  0.00    -0.169 A  
HETATM    4  C   UNL     1      -9.314  10.110  69.287  1.00  0.00    -0.227 A  
HETATM    5  C   UNL     1      -9.592  11.349  68.686  1.00  0.00    -0.179 A  
HETATM    6  C   UNL     1      -8.502  12.225  68.519  1.00  0.00    -0.077 A  
HETATM    7  C   UNL     1      -7.201  11.861  68.897  1.00  0.00    -0.098 A  
ENDROOT
BRANCH   5   8
HETATM    8  C   UNL     1     -10.952  11.704  68.142  1.00  0.00    -0.275 C  
HETATM    9  C   UNL     1     -12.022  11.890  68.961  1.00  0.00    -0.321 C  
BRANCH   8  10
HETATM   10  C   UNL     1     -11.248  11.868  66.674  1.00  0.00    -0.328 A  
HETATM   11  N   UNL     1     -12.345  12.600  66.346  1.00  0.00    -0.459 NA 
HETATM   12  C   UNL     1     -10.430  11.314  65.682  1.00  0.00    -0.317 A  
HETATM   13  C   UNL     1     -10.737  11.537  64.339  1.00  0.00    -0.404 A  
HETATM   14  C   UNL     1     -12.633  12.777  65.038  1.00  0.00    -0.468 A  
HETATM   15  C   UNL     1     -11.862  12.276  64.008  1.00  0.00    -0.530 A  
ENDBRANCH   8  10
BRANCH   9  16
HETATM   16  C   UNL     1     -12.093  11.909  70.461  1.00  0.00    -0.331 C  
BRANCH  16  17
HETATM   17  N   UNL     1     -12.178  13.253  71.043  1.00  0.00    -0.289 NA 
HETATM   18  C   UNL     1     -12.747  15.491  70.724  1.00  0.00    -0.511 C  
HETATM   19  C   UNL     1     -13.728  14.928  71.738  1.00  0.00    -0.530 C  
HETATM   20  C   UNL     1     -12.248  14.267  69.987  1.00  0.00    -0.359 C  
HETATM   21  C   UNL     1     -13.361  13.453  71.886  1.00  0.00    -0.451 C  
ENDBRANCH  16  17
ENDBRANCH   9  16
ENDBRANCH   5   8
TORSDOF 4
ENDMDL
MODEL       57
REMARK 921   NORMALIZED FREE ENERGY PREDICTED BY IDOCK:   -5.24 KCAL/MOL
REMARK 922        TOTAL FREE ENERGY PREDICTED BY IDOCK:   -7.27 KCAL/MOL
REMARK 923 INTER-LIGAND FREE ENERGY PREDICTED BY IDOCK:   -6.44 KCAL/MOL
REMARK 924 INTRA-LIGAND FREE ENERGY PREDICTED BY IDOCK:   -0.83 KCAL/MOL
REMARK 927      BINDING AFFINITY PREDICTED BY RF-SCORE:    0.00 PKD
ROOT
HETATM    1  C   UNL     1     -11.523  16.024  64.369  1.00  0.00    -0.246 C  
HETATM    2  C   UNL     1     -11.339  14.724  65.094  1.00  0.00    -0.379 A  
HETATM    3  C   UNL     1     -10.218  14.507  65.895  1.00  0.00    -0.339 A  
HETATM    4  C   UNL     1      -9.994  13.251  66.475  1.00  0.00    -0.280 A  
HETATM    5  C   UNL     1     -10.905  12.191  66.337  1.00  0.00    -0.306 A  
HETATM    6  C   UNL     1     -12.055  12.446  65.567  1.00  0.00    -0.417 A  
HETATM    7  C   UNL     1     -12.260  13.683  64.937  1.00  0.00    -0.447 A  
ENDROOT
BRANCH   5   8
HETATM    8  C   UNL     1     -10.638  10.811  66.884  1.00  0.00    -0.312 C  
HETATM    9  C   UNL     1     -11.096  10.426  68.106  1.00  0.00    -0.344 C  
BRANCH   8  10
HETATM   10  C   UNL     1      -9.845   9.761  66.149  1.00  0.00    -0.263 A  
HETATM   11  N   UNL     1      -9.333  10.112  64.940  1.00  0.00    -0.230 NA 
HETATM   12  C   UNL     1      -9.623   8.486  66.682  1.00  0.00    -0.292 A  
HETATM   13  C   UNL     1      -8.847   7.572  65.968  1.00  0.00    -0.179 A  
HETATM   14  C   UNL     1      -8.609   9.197  64.258  1.00  0.00    -0.175 A  
HETATM   15  C   UNL     1      -8.335   7.929  64.731  1.00  0.00    -0.066 A  
ENDBRANCH   8  10
BRANCH   9  16
HETATM   16  C   UNL     1     -11.991  11.152  69.069  1.00  0.00    -0.320 C  
BRANCH  16  17
HETATM   17  N   UNL     1     -11.850  10.720  70.464  1.00  0.00    -0.331 NA 
HETATM   18  C   UNL     1     -12.629   9.340  72.173  1.00  0.00    -0.443 C  
HETATM   19  C   UNL     1     -11.230   8.861  71.825  1.00  0.00    -0.432 C  
HETATM   20  C   UNL     1     -13.081  10.073  70.929  1.00  0.00    -0.308 C  
HETATM   21  C   UNL     1     -10.770   9.750  70.672  1.00  0.00    -0.326 C  
ENDBRANCH  16  17
ENDBRANCH   9  16
ENDBRANCH   5   8
TORSDOF 4
ENDMDL
MODEL       58
REMARK 921   NORMALIZED FREE ENERGY PREDICTED BY IDOCK:   -5.22 KCAL/MOL
REMARK 922        TOTAL FREE ENERGY PREDICTED BY IDOCK:   -7.25 KCAL/MOL
REMARK 923 INTER-LIGAND FREE ENERGY PREDICTED BY IDOCK:   -6.14 KCAL/MOL
REMARK 924 INTRA-LIGAND FREE ENERGY PREDICTED BY IDOCK:   -1.11 KCAL/MOL
REMARK 927      BINDING AFFINITY PREDICTED BY RF-SCORE:    0.00 PKD
ROOT
HETATM    1  C   UNL     1      -6.913   9.040  63.643  1.00  0.00    -0.089 C  
HETATM    2  C   UNL     1      -7.737   9.593  64.768  1.00  0.00    -0.122 A  
HETATM    3  C   UNL     1      -9.124   9.447  64.774  1.00  0.00    -0.248 A  
HETATM    4  C   UNL     1      -9.898  10.066  65.765  1.00  0.00    -0.345 A  
HETATM    5  C   UNL     1      -9.319  10.791  66.820  1.00  0.00    -0.182 A  
HETATM    6  C   UNL     1      -7.914  10.884  66.824  1.00  0.00    -0.143 A  
HETATM    7  C   UNL     1      -7.137  10.314  65.804  1.00  0.00    -0.132 A  
ENDROOT
BRANCH   5   8
HETATM    8  C   UNL     1     -10.140  11.532  67.845  1.00  0.00    -0.202 C  
HETATM    9  C   UNL     1     -10.416  12.858  67.716  1.00  0.00    -0.225 C  
BRANCH   8  10
HETATM   10  C   UNL     1     -10.706  10.889  69.085  1.00  0.00    -0.226 A  
HETATM   11  N   UNL     1      -9.874  10.080  69.792  1.00  0.00    -0.238 NA 
HETATM   12  C   UNL     1     -12.019  11.120  69.512  1.00  0.00    -0.425 A  
HETATM   13  C   UNL     1     -12.469  10.525  70.692  1.00  0.00    -0.456 A  
HETATM   14  C   UNL     1     -10.345   9.496  70.915  1.00  0.00    -0.302 A  
HETATM   15  C   UNL     1     -11.621   9.693  71.404  1.00  0.00    -0.472 A  
ENDBRANCH   8  10
BRANCH   9  16
HETATM   16  C   UNL     1     -10.113  13.797  66.584  1.00  0.00    -0.277 C  
BRANCH  16  17
HETATM   17  N   UNL     1     -11.101  13.773  65.500  1.00  0.00    -0.294 NA 
HETATM   18  C   UNL     1     -11.727  12.872  63.442  1.00  0.00    -0.526 C  
HETATM   19  C   UNL     1     -12.748  12.396  64.460  1.00  0.00    -0.404 C  
HETATM   20  C   UNL     1     -10.513  13.210  64.280  1.00  0.00    -0.389 C  
HETATM   21  C   UNL     1     -12.283  12.959  65.801  1.00  0.00    -0.439 C  
ENDBRANCH  16  17
ENDBRANCH   9  16
ENDBRANCH   5   8
TORSDOF 4
ENDMDL
MODEL       59
REMARK 921   NORMALIZED FREE ENERGY PREDICTED BY IDOCK:   -5.21 KCAL/MOL
REMARK 922        TOTAL FREE ENERGY PREDICTED BY IDOCK:   -7.23 KCAL/MOL
REMARK 923 INTER-LIGAND FREE ENERGY PREDICTED BY IDOCK:   -6.19 KCAL/MOL
REMARK 924 INTRA-LIGAND FREE ENERGY PREDICTED BY IDOCK:   -1.04 KCAL/MOL
REMARK 927      BINDING AFFINITY PREDICTED BY RF-SCORE:    0.00 PKD
ROOT
HETATM    1  C   UNL     1      -7.507   9.978  64.537  1.00  0.00    -0.142 C  
HETATM    2  C   UNL     1      -8.445  10.228  65.682  1.00  0.00    -0.165 A  
HETATM    3  C   UNL     1      -9.753   9.747  65.649  1.00  0.00    -0.357 A  
HETATM    4  C   UNL     1     -10.657  10.083  66.666  1.00  0.00    -0.196 A  
HETATM    5  C   UNL     1     -10.277  10.847  67.781  1.00  0.00    -0.209 A  
HETATM    6  C   UNL     1      -8.938  11.279  67.821  1.00  0.00    -0.141 A  
HETATM    7  C   UNL     1      -8.042  10.995  66.779  1.00  0.00    -0.151 A  
ENDROOT
BRANCH   5   8
HETATM    8  C   UNL     1     -11.257  11.286  68.840  1.00  0.00    -0.315 C  
HETATM    9  C   UNL     1     -11.898  12.484  68.766  1.00  0.00    -0.347 C  
BRANCH   8  10
HETATM   10  C   UNL     1     -11.598  10.463  70.055  1.00  0.00    -0.301 A  
HETATM   11  N   UNL     1     -10.643   9.609  70.507  1.00  0.00    -0.284 NA 
HETATM   12  C   UNL     1     -12.831  10.574  70.709  1.00  0.00    -0.454 A  
HETATM   13  C   UNL     1     -13.069   9.812  71.854  1.00  0.00    -0.544 A  
HETATM   14  C   UNL     1     -10.911   8.863  71.601  1.00  0.00    -0.345 A  
HETATM   15  C   UNL     1     -12.096   8.935  72.306  1.00  0.00    -0.392 A  
ENDBRANCH   8  10
BRANCH   9  16
HETATM   16  C   UNL     1     -11.889  13.513  67.673  1.00  0.00    -0.363 C  
BRANCH  16  17
HETATM   17  N   UNL     1     -11.362  14.820  68.080  1.00  0.00    -0.302 NA 
HETATM   18  C   UNL     1     -10.916  16.290  69.834  1.00  0.00    -0.365 C  
HETATM   19  C   UNL     1      -9.573  15.862  69.265  1.00  0.00    -0.266 C  
HETATM   20  C   UNL     1     -11.856  15.181  69.413  1.00  0.00    -0.330 C  
HETATM   21  C   UNL     1      -9.898  14.865  68.156  1.00  0.00    -0.218 C  
ENDBRANCH  16  17
ENDBRANCH   9  16
ENDBRANCH   5   8
TORSDOF 4
ENDMDL
MODEL       60
REMARK 921   NORMALIZED FREE ENERGY PREDICTED BY IDOCK:   -5.21 KCAL/MOL
REMARK 922        TOTAL FREE ENERGY PREDICTED BY IDOCK:   -7.23 KCAL/MOL
REMARK 923 INTER-LIGAND FREE ENERGY PREDICTED BY IDOCK:   -6.34 KCAL/MOL
REMARK 924 INTRA-LIGAND FREE ENERGY PREDICTED BY IDOCK:   -0.89 KCAL/MOL
REMARK 927      BINDING AFFINITY PREDICTED BY RF-SCORE:    0.00 PKD
ROOT
HETATM    1  C   UNL     1      -7.678   5.842  66.575  1.00  0.00    -0.100 C  
HETATM    2  C   UNL     1      -8.470   7.014  67.077  1.00  0.00    -0.121 A  
HETATM    3  C   UNL     1      -7.872   7.991  67.872  1.00  0.00    -0.126 A  
HETATM    4  C   UNL     1      -8.642   9.019  68.432  1.00  0.00    -0.130 A  
HETATM    5  C   UNL     1     -10.015   9.152  68.168  1.00  0.00    -0.206 A  
HETATM    6  C   UNL     1     -10.590   8.185  67.321  1.00  0.00    -0.344 A  
HETATM    7  C   UNL     1      -9.837   7.121  66.802  1.00  0.00    -0.272 A  
ENDROOT
BRANCH   5   8
HETATM    8  C   UNL     1     -10.874  10.201  68.829  1.00  0.00    -0.259 C  
HETATM    9  C   UNL     1     -10.989  11.456  68.316  1.00  0.00    -0.266 C  
BRANCH   8  10
HETATM   10  C   UNL     1     -11.654   9.965  70.096  1.00  0.00    -0.218 A  
HETATM   11  N   UNL     1     -11.498   8.756  70.697  1.00  0.00    -0.257 NA 
HETATM   12  C   UNL     1     -12.489  10.941  70.651  1.00  0.00    -0.460 A  
HETATM   13  C   UNL     1     -13.153  10.673  71.849  1.00  0.00    -0.563 A  
HETATM   14  C   UNL     1     -12.175   8.514  71.841  1.00  0.00    -0.352 A  
HETATM   15  C   UNL     1     -13.000   9.436  72.453  1.00  0.00    -0.427 A  
ENDBRANCH   8  10
BRANCH   9  16
HETATM   16  C   UNL     1     -10.450  12.024  67.035  1.00  0.00    -0.221 C  
BRANCH  16  17
HETATM   17  N   UNL     1     -11.281  11.751  65.858  1.00  0.00    -0.316 NA 
HETATM   18  C   UNL     1     -12.304  12.604  63.944  1.00  0.00    -0.546 C  
HETATM   19  C   UNL     1     -11.226  11.642  63.475  1.00  0.00    -0.462 C  
HETATM   20  C   UNL     1     -11.859  12.994  65.336  1.00  0.00    -0.388 C  
HETATM   21  C   UNL     1     -10.544  11.141  64.746  1.00  0.00    -0.303 C  
ENDBRANCH  16  17
ENDBRANCH   9  16
ENDBRANCH   5   8
TORSDOF 4
ENDMDL
MODEL       61
REMARK 921   NORMALIZED FREE ENERGY PREDICTED BY IDOCK:   -5.20 KCAL/MOL
REMARK 922        TOTAL FREE ENERGY PREDICTED BY IDOCK:   -7.22 KCAL/MOL
REMARK 923 INTER-LIGAND FREE ENERGY PREDICTED BY IDOCK:   -6.32 KCAL/MOL
REMARK 924 INTRA-LIGAND FREE ENERGY PREDICTED BY IDOCK:   -0.91 KCAL/MOL
REMARK 927      BINDING AFFINITY PREDICTED BY RF-SCORE:    0.00 PKD
ROOT
HETATM    1  C   UNL     1      -7.253  16.965  66.517  1.00  0.00    -0.297 C  
HETATM    2  C   UNL     1      -8.363  16.198  67.173  1.00  0.00    -0.225 A  
HETATM    3  C   UNL     1      -8.085  15.218  68.127  1.00  0.00    -0.136 A  
HETATM    4  C   UNL     1      -9.116  14.426  68.649  1.00  0.00    -0.178 A  
HETATM    5  C   UNL     1     -10.462  14.622  68.297  1.00  0.00    -0.236 A  
HETATM    6  C   UNL     1     -10.726  15.650  67.371  1.00  0.00    -0.309 A  
HETATM    7  C   UNL     1      -9.694  16.410  66.801  1.00  0.00    -0.263 A  
ENDROOT
BRANCH   5   8
HETATM    8  C   UNL     1     -11.571  13.725  68.785  1.00  0.00    -0.363 C  
HETATM    9  C   UNL     1     -11.976  12.639  68.073  1.00  0.00    -0.300 C  
BRANCH   8  10
HETATM   10  C   UNL     1     -12.323  13.952  70.071  1.00  0.00    -0.316 A  
HETATM   11  N   UNL     1     -12.732  15.222  70.328  1.00  0.00    -0.348 NA 
HETATM   12  C   UNL     1     -12.611  12.910  70.960  1.00  0.00    -0.376 A  
HETATM   13  C   UNL     1     -13.347  13.180  72.115  1.00  0.00    -0.621 A  
HETATM   14  C   UNL     1     -13.418  15.459  71.467  1.00  0.00    -0.513 A  
HETATM   15  C   UNL     1     -13.753  14.478  72.379  1.00  0.00    -0.583 A  
ENDBRANCH   8  10
BRANCH   9  16
HETATM   16  C   UNL     1     -11.407  12.047  66.816  1.00  0.00    -0.339 C  
BRANCH  16  17
HETATM   17  N   UNL     1     -10.122  11.365  67.000  1.00  0.00    -0.204 NA 
HETATM   18  C   UNL     1      -8.821   9.484  66.544  1.00  0.00    -0.156 C  
HETATM   19  C   UNL     1      -8.163  10.656  65.837  1.00  0.00    -0.159 C  
HETATM   20  C   UNL     1     -10.256   9.931  66.724  1.00  0.00    -0.236 C  
HETATM   21  C   UNL     1      -9.063  11.858  66.113  1.00  0.00    -0.161 C  
ENDBRANCH  16  17
ENDBRANCH   9  16
ENDBRANCH   5   8
TORSDOF 4
ENDMDL
MODEL       62
REMARK 921   NORMALIZED FREE ENERGY PREDICTED BY IDOCK:   -5.19 KCAL/MOL
REMARK 922        TOTAL FREE ENERGY PREDICTED BY IDOCK:   -7.21 KCAL/MOL
REMARK 923 INTER-LIGAND FREE ENERGY PREDICTED BY IDOCK:   -6.61 KCAL/MOL
REMARK 924 INTRA-LIGAND FREE ENERGY PREDICTED BY IDOCK:   -0.60 KCAL/MOL
REMARK 927      BINDING AFFINITY PREDICTED BY RF-SCORE:    0.00 PKD
ROOT
HETATM    1  C   UNL     1     -12.392   7.740  72.248  1.00  0.00    -0.260 C  
HETATM    2  C   UNL     1     -12.113   8.999  71.481  1.00  0.00    -0.410 A  
HETATM    3  C   UNL     1     -13.092   9.984  71.347  1.00  0.00    -0.512 A  
HETATM    4  C   UNL     1     -12.865  11.102  70.534  1.00  0.00    -0.213 A  
HETATM    5  C   UNL     1     -11.640  11.316  69.882  1.00  0.00    -0.413 A  
HETATM    6  C   UNL     1     -10.647  10.335  70.072  1.00  0.00    -0.321 A  
HETATM    7  C   UNL     1     -10.885   9.186  70.839  1.00  0.00    -0.345 A  
ENDROOT
BRANCH   5   8
HETATM    8  C   UNL     1     -11.410  12.469  68.938  1.00  0.00    -0.346 C  
HETATM    9  C   UNL     1     -11.243  12.275  67.602  1.00  0.00    -0.346 C  
BRANCH   8  10
HETATM   10  C   UNL     1     -11.333  13.908  69.380  1.00  0.00    -0.258 A  
HETATM   11  N   UNL     1     -12.352  14.369  70.151  1.00  0.00    -0.338 NA 
HETATM   12  C   UNL     1     -10.259  14.737  69.036  1.00  0.00    -0.237 A  
HETATM   13  C   UNL     1     -10.229  16.049  69.511  1.00  0.00    -0.274 A  
HETATM   14  C   UNL     1     -12.310  15.651  70.574  1.00  0.00    -0.403 A  
HETATM   15  C   UNL     1     -11.275  16.519  70.289  1.00  0.00    -0.140 A  
ENDBRANCH   8  10
BRANCH   9  16
HETATM   16  C   UNL     1     -11.353  11.015  66.792  1.00  0.00     0.028 C  
BRANCH  16  17
HETATM   17  N   UNL     1     -11.636  11.236  65.370  1.00  0.00     0.077 NA 
HETATM   18  C   UNL     1     -11.976  12.784  63.660  1.00  0.00    -0.616 C  
HETATM   19  C   UNL     1     -10.678  12.060  63.347  1.00  0.00    -0.475 C  
HETATM   20  C   UNL     1     -12.144  12.594  65.152  1.00  0.00    -0.455 C  
HETATM   21  C   UNL     1     -10.459  11.092  64.507  1.00  0.00    -0.350 C  
ENDBRANCH  16  17
ENDBRANCH   9  16
ENDBRANCH   5   8
TORSDOF 4
ENDMDL
MODEL       63
REMARK 921   NORMALIZED FREE ENERGY PREDICTED BY IDOCK:   -5.18 KCAL/MOL
REMARK 922        TOTAL FREE ENERGY PREDICTED BY IDOCK:   -7.19 KCAL/MOL
REMARK 923 INTER-LIGAND FREE ENERGY PREDICTED BY IDOCK:   -6.25 KCAL/MOL
REMARK 924 INTRA-LIGAND FREE ENERGY PREDICTED BY IDOCK:   -0.95 KCAL/MOL
REMARK 927      BINDING AFFINITY PREDICTED BY RF-SCORE:    0.00 PKD
ROOT
HETATM    1  C   UNL     1     -12.707  12.091  63.582  1.00  0.00    -0.550 C  
HETATM    2  C   UNL     1     -11.944  12.900  64.590  1.00  0.00    -0.445 A  
HETATM    3  C   UNL     1     -11.321  14.093  64.221  1.00  0.00    -0.241 A  
HETATM    4  C   UNL     1     -10.515  14.783  65.136  1.00  0.00    -0.443 A  
HETATM    5  C   UNL     1     -10.355  14.353  66.464  1.00  0.00    -0.281 A  
HETATM    6  C   UNL     1     -11.034  13.175  66.830  1.00  0.00    -0.295 A  
HETATM    7  C   UNL     1     -11.797  12.448  65.905  1.00  0.00    -0.467 A  
ENDROOT
BRANCH   5   8
HETATM    8  C   UNL     1      -9.425  15.037  67.435  1.00  0.00    -0.202 C  
HETATM    9  C   UNL     1      -9.751  16.220  68.023  1.00  0.00    -0.230 C  
BRANCH   8  10
HETATM   10  C   UNL     1      -8.076  14.491  67.824  1.00  0.00    -0.158 A  
HETATM   11  N   UNL     1      -6.987  15.122  67.312  1.00  0.00    -0.241 NA 
HETATM   12  C   UNL     1      -7.934  13.398  68.687  1.00  0.00    -0.056 A  
HETATM   13  C   UNL     1      -6.654  12.967  69.040  1.00  0.00    -0.105 A  
HETATM   14  C   UNL     1      -5.760  14.666  67.649  1.00  0.00     0.018 A  
HETATM   15  C   UNL     1      -5.546  13.606  68.508  1.00  0.00    -0.091 A  
ENDBRANCH   8  10
BRANCH   9  16
HETATM   16  C   UNL     1     -11.030  17.005  67.958  1.00  0.00    -0.252 C  
BRANCH  16  17
HETATM   17  N   UNL     1     -10.855  18.409  67.574  1.00  0.00    -0.357 NA 
HETATM   18  C   UNL     1      -9.505  20.309  67.661  1.00  0.00    -0.507 C  
HETATM   19  C   UNL     1      -9.537  19.857  66.211  1.00  0.00    -0.526 C  
HETATM   20  C   UNL     1      -9.862  19.059  68.436  1.00  0.00    -0.392 C  
HETATM   21  C   UNL     1     -10.385  18.588  66.197  1.00  0.00    -0.426 C  
ENDBRANCH  16  17
ENDBRANCH   9  16
ENDBRANCH   5   8
TORSDOF 4
ENDMDL
MODEL       64
REMARK 921   NORMALIZED FREE ENERGY PREDICTED BY IDOCK:   -5.17 KCAL/MOL
REMARK 922        TOTAL FREE ENERGY PREDICTED BY IDOCK:   -7.18 KCAL/MOL
REMARK 923 INTER-LIGAND FREE ENERGY PREDICTED BY IDOCK:   -6.31 KCAL/MOL
REMARK 924 INTRA-LIGAND FREE ENERGY PREDICTED BY IDOCK:   -0.87 KCAL/MOL
REMARK 927      BINDING AFFINITY PREDICTED BY RF-SCORE:    0.00 PKD
ROOT
HETATM    1  C   UNL     1     -10.386  17.363  69.014  1.00  0.00    -0.319 C  
HETATM    2  C   UNL     1     -10.442  15.975  68.446  1.00  0.00    -0.263 A  
HETATM    3  C   UNL     1     -11.509  15.577  67.641  1.00  0.00    -0.211 A  
HETATM    4  C   UNL     1     -11.615  14.247  67.211  1.00  0.00    -0.401 A  
HETATM    5  C   UNL     1     -10.634  13.287  67.506  1.00  0.00    -0.251 A  
HETATM    6  C   UNL     1      -9.539  13.722  68.277  1.00  0.00    -0.219 A  
HETATM    7  C   UNL     1      -9.454  15.037  68.758  1.00  0.00    -0.210 A  
ENDROOT
BRANCH   5   8
HETATM    8  C   UNL     1     -10.774  11.835  67.123  1.00  0.00    -0.283 C  
HETATM    9  C   UNL     1     -11.336  10.926  67.964  1.00  0.00    -0.382 C  
BRANCH   8  10
HETATM   10  C   UNL     1     -10.304  11.269  65.807  1.00  0.00    -0.258 A  
HETATM   11  N   UNL     1      -9.440  10.222  65.863  1.00  0.00    -0.178 NA 
HETATM   12  C   UNL     1     -10.743  11.775  64.579  1.00  0.00    -0.369 A  
HETATM   13  C   UNL     1     -10.300  11.180  63.396  1.00  0.00    -0.419 A  
HETATM   14  C   UNL     1      -9.006   9.684  64.702  1.00  0.00    -0.231 A  
HETATM   15  C   UNL     1      -9.411  10.119  63.456  1.00  0.00    -0.333 A  
ENDBRANCH   8  10
BRANCH   9  16
HETATM   16  C   UNL     1     -11.999  11.130  69.296  1.00  0.00    -0.351 C  
BRANCH  16  17
HETATM   17  N   UNL     1     -11.443  10.308  70.377  1.00  0.00    -0.311 NA 
HETATM   18  C   UNL     1     -11.866   8.799  72.103  1.00  0.00    -0.436 C  
HETATM   19  C   UNL     1     -11.069   8.050  71.048  1.00  0.00    -0.275 C  
HETATM   20  C   UNL     1     -12.490   9.945  71.337  1.00  0.00    -0.398 C  
HETATM   21  C   UNL     1     -10.853   9.048  69.914  1.00  0.00    -0.218 C  
ENDBRANCH  16  17
ENDBRANCH   9  16
ENDBRANCH   5   8
TORSDOF 4
ENDMDL
MODEL       65
REMARK 921   NORMALIZED FREE ENERGY PREDICTED BY IDOCK:   -5.17 KCAL/MOL
REMARK 922        TOTAL FREE ENERGY PREDICTED BY IDOCK:   -7.18 KCAL/MOL
REMARK 923 INTER-LIGAND FREE ENERGY PREDICTED BY IDOCK:   -6.35 KCAL/MOL
REMARK 924 INTRA-LIGAND FREE ENERGY PREDICTED BY IDOCK:   -0.83 KCAL/MOL
REMARK 927      BINDING AFFINITY PREDICTED BY RF-SCORE:    0.00 PKD
ROOT
HETATM    1  C   UNL     1      -5.493  12.986  69.272  1.00  0.00    -0.076 C  
HETATM    2  C   UNL     1      -6.627  13.884  68.871  1.00  0.00    -0.103 A  
HETATM    3  C   UNL     1      -7.188  14.775  69.786  1.00  0.00    -0.098 A  
HETATM    4  C   UNL     1      -8.320  15.525  69.440  1.00  0.00    -0.249 A  
HETATM    5  C   UNL     1      -8.891  15.470  68.158  1.00  0.00    -0.169 A  
HETATM    6  C   UNL     1      -8.278  14.603  67.234  1.00  0.00    -0.235 A  
HETATM    7  C   UNL     1      -7.179  13.806  67.589  1.00  0.00    -0.183 A  
ENDROOT
BRANCH   5   8
HETATM    8  C   UNL     1     -10.156  16.207  67.797  1.00  0.00    -0.250 C  
HETATM    9  C   UNL     1     -11.329  15.550  67.586  1.00  0.00    -0.260 C  
BRANCH   8  10
HETATM   10  C   UNL     1     -10.232  17.702  67.629  1.00  0.00    -0.351 A  
HETATM   11  N   UNL     1     -10.205  18.451  68.763  1.00  0.00    -0.360 NA 
HETATM   12  C   UNL     1     -10.310  18.308  66.370  1.00  0.00    -0.418 A  
HETATM   13  C   UNL     1     -10.337  19.701  66.281  1.00  0.00    -0.619 A  
HETATM   14  C   UNL     1     -10.261  19.796  68.649  1.00  0.00    -0.405 A  
HETATM   15  C   UNL     1     -10.320  20.460  67.440  1.00  0.00    -0.329 A  
ENDBRANCH   8  10
BRANCH   9  16
HETATM   16  C   UNL     1     -11.660  14.096  67.757  1.00  0.00    -0.347 C  
BRANCH  16  17
HETATM   17  N   UNL     1     -12.180  13.450  66.547  1.00  0.00    -0.386 NA 
HETATM   18  C   UNL     1     -12.355  13.503  64.223  1.00  0.00    -0.392 C  
HETATM   19  C   UNL     1     -11.507  12.293  64.572  1.00  0.00    -0.401 C  
HETATM   20  C   UNL     1     -12.217  14.402  65.432  1.00  0.00    -0.361 C  
HETATM   21  C   UNL     1     -11.370  12.316  66.093  1.00  0.00    -0.353 C  
ENDBRANCH  16  17
ENDBRANCH   9  16
ENDBRANCH   5   8
TORSDOF 4
ENDMDL
MODEL       66
REMARK 921   NORMALIZED FREE ENERGY PREDICTED BY IDOCK:   -5.16 KCAL/MOL
REMARK 922        TOTAL FREE ENERGY PREDICTED BY IDOCK:   -7.17 KCAL/MOL
REMARK 923 INTER-LIGAND FREE ENERGY PREDICTED BY IDOCK:   -6.13 KCAL/MOL
REMARK 924 INTRA-LIGAND FREE ENERGY PREDICTED BY IDOCK:   -1.04 KCAL/MOL
REMARK 927      BINDING AFFINITY PREDICTED BY RF-SCORE:    0.00 PKD
ROOT
HETATM    1  C   UNL     1     -13.092  10.652  72.066  1.00  0.00    -0.501 C  
HETATM    2  C   UNL     1     -12.471  11.070  70.765  1.00  0.00    -0.491 A  
HETATM    3  C   UNL     1     -12.030  10.117  69.847  1.00  0.00    -0.156 A  
HETATM    4  C   UNL     1     -11.347  10.512  68.689  1.00  0.00    -0.315 A  
HETATM    5  C   UNL     1     -11.140  11.863  68.368  1.00  0.00    -0.292 A  
HETATM    6  C   UNL     1     -11.639  12.811  69.283  1.00  0.00    -0.372 A  
HETATM    7  C   UNL     1     -12.274  12.422  70.472  1.00  0.00    -0.382 A  
ENDROOT
BRANCH   5   8
HETATM    8  C   UNL     1     -10.335  12.302  67.171  1.00  0.00    -0.234 C  
HETATM    9  C   UNL     1      -8.985  12.452  67.234  1.00  0.00    -0.190 C  
BRANCH   8  10
HETATM   10  C   UNL     1     -10.942  12.619  65.828  1.00  0.00    -0.280 A  
HETATM   11  N   UNL     1     -11.726  13.726  65.754  1.00  0.00    -0.336 NA 
HETATM   12  C   UNL     1     -10.702  11.830  64.697  1.00  0.00    -0.363 A  
HETATM   13  C   UNL     1     -11.262  12.201  63.473  1.00  0.00    -0.536 A  
HETATM   14  C   UNL     1     -12.277  14.046  64.562  1.00  0.00    -0.434 A  
HETATM   15  C   UNL     1     -12.069  13.325  63.403  1.00  0.00    -0.508 A  
ENDBRANCH   8  10
BRANCH   9  16
HETATM   16  C   UNL     1      -8.034  12.139  68.354  1.00  0.00    -0.152 C  
BRANCH  16  17
HETATM   17  N   UNL     1      -7.583  10.743  68.388  1.00  0.00    -0.097 NA 
HETATM   18  C   UNL     1      -7.926   8.596  69.228  1.00  0.00    -0.103 C  
HETATM   19  C   UNL     1      -8.194   8.532  67.734  1.00  0.00    -0.122 C  
HETATM   20  C   UNL     1      -8.120  10.058  69.568  1.00  0.00    -0.161 C  
HETATM   21  C   UNL     1      -8.011   9.959  67.225  1.00  0.00    -0.109 C  
ENDBRANCH  16  17
ENDBRANCH   9  16
ENDBRANCH   5   8
TORSDOF 4
ENDMDL
MODEL       67
REMARK 921   NORMALIZED FREE ENERGY PREDICTED BY IDOCK:   -5.12 KCAL/MOL
REMARK 922        TOTAL FREE ENERGY PREDICTED BY IDOCK:   -7.12 KCAL/MOL
REMARK 923 INTER-LIGAND FREE ENERGY PREDICTED BY IDOCK:   -6.06 KCAL/MOL
REMARK 924 INTRA-LIGAND FREE ENERGY PREDICTED BY IDOCK:   -1.06 KCAL/MOL
REMARK 927      BINDING AFFINITY PREDICTED BY RF-SCORE:    0.00 PKD
ROOT
HETATM    1  C   UNL     1      -9.206   4.102  66.961  1.00  0.00    -0.173 C  
HETATM    2  C   UNL     1      -9.527   5.550  67.185  1.00  0.00    -0.122 A  
HETATM    3  C   UNL     1      -8.513   6.474  67.441  1.00  0.00    -0.119 A  
HETATM    4  C   UNL     1      -8.828   7.800  67.765  1.00  0.00    -0.126 A  
HETATM    5  C   UNL     1     -10.150   8.273  67.777  1.00  0.00    -0.262 A  
HETATM    6  C   UNL     1     -11.156   7.337  67.466  1.00  0.00    -0.110 A  
HETATM    7  C   UNL     1     -10.853   5.994  67.196  1.00  0.00    -0.414 A  
ENDROOT
BRANCH   5   8
HETATM    8  C   UNL     1     -10.511   9.673  68.204  1.00  0.00    -0.266 C  
HETATM    9  C   UNL     1     -10.561  10.029  69.517  1.00  0.00    -0.267 C  
BRANCH   8  10
HETATM   10  C   UNL     1     -10.853  10.779  67.239  1.00  0.00    -0.288 A  
HETATM   11  N   UNL     1     -10.430  10.627  65.957  1.00  0.00    -0.217 NA 
HETATM   12  C   UNL     1     -11.588  11.905  67.626  1.00  0.00    -0.382 A  
HETATM   13  C   UNL     1     -11.906  12.874  66.673  1.00  0.00    -0.461 A  
HETATM   14  C   UNL     1     -10.728  11.594  65.062  1.00  0.00    -0.296 A  
HETATM   15  C   UNL     1     -11.464  12.722  65.368  1.00  0.00    -0.363 A  
ENDBRANCH   8  10
BRANCH   9  16
HETATM   16  C   UNL     1     -10.194   9.240  70.741  1.00  0.00    -0.286 C  
BRANCH  16  17
HETATM   17  N   UNL     1     -11.339   8.845  71.568  1.00  0.00    -0.298 NA 
HETATM   18  C   UNL     1     -13.601   9.139  72.048  1.00  0.00    -0.520 C  
HETATM   19  C   UNL     1     -13.449   7.735  71.487  1.00  0.00    -0.379 C  
HETATM   20  C   UNL     1     -12.385   9.871  71.523  1.00  0.00    -0.412 C  
HETATM   21  C   UNL     1     -11.970   7.593  71.138  1.00  0.00    -0.297 C  
ENDBRANCH  16  17
ENDBRANCH   9  16
ENDBRANCH   5   8
TORSDOF 4
ENDMDL
MODEL       68
REMARK 921   NORMALIZED FREE ENERGY PREDICTED BY IDOCK:   -5.11 KCAL/MOL
REMARK 922        TOTAL FREE ENERGY PREDICTED BY IDOCK:   -7.11 KCAL/MOL
REMARK 923 INTER-LIGAND FREE ENERGY PREDICTED BY IDOCK:   -6.82 KCAL/MOL
REMARK 924 INTRA-LIGAND FREE ENERGY PREDICTED BY IDOCK:   -0.30 KCAL/MOL
REMARK 927      BINDING AFFINITY PREDICTED BY RF-SCORE:    0.00 PKD
ROOT
HETATM    1  C   UNL     1     -10.539   7.951  72.711  1.00  0.00    -0.418 C  
HETATM    2  C   UNL     1     -10.649   8.971  71.616  1.00  0.00    -0.434 A  
HETATM    3  C   UNL     1     -11.862   9.609  71.355  1.00  0.00    -0.484 A  
HETATM    4  C   UNL     1     -11.988  10.473  70.259  1.00  0.00    -0.411 A  
HETATM    5  C   UNL     1     -10.900  10.787  69.427  1.00  0.00    -0.289 A  
HETATM    6  C   UNL     1      -9.672  10.172  69.738  1.00  0.00    -0.232 A  
HETATM    7  C   UNL     1      -9.552   9.263  70.800  1.00  0.00    -0.341 A  
ENDROOT
BRANCH   5   8
HETATM    8  C   UNL     1     -11.039  11.646  68.196  1.00  0.00    -0.298 C  
HETATM    9  C   UNL     1     -11.599  12.885  68.249  1.00  0.00    -0.374 C  
BRANCH   8  10
HETATM   10  C   UNL     1     -10.590  11.217  66.823  1.00  0.00    -0.260 A  
HETATM   11  N   UNL     1     -10.064   9.969  66.710  1.00  0.00    -0.215 NA 
HETATM   12  C   UNL     1     -10.719  12.047  65.703  1.00  0.00    -0.313 A  
HETATM   13  C   UNL     1     -10.320  11.574  64.452  1.00  0.00    -0.364 A  
HETATM   14  C   UNL     1      -9.661   9.548  65.492  1.00  0.00    -0.279 A  
HETATM   15  C   UNL     1      -9.775  10.304  64.342  1.00  0.00    -0.381 A  
ENDBRANCH   8  10
BRANCH   9  16
HETATM   16  C   UNL     1     -12.065  13.679  69.436  1.00  0.00    -0.314 C  
BRANCH  16  17
HETATM   17  N   UNL     1     -11.904  15.130  69.290  1.00  0.00    -0.319 NA 
HETATM   18  C   UNL     1     -10.578  17.003  69.699  1.00  0.00    -0.087 C  
HETATM   19  C   UNL     1     -10.596  16.797  68.194  1.00  0.00    -0.350 C  
HETATM   20  C   UNL     1     -10.924  15.639  70.255  1.00  0.00    -0.348 C  
HETATM   21  C   UNL     1     -11.428  15.537  67.964  1.00  0.00    -0.308 C  
ENDBRANCH  16  17
ENDBRANCH   9  16
ENDBRANCH   5   8
TORSDOF 4
ENDMDL
MODEL       69
REMARK 921   NORMALIZED FREE ENERGY PREDICTED BY IDOCK:   -5.11 KCAL/MOL
REMARK 922        TOTAL FREE ENERGY PREDICTED BY IDOCK:   -7.11 KCAL/MOL
REMARK 923 INTER-LIGAND FREE ENERGY PREDICTED BY IDOCK:   -6.98 KCAL/MOL
REMARK 924 INTRA-LIGAND FREE ENERGY PREDICTED BY IDOCK:   -0.13 KCAL/MOL
REMARK 927      BINDING AFFINITY PREDICTED BY RF-SCORE:    0.00 PKD
ROOT
HETATM    1  C   UNL     1     -13.123  10.702  72.036  1.00  0.00    -0.501 C  
HETATM    2  C   UNL     1     -12.465  11.480  70.934  1.00  0.00    -0.464 A  
HETATM    3  C   UNL     1     -11.656  10.841  69.995  1.00  0.00    -0.417 A  
HETATM    4  C   UNL     1     -10.952  11.588  69.041  1.00  0.00    -0.285 A  
HETATM    5  C   UNL     1     -11.079  12.983  68.942  1.00  0.00    -0.307 A  
HETATM    6  C   UNL     1     -11.940  13.604  69.867  1.00  0.00    -0.415 A  
HETATM    7  C   UNL     1     -12.604  12.869  70.861  1.00  0.00    -0.355 A  
ENDROOT
BRANCH   5   8
HETATM    8  C   UNL     1     -10.265  13.808  67.977  1.00  0.00    -0.248 C  
HETATM    9  C   UNL     1      -9.716  13.263  66.858  1.00  0.00    -0.248 C  
BRANCH   8  10
HETATM   10  C   UNL     1      -9.982  15.276  68.166  1.00  0.00    -0.221 A  
HETATM   11  N   UNL     1      -8.781  15.605  68.711  1.00  0.00    -0.182 NA 
HETATM   12  C   UNL     1     -10.895  16.266  67.786  1.00  0.00    -0.315 A  
HETATM   13  C   UNL     1     -10.555  17.610  67.952  1.00  0.00    -0.390 A  
HETATM   14  C   UNL     1      -8.490  16.913  68.885  1.00  0.00    -0.202 A  
HETATM   15  C   UNL     1      -9.334  17.942  68.517  1.00  0.00    -0.299 A  
ENDBRANCH   8  10
BRANCH   9  16
HETATM   16  C   UNL     1      -9.861  11.880  66.292  1.00  0.00    -0.225 C  
BRANCH  16  17
HETATM   17  N   UNL     1     -10.860  11.768  65.224  1.00  0.00    -0.286 NA 
HETATM   18  C   UNL     1     -12.785  12.648  64.245  1.00  0.00    -0.394 C  
HETATM   19  C   UNL     1     -11.656  12.838  63.246  1.00  0.00    -0.378 C  
HETATM   20  C   UNL     1     -12.072  12.516  65.574  1.00  0.00    -0.419 C  
HETATM   21  C   UNL     1     -10.405  12.299  63.936  1.00  0.00    -0.429 C  
ENDBRANCH  16  17
ENDBRANCH   9  16
ENDBRANCH   5   8
TORSDOF 4
ENDMDL
MODEL       70
REMARK 921   NORMALIZED FREE ENERGY PREDICTED BY IDOCK:   -5.11 KCAL/MOL
REMARK 922        TOTAL FREE ENERGY PREDICTED BY IDOCK:   -7.11 KCAL/MOL
REMARK 923 INTER-LIGAND FREE ENERGY PREDICTED BY IDOCK:   -6.37 KCAL/MOL
REMARK 924 INTRA-LIGAND FREE ENERGY PREDICTED BY IDOCK:   -0.74 KCAL/MOL
REMARK 927      BINDING AFFINITY PREDICTED BY RF-SCORE:    0.00 PKD
ROOT
HETATM    1  C   UNL     1     -13.403  13.391  72.259  1.00  0.00    -0.641 C  
HETATM    2  C   UNL     1     -12.657  13.723  71.001  1.00  0.00    -0.446 A  
HETATM    3  C   UNL     1     -12.604  15.035  70.529  1.00  0.00    -0.420 A  
HETATM    4  C   UNL     1     -12.005  15.320  69.294  1.00  0.00    -0.327 A  
HETATM    5  C   UNL     1     -11.380  14.329  68.520  1.00  0.00    -0.309 A  
HETATM    6  C   UNL     1     -11.400  13.020  69.039  1.00  0.00    -0.340 A  
HETATM    7  C   UNL     1     -12.045  12.717  70.247  1.00  0.00    -0.372 A  
ENDROOT
BRANCH   5   8
HETATM    8  C   UNL     1     -10.806  14.604  67.153  1.00  0.00    -0.303 C  
HETATM    9  C   UNL     1      -9.857  15.558  66.956  1.00  0.00    -0.236 C  
BRANCH   8  10
HETATM   10  C   UNL     1     -11.232  13.873  65.906  1.00  0.00    -0.297 A  
HETATM   11  N   UNL     1     -10.263  13.209  65.222  1.00  0.00    -0.300 NA 
HETATM   12  C   UNL     1     -12.562  13.853  65.470  1.00  0.00    -0.560 A  
HETATM   13  C   UNL     1     -12.896  13.123  64.328  1.00  0.00    -0.066 A  
HETATM   14  C   UNL     1     -10.611  12.533  64.105  1.00  0.00    -0.398 A  
HETATM   15  C   UNL     1     -11.904  12.456  63.628  1.00  0.00    -0.610 A  
ENDBRANCH   8  10
BRANCH   9  16
HETATM   16  C   UNL     1      -9.126  16.408  67.956  1.00  0.00    -0.200 C  
BRANCH  16  17
HETATM   17  N   UNL     1      -7.864  15.830  68.429  1.00  0.00    -0.132 NA 
HETATM   18  C   UNL     1      -5.959  16.101  69.746  1.00  0.00    -0.177 C  
HETATM   19  C   UNL     1      -6.772  14.981  70.373  1.00  0.00     0.060 C  
HETATM   20  C   UNL     1      -6.978  16.880  68.942  1.00  0.00    -0.213 C  
HETATM   21  C   UNL     1      -8.032  14.864  69.519  1.00  0.00    -0.084 C  
ENDBRANCH  16  17
ENDBRANCH   9  16
ENDBRANCH   5   8
TORSDOF 4
ENDMDL
MODEL       71
REMARK 921   NORMALIZED FREE ENERGY PREDICTED BY IDOCK:   -5.11 KCAL/MOL
REMARK 922        TOTAL FREE ENERGY PREDICTED BY IDOCK:   -7.11 KCAL/MOL
REMARK 923 INTER-LIGAND FREE ENERGY PREDICTED BY IDOCK:   -6.23 KCAL/MOL
REMARK 924 INTRA-LIGAND FREE ENERGY PREDICTED BY IDOCK:   -0.87 KCAL/MOL
REMARK 927      BINDING AFFINITY PREDICTED BY RF-SCORE:    0.00 PKD
ROOT
HETATM    1  C   UNL     1     -10.845   5.019  73.601  1.00  0.00    -0.369 C  
HETATM    2  C   UNL     1     -10.908   6.157  72.625  1.00  0.00    -0.279 A  
HETATM    3  C   UNL     1      -9.813   7.001  72.443  1.00  0.00    -0.172 A  
HETATM    4  C   UNL     1      -9.917   8.130  71.619  1.00  0.00    -0.252 A  
HETATM    5  C   UNL     1     -11.085   8.420  70.895  1.00  0.00    -0.289 A  
HETATM    6  C   UNL     1     -12.162   7.527  71.052  1.00  0.00    -0.288 A  
HETATM    7  C   UNL     1     -12.084   6.426  71.919  1.00  0.00    -0.362 A  
ENDROOT
BRANCH   5   8
HETATM    8  C   UNL     1     -11.242   9.673  70.071  1.00  0.00    -0.271 C  
HETATM    9  C   UNL     1     -10.811   9.739  68.782  1.00  0.00    -0.219 C  
BRANCH   8  10
HETATM   10  C   UNL     1     -11.864  10.943  70.591  1.00  0.00    -0.352 A  
HETATM   11  N   UNL     1     -11.538  12.096  69.949  1.00  0.00    -0.263 NA 
HETATM   12  C   UNL     1     -12.753  10.949  71.673  1.00  0.00    -0.498 A  
HETATM   13  C   UNL     1     -13.326  12.155  72.080  1.00  0.00    -0.438 A  
HETATM   14  C   UNL     1     -12.086  13.252  70.383  1.00  0.00    -0.327 A  
HETATM   15  C   UNL     1     -12.983  13.329  71.430  1.00  0.00    -0.398 A  
ENDBRANCH   8  10
BRANCH   9  16
HETATM   16  C   UNL     1     -10.241   8.663  67.903  1.00  0.00    -0.219 C  
BRANCH  16  17
HETATM   17  N   UNL     1     -10.183   9.015  66.480  1.00  0.00    -0.273 NA 
HETATM   18  C   UNL     1      -9.904  10.698  64.891  1.00  0.00    -0.363 C  
HETATM   19  C   UNL     1      -8.704   9.774  64.769  1.00  0.00    -0.216 C  
HETATM   20  C   UNL     1     -10.407  10.453  66.297  1.00  0.00    -0.203 C  
HETATM   21  C   UNL     1      -8.891   8.716  65.853  1.00  0.00    -0.184 C  
ENDBRANCH  16  17
ENDBRANCH   9  16
ENDBRANCH   5   8
TORSDOF 4
ENDMDL
MODEL       72
REMARK 921   NORMALIZED FREE ENERGY PREDICTED BY IDOCK:   -5.10 KCAL/MOL
REMARK 922        TOTAL FREE ENERGY PREDICTED BY IDOCK:   -7.10 KCAL/MOL
REMARK 923 INTER-LIGAND FREE ENERGY PREDICTED BY IDOCK:   -6.18 KCAL/MOL
REMARK 924 INTRA-LIGAND FREE ENERGY PREDICTED BY IDOCK:   -0.92 KCAL/MOL
REMARK 927      BINDING AFFINITY PREDICTED BY RF-SCORE:    0.00 PKD
ROOT
HETATM    1  C   UNL     1      -7.921  10.381  64.836  1.00  0.00    -0.115 C  
HETATM    2  C   UNL     1      -8.689  10.154  66.105  1.00  0.00    -0.154 A  
HETATM    3  C   UNL     1     -10.027   9.763  66.068  1.00  0.00    -0.342 A  
HETATM    4  C   UNL     1     -10.770   9.666  67.253  1.00  0.00    -0.284 A  
HETATM    5  C   UNL     1     -10.195   9.887  68.515  1.00  0.00    -0.199 A  
HETATM    6  C   UNL     1      -8.830  10.231  68.534  1.00  0.00    -0.127 A  
HETATM    7  C   UNL     1      -8.094  10.384  67.349  1.00  0.00    -0.107 A  
ENDROOT
BRANCH   5   8
HETATM    8  C   UNL     1     -10.999   9.869  69.791  1.00  0.00    -0.304 C  
HETATM    9  C   UNL     1     -11.651  10.976  70.239  1.00  0.00    -0.414 C  
BRANCH   8  10
HETATM   10  C   UNL     1     -11.140   8.655  70.672  1.00  0.00    -0.249 A  
HETATM   11  N   UNL     1     -11.277   8.877  72.006  1.00  0.00    -0.368 NA 
HETATM   12  C   UNL     1     -11.151   7.355  70.154  1.00  0.00    -0.265 A  
HETATM   13  C   UNL     1     -11.326   6.275  71.021  1.00  0.00    -0.378 A  
HETATM   14  C   UNL     1     -11.417   7.811  72.825  1.00  0.00    -0.359 A  
HETATM   15  C   UNL     1     -11.455   6.504  72.382  1.00  0.00    -0.306 A  
ENDBRANCH   8  10
BRANCH   9  16
HETATM   16  C   UNL     1     -11.821  12.320  69.591  1.00  0.00    -0.324 C  
BRANCH  16  17
HETATM   17  N   UNL     1     -12.643  13.260  70.361  1.00  0.00    -0.198 NA 
HETATM   18  C   UNL     1     -13.458  13.887  72.453  1.00  0.00    -0.661 C  
HETATM   19  C   UNL     1     -12.521  14.992  71.996  1.00  0.00    -0.409 C  
HETATM   20  C   UNL     1     -13.008  12.681  71.657  1.00  0.00    -0.299 C  
HETATM   21  C   UNL     1     -11.968  14.529  70.651  1.00  0.00    -0.319 C  
ENDBRANCH  16  17
ENDBRANCH   9  16
ENDBRANCH   5   8
TORSDOF 4
ENDMDL
MODEL       73
REMARK 921   NORMALIZED FREE ENERGY PREDICTED BY IDOCK:   -5.07 KCAL/MOL
REMARK 922        TOTAL FREE ENERGY PREDICTED BY IDOCK:   -7.06 KCAL/MOL
REMARK 923 INTER-LIGAND FREE ENERGY PREDICTED BY IDOCK:   -6.28 KCAL/MOL
REMARK 924 INTRA-LIGAND FREE ENERGY PREDICTED BY IDOCK:   -0.79 KCAL/MOL
REMARK 927      BINDING AFFINITY PREDICTED BY RF-SCORE:    0.00 PKD
ROOT
HETATM    1  C   UNL     1      -9.216   8.714  66.018  1.00  0.00    -0.276 C  
HETATM    2  C   UNL     1      -9.700   8.510  67.423  1.00  0.00    -0.222 A  
HETATM    3  C   UNL     1     -10.484   7.405  67.754  1.00  0.00    -0.298 A  
HETATM    4  C   UNL     1     -11.030   7.282  69.039  1.00  0.00    -0.077 A  
HETATM    5  C   UNL     1     -10.760   8.211  70.057  1.00  0.00    -0.243 A  
HETATM    6  C   UNL     1      -9.924   9.292  69.717  1.00  0.00    -0.213 A  
HETATM    7  C   UNL     1      -9.420   9.452  68.418  1.00  0.00    -0.148 A  
ENDROOT
BRANCH   5   8
HETATM    8  C   UNL     1     -11.404   8.138  71.418  1.00  0.00    -0.299 C  
HETATM    9  C   UNL     1     -12.370   9.018  71.799  1.00  0.00    -0.438 C  
BRANCH   8  10
HETATM   10  C   UNL     1     -11.038   7.114  72.462  1.00  0.00    -0.280 A  
HETATM   11  N   UNL     1     -11.584   5.877  72.327  1.00  0.00    -0.303 NA 
HETATM   12  C   UNL     1     -10.164   7.404  73.516  1.00  0.00    -0.400 A  
HETATM   13  C   UNL     1      -9.834   6.399  74.427  1.00  0.00    -0.338 A  
HETATM   14  C   UNL     1     -11.269   4.932  73.240  1.00  0.00    -0.345 A  
HETATM   15  C   UNL     1     -10.401   5.141  74.292  1.00  0.00    -0.314 A  
ENDBRANCH   8  10
BRANCH   9  16
HETATM   16  C   UNL     1     -13.054  10.096  71.008  1.00  0.00    -0.375 C  
BRANCH  16  17
HETATM   17  N   UNL     1     -12.473  11.431  71.183  1.00  0.00    -0.380 NA 
HETATM   18  C   UNL     1     -12.022  13.509  70.226  1.00  0.00    -0.386 C  
HETATM   19  C   UNL     1     -13.037  13.745  71.331  1.00  0.00    -0.413 C  
HETATM   20  C   UNL     1     -12.197  12.046  69.881  1.00  0.00    -0.179 C  
HETATM   21  C   UNL     1     -13.349  12.363  71.901  1.00  0.00    -0.349 C  
ENDBRANCH  16  17
ENDBRANCH   9  16
ENDBRANCH   5   8
TORSDOF 4
ENDMDL
MODEL       74
REMARK 921   NORMALIZED FREE ENERGY PREDICTED BY IDOCK:   -5.07 KCAL/MOL
REMARK 922        TOTAL FREE ENERGY PREDICTED BY IDOCK:   -7.06 KCAL/MOL
REMARK 923 INTER-LIGAND FREE ENERGY PREDICTED BY IDOCK:   -6.39 KCAL/MOL
REMARK 924 INTRA-LIGAND FREE ENERGY PREDICTED BY IDOCK:   -0.67 KCAL/MOL
REMARK 927      BINDING AFFINITY PREDICTED BY RF-SCORE:    0.00 PKD
ROOT
HETATM    1  C   UNL     1     -10.268  19.919  65.727  1.00  0.00    -0.486 C  
HETATM    2  C   UNL     1     -10.452  18.719  66.608  1.00  0.00    -0.483 A  
HETATM    3  C   UNL     1     -10.263  18.811  67.987  1.00  0.00    -0.438 A  
HETATM    4  C   UNL     1     -10.322  17.663  68.789  1.00  0.00    -0.348 A  
HETATM    5  C   UNL     1     -10.638  16.400  68.263  1.00  0.00    -0.318 A  
HETATM    6  C   UNL     1     -10.877  16.337  66.877  1.00  0.00    -0.151 A  
HETATM    7  C   UNL     1     -10.764  17.471  66.059  1.00  0.00    -0.116 A  
ENDROOT
BRANCH   5   8
HETATM    8  C   UNL     1     -10.623  15.144  69.097  1.00  0.00    -0.256 C  
HETATM    9  C   UNL     1      -9.813  14.094  68.793  1.00  0.00    -0.168 C  
BRANCH   8  10
HETATM   10  C   UNL     1     -11.495  14.936  70.309  1.00  0.00    -0.271 A  
HETATM   11  N   UNL     1     -11.479  15.914  71.252  1.00  0.00    -0.417 NA 
HETATM   12  C   UNL     1     -12.301  13.802  70.461  1.00  0.00    -0.429 A  
HETATM   13  C   UNL     1     -13.116  13.689  71.590  1.00  0.00    -0.455 A  
HETATM   14  C   UNL     1     -12.257  15.765  72.347  1.00  0.00    -0.472 A  
HETATM   15  C   UNL     1     -13.090  14.684  72.554  1.00  0.00    -0.503 A  
ENDBRANCH   8  10
BRANCH   9  16
HETATM   16  C   UNL     1      -8.752  13.974  67.737  1.00  0.00    -0.185 C  
BRANCH  16  17
HETATM   17  N   UNL     1      -7.490  14.643  68.072  1.00  0.00    -0.118 NA 
HETATM   18  C   UNL     1      -6.214  16.590  67.945  1.00  0.00    -0.148 C  
HETATM   19  C   UNL     1      -6.559  16.385  69.410  1.00  0.00    -0.210 C  
HETATM   20  C   UNL     1      -7.282  15.811  67.210  1.00  0.00    -0.219 C  
HETATM   21  C   UNL     1      -7.434  15.135  69.453  1.00  0.00    -0.204 C  
ENDBRANCH  16  17
ENDBRANCH   9  16
ENDBRANCH   5   8
TORSDOF 4
ENDMDL
MODEL       75
REMARK 921   NORMALIZED FREE ENERGY PREDICTED BY IDOCK:   -5.04 KCAL/MOL
REMARK 922        TOTAL FREE ENERGY PREDICTED BY IDOCK:   -7.02 KCAL/MOL
REMARK 923 INTER-LIGAND FREE ENERGY PREDICTED BY IDOCK:   -6.18 KCAL/MOL
REMARK 924 INTRA-LIGAND FREE ENERGY PREDICTED BY IDOCK:   -0.84 KCAL/MOL
REMARK 927      BINDING AFFINITY PREDICTED BY RF-SCORE:    0.00 PKD
ROOT
HETATM    1  C   UNL     1     -12.042   9.478  71.739  1.00  0.00    -0.459 C  
HETATM    2  C   UNL     1     -11.540  10.113  70.476  1.00  0.00    -0.411 A  
HETATM    3  C   UNL     1     -10.268   9.817  69.986  1.00  0.00    -0.308 A  
HETATM    4  C   UNL     1      -9.761  10.500  68.872  1.00  0.00    -0.206 A  
HETATM    5  C   UNL     1     -10.521  11.447  68.166  1.00  0.00    -0.212 A  
HETATM    6  C   UNL     1     -11.822  11.693  68.646  1.00  0.00    -0.370 A  
HETATM    7  C   UNL     1     -12.316  11.055  69.794  1.00  0.00    -0.331 A  
ENDROOT
BRANCH   5   8
HETATM    8  C   UNL     1      -9.961  12.249  67.019  1.00  0.00    -0.220 C  
HETATM    9  C   UNL     1      -9.443  13.493  67.204  1.00  0.00    -0.244 C  
BRANCH   8  10
HETATM   10  C   UNL     1      -9.937  11.762  65.593  1.00  0.00    -0.240 A  
HETATM   11  N   UNL     1      -9.149  10.688  65.324  1.00  0.00    -0.187 NA 
HETATM   12  C   UNL     1     -10.698  12.366  64.585  1.00  0.00    -0.339 A  
HETATM   13  C   UNL     1     -10.660  11.841  63.292  1.00  0.00    -0.427 A  
HETATM   14  C   UNL     1      -9.111  10.218  64.058  1.00  0.00    -0.251 A  
HETATM   15  C   UNL     1      -9.848  10.752  63.020  1.00  0.00    -0.344 A  
ENDBRANCH   8  10
BRANCH   9  16
HETATM   16  C   UNL     1      -9.209  14.258  68.475  1.00  0.00    -0.197 C  
BRANCH  16  17
HETATM   17  N   UNL     1      -9.922  15.538  68.547  1.00  0.00    -0.205 NA 
HETATM   18  C   UNL     1      -9.772  17.865  68.549  1.00  0.00    -0.352 C  
HETATM   19  C   UNL     1     -10.493  17.471  67.271  1.00  0.00    -0.327 C  
HETATM   20  C   UNL     1      -9.005  16.617  68.930  1.00  0.00    -0.239 C  
HETATM   21  C   UNL     1     -10.530  15.945  67.276  1.00  0.00    -0.310 C  
ENDBRANCH  16  17
ENDBRANCH   9  16
ENDBRANCH   5   8
TORSDOF 4
ENDMDL
MODEL       76
REMARK 921   NORMALIZED FREE ENERGY PREDICTED BY IDOCK:   -5.02 KCAL/MOL
REMARK 922        TOTAL FREE ENERGY PREDICTED BY IDOCK:   -7.00 KCAL/MOL
REMARK 923 INTER-LIGAND FREE ENERGY PREDICTED BY IDOCK:   -6.28 KCAL/MOL
REMARK 924 INTRA-LIGAND FREE ENERGY PREDICTED BY IDOCK:   -0.72 KCAL/MOL
REMARK 927      BINDING AFFINITY PREDICTED BY RF-SCORE:    0.00 PKD
ROOT
HETATM    1  C   UNL     1      -5.334  14.747  69.534  1.00  0.00    -0.091 C  
HETATM    2  C   UNL     1      -6.665  14.485  68.892  1.00  0.00    -0.099 A  
HETATM    3  C   UNL     1      -7.435  15.536  68.393  1.00  0.00    -0.115 A  
HETATM    4  C   UNL     1      -8.725  15.297  67.901  1.00  0.00    -0.164 A  
HETATM    5  C   UNL     1      -9.267  14.004  67.822  1.00  0.00    -0.195 A  
HETATM    6  C   UNL     1      -8.454  12.952  68.284  1.00  0.00    -0.161 A  
HETATM    7  C   UNL     1      -7.184  13.188  68.829  1.00  0.00    -0.085 A  
ENDROOT
BRANCH   5   8
HETATM    8  C   UNL     1     -10.683  13.741  67.374  1.00  0.00    -0.279 C  
HETATM    9  C   UNL     1     -11.749  14.026  68.170  1.00  0.00    -0.387 C  
BRANCH   8  10
HETATM   10  C   UNL     1     -11.038  13.140  66.039  1.00  0.00    -0.280 A  
HETATM   11  N   UNL     1     -10.005  12.762  65.241  1.00  0.00    -0.231 NA 
HETATM   12  C   UNL     1     -12.364  12.956  65.633  1.00  0.00    -0.482 A  
HETATM   13  C   UNL     1     -12.626  12.356  64.400  1.00  0.00    -0.489 A  
HETATM   14  C   UNL     1     -10.287  12.210  64.040  1.00  0.00    -0.385 A  
HETATM   15  C   UNL     1     -11.570  11.981  63.584  1.00  0.00    -0.578 A  
ENDBRANCH   8  10
BRANCH   9  16
HETATM   16  C   UNL     1     -11.795  14.713  69.505  1.00  0.00    -0.330 C  
BRANCH  16  17
HETATM   17  N   UNL     1     -11.976  13.805  70.643  1.00  0.00    -0.301 NA 
HETATM   18  C   UNL     1     -13.448  12.899  72.208  1.00  0.00    -0.631 C  
HETATM   19  C   UNL     1     -13.019  11.762  71.297  1.00  0.00    -0.353 C  
HETATM   20  C   UNL     1     -13.201  14.139  71.378  1.00  0.00    -0.347 C  
HETATM   21  C   UNL     1     -12.099  12.396  70.257  1.00  0.00    -0.297 C  
ENDBRANCH  16  17
ENDBRANCH   9  16
ENDBRANCH   5   8
TORSDOF 4
ENDMDL
MODEL       77
REMARK 921   NORMALIZED FREE ENERGY PREDICTED BY IDOCK:   -5.02 KCAL/MOL
REMARK 922        TOTAL FREE ENERGY PREDICTED BY IDOCK:   -7.00 KCAL/MOL
REMARK 923 INTER-LIGAND FREE ENERGY PREDICTED BY IDOCK:   -6.18 KCAL/MOL
REMARK 924 INTRA-LIGAND FREE ENERGY PREDICTED BY IDOCK:   -0.82 KCAL/MOL
REMARK 927      BINDING AFFINITY PREDICTED BY RF-SCORE:    0.00 PKD
ROOT
HETATM    1  C   UNL     1     -11.557  16.039  64.429  1.00  0.00    -0.212 C  
HETATM    2  C   UNL     1     -11.400  14.939  65.437  1.00  0.00    -0.346 A  
HETATM    3  C   UNL     1     -10.414  15.008  66.420  1.00  0.00    -0.296 A  
HETATM    4  C   UNL     1     -10.196  13.926  67.284  1.00  0.00    -0.249 A  
HETATM    5  C   UNL     1     -10.992  12.770  67.247  1.00  0.00    -0.294 A  
HETATM    6  C   UNL     1     -12.015  12.740  66.281  1.00  0.00    -0.460 A  
HETATM    7  C   UNL     1     -12.203  13.796  65.376  1.00  0.00    -0.465 A  
ENDROOT
BRANCH   5   8
HETATM    8  C   UNL     1     -10.718  11.565  68.111  1.00  0.00    -0.242 C  
HETATM    9  C   UNL     1      -9.786  10.636  67.766  1.00  0.00    -0.179 C  
BRANCH   8  10
HETATM   10  C   UNL     1     -11.443  11.280  69.401  1.00  0.00    -0.301 A  
HETATM   11  N   UNL     1     -12.124  12.313  69.965  1.00  0.00    -0.303 NA 
HETATM   12  C   UNL     1     -11.441  10.012  69.993  1.00  0.00    -0.310 A  
HETATM   13  C   UNL     1     -12.167   9.804  71.168  1.00  0.00    -0.453 A  
HETATM   14  C   UNL     1     -12.794  12.089  71.116  1.00  0.00    -0.235 A  
HETATM   15  C   UNL     1     -12.851  10.862  71.745  1.00  0.00    -0.509 A  
ENDBRANCH   8  10
BRANCH   9  16
HETATM   16  C   UNL     1      -8.811  10.630  66.624  1.00  0.00    -0.141 C  
BRANCH  16  17
HETATM   17  N   UNL     1      -9.382  10.189  65.347  1.00  0.00    -0.196 NA 
HETATM   18  C   UNL     1      -9.725  10.660  63.089  1.00  0.00    -0.375 C  
HETATM   19  C   UNL     1      -8.795   9.461  63.152  1.00  0.00    -0.207 C  
HETATM   20  C   UNL     1      -9.547  11.326  64.436  1.00  0.00    -0.225 C  
HETATM   21  C   UNL     1      -8.551   9.210  64.638  1.00  0.00    -0.182 C  
ENDBRANCH  16  17
ENDBRANCH   9  16
ENDBRANCH   5   8
TORSDOF 4
ENDMDL
MODEL       78
REMARK 921   NORMALIZED FREE ENERGY PREDICTED BY IDOCK:   -5.02 KCAL/MOL
REMARK 922        TOTAL FREE ENERGY PREDICTED BY IDOCK:   -7.00 KCAL/MOL
REMARK 923 INTER-LIGAND FREE ENERGY PREDICTED BY IDOCK:   -5.84 KCAL/MOL
REMARK 924 INTRA-LIGAND FREE ENERGY PREDICTED BY IDOCK:   -1.16 KCAL/MOL
REMARK 927      BINDING AFFINITY PREDICTED BY RF-SCORE:    0.00 PKD
ROOT
HETATM    1  C   UNL     1      -5.431  14.584  67.851  1.00  0.00    -0.093 C  
HETATM    2  C   UNL     1      -6.691  13.775  67.753  1.00  0.00    -0.180 A  
HETATM    3  C   UNL     1      -7.926  14.338  68.072  1.00  0.00    -0.142 A  
HETATM    4  C   UNL     1      -9.082  13.545  68.091  1.00  0.00    -0.199 A  
HETATM    5  C   UNL     1      -9.064  12.189  67.728  1.00  0.00    -0.189 A  
HETATM    6  C   UNL     1      -7.816  11.653  67.359  1.00  0.00    -0.147 A  
HETATM    7  C   UNL     1      -6.645  12.425  67.391  1.00  0.00    -0.157 A  
ENDROOT
BRANCH   5   8
HETATM    8  C   UNL     1     -10.282  11.304  67.823  1.00  0.00    -0.203 C  
HETATM    9  C   UNL     1     -10.979  10.927  66.717  1.00  0.00    -0.248 C  
BRANCH   8  10
HETATM   10  C   UNL     1     -10.832  10.778  69.124  1.00  0.00    -0.237 A  
HETATM   11  N   UNL     1     -12.104  11.136  69.442  1.00  0.00    -0.341 NA 
HETATM   12  C   UNL     1     -10.087   9.945  69.966  1.00  0.00    -0.308 A  
HETATM   13  C   UNL     1     -10.670   9.460  71.138  1.00  0.00    -0.417 A  
HETATM   14  C   UNL     1     -12.633  10.674  70.596  1.00  0.00    -0.365 A  
HETATM   15  C   UNL     1     -11.964   9.834  71.464  1.00  0.00    -0.488 A  
ENDBRANCH   8  10
BRANCH   9  16
HETATM   16  C   UNL     1     -10.681  11.168  65.265  1.00  0.00    -0.203 C  
BRANCH  16  17
HETATM   17  N   UNL     1     -11.265  12.402  64.727  1.00  0.00    -0.301 NA 
HETATM   18  C   UNL     1     -12.515  14.323  65.153  1.00  0.00    -0.423 C  
HETATM   19  C   UNL     1     -11.104  14.780  64.825  1.00  0.00    -0.393 C  
HETATM   20  C   UNL     1     -12.335  12.889  65.603  1.00  0.00    -0.423 C  
HETATM   21  C   UNL     1     -10.302  13.500  64.602  1.00  0.00    -0.385 C  
ENDBRANCH  16  17
ENDBRANCH   9  16
ENDBRANCH   5   8
TORSDOF 4
ENDMDL
MODEL       79
REMARK 921   NORMALIZED FREE ENERGY PREDICTED BY IDOCK:   -5.00 KCAL/MOL
REMARK 922        TOTAL FREE ENERGY PREDICTED BY IDOCK:   -6.98 KCAL/MOL
REMARK 923 INTER-LIGAND FREE ENERGY PREDICTED BY IDOCK:   -6.09 KCAL/MOL
REMARK 924 INTRA-LIGAND FREE ENERGY PREDICTED BY IDOCK:   -0.89 KCAL/MOL
REMARK 927      BINDING AFFINITY PREDICTED BY RF-SCORE:    0.00 PKD
ROOT
HETATM    1  C   UNL     1      -5.628  16.774  67.394  1.00  0.00    -0.180 C  
HETATM    2  C   UNL     1      -6.897  16.061  67.757  1.00  0.00    -0.168 A  
HETATM    3  C   UNL     1      -7.000  15.352  68.954  1.00  0.00    -0.127 A  
HETATM    4  C   UNL     1      -8.144  14.593  69.232  1.00  0.00    -0.030 A  
HETATM    5  C   UNL     1      -9.251  14.566  68.368  1.00  0.00    -0.196 A  
HETATM    6  C   UNL     1      -9.148  15.329  67.189  1.00  0.00    -0.226 A  
HETATM    7  C   UNL     1      -7.984  16.046  66.877  1.00  0.00    -0.283 A  
ENDROOT
BRANCH   5   8
HETATM    8  C   UNL     1     -10.453  13.689  68.613  1.00  0.00    -0.242 C  
HETATM    9  C   UNL     1     -11.569  14.163  69.230  1.00  0.00    -0.350 C  
BRANCH   8  10
HETATM   10  C   UNL     1     -10.523  12.237  68.215  1.00  0.00    -0.226 A  
HETATM   11  N   UNL     1     -10.291  11.946  66.908  1.00  0.00    -0.208 NA 
HETATM   12  C   UNL     1     -10.794  11.223  69.141  1.00  0.00    -0.269 A  
HETATM   13  C   UNL     1     -10.805   9.893  68.715  1.00  0.00    -0.240 A  
HETATM   14  C   UNL     1     -10.335  10.653  66.519  1.00  0.00    -0.241 A  
HETATM   15  C   UNL     1     -10.578   9.601  67.379  1.00  0.00    -0.333 A  
ENDBRANCH   8  10
BRANCH   9  16
HETATM   16  C   UNL     1     -11.903  15.559  69.672  1.00  0.00    -0.366 C  
BRANCH  16  17
HETATM   17  N   UNL     1     -12.650  15.629  70.933  1.00  0.00    -0.454 NA 
HETATM   18  C   UNL     1     -13.786  14.463  72.602  1.00  0.00    -0.546 C  
HETATM   19  C   UNL     1     -12.538  15.045  73.243  1.00  0.00    -0.600 C  
HETATM   20  C   UNL     1     -13.444  14.412  71.128  1.00  0.00    -0.306 C  
HETATM   21  C   UNL     1     -11.793  15.757  72.116  1.00  0.00    -0.496 C  
ENDBRANCH  16  17
ENDBRANCH   9  16
ENDBRANCH   5   8
TORSDOF 4
ENDMDL
MODEL       80
REMARK 921   NORMALIZED FREE ENERGY PREDICTED BY IDOCK:   -4.98 KCAL/MOL
REMARK 922        TOTAL FREE ENERGY PREDICTED BY IDOCK:   -6.95 KCAL/MOL
REMARK 923 INTER-LIGAND FREE ENERGY PREDICTED BY IDOCK:   -6.58 KCAL/MOL
REMARK 924 INTRA-LIGAND FREE ENERGY PREDICTED BY IDOCK:   -0.37 KCAL/MOL
REMARK 927      BINDING AFFINITY PREDICTED BY RF-SCORE:    0.00 PKD
ROOT
HETATM    1  C   UNL     1     -12.889  12.205  63.909  1.00  0.00    -0.420 C  
HETATM    2  C   UNL     1     -12.084  13.210  64.678  1.00  0.00    -0.462 A  
HETATM    3  C   UNL     1     -11.861  14.488  64.165  1.00  0.00    -0.290 A  
HETATM    4  C   UNL     1     -11.012  15.381  64.832  1.00  0.00    -0.453 A  
HETATM    5  C   UNL     1     -10.413  15.066  66.063  1.00  0.00    -0.326 A  
HETATM    6  C   UNL     1     -10.692  13.790  66.589  1.00  0.00    -0.277 A  
HETATM    7  C   UNL     1     -11.495  12.869  65.900  1.00  0.00    -0.387 A  
ENDROOT
BRANCH   5   8
HETATM    8  C   UNL     1      -9.433  15.982  66.750  1.00  0.00    -0.250 C  
HETATM    9  C   UNL     1      -8.330  15.501  67.386  1.00  0.00    -0.202 C  
BRANCH   8  10
HETATM   10  C   UNL     1      -9.588  17.480  66.806  1.00  0.00    -0.282 A  
HETATM   11  N   UNL     1      -8.625  18.221  66.197  1.00  0.00    -0.488 NA 
HETATM   12  C   UNL     1     -10.677  18.094  67.435  1.00  0.00    -0.355 A  
HETATM   13  C   UNL     1     -10.782  19.486  67.416  1.00  0.00    -0.589 A  
HETATM   14  C   UNL     1      -8.738  19.567  66.218  1.00  0.00    -0.359 A  
HETATM   15  C   UNL     1      -9.793  20.238  66.803  1.00  0.00    -0.586 A  
ENDBRANCH   8  10
BRANCH   9  16
HETATM   16  C   UNL     1      -7.797  14.099  67.457  1.00  0.00    -0.192 C  
BRANCH  16  17
HETATM   17  N   UNL     1      -7.441  13.658  68.810  1.00  0.00    -0.111 NA 
HETATM   18  C   UNL     1      -5.990  12.413  70.144  1.00  0.00    -0.143 C  
HETATM   19  C   UNL     1      -5.772  13.873  70.502  1.00  0.00    -0.161 C  
HETATM   20  C   UNL     1      -6.588  12.467  68.755  1.00  0.00    -0.088 C  
HETATM   21  C   UNL     1      -6.697  14.662  69.578  1.00  0.00    -0.158 C  
ENDBRANCH  16  17
ENDBRANCH   9  16
ENDBRANCH   5   8
TORSDOF 4
ENDMDL
MODEL       81
REMARK 921   NORMALIZED FREE ENERGY PREDICTED BY IDOCK:   -4.98 KCAL/MOL
REMARK 922        TOTAL FREE ENERGY PREDICTED BY IDOCK:   -6.94 KCAL/MOL
REMARK 923 INTER-LIGAND FREE ENERGY PREDICTED BY IDOCK:   -6.06 KCAL/MOL
REMARK 924 INTRA-LIGAND FREE ENERGY PREDICTED BY IDOCK:   -0.89 KCAL/MOL
REMARK 927      BINDING AFFINITY PREDICTED BY RF-SCORE:    0.00 PKD
ROOT
HETATM    1  C   UNL     1     -10.851   9.496  70.933  1.00  0.00    -0.407 C  
HETATM    2  C   UNL     1     -10.789  10.394  69.733  1.00  0.00    -0.342 A  
HETATM    3  C   UNL     1      -9.562  10.765  69.183  1.00  0.00    -0.169 A  
HETATM    4  C   UNL     1      -9.507  11.695  68.136  1.00  0.00    -0.191 A  
HETATM    5  C   UNL     1     -10.666  12.236  67.555  1.00  0.00    -0.255 A  
HETATM    6  C   UNL     1     -11.896  11.809  68.091  1.00  0.00    -0.324 A  
HETATM    7  C   UNL     1     -11.958  10.921  69.176  1.00  0.00    -0.359 A  
ENDROOT
BRANCH   5   8
HETATM    8  C   UNL     1     -10.621  13.299  66.487  1.00  0.00    -0.289 C  
HETATM    9  C   UNL     1     -10.654  12.984  65.164  1.00  0.00    -0.327 C  
BRANCH   8  10
HETATM   10  C   UNL     1     -10.527  14.774  66.781  1.00  0.00    -0.282 A  
HETATM   11  N   UNL     1     -11.342  15.261  67.754  1.00  0.00    -0.334 NA 
HETATM   12  C   UNL     1      -9.633  15.613  66.105  1.00  0.00    -0.362 A  
HETATM   13  C   UNL     1      -9.567  16.963  66.453  1.00  0.00    -0.305 A  
HETATM   14  C   UNL     1     -11.275  16.577  68.050  1.00  0.00    -0.202 A  
HETATM   15  C   UNL     1     -10.406  17.458  67.438  1.00  0.00    -0.343 A  
ENDBRANCH   8  10
BRANCH   9  16
HETATM   16  C   UNL     1     -10.843  11.651  64.498  1.00  0.00    -0.324 C  
BRANCH  16  17
HETATM   17  N   UNL     1      -9.592  10.973  64.142  1.00  0.00    -0.248 NA 
HETATM   18  C   UNL     1      -8.376   8.984  64.145  1.00  0.00    -0.178 C  
HETATM   19  C   UNL     1      -8.674   9.315  62.692  1.00  0.00    -0.225 C  
HETATM   20  C   UNL     1      -9.442   9.734  64.913  1.00  0.00    -0.265 C  
HETATM   21  C   UNL     1      -9.512  10.591  62.729  1.00  0.00    -0.325 C  
ENDBRANCH  16  17
ENDBRANCH   9  16
ENDBRANCH   5   8
TORSDOF 4
ENDMDL
MODEL       82
REMARK 921   NORMALIZED FREE ENERGY PREDICTED BY IDOCK:   -4.97 KCAL/MOL
REMARK 922        TOTAL FREE ENERGY PREDICTED BY IDOCK:   -6.94 KCAL/MOL
REMARK 923 INTER-LIGAND FREE ENERGY PREDICTED BY IDOCK:   -6.13 KCAL/MOL
REMARK 924 INTRA-LIGAND FREE ENERGY PREDICTED BY IDOCK:   -0.81 KCAL/MOL
REMARK 927      BINDING AFFINITY PREDICTED BY RF-SCORE:    0.00 PKD
ROOT
HETATM    1  C   UNL     1     -10.150  19.568  68.333  1.00  0.00    -0.546 C  
HETATM    2  C   UNL     1     -10.153  18.165  67.800  1.00  0.00    -0.371 A  
HETATM    3  C   UNL     1     -10.776  17.136  68.505  1.00  0.00    -0.326 A  
HETATM    4  C   UNL     1     -10.675  15.810  68.061  1.00  0.00    -0.296 A  
HETATM    5  C   UNL     1     -10.013  15.470  66.870  1.00  0.00    -0.251 A  
HETATM    6  C   UNL     1      -9.435  16.530  66.146  1.00  0.00    -0.347 A  
HETATM    7  C   UNL     1      -9.483  17.852  66.612  1.00  0.00    -0.303 A  
ENDROOT
BRANCH   5   8
HETATM    8  C   UNL     1      -9.824  14.042  66.423  1.00  0.00    -0.306 C  
HETATM    9  C   UNL     1      -8.816  13.269  66.911  1.00  0.00    -0.186 C  
BRANCH   8  10
HETATM   10  C   UNL     1     -10.707  13.360  65.410  1.00  0.00    -0.300 A  
HETATM   11  N   UNL     1     -10.084  12.706  64.394  1.00  0.00    -0.293 NA 
HETATM   12  C   UNL     1     -12.103  13.375  65.506  1.00  0.00    -0.467 A  
HETATM   13  C   UNL     1     -12.861  12.690  64.556  1.00  0.00    -0.356 A  
HETATM   14  C   UNL     1     -10.844  12.074  63.473  1.00  0.00    -0.444 A  
HETATM   15  C   UNL     1     -12.224  12.032  63.516  1.00  0.00    -0.653 A  
ENDBRANCH   8  10
BRANCH   9  16
HETATM   16  C   UNL     1      -7.815  13.564  67.990  1.00  0.00    -0.147 C  
BRANCH  16  17
HETATM   17  N   UNL     1      -6.966  12.424  68.351  1.00  0.00    -0.083 NA 
HETATM   18  C   UNL     1      -5.530  11.473  69.923  1.00  0.00    -0.078 C  
HETATM   19  C   UNL     1      -6.776  10.605  69.883  1.00  0.00    -0.147 C  
HETATM   20  C   UNL     1      -6.003  12.807  69.389  1.00  0.00    -0.104 C  
HETATM   21  C   UNL     1      -7.713  11.280  68.885  1.00  0.00    -0.125 C  
ENDBRANCH  16  17
ENDBRANCH   9  16
ENDBRANCH   5   8
TORSDOF 4
ENDMDL
MODEL       83
REMARK 921   NORMALIZED FREE ENERGY PREDICTED BY IDOCK:   -4.95 KCAL/MOL
REMARK 922        TOTAL FREE ENERGY PREDICTED BY IDOCK:   -6.91 KCAL/MOL
REMARK 923 INTER-LIGAND FREE ENERGY PREDICTED BY IDOCK:   -6.22 KCAL/MOL
REMARK 924 INTRA-LIGAND FREE ENERGY PREDICTED BY IDOCK:   -0.69 KCAL/MOL
REMARK 927      BINDING AFFINITY PREDICTED BY RF-SCORE:    0.00 PKD
ROOT
HETATM    1  C   UNL     1     -12.919  11.331  71.494  1.00  0.00    -0.520 C  
HETATM    2  C   UNL     1     -12.040  10.890  70.360  1.00  0.00    -0.453 A  
HETATM    3  C   UNL     1     -12.284  11.325  69.058  1.00  0.00    -0.211 A  
HETATM    4  C   UNL     1     -11.533  10.817  67.989  1.00  0.00    -0.333 A  
HETATM    5  C   UNL     1     -10.473   9.917  68.182  1.00  0.00    -0.256 A  
HETATM    6  C   UNL     1     -10.210   9.529  69.510  1.00  0.00    -0.225 A  
HETATM    7  C   UNL     1     -10.993   9.989  70.579  1.00  0.00    -0.392 A  
ENDROOT
BRANCH   5   8
HETATM    8  C   UNL     1      -9.711   9.298  67.037  1.00  0.00    -0.241 C  
HETATM    9  C   UNL     1      -9.126  10.061  66.074  1.00  0.00    -0.189 C  
BRANCH   8  10
HETATM   10  C   UNL     1      -9.543   7.812  66.851  1.00  0.00    -0.198 A  
HETATM   11  N   UNL     1      -8.281   7.360  66.630  1.00  0.00    -0.121 NA 
HETATM   12  C   UNL     1     -10.624   6.926  66.919  1.00  0.00    -0.372 A  
HETATM   13  C   UNL     1     -10.394   5.556  66.778  1.00  0.00    -0.321 A  
HETATM   14  C   UNL     1      -8.092   6.031  66.470  1.00  0.00    -0.109 A  
HETATM   15  C   UNL     1      -9.108   5.099  66.543  1.00  0.00    -0.127 A  
ENDBRANCH   8  10
BRANCH   9  16
HETATM   16  C   UNL     1      -8.996  11.554  65.977  1.00  0.00    -0.176 C  
BRANCH  16  17
HETATM   17  N   UNL     1      -9.926  12.179  65.030  1.00  0.00    -0.248 NA 
HETATM   18  C   UNL     1     -11.747  11.897  63.602  1.00  0.00    -0.572 C  
HETATM   19  C   UNL     1     -12.213  12.793  64.737  1.00  0.00    -0.517 C  
HETATM   20  C   UNL     1     -10.561  11.162  64.186  1.00  0.00    -0.368 C  
HETATM   21  C   UNL     1     -11.017  12.915  65.678  1.00  0.00    -0.271 C  
ENDBRANCH  16  17
ENDBRANCH   9  16
ENDBRANCH   5   8
TORSDOF 4
ENDMDL
MODEL       84
REMARK 921   NORMALIZED FREE ENERGY PREDICTED BY IDOCK:   -4.91 KCAL/MOL
REMARK 922        TOTAL FREE ENERGY PREDICTED BY IDOCK:   -6.86 KCAL/MOL
REMARK 923 INTER-LIGAND FREE ENERGY PREDICTED BY IDOCK:   -5.75 KCAL/MOL
REMARK 924 INTRA-LIGAND FREE ENERGY PREDICTED BY IDOCK:   -1.12 KCAL/MOL
REMARK 927      BINDING AFFINITY PREDICTED BY RF-SCORE:    0.00 PKD
ROOT
HETATM    1  C   UNL     1      -9.128   3.788  66.537  1.00  0.00    -0.162 C  
HETATM    2  C   UNL     1      -9.336   5.272  66.601  1.00  0.00    -0.139 A  
HETATM    3  C   UNL     1      -8.328   6.151  66.203  1.00  0.00    -0.128 A  
HETATM    4  C   UNL     1      -8.484   7.533  66.375  1.00  0.00    -0.131 A  
HETATM    5  C   UNL     1      -9.668   8.094  66.880  1.00  0.00    -0.291 A  
HETATM    6  C   UNL     1     -10.693   7.193  67.227  1.00  0.00    -0.399 A  
HETATM    7  C   UNL     1     -10.524   5.805  67.111  1.00  0.00    -0.337 A  
ENDROOT
BRANCH   5   8
HETATM    8  C   UNL     1      -9.820   9.570  67.149  1.00  0.00    -0.239 C  
HETATM    9  C   UNL     1      -9.429  10.125  68.327  1.00  0.00    -0.147 C  
BRANCH   8  10
HETATM   10  C   UNL     1     -10.417  10.541  66.163  1.00  0.00    -0.168 A  
HETATM   11  N   UNL     1     -11.265  11.479  66.662  1.00  0.00    -0.321 NA 
HETATM   12  C   UNL     1     -10.109  10.503  64.799  1.00  0.00    -0.406 A  
HETATM   13  C   UNL     1     -10.666  11.457  63.945  1.00  0.00    -0.462 A  
HETATM   14  C   UNL     1     -11.811  12.372  65.808  1.00  0.00    -0.406 A  
HETATM   15  C   UNL     1     -11.537  12.405  64.455  1.00  0.00    -0.418 A  
ENDBRANCH   8  10
BRANCH   9  16
HETATM   16  C   UNL     1      -8.712   9.503  69.492  1.00  0.00    -0.174 C  
BRANCH  16  17
HETATM   17  N   UNL     1      -9.566   9.244  70.655  1.00  0.00    -0.255 NA 
HETATM   18  C   UNL     1     -11.736   9.077  71.492  1.00  0.00    -0.415 C  
HETATM   19  C   UNL     1     -11.133   7.684  71.553  1.00  0.00    -0.267 C  
HETATM   20  C   UNL     1     -10.913   9.781  70.435  1.00  0.00    -0.312 C  
HETATM   21  C   UNL     1      -9.735   7.818  70.953  1.00  0.00    -0.168 C  
ENDBRANCH  16  17
ENDBRANCH   9  16
ENDBRANCH   5   8
TORSDOF 4
ENDMDL
MODEL       85
REMARK 921   NORMALIZED FREE ENERGY PREDICTED BY IDOCK:   -4.91 KCAL/MOL
REMARK 922        TOTAL FREE ENERGY PREDICTED BY IDOCK:   -6.86 KCAL/MOL
REMARK 923 INTER-LIGAND FREE ENERGY PREDICTED BY IDOCK:   -6.25 KCAL/MOL
REMARK 924 INTRA-LIGAND FREE ENERGY PREDICTED BY IDOCK:   -0.62 KCAL/MOL
REMARK 927      BINDING AFFINITY PREDICTED BY RF-SCORE:    0.00 PKD
ROOT
HETATM    1  C   UNL     1      -9.430  19.738  66.860  1.00  0.00    -0.481 C  
HETATM    2  C   UNL     1      -9.969  18.457  67.426  1.00  0.00    -0.347 A  
HETATM    3  C   UNL     1      -9.844  18.169  68.785  1.00  0.00    -0.362 A  
HETATM    4  C   UNL     1     -10.244  16.923  69.286  1.00  0.00    -0.262 A  
HETATM    5  C   UNL     1     -10.842  15.948  68.471  1.00  0.00    -0.298 A  
HETATM    6  C   UNL     1     -11.006  16.277  67.112  1.00  0.00    -0.114 A  
HETATM    7  C   UNL     1     -10.558  17.501  66.592  1.00  0.00    -0.198 A  
ENDROOT
BRANCH   5   8
HETATM    8  C   UNL     1     -11.201  14.573  68.976  1.00  0.00    -0.289 C  
HETATM    9  C   UNL     1     -10.699  13.448  68.400  1.00  0.00    -0.271 C  
BRANCH   8  10
HETATM   10  C   UNL     1     -12.135  14.325  70.132  1.00  0.00    -0.339 A  
HETATM   11  N   UNL     1     -12.239  13.044  70.575  1.00  0.00    -0.354 NA 
HETATM   12  C   UNL     1     -12.855  15.358  70.744  1.00  0.00    -0.524 A  
HETATM   13  C   UNL     1     -13.674  15.067  71.837  1.00  0.00    -0.548 A  
HETATM   14  C   UNL     1     -13.061  12.788  71.616  1.00  0.00    -0.331 A  
HETATM   15  C   UNL     1     -13.785  13.759  72.279  1.00  0.00    -0.673 A  
ENDBRANCH   8  10
BRANCH   9  16
HETATM   16  C   UNL     1      -9.678  13.300  67.309  1.00  0.00    -0.231 C  
BRANCH  16  17
HETATM   17  N   UNL     1      -8.562  12.409  67.646  1.00  0.00    -0.161 NA 
HETATM   18  C   UNL     1      -6.705  12.027  69.003  1.00  0.00    -0.100 C  
HETATM   19  C   UNL     1      -7.732  10.964  69.353  1.00  0.00    -0.072 C  
HETATM   20  C   UNL     1      -7.529  13.138  68.390  1.00  0.00    -0.124 C  
HETATM   21  C   UNL     1      -8.950  11.272  68.486  1.00  0.00    -0.166 C  
ENDBRANCH  16  17
ENDBRANCH   9  16
ENDBRANCH   5   8
TORSDOF 4
ENDMDL
MODEL       86
REMARK 921   NORMALIZED FREE ENERGY PREDICTED BY IDOCK:   -4.88 KCAL/MOL
REMARK 922        TOTAL FREE ENERGY PREDICTED BY IDOCK:   -6.83 KCAL/MOL
REMARK 923 INTER-LIGAND FREE ENERGY PREDICTED BY IDOCK:   -6.01 KCAL/MOL
REMARK 924 INTRA-LIGAND FREE ENERGY PREDICTED BY IDOCK:   -0.82 KCAL/MOL
REMARK 927      BINDING AFFINITY PREDICTED BY RF-SCORE:    0.00 PKD
ROOT
HETATM    1  C   UNL     1     -10.309  14.314  66.511  1.00  0.00    -0.278 C  
HETATM    2  C   UNL     1     -10.288  12.952  67.140  1.00  0.00    -0.239 A  
HETATM    3  C   UNL     1      -9.082  12.358  67.514  1.00  0.00    -0.185 A  
HETATM    4  C   UNL     1      -9.059  11.041  67.992  1.00  0.00    -0.152 A  
HETATM    5  C   UNL     1     -10.234  10.294  68.182  1.00  0.00    -0.192 A  
HETATM    6  C   UNL     1     -11.445  10.931  67.848  1.00  0.00    -0.344 A  
HETATM    7  C   UNL     1     -11.472  12.228  67.315  1.00  0.00    -0.426 A  
ENDROOT
BRANCH   5   8
HETATM    8  C   UNL     1     -10.220   8.850  68.616  1.00  0.00    -0.221 C  
HETATM    9  C   UNL     1     -10.488   8.488  69.900  1.00  0.00    -0.219 C  
BRANCH   8  10
HETATM   10  C   UNL     1      -9.902   7.704  67.691  1.00  0.00    -0.164 A  
HETATM   11  N   UNL     1      -8.676   7.709  67.104  1.00  0.00    -0.123 NA 
HETATM   12  C   UNL     1     -10.809   6.665  67.453  1.00  0.00    -0.434 A  
HETATM   13  C   UNL     1     -10.437   5.611  66.617  1.00  0.00    -0.340 A  
HETATM   14  C   UNL     1      -8.354   6.690  66.277  1.00  0.00    -0.125 A  
HETATM   15  C   UNL     1      -9.191   5.625  66.011  1.00  0.00    -0.164 A  
ENDBRANCH   8  10
BRANCH   9  16
HETATM   16  C   UNL     1     -10.937   9.327  71.061  1.00  0.00    -0.320 C  
BRANCH  16  17
HETATM   17  N   UNL     1     -12.034   8.741  71.839  1.00  0.00    -0.339 NA 
HETATM   18  C   UNL     1     -14.337   8.609  72.181  1.00  0.00    -0.518 C  
HETATM   19  C   UNL     1     -13.887   7.246  71.683  1.00  0.00    -0.461 C  
HETATM   20  C   UNL     1     -13.252   9.546  71.697  1.00  0.00    -0.406 C  
HETATM   21  C   UNL     1     -12.388   7.381  71.422  1.00  0.00    -0.361 C  
ENDBRANCH  16  17
ENDBRANCH   9  16
ENDBRANCH   5   8
TORSDOF 4
ENDMDL
MODEL       87
REMARK 921   NORMALIZED FREE ENERGY PREDICTED BY IDOCK:   -4.88 KCAL/MOL
REMARK 922        TOTAL FREE ENERGY PREDICTED BY IDOCK:   -6.83 KCAL/MOL
REMARK 923 INTER-LIGAND FREE ENERGY PREDICTED BY IDOCK:   -6.30 KCAL/MOL
REMARK 924 INTRA-LIGAND FREE ENERGY PREDICTED BY IDOCK:   -0.53 KCAL/MOL
REMARK 927      BINDING AFFINITY PREDICTED BY RF-SCORE:    0.00 PKD
ROOT
HETATM    1  C   UNL     1      -9.163  11.324  64.799  1.00  0.00    -0.107 C  
HETATM    2  C   UNL     1      -9.780  11.489  66.157  1.00  0.00    -0.249 A  
HETATM    3  C   UNL     1      -8.979  11.626  67.291  1.00  0.00    -0.169 A  
HETATM    4  C   UNL     1      -9.558  11.662  68.567  1.00  0.00    -0.181 A  
HETATM    5  C   UNL     1     -10.950  11.633  68.757  1.00  0.00    -0.274 A  
HETATM    6  C   UNL     1     -11.742  11.547  67.596  1.00  0.00    -0.283 A  
HETATM    7  C   UNL     1     -11.168  11.453  66.319  1.00  0.00    -0.228 A  
ENDROOT
BRANCH   5   8
HETATM    8  C   UNL     1     -11.584  11.587  70.124  1.00  0.00    -0.336 C  
HETATM    9  C   UNL     1     -11.476  10.492  70.924  1.00  0.00    -0.304 C  
BRANCH   8  10
HETATM   10  C   UNL     1     -12.388  12.718  70.710  1.00  0.00    -0.287 A  
HETATM   11  N   UNL     1     -12.258  13.935  70.120  1.00  0.00    -0.345 NA 
HETATM   12  C   UNL     1     -13.247  12.536  71.800  1.00  0.00    -0.444 A  
HETATM   13  C   UNL     1     -13.994  13.618  72.270  1.00  0.00    -0.661 A  
HETATM   14  C   UNL     1     -12.972  14.970  70.613  1.00  0.00    -0.345 A  
HETATM   15  C   UNL     1     -13.851  14.859  71.672  1.00  0.00    -0.549 A  
ENDBRANCH   8  10
BRANCH   9  16
HETATM   16  C   UNL     1     -10.684   9.231  70.727  1.00  0.00    -0.284 C  
BRANCH  16  17
HETATM   17  N   UNL     1     -11.154   8.392  69.619  1.00  0.00    -0.084 NA 
HETATM   18  C   UNL     1     -10.596   7.198  67.696  1.00  0.00    -0.318 C  
HETATM   19  C   UNL     1     -11.044   6.180  68.731  1.00  0.00    -0.398 C  
HETATM   20  C   UNL     1     -10.180   8.395  68.523  1.00  0.00    -0.201 C  
HETATM   21  C   UNL     1     -11.353   6.987  69.990  1.00  0.00    -0.249 C  
ENDBRANCH  16  17
ENDBRANCH   9  16
ENDBRANCH   5   8
TORSDOF 4
ENDMDL
MODEL       88
REMARK 921   NORMALIZED FREE ENERGY PREDICTED BY IDOCK:   -4.88 KCAL/MOL
REMARK 922        TOTAL FREE ENERGY PREDICTED BY IDOCK:   -6.82 KCAL/MOL
REMARK 923 INTER-LIGAND FREE ENERGY PREDICTED BY IDOCK:   -5.87 KCAL/MOL
REMARK 924 INTRA-LIGAND FREE ENERGY PREDICTED BY IDOCK:   -0.95 KCAL/MOL
REMARK 927      BINDING AFFINITY PREDICTED BY RF-SCORE:    0.00 PKD
ROOT
HETATM    1  C   UNL     1     -11.943  15.804  72.018  1.00  0.00    -0.570 C  
HETATM    2  C   UNL     1     -11.629  14.995  70.794  1.00  0.00    -0.364 A  
HETATM    3  C   UNL     1     -12.302  13.801  70.536  1.00  0.00    -0.429 A  
HETATM    4  C   UNL     1     -11.923  12.992  69.456  1.00  0.00    -0.350 A  
HETATM    5  C   UNL     1     -10.914  13.372  68.556  1.00  0.00    -0.292 A  
HETATM    6  C   UNL     1     -10.282  14.606  68.804  1.00  0.00    -0.242 A  
HETATM    7  C   UNL     1     -10.617  15.394  69.916  1.00  0.00    -0.315 A  
ENDROOT
BRANCH   5   8
HETATM    8  C   UNL     1     -10.438  12.477  67.440  1.00  0.00    -0.231 C  
HETATM    9  C   UNL     1      -9.488  11.525  67.644  1.00  0.00    -0.170 C  
BRANCH   8  10
HETATM   10  C   UNL     1     -10.952  12.561  66.026  1.00  0.00    -0.283 A  
HETATM   11  N   UNL     1     -10.133  12.095  65.046  1.00  0.00    -0.271 NA 
HETATM   12  C   UNL     1     -12.217  13.075  65.721  1.00  0.00    -0.511 A  
HETATM   13  C   UNL     1     -12.649  13.088  64.394  1.00  0.00    -0.356 A  
HETATM   14  C   UNL     1     -10.566  12.146  63.767  1.00  0.00    -0.439 A  
HETATM   15  C   UNL     1     -11.807  12.621  63.397  1.00  0.00    -0.594 A  
ENDBRANCH   8  10
BRANCH   9  16
HETATM   16  C   UNL     1      -8.826  11.085  68.919  1.00  0.00    -0.113 C  
BRANCH  16  17
HETATM   17  N   UNL     1      -7.454  10.595  68.746  1.00  0.00    -0.096 NA 
HETATM   18  C   UNL     1      -6.058   8.971  67.824  1.00  0.00    -0.051 C  
HETATM   19  C   UNL     1      -5.740  10.278  67.118  1.00  0.00    -0.045 C  
HETATM   20  C   UNL     1      -7.459   9.181  68.357  1.00  0.00    -0.082 C  
HETATM   21  C   UNL     1      -6.702  11.306  67.707  1.00  0.00    -0.069 C  
ENDBRANCH  16  17
ENDBRANCH   9  16
ENDBRANCH   5   8
TORSDOF 4
ENDMDL
MODEL       89
REMARK 921   NORMALIZED FREE ENERGY PREDICTED BY IDOCK:   -4.88 KCAL/MOL
REMARK 922        TOTAL FREE ENERGY PREDICTED BY IDOCK:   -6.82 KCAL/MOL
REMARK 923 INTER-LIGAND FREE ENERGY PREDICTED BY IDOCK:   -5.89 KCAL/MOL
REMARK 924 INTRA-LIGAND FREE ENERGY PREDICTED BY IDOCK:   -0.94 KCAL/MOL
REMARK 927      BINDING AFFINITY PREDICTED BY RF-SCORE:    0.00 PKD
ROOT
HETATM    1  C   UNL     1     -10.088   4.759  70.125  1.00  0.00    -0.310 C  
HETATM    2  C   UNL     1     -10.118   5.949  69.213  1.00  0.00    -0.251 A  
HETATM    3  C   UNL     1     -10.995   5.994  68.128  1.00  0.00    -0.340 A  
HETATM    4  C   UNL     1     -10.937   7.054  67.214  1.00  0.00    -0.372 A  
HETATM    5  C   UNL     1     -10.059   8.138  67.381  1.00  0.00    -0.298 A  
HETATM    6  C   UNL     1      -9.219   8.099  68.510  1.00  0.00    -0.136 A  
HETATM    7  C   UNL     1      -9.231   7.014  69.399  1.00  0.00    -0.147 A  
ENDROOT
BRANCH   5   8
HETATM    8  C   UNL     1      -9.926   9.243  66.363  1.00  0.00    -0.356 C  
HETATM    9  C   UNL     1     -10.527  10.451  66.539  1.00  0.00    -0.262 C  
BRANCH   8  10
HETATM   10  C   UNL     1      -9.145   9.109  65.082  1.00  0.00    -0.176 A  
HETATM   11  N   UNL     1      -9.419  10.005  64.098  1.00  0.00    -0.282 NA 
HETATM   12  C   UNL     1      -8.166   8.124  64.905  1.00  0.00    -0.150 A  
HETATM   13  C   UNL     1      -7.449   8.079  63.708  1.00  0.00    -0.121 A  
HETATM   14  C   UNL     1      -8.730   9.920  62.939  1.00  0.00    -0.213 A  
HETATM   15  C   UNL     1      -7.739   8.988  62.703  1.00  0.00    -0.116 A  
ENDBRANCH   8  10
BRANCH   9  16
HETATM   16  C   UNL     1     -11.293  10.982  67.717  1.00  0.00    -0.292 C  
BRANCH  16  17
HETATM   17  N   UNL     1     -11.983  12.251  67.463  1.00  0.00    -0.528 NA 
HETATM   18  C   UNL     1     -11.866  14.579  67.481  1.00  0.00    -0.404 C  
HETATM   19  C   UNL     1     -11.992  14.156  66.027  1.00  0.00    -0.427 C  
HETATM   20  C   UNL     1     -11.315  13.349  68.169  1.00  0.00    -0.287 C  
HETATM   21  C   UNL     1     -12.015  12.630  66.047  1.00  0.00    -0.417 C  
ENDBRANCH  16  17
ENDBRANCH   9  16
ENDBRANCH   5   8
TORSDOF 4
ENDMDL
MODEL       90
REMARK 921   NORMALIZED FREE ENERGY PREDICTED BY IDOCK:   -4.88 KCAL/MOL
REMARK 922        TOTAL FREE ENERGY PREDICTED BY IDOCK:   -6.82 KCAL/MOL
REMARK 923 INTER-LIGAND FREE ENERGY PREDICTED BY IDOCK:   -6.41 KCAL/MOL
REMARK 924 INTRA-LIGAND FREE ENERGY PREDICTED BY IDOCK:   -0.41 KCAL/MOL
REMARK 927      BINDING AFFINITY PREDICTED BY RF-SCORE:    0.00 PKD
ROOT
HETATM    1  C   UNL     1     -14.124   8.987  72.303  1.00  0.00    -0.485 C  
HETATM    2  C   UNL     1     -12.964   9.490  71.495  1.00  0.00    -0.471 A  
HETATM    3  C   UNL     1     -12.826  10.850  71.216  1.00  0.00    -0.536 A  
HETATM    4  C   UNL     1     -11.807  11.298  70.365  1.00  0.00    -0.443 A  
HETATM    5  C   UNL     1     -10.851  10.426  69.819  1.00  0.00    -0.342 A  
HETATM    6  C   UNL     1     -10.977   9.064  70.155  1.00  0.00    -0.256 A  
HETATM    7  C   UNL     1     -12.027   8.600  70.960  1.00  0.00    -0.278 A  
ENDROOT
BRANCH   5   8
HETATM    8  C   UNL     1      -9.801  10.880  68.837  1.00  0.00    -0.203 C  
HETATM    9  C   UNL     1     -10.133  11.506  67.675  1.00  0.00    -0.202 C  
BRANCH   8  10
HETATM   10  C   UNL     1      -8.322  10.676  69.042  1.00  0.00    -0.152 A  
HETATM   11  N   UNL     1      -7.488  11.314  68.179  1.00  0.00    -0.086 NA 
HETATM   12  C   UNL     1      -7.815   9.885  70.078  1.00  0.00    -0.192 A  
HETATM   13  C   UNL     1      -6.433   9.769  70.238  1.00  0.00    -0.093 A  
HETATM   14  C   UNL     1      -6.155  11.162  68.340  1.00  0.00    -0.045 A  
HETATM   15  C   UNL     1      -5.586  10.413  69.350  1.00  0.00    -0.037 A  
ENDBRANCH   8  10
BRANCH   9  16
HETATM   16  C   UNL     1     -11.474  11.965  67.180  1.00  0.00    -0.319 C  
BRANCH  16  17
HETATM   17  N   UNL     1     -11.697  11.737  65.748  1.00  0.00    -0.349 NA 
HETATM   18  C   UNL     1     -12.079  12.685  63.652  1.00  0.00    -0.632 C  
HETATM   19  C   UNL     1     -10.706  12.038  63.599  1.00  0.00    -0.506 C  
HETATM   20  C   UNL     1     -12.312  12.916  65.129  1.00  0.00    -0.493 C  
HETATM   21  C   UNL     1     -10.465  11.473  64.997  1.00  0.00    -0.290 C  
ENDBRANCH  16  17
ENDBRANCH   9  16
ENDBRANCH   5   8
TORSDOF 4
ENDMDL
MODEL       91
REMARK 921   NORMALIZED FREE ENERGY PREDICTED BY IDOCK:   -4.82 KCAL/MOL
REMARK 922        TOTAL FREE ENERGY PREDICTED BY IDOCK:   -6.76 KCAL/MOL
REMARK 923 INTER-LIGAND FREE ENERGY PREDICTED BY IDOCK:   -5.73 KCAL/MOL
REMARK 924 INTRA-LIGAND FREE ENERGY PREDICTED BY IDOCK:   -1.03 KCAL/MOL
REMARK 927      BINDING AFFINITY PREDICTED BY RF-SCORE:    0.00 PKD
ROOT
HETATM    1  C   UNL     1     -12.906   9.995  71.713  1.00  0.00    -0.546 C  
HETATM    2  C   UNL     1     -11.996  10.438  70.605  1.00  0.00    -0.448 A  
HETATM    3  C   UNL     1     -11.006   9.588  70.114  1.00  0.00    -0.302 A  
HETATM    4  C   UNL     1     -10.085  10.047  69.162  1.00  0.00    -0.219 A  
HETATM    5  C   UNL     1     -10.158  11.339  68.616  1.00  0.00    -0.216 A  
HETATM    6  C   UNL     1     -11.197  12.164  69.087  1.00  0.00    -0.303 A  
HETATM    7  C   UNL     1     -12.087  11.731  70.081  1.00  0.00    -0.398 A  
ENDROOT
BRANCH   5   8
HETATM    8  C   UNL     1      -9.127  11.876  67.655  1.00  0.00    -0.179 C  
HETATM    9  C   UNL     1      -9.280  11.763  66.308  1.00  0.00    -0.227 C  
BRANCH   8  10
HETATM   10  C   UNL     1      -7.857  12.560  68.089  1.00  0.00    -0.151 A  
HETATM   11  N   UNL     1      -7.078  11.898  68.985  1.00  0.00    -0.110 NA 
HETATM   12  C   UNL     1      -7.474  13.809  67.589  1.00  0.00    -0.187 A  
HETATM   13  C   UNL     1      -6.264  14.371  68.002  1.00  0.00    -0.162 A  
HETATM   14  C   UNL     1      -5.926  12.477  69.388  1.00  0.00    -0.101 A  
HETATM   15  C   UNL     1      -5.478  13.698  68.923  1.00  0.00    -0.074 A  
ENDBRANCH   8  10
BRANCH   9  16
HETATM   16  C   UNL     1     -10.442  11.241  65.512  1.00  0.00    -0.265 C  
BRANCH  16  17
HETATM   17  N   UNL     1     -11.235  12.282  64.850  1.00  0.00    -0.311 NA 
HETATM   18  C   UNL     1     -12.701  14.078  65.096  1.00  0.00    -0.419 C  
HETATM   19  C   UNL     1     -11.401  14.643  64.552  1.00  0.00    -0.316 C  
HETATM   20  C   UNL     1     -12.285  12.777  65.747  1.00  0.00    -0.408 C  
HETATM   21  C   UNL     1     -10.449  13.454  64.450  1.00  0.00    -0.384 C  
ENDBRANCH  16  17
ENDBRANCH   9  16
ENDBRANCH   5   8
TORSDOF 4
ENDMDL
MODEL       92
REMARK 921   NORMALIZED FREE ENERGY PREDICTED BY IDOCK:   -4.81 KCAL/MOL
REMARK 922        TOTAL FREE ENERGY PREDICTED BY IDOCK:   -6.74 KCAL/MOL
REMARK 923 INTER-LIGAND FREE ENERGY PREDICTED BY IDOCK:   -7.03 KCAL/MOL
REMARK 924 INTRA-LIGAND FREE ENERGY PREDICTED BY IDOCK:    0.29 KCAL/MOL
REMARK 927      BINDING AFFINITY PREDICTED BY RF-SCORE:    0.00 PKD
ROOT
HETATM    1  C   UNL     1      -9.742   7.114  69.419  1.00  0.00    -0.160 C  
HETATM    2  C   UNL     1     -10.250   8.524  69.347  1.00  0.00    -0.211 A  
HETATM    3  C   UNL     1     -10.352   9.183  68.122  1.00  0.00    -0.263 A  
HETATM    4  C   UNL     1     -10.716  10.535  68.073  1.00  0.00    -0.287 A  
HETATM    5  C   UNL     1     -11.056  11.260  69.227  1.00  0.00    -0.314 A  
HETATM    6  C   UNL     1     -10.997  10.562  70.449  1.00  0.00    -0.252 A  
HETATM    7  C   UNL     1     -10.580   9.224  70.512  1.00  0.00    -0.309 A  
ENDROOT
BRANCH   5   8
HETATM    8  C   UNL     1     -11.368  12.735  69.201  1.00  0.00    -0.337 C  
HETATM    9  C   UNL     1     -10.854  13.556  68.245  1.00  0.00    -0.277 C  
BRANCH   8  10
HETATM   10  C   UNL     1     -12.246  13.422  70.215  1.00  0.00    -0.335 A  
HETATM   11  N   UNL     1     -12.876  12.627  71.120  1.00  0.00    -0.287 NA 
HETATM   12  C   UNL     1     -12.401  14.812  70.246  1.00  0.00    -0.400 A  
HETATM   13  C   UNL     1     -13.199  15.389  71.237  1.00  0.00    -0.585 A  
HETATM   14  C   UNL     1     -13.663  13.211  72.050  1.00  0.00    -0.398 A  
HETATM   15  C   UNL     1     -13.847  14.575  72.152  1.00  0.00    -0.574 A  
ENDBRANCH   8  10
BRANCH   9  16
HETATM   16  C   UNL     1     -10.033  13.223  67.032  1.00  0.00    -0.238 C  
BRANCH  16  17
HETATM   17  N   UNL     1     -10.590  13.725  65.772  1.00  0.00    -0.286 NA 
HETATM   18  C   UNL     1     -12.383  14.761  64.700  1.00  0.00    -0.346 C  
HETATM   19  C   UNL     1     -11.212  15.727  64.632  1.00  0.00    -0.373 C  
HETATM   20  C   UNL     1     -12.046  13.867  65.873  1.00  0.00    -0.433 C  
HETATM   21  C   UNL     1     -10.074  15.042  65.385  1.00  0.00    -0.362 C  
ENDBRANCH  16  17
ENDBRANCH   9  16
ENDBRANCH   5   8
TORSDOF 4
ENDMDL
MODEL       93
REMARK 921   NORMALIZED FREE ENERGY PREDICTED BY IDOCK:   -4.81 KCAL/MOL
REMARK 922        TOTAL FREE ENERGY PREDICTED BY IDOCK:   -6.74 KCAL/MOL
REMARK 923 INTER-LIGAND FREE ENERGY PREDICTED BY IDOCK:   -6.91 KCAL/MOL
REMARK 924 INTRA-LIGAND FREE ENERGY PREDICTED BY IDOCK:    0.17 KCAL/MOL
REMARK 927      BINDING AFFINITY PREDICTED BY RF-SCORE:    0.00 PKD
ROOT
HETATM    1  C   UNL     1     -13.569  13.399  72.433  1.00  0.00    -0.708 C  
HETATM    2  C   UNL     1     -12.979  12.490  71.395  1.00  0.00    -0.347 A  
HETATM    3  C   UNL     1     -13.173  11.110  71.463  1.00  0.00    -0.380 A  
HETATM    4  C   UNL     1     -12.524  10.259  70.559  1.00  0.00    -0.351 A  
HETATM    5  C   UNL     1     -11.719  10.748  69.518  1.00  0.00    -0.384 A  
HETATM    6  C   UNL     1     -11.578  12.147  69.435  1.00  0.00    -0.381 A  
HETATM    7  C   UNL     1     -12.179  13.003  70.370  1.00  0.00    -0.386 A  
ENDROOT
BRANCH   5   8
HETATM    8  C   UNL     1     -10.948   9.843  68.590  1.00  0.00    -0.222 C  
HETATM    9  C   UNL     1     -10.386  10.309  67.442  1.00  0.00    -0.282 C  
BRANCH   8  10
HETATM   10  C   UNL     1     -10.744   8.371  68.839  1.00  0.00    -0.068 A  
HETATM   11  N   UNL     1     -10.832   7.548  67.760  1.00  0.00    -0.140 NA 
HETATM   12  C   UNL     1     -10.458   7.862  70.110  1.00  0.00    -0.231 A  
HETATM   13  C   UNL     1     -10.241   6.491  70.266  1.00  0.00    -0.227 A  
HETATM   14  C   UNL     1     -10.644   6.223  67.945  1.00  0.00    -0.262 A  
HETATM   15  C   UNL     1     -10.341   5.654  69.166  1.00  0.00    -0.328 A  
ENDBRANCH   8  10
BRANCH   9  16
HETATM   16  C   UNL     1     -10.294  11.713  66.918  1.00  0.00    -0.220 C  
BRANCH  16  17
HETATM   17  N   UNL     1     -11.261  12.025  65.859  1.00  0.00    -0.329 NA 
HETATM   18  C   UNL     1     -12.048  13.598  64.329  1.00  0.00    -0.480 C  
HETATM   19  C   UNL     1     -11.445  12.462  63.521  1.00  0.00    -0.561 C  
HETATM   20  C   UNL     1     -11.378  13.476  65.680  1.00  0.00    -0.298 C  
HETATM   21  C   UNL     1     -10.895  11.476  64.550  1.00  0.00    -0.327 C  
ENDBRANCH  16  17
ENDBRANCH   9  16
ENDBRANCH   5   8
TORSDOF 4
ENDMDL
MODEL       94
REMARK 921   NORMALIZED FREE ENERGY PREDICTED BY IDOCK:   -4.81 KCAL/MOL
REMARK 922        TOTAL FREE ENERGY PREDICTED BY IDOCK:   -6.73 KCAL/MOL
REMARK 923 INTER-LIGAND FREE ENERGY PREDICTED BY IDOCK:   -5.91 KCAL/MOL
REMARK 924 INTRA-LIGAND FREE ENERGY PREDICTED BY IDOCK:   -0.82 KCAL/MOL
REMARK 927      BINDING AFFINITY PREDICTED BY RF-SCORE:    0.00 PKD
ROOT
HETATM    1  C   UNL     1      -9.663   9.672  65.631  1.00  0.00    -0.363 C  
HETATM    2  C   UNL     1      -9.780  11.055  66.202  1.00  0.00    -0.257 A  
HETATM    3  C   UNL     1     -10.027  12.149  65.373  1.00  0.00    -0.269 A  
HETATM    4  C   UNL     1     -10.019  13.450  65.895  1.00  0.00    -0.287 A  
HETATM    5  C   UNL     1      -9.835  13.704  67.264  1.00  0.00    -0.241 A  
HETATM    6  C   UNL     1      -9.638  12.582  68.092  1.00  0.00    -0.215 A  
HETATM    7  C   UNL     1      -9.589  11.281  67.568  1.00  0.00    -0.181 A  
ENDROOT
BRANCH   5   8
HETATM    8  C   UNL     1      -9.741  15.099  67.828  1.00  0.00    -0.211 C  
HETATM    9  C   UNL     1     -10.798  15.693  68.445  1.00  0.00    -0.290 C  
BRANCH   8  10
HETATM   10  C   UNL     1      -8.499  15.949  67.750  1.00  0.00    -0.158 A  
HETATM   11  N   UNL     1      -8.087  16.323  66.509  1.00  0.00    -0.287 NA 
HETATM   12  C   UNL     1      -7.802  16.358  68.892  1.00  0.00    -0.234 A  
HETATM   13  C   UNL     1      -6.682  17.179  68.753  1.00  0.00    -0.200 A  
HETATM   14  C   UNL     1      -6.983  17.094  66.403  1.00  0.00    -0.261 A  
HETATM   15  C   UNL     1      -6.258  17.549  67.486  1.00  0.00    -0.167 A  
ENDBRANCH   8  10
BRANCH   9  16
HETATM   16  C   UNL     1     -12.146  15.132  68.795  1.00  0.00    -0.165 C  
BRANCH  16  17
HETATM   17  N   UNL     1     -12.596  15.447  70.155  1.00  0.00    -0.343 NA 
HETATM   18  C   UNL     1     -13.035  14.657  72.304  1.00  0.00    -0.436 C  
HETATM   19  C   UNL     1     -11.850  15.601  72.416  1.00  0.00    -0.584 C  
HETATM   20  C   UNL     1     -13.020  14.229  70.852  1.00  0.00    -0.329 C  
HETATM   21  C   UNL     1     -11.557  16.060  70.989  1.00  0.00    -0.431 C  
ENDBRANCH  16  17
ENDBRANCH   9  16
ENDBRANCH   5   8
TORSDOF 4
ENDMDL
MODEL       95
REMARK 921   NORMALIZED FREE ENERGY PREDICTED BY IDOCK:   -4.79 KCAL/MOL
REMARK 922        TOTAL FREE ENERGY PREDICTED BY IDOCK:   -6.72 KCAL/MOL
REMARK 923 INTER-LIGAND FREE ENERGY PREDICTED BY IDOCK:   -6.19 KCAL/MOL
REMARK 924 INTRA-LIGAND FREE ENERGY PREDICTED BY IDOCK:   -0.53 KCAL/MOL
REMARK 927      BINDING AFFINITY PREDICTED BY RF-SCORE:    0.00 PKD
ROOT
HETATM    1  C   UNL     1      -5.489  12.800  69.566  1.00  0.00    -0.084 C  
HETATM    2  C   UNL     1      -6.531  13.717  68.997  1.00  0.00    -0.105 A  
HETATM    3  C   UNL     1      -7.175  14.653  69.806  1.00  0.00    -0.058 A  
HETATM    4  C   UNL     1      -8.228  15.425  69.297  1.00  0.00    -0.252 A  
HETATM    5  C   UNL     1      -8.631  15.345  67.954  1.00  0.00    -0.156 A  
HETATM    6  C   UNL     1      -7.934  14.431  67.141  1.00  0.00    -0.147 A  
HETATM    7  C   UNL     1      -6.917  13.615  67.657  1.00  0.00    -0.183 A  
ENDROOT
BRANCH   5   8
HETATM    8  C   UNL     1      -9.815  16.107  67.412  1.00  0.00    -0.238 C  
HETATM    9  C   UNL     1     -10.940  15.470  66.988  1.00  0.00    -0.283 C  
BRANCH   8  10
HETATM   10  C   UNL     1      -9.854  17.608  67.283  1.00  0.00    -0.303 A  
HETATM   11  N   UNL     1     -10.323  18.111  66.111  1.00  0.00    -0.473 NA 
HETATM   12  C   UNL     1      -9.447  18.456  68.319  1.00  0.00    -0.342 A  
HETATM   13  C   UNL     1      -9.547  19.838  68.149  1.00  0.00    -0.483 A  
HETATM   14  C   UNL     1     -10.382  19.453  65.965  1.00  0.00    -0.497 A  
HETATM   15  C   UNL     1     -10.016  20.348  66.950  1.00  0.00    -0.549 A  
ENDBRANCH   8  10
BRANCH   9  16
HETATM   16  C   UNL     1     -11.303  14.014  67.054  1.00  0.00    -0.330 C  
BRANCH  16  17
HETATM   17  N   UNL     1     -12.025  13.628  68.270  1.00  0.00    -0.363 NA 
HETATM   18  C   UNL     1     -12.077  12.278  70.171  1.00  0.00    -0.364 C  
HETATM   19  C   UNL     1     -11.916  13.710  70.652  1.00  0.00    -0.328 C  
HETATM   20  C   UNL     1     -11.570  12.318  68.745  1.00  0.00    -0.330 C  
HETATM   21  C   UNL     1     -11.835  14.560  69.387  1.00  0.00    -0.325 C  
ENDBRANCH  16  17
ENDBRANCH   9  16
ENDBRANCH   5   8
TORSDOF 4
ENDMDL
MODEL       96
REMARK 921   NORMALIZED FREE ENERGY PREDICTED BY IDOCK:   -4.79 KCAL/MOL
REMARK 922        TOTAL FREE ENERGY PREDICTED BY IDOCK:   -6.71 KCAL/MOL
REMARK 923 INTER-LIGAND FREE ENERGY PREDICTED BY IDOCK:   -5.75 KCAL/MOL
REMARK 924 INTRA-LIGAND FREE ENERGY PREDICTED BY IDOCK:   -0.96 KCAL/MOL
REMARK 927      BINDING AFFINITY PREDICTED BY RF-SCORE:    0.00 PKD
ROOT
HETATM    1  C   UNL     1     -11.360   8.776  72.017  1.00  0.00    -0.441 C  
HETATM    2  C   UNL     1     -11.187   9.767  70.904  1.00  0.00    -0.429 A  
HETATM    3  C   UNL     1     -10.023   9.780  70.136  1.00  0.00    -0.315 A  
HETATM    4  C   UNL     1      -9.817  10.780  69.177  1.00  0.00    -0.194 A  
HETATM    5  C   UNL     1     -10.785  11.759  68.899  1.00  0.00    -0.241 A  
HETATM    6  C   UNL     1     -11.975  11.698  69.650  1.00  0.00    -0.390 A  
HETATM    7  C   UNL     1     -12.165  10.734  70.650  1.00  0.00    -0.474 A  
ENDROOT
BRANCH   5   8
HETATM    8  C   UNL     1     -10.545  12.890  67.931  1.00  0.00    -0.232 C  
HETATM    9  C   UNL     1     -10.922  12.805  66.626  1.00  0.00    -0.300 C  
BRANCH   8  10
HETATM   10  C   UNL     1      -9.871  14.184  68.308  1.00  0.00    -0.235 A  
HETATM   11  N   UNL     1      -8.527  14.256  68.113  1.00  0.00    -0.158 NA 
HETATM   12  C   UNL     1     -10.583  15.275  68.820  1.00  0.00    -0.240 A  
HETATM   13  C   UNL     1      -9.903  16.458  69.112  1.00  0.00    -0.272 A  
HETATM   14  C   UNL     1      -7.892  15.405  68.431  1.00  0.00    -0.129 A  
HETATM   15  C   UNL     1      -8.532  16.525  68.921  1.00  0.00    -0.235 A  
ENDBRANCH   8  10
BRANCH   9  16
HETATM   16  C   UNL     1     -11.697  11.732  65.917  1.00  0.00    -0.018 C  
BRANCH  16  17
HETATM   17  N   UNL     1     -11.065  11.247  64.686  1.00  0.00    -0.217 NA 
HETATM   18  C   UNL     1      -9.420  11.580  63.068  1.00  0.00    -0.346 C  
HETATM   19  C   UNL     1      -9.043  10.319  63.825  1.00  0.00    -0.285 C  
HETATM   20  C   UNL     1     -10.318  12.325  64.032  1.00  0.00    -0.397 C  
HETATM   21  C   UNL     1     -10.109  10.157  64.906  1.00  0.00    -0.207 C  
ENDBRANCH  16  17
ENDBRANCH   9  16
ENDBRANCH   5   8
TORSDOF 4
ENDMDL
MODEL       97
REMARK 921   NORMALIZED FREE ENERGY PREDICTED BY IDOCK:   -4.74 KCAL/MOL
REMARK 922        TOTAL FREE ENERGY PREDICTED BY IDOCK:   -6.65 KCAL/MOL
REMARK 923 INTER-LIGAND FREE ENERGY PREDICTED BY IDOCK:   -5.41 KCAL/MOL
REMARK 924 INTRA-LIGAND FREE ENERGY PREDICTED BY IDOCK:   -1.24 KCAL/MOL
REMARK 927      BINDING AFFINITY PREDICTED BY RF-SCORE:    0.00 PKD
ROOT
HETATM    1  C   UNL     1      -9.397   7.734  73.722  1.00  0.00    -0.286 C  
HETATM    2  C   UNL     1      -9.745   8.212  72.343  1.00  0.00    -0.338 A  
HETATM    3  C   UNL     1      -8.773   8.784  71.521  1.00  0.00    -0.274 A  
HETATM    4  C   UNL     1      -9.128   9.334  70.282  1.00  0.00    -0.271 A  
HETATM    5  C   UNL     1     -10.441   9.275  69.786  1.00  0.00    -0.235 A  
HETATM    6  C   UNL     1     -11.396   8.649  70.609  1.00  0.00    -0.277 A  
HETATM    7  C   UNL     1     -11.060   8.145  71.875  1.00  0.00    -0.346 A  
ENDROOT
BRANCH   5   8
HETATM    8  C   UNL     1     -10.855   9.936  68.495  1.00  0.00    -0.257 C  
HETATM    9  C   UNL     1     -10.865   9.255  67.317  1.00  0.00    -0.140 C  
BRANCH   8  10
HETATM   10  C   UNL     1     -11.273  11.380  68.392  1.00  0.00    -0.263 A  
HETATM   11  N   UNL     1     -11.625  11.831  67.160  1.00  0.00    -0.544 NA 
HETATM   12  C   UNL     1     -11.318  12.224  69.508  1.00  0.00    -0.258 A  
HETATM   13  C   UNL     1     -11.753  13.541  69.351  1.00  0.00    -0.381 A  
HETATM   14  C   UNL     1     -12.015  13.118  67.033  1.00  0.00    -0.355 A  
HETATM   15  C   UNL     1     -12.102  14.001  68.091  1.00  0.00    -0.307 A  
ENDBRANCH   8  10
BRANCH   9  16
HETATM   16  C   UNL     1     -10.613   7.800  67.045  1.00  0.00    -0.326 C  
BRANCH  16  17
HETATM   17  N   UNL     1      -9.230   7.490  66.666  1.00  0.00    -0.155 NA 
HETATM   18  C   UNL     1      -7.070   8.294  66.314  1.00  0.00    -0.070 C  
HETATM   19  C   UNL     1      -7.006   7.372  67.520  1.00  0.00    -0.079 C  
HETATM   20  C   UNL     1      -8.524   8.707  66.253  1.00  0.00    -0.125 C  
HETATM   21  C   UNL     1      -8.440   6.904  67.753  1.00  0.00    -0.123 C  
ENDBRANCH  16  17
ENDBRANCH   9  16
ENDBRANCH   5   8
TORSDOF 4
ENDMDL
MODEL       98
REMARK 921   NORMALIZED FREE ENERGY PREDICTED BY IDOCK:   -4.73 KCAL/MOL
REMARK 922        TOTAL FREE ENERGY PREDICTED BY IDOCK:   -6.63 KCAL/MOL
REMARK 923 INTER-LIGAND FREE ENERGY PREDICTED BY IDOCK:   -5.45 KCAL/MOL
REMARK 924 INTRA-LIGAND FREE ENERGY PREDICTED BY IDOCK:   -1.19 KCAL/MOL
REMARK 927      BINDING AFFINITY PREDICTED BY RF-SCORE:    0.00 PKD
ROOT
HETATM    1  C   UNL     1      -9.846  11.006  64.060  1.00  0.00    -0.365 C  
HETATM    2  C   UNL     1     -10.016  10.691  65.517  1.00  0.00    -0.333 A  
HETATM    3  C   UNL     1     -10.044  11.711  66.468  1.00  0.00    -0.239 A  
HETATM    4  C   UNL     1     -10.085  11.405  67.835  1.00  0.00    -0.198 A  
HETATM    5  C   UNL     1     -10.170  10.083  68.302  1.00  0.00    -0.200 A  
HETATM    6  C   UNL     1     -10.193   9.070  67.324  1.00  0.00    -0.323 A  
HETATM    7  C   UNL     1     -10.095   9.366  65.956  1.00  0.00    -0.302 A  
ENDROOT
BRANCH   5   8
HETATM    8  C   UNL     1     -10.131   9.734  69.768  1.00  0.00    -0.268 C  
HETATM    9  C   UNL     1      -8.958   9.499  70.415  1.00  0.00    -0.291 C  
BRANCH   8  10
HETATM   10  C   UNL     1     -11.362   9.604  70.629  1.00  0.00    -0.312 A  
HETATM   11  N   UNL     1     -11.577   8.397  71.215  1.00  0.00    -0.276 NA 
HETATM   12  C   UNL     1     -12.241  10.673  70.839  1.00  0.00    -0.497 A  
HETATM   13  C   UNL     1     -13.341  10.498  71.680  1.00  0.00    -0.423 A  
HETATM   14  C   UNL     1     -12.665   8.248  72.002  1.00  0.00    -0.342 A  
HETATM   15  C   UNL     1     -13.563   9.263  72.268  1.00  0.00    -0.544 A  
ENDBRANCH   8  10
BRANCH   9  16
HETATM   16  C   UNL     1      -7.545   9.630  69.922  1.00  0.00    -0.138 C  
BRANCH  16  17
HETATM   17  N   UNL     1      -6.985   8.393  69.367  1.00  0.00    -0.049 NA 
HETATM   18  C   UNL     1      -7.379   6.198  68.686  1.00  0.00    -0.086 C  
HETATM   19  C   UNL     1      -7.019   6.988  67.439  1.00  0.00    -0.079 C  
HETATM   20  C   UNL     1      -7.863   7.255  69.655  1.00  0.00    -0.118 C  
HETATM   21  C   UNL     1      -6.817   8.426  67.910  1.00  0.00    -0.067 C  
ENDBRANCH  16  17
ENDBRANCH   9  16
ENDBRANCH   5   8
TORSDOF 4
ENDMDL
MODEL       99
REMARK 921   NORMALIZED FREE ENERGY PREDICTED BY IDOCK:   -4.71 KCAL/MOL
REMARK 922        TOTAL FREE ENERGY PREDICTED BY IDOCK:   -6.62 KCAL/MOL
REMARK 923 INTER-LIGAND FREE ENERGY PREDICTED BY IDOCK:   -5.79 KCAL/MOL
REMARK 924 INTRA-LIGAND FREE ENERGY PREDICTED BY IDOCK:   -0.83 KCAL/MOL
REMARK 927      BINDING AFFINITY PREDICTED BY RF-SCORE:    0.00 PKD
ROOT
HETATM    1  C   UNL     1      -5.531  10.624  69.055  1.00  0.00    -0.041 C  
HETATM    2  C   UNL     1      -6.716  11.407  68.570  1.00  0.00    -0.069 A  
HETATM    3  C   UNL     1      -8.009  10.903  68.708  1.00  0.00    -0.139 A  
HETATM    4  C   UNL     1      -9.098  11.584  68.149  1.00  0.00    -0.181 A  
HETATM    5  C   UNL     1      -8.953  12.819  67.496  1.00  0.00    -0.192 A  
HETATM    6  C   UNL     1      -7.646  13.336  67.413  1.00  0.00    -0.137 A  
HETATM    7  C   UNL     1      -6.543  12.633  67.920  1.00  0.00    -0.111 A  
ENDROOT
BRANCH   5   8
HETATM    8  C   UNL     1     -10.101  13.522  66.818  1.00  0.00    -0.268 C  
HETATM    9  C   UNL     1     -10.598  14.697  67.291  1.00  0.00    -0.284 C  
BRANCH   8  10
HETATM   10  C   UNL     1     -10.795  12.994  65.589  1.00  0.00    -0.273 A  
HETATM   11  N   UNL     1     -12.154  12.969  65.614  1.00  0.00    -0.431 NA 
HETATM   12  C   UNL     1     -10.089  12.563  64.461  1.00  0.00    -0.273 A  
HETATM   13  C   UNL     1     -10.794  12.121  63.340  1.00  0.00    -0.474 A  
HETATM   14  C   UNL     1     -12.809  12.511  64.525  1.00  0.00    -0.262 A  
HETATM   15  C   UNL     1     -12.178  12.088  63.372  1.00  0.00    -0.627 A  
ENDBRANCH   8  10
BRANCH   9  16
HETATM   16  C   UNL     1     -10.110  15.565  68.415  1.00  0.00    -0.214 C  
BRANCH  16  17
HETATM   17  N   UNL     1      -9.678  16.903  67.998  1.00  0.00    -0.250 NA 
HETATM   18  C   UNL     1     -10.100  18.769  66.664  1.00  0.00    -0.418 C  
HETATM   19  C   UNL     1     -10.272  19.212  68.107  1.00  0.00    -0.489 C  
HETATM   20  C   UNL     1     -10.299  17.270  66.721  1.00  0.00    -0.308 C  
HETATM   21  C   UNL     1     -10.039  17.959  68.949  1.00  0.00    -0.348 C  
ENDBRANCH  16  17
ENDBRANCH   9  16
ENDBRANCH   5   8
TORSDOF 4
ENDMDL
MODEL      100
REMARK 921   NORMALIZED FREE ENERGY PREDICTED BY IDOCK:   -4.70 KCAL/MOL
REMARK 922        TOTAL FREE ENERGY PREDICTED BY IDOCK:   -6.60 KCAL/MOL
REMARK 923 INTER-LIGAND FREE ENERGY PREDICTED BY IDOCK:   -6.02 KCAL/MOL
REMARK 924 INTRA-LIGAND FREE ENERGY PREDICTED BY IDOCK:   -0.59 KCAL/MOL
REMARK 927      BINDING AFFINITY PREDICTED BY RF-SCORE:    0.00 PKD
ROOT
HETATM    1  C   UNL     1      -8.278  18.387  68.165  1.00  0.00    -0.303 C  
HETATM    2  C   UNL     1      -8.756  16.978  67.977  1.00  0.00    -0.218 A  
HETATM    3  C   UNL     1      -7.878  15.977  67.562  1.00  0.00    -0.170 A  
HETATM    4  C   UNL     1      -8.354  14.690  67.275  1.00  0.00    -0.234 A  
HETATM    5  C   UNL     1      -9.700  14.334  67.456  1.00  0.00    -0.223 A  
HETATM    6  C   UNL     1     -10.561  15.345  67.925  1.00  0.00    -0.267 A  
HETATM    7  C   UNL     1     -10.103  16.650  68.160  1.00  0.00    -0.267 A  
ENDROOT
BRANCH   5   8
HETATM    8  C   UNL     1     -10.243  12.981  67.074  1.00  0.00    -0.245 C  
HETATM    9  C   UNL     1     -10.845  12.169  67.985  1.00  0.00    -0.258 C  
BRANCH   8  10
HETATM   10  C   UNL     1     -10.160  12.410  65.681  1.00  0.00    -0.257 A  
HETATM   11  N   UNL     1      -9.302  11.374  65.492  1.00  0.00    -0.222 NA 
HETATM   12  C   UNL     1     -10.938  12.902  64.627  1.00  0.00    -0.357 A  
HETATM   13  C   UNL     1     -10.842  12.303  63.369  1.00  0.00    -0.457 A  
HETATM   14  C   UNL     1      -9.210  10.831  64.258  1.00  0.00    -0.218 A  
HETATM   15  C   UNL     1      -9.959  11.253  63.177  1.00  0.00    -0.398 A  
ENDBRANCH   8  10
BRANCH   9  16
HETATM   16  C   UNL     1     -11.194  12.430  69.422  1.00  0.00    -0.158 C  
BRANCH  16  17
HETATM   17  N   UNL     1     -12.187  11.505  69.978  1.00  0.00    -0.294 NA 
HETATM   18  C   UNL     1     -12.590   9.638  71.316  1.00  0.00    -0.443 C  
HETATM   19  C   UNL     1     -13.222  10.828  72.018  1.00  0.00    -0.466 C  
HETATM   20  C   UNL     1     -11.544  10.263  70.419  1.00  0.00    -0.328 C  
HETATM   21  C   UNL     1     -12.898  12.038  71.145  1.00  0.00    -0.235 C  
ENDBRANCH  16  17
ENDBRANCH   9  16
ENDBRANCH   5   8
TORSDOF 4
ENDMDL
MODEL      101
REMARK 921   NORMALIZED FREE ENERGY PREDICTED BY IDOCK:   -4.68 KCAL/MOL
REMARK 922        TOTAL FREE ENERGY PREDICTED BY IDOCK:   -6.58 KCAL/MOL
REMARK 923 INTER-LIGAND FREE ENERGY PREDICTED BY IDOCK:   -6.54 KCAL/MOL
REMARK 924 INTRA-LIGAND FREE ENERGY PREDICTED BY IDOCK:   -0.04 KCAL/MOL
REMARK 927      BINDING AFFINITY PREDICTED BY RF-SCORE:    0.00 PKD
ROOT
HETATM    1  C   UNL     1     -13.101  15.873  73.725  1.00  0.00    -0.533 C  
HETATM    2  C   UNL     1     -12.613  15.473  72.364  1.00  0.00    -0.490 A  
HETATM    3  C   UNL     1     -13.018  14.269  71.787  1.00  0.00    -0.430 A  
HETATM    4  C   UNL     1     -12.468  13.846  70.569  1.00  0.00    -0.422 A  
HETATM    5  C   UNL     1     -11.553  14.632  69.850  1.00  0.00    -0.333 A  
HETATM    6  C   UNL     1     -11.195  15.867  70.425  1.00  0.00    -0.392 A  
HETATM    7  C   UNL     1     -11.698  16.271  71.670  1.00  0.00    -0.490 A  
ENDROOT
BRANCH   5   8
HETATM    8  C   UNL     1     -10.889  14.154  68.583  1.00  0.00    -0.268 C  
HETATM    9  C   UNL     1     -11.144  12.923  68.064  1.00  0.00    -0.283 C  
BRANCH   8  10
HETATM   10  C   UNL     1      -9.897  14.975  67.799  1.00  0.00    -0.220 A  
HETATM   11  N   UNL     1     -10.367  16.103  67.204  1.00  0.00    -0.287 NA 
HETATM   12  C   UNL     1      -8.549  14.615  67.696  1.00  0.00    -0.182 A  
HETATM   13  C   UNL     1      -7.673  15.440  66.988  1.00  0.00    -0.220 A  
HETATM   14  C   UNL     1      -9.502  16.868  66.502  1.00  0.00    -0.276 A  
HETATM   15  C   UNL     1      -8.157  16.584  66.374  1.00  0.00    -0.362 A  
ENDBRANCH   8  10
BRANCH   9  16
HETATM   16  C   UNL     1     -12.132  11.880  68.502  1.00  0.00    -0.059 C  
BRANCH  16  17
HETATM   17  N   UNL     1     -11.733  10.504  68.190  1.00  0.00    -0.401 NA 
HETATM   18  C   UNL     1     -10.082   9.087  67.354  1.00  0.00    -0.291 C  
HETATM   19  C   UNL     1     -10.226   8.770  68.832  1.00  0.00    -0.221 C  
HETATM   20  C   UNL     1     -10.624  10.494  67.232  1.00  0.00    -0.264 C  
HETATM   21  C   UNL     1     -11.275   9.746  69.359  1.00  0.00    -0.114 C  
ENDBRANCH  16  17
ENDBRANCH   9  16
ENDBRANCH   5   8
TORSDOF 4
ENDMDL
MODEL      102
REMARK 921   NORMALIZED FREE ENERGY PREDICTED BY IDOCK:   -4.66 KCAL/MOL
REMARK 922        TOTAL FREE ENERGY PREDICTED BY IDOCK:   -6.55 KCAL/MOL
REMARK 923 INTER-LIGAND FREE ENERGY PREDICTED BY IDOCK:   -5.64 KCAL/MOL
REMARK 924 INTRA-LIGAND FREE ENERGY PREDICTED BY IDOCK:   -0.91 KCAL/MOL
REMARK 927      BINDING AFFINITY PREDICTED BY RF-SCORE:    0.00 PKD
ROOT
HETATM    1  C   UNL     1      -9.024   4.196  65.035  1.00  0.00    -0.137 C  
HETATM    2  C   UNL     1      -9.441   5.370  65.870  1.00  0.00    -0.138 A  
HETATM    3  C   UNL     1      -8.580   6.451  66.061  1.00  0.00    -0.149 A  
HETATM    4  C   UNL     1      -8.929   7.489  66.936  1.00  0.00    -0.152 A  
HETATM    5  C   UNL     1     -10.169   7.526  67.595  1.00  0.00    -0.275 A  
HETATM    6  C   UNL     1     -11.045   6.451  67.348  1.00  0.00    -0.412 A  
HETATM    7  C   UNL     1     -10.680   5.380  66.518  1.00  0.00    -0.309 A  
ENDROOT
BRANCH   5   8
HETATM    8  C   UNL     1     -10.525   8.591  68.601  1.00  0.00    -0.200 C  
HETATM    9  C   UNL     1     -10.849   9.855  68.218  1.00  0.00    -0.275 C  
BRANCH   8  10
HETATM   10  C   UNL     1     -10.542   8.360  70.090  1.00  0.00    -0.233 A  
HETATM   11  N   UNL     1     -11.483   9.032  70.805  1.00  0.00    -0.279 NA 
HETATM   12  C   UNL     1      -9.651   7.484  70.719  1.00  0.00    -0.166 A  
HETATM   13  C   UNL     1      -9.746   7.284  72.098  1.00  0.00    -0.177 A  
HETATM   14  C   UNL     1     -11.534   8.841  72.142  1.00  0.00    -0.351 A  
HETATM   15  C   UNL     1     -10.700   7.979  72.825  1.00  0.00    -0.431 A  
ENDBRANCH   8  10
BRANCH   9  16
HETATM   16  C   UNL     1     -11.033  10.425  66.841  1.00  0.00    -0.097 C  
BRANCH  16  17
HETATM   17  N   UNL     1     -11.616  11.771  66.819  1.00  0.00    -0.536 NA 
HETATM   18  C   UNL     1     -11.936  13.783  67.953  1.00  0.00    -0.391 C  
HETATM   19  C   UNL     1     -11.048  14.088  66.758  1.00  0.00    -0.311 C  
HETATM   20  C   UNL     1     -11.738  12.301  68.181  1.00  0.00    -0.349 C  
HETATM   21  C   UNL     1     -10.817  12.745  66.068  1.00  0.00    -0.276 C  
ENDBRANCH  16  17
ENDBRANCH   9  16
ENDBRANCH   5   8
TORSDOF 4
ENDMDL
MODEL      103
REMARK 921   NORMALIZED FREE ENERGY PREDICTED BY IDOCK:   -4.62 KCAL/MOL
REMARK 922        TOTAL FREE ENERGY PREDICTED BY IDOCK:   -6.50 KCAL/MOL
REMARK 923 INTER-LIGAND FREE ENERGY PREDICTED BY IDOCK:   -5.84 KCAL/MOL
REMARK 924 INTRA-LIGAND FREE ENERGY PREDICTED BY IDOCK:   -0.66 KCAL/MOL
REMARK 927      BINDING AFFINITY PREDICTED BY RF-SCORE:    0.00 PKD
ROOT
HETATM    1  C   UNL     1      -8.109  18.645  66.133  1.00  0.00    -0.208 C  
HETATM    2  C   UNL     1      -8.760  17.295  66.210  1.00  0.00    -0.259 A  
HETATM    3  C   UNL     1      -8.022  16.167  66.568  1.00  0.00    -0.294 A  
HETATM    4  C   UNL     1      -8.607  14.894  66.524  1.00  0.00    -0.131 A  
HETATM    5  C   UNL     1      -9.959  14.704  66.191  1.00  0.00    -0.323 A  
HETATM    6  C   UNL     1     -10.699  15.861  65.883  1.00  0.00    -0.303 A  
HETATM    7  C   UNL     1     -10.107  17.133  65.870  1.00  0.00    -0.257 A  
ENDROOT
BRANCH   5   8
HETATM    8  C   UNL     1     -10.580  13.337  66.058  1.00  0.00    -0.292 C  
HETATM    9  C   UNL     1     -11.610  12.940  66.853  1.00  0.00    -0.425 C  
BRANCH   8  10
HETATM   10  C   UNL     1     -10.119  12.303  65.062  1.00  0.00    -0.253 A  
HETATM   11  N   UNL     1      -9.424  11.244  65.554  1.00  0.00    -0.225 NA 
HETATM   12  C   UNL     1     -10.403  12.406  63.696  1.00  0.00    -0.434 A  
HETATM   13  C   UNL     1      -9.981  11.393  62.832  1.00  0.00    -0.278 A  
HETATM   14  C   UNL     1      -9.004  10.293  64.691  1.00  0.00    -0.211 A  
HETATM   15  C   UNL     1      -9.263  10.320  63.335  1.00  0.00    -0.321 A  
ENDBRANCH   8  10
BRANCH   9  16
HETATM   16  C   UNL     1     -12.390  13.717  67.875  1.00  0.00     0.043 C  
BRANCH  16  17
HETATM   17  N   UNL     1     -11.660  13.974  69.121  1.00  0.00    -0.290 NA 
HETATM   18  C   UNL     1     -11.042  15.533  70.741  1.00  0.00    -0.383 C  
HETATM   19  C   UNL     1     -11.962  14.534  71.420  1.00  0.00    -0.382 C  
HETATM   20  C   UNL     1     -11.393  15.408  69.274  1.00  0.00    -0.315 C  
HETATM   21  C   UNL     1     -12.387  13.560  70.325  1.00  0.00    -0.300 C  
ENDBRANCH  16  17
ENDBRANCH   9  16
ENDBRANCH   5   8
TORSDOF 4
ENDMDL
MODEL      104
REMARK 921   NORMALIZED FREE ENERGY PREDICTED BY IDOCK:   -4.62 KCAL/MOL
REMARK 922        TOTAL FREE ENERGY PREDICTED BY IDOCK:   -6.50 KCAL/MOL
REMARK 923 INTER-LIGAND FREE ENERGY PREDICTED BY IDOCK:   -5.62 KCAL/MOL
REMARK 924 INTRA-LIGAND FREE ENERGY PREDICTED BY IDOCK:   -0.88 KCAL/MOL
REMARK 927      BINDING AFFINITY PREDICTED BY RF-SCORE:    0.00 PKD
ROOT
HETATM    1  C   UNL     1     -13.235   9.832  72.169  1.00  0.00    -0.530 C  
HETATM    2  C   UNL     1     -12.256  10.193  71.091  1.00  0.00    -0.490 A  
HETATM    3  C   UNL     1     -12.658  10.947  69.988  1.00  0.00    -0.253 A  
HETATM    4  C   UNL     1     -11.770  11.181  68.929  1.00  0.00    -0.406 A  
HETATM    5  C   UNL     1     -10.438  10.737  68.958  1.00  0.00    -0.239 A  
HETATM    6  C   UNL     1     -10.038  10.023  70.104  1.00  0.00    -0.266 A  
HETATM    7  C   UNL     1     -10.936   9.736  71.143  1.00  0.00    -0.386 A  
ENDROOT
BRANCH   5   8
HETATM    8  C   UNL     1      -9.497  10.909  67.793  1.00  0.00    -0.165 C  
HETATM    9  C   UNL     1      -9.103  12.140  67.368  1.00  0.00    -0.181 C  
BRANCH   8  10
HETATM   10  C   UNL     1      -8.928   9.758  67.003  1.00  0.00    -0.138 A  
HETATM   11  N   UNL     1      -7.627   9.859  66.621  1.00  0.00    -0.102 NA 
HETATM   12  C   UNL     1      -9.685   8.625  66.686  1.00  0.00    -0.315 A  
HETATM   13  C   UNL     1      -9.086   7.577  65.985  1.00  0.00    -0.139 A  
HETATM   14  C   UNL     1      -7.082   8.841  65.920  1.00  0.00    -0.084 A  
HETATM   15  C   UNL     1      -7.763   7.687  65.588  1.00  0.00    -0.099 A  
ENDBRANCH   8  10
BRANCH   9  16
HETATM   16  C   UNL     1      -9.377  13.493  67.958  1.00  0.00    -0.213 C  
BRANCH  16  17
HETATM   17  N   UNL     1     -10.310  14.313  67.177  1.00  0.00    -0.261 NA 
HETATM   18  C   UNL     1     -10.576  15.943  65.531  1.00  0.00    -0.419 C  
HETATM   19  C   UNL     1     -11.151  14.654  64.971  1.00  0.00    -0.401 C  
HETATM   20  C   UNL     1      -9.620  15.474  66.606  1.00  0.00    -0.253 C  
HETATM   21  C   UNL     1     -10.916  13.599  66.049  1.00  0.00    -0.286 C  
ENDBRANCH  16  17
ENDBRANCH   9  16
ENDBRANCH   5   8
TORSDOF 4
ENDMDL
MODEL      105
REMARK 921   NORMALIZED FREE ENERGY PREDICTED BY IDOCK:   -4.60 KCAL/MOL
REMARK 922        TOTAL FREE ENERGY PREDICTED BY IDOCK:   -6.48 KCAL/MOL
REMARK 923 INTER-LIGAND FREE ENERGY PREDICTED BY IDOCK:   -6.43 KCAL/MOL
REMARK 924 INTRA-LIGAND FREE ENERGY PREDICTED BY IDOCK:   -0.05 KCAL/MOL
REMARK 927      BINDING AFFINITY PREDICTED BY RF-SCORE:    0.00 PKD
ROOT
HETATM    1  C   UNL     1      -8.377  10.086  64.084  1.00  0.00    -0.167 C  
HETATM    2  C   UNL     1      -9.092  10.646  65.279  1.00  0.00    -0.221 A  
HETATM    3  C   UNL     1      -8.378  11.161  66.361  1.00  0.00    -0.167 A  
HETATM    4  C   UNL     1      -9.048  11.575  67.520  1.00  0.00    -0.166 A  
HETATM    5  C   UNL     1     -10.449  11.557  67.620  1.00  0.00    -0.218 A  
HETATM    6  C   UNL     1     -11.154  11.081  66.498  1.00  0.00    -0.174 A  
HETATM    7  C   UNL     1     -10.488  10.613  65.355  1.00  0.00    -0.254 A  
ENDROOT
BRANCH   5   8
HETATM    8  C   UNL     1     -11.179  11.918  68.889  1.00  0.00    -0.310 C  
HETATM    9  C   UNL     1     -11.524  13.203  69.172  1.00  0.00    -0.358 C  
BRANCH   8  10
HETATM   10  C   UNL     1     -11.573  10.914  69.941  1.00  0.00    -0.331 A  
HETATM   11  N   UNL     1     -10.837   9.773  70.008  1.00  0.00    -0.258 NA 
HETATM   12  C   UNL     1     -12.632  11.140  70.827  1.00  0.00    -0.445 A  
HETATM   13  C   UNL     1     -12.921  10.186  71.805  1.00  0.00    -0.567 A  
HETATM   14  C   UNL     1     -11.157   8.855  70.946  1.00  0.00    -0.271 A  
HETATM   15  C   UNL     1     -12.175   9.020  71.864  1.00  0.00    -0.451 A  
ENDBRANCH   8  10
BRANCH   9  16
HETATM   16  C   UNL     1     -11.391  14.442  68.333  1.00  0.00    -0.287 C  
BRANCH  16  17
HETATM   17  N   UNL     1     -11.302  14.186  66.891  1.00  0.00    -0.317 NA 
HETATM   18  C   UNL     1     -12.399  14.180  64.834  1.00  0.00    -0.446 C  
HETATM   19  C   UNL     1     -11.337  15.264  64.764  1.00  0.00    -0.396 C  
HETATM   20  C   UNL     1     -12.640  14.007  66.318  1.00  0.00    -0.310 C  
HETATM   21  C   UNL     1     -10.674  15.276  66.139  1.00  0.00    -0.320 C  
ENDBRANCH  16  17
ENDBRANCH   9  16
ENDBRANCH   5   8
TORSDOF 4
ENDMDL
MODEL      106
REMARK 921   NORMALIZED FREE ENERGY PREDICTED BY IDOCK:   -4.60 KCAL/MOL
REMARK 922        TOTAL FREE ENERGY PREDICTED BY IDOCK:   -6.48 KCAL/MOL
REMARK 923 INTER-LIGAND FREE ENERGY PREDICTED BY IDOCK:   -5.64 KCAL/MOL
REMARK 924 INTRA-LIGAND FREE ENERGY PREDICTED BY IDOCK:   -0.84 KCAL/MOL
REMARK 927      BINDING AFFINITY PREDICTED BY RF-SCORE:    0.00 PKD
ROOT
HETATM    1  C   UNL     1     -10.163   7.163  74.289  1.00  0.00    -0.025 C  
HETATM    2  C   UNL     1     -10.329   7.603  72.864  1.00  0.00    -0.380 A  
HETATM    3  C   UNL     1     -11.471   7.261  72.140  1.00  0.00    -0.310 A  
HETATM    4  C   UNL     1     -11.568   7.574  70.777  1.00  0.00    -0.300 A  
HETATM    5  C   UNL     1     -10.568   8.296  70.104  1.00  0.00    -0.233 A  
HETATM    6  C   UNL     1      -9.446   8.676  70.865  1.00  0.00    -0.242 A  
HETATM    7  C   UNL     1      -9.317   8.318  72.216  1.00  0.00    -0.323 A  
ENDROOT
BRANCH   5   8
HETATM    8  C   UNL     1     -10.618   8.567  68.622  1.00  0.00    -0.154 C  
HETATM    9  C   UNL     1     -11.122   9.729  68.125  1.00  0.00    -0.169 C  
BRANCH   8  10
HETATM   10  C   UNL     1     -10.136   7.593  67.578  1.00  0.00    -0.202 A  
HETATM   11  N   UNL     1      -9.123   8.007  66.772  1.00  0.00    -0.147 NA 
HETATM   12  C   UNL     1     -10.683   6.312  67.444  1.00  0.00    -0.409 A  
HETATM   13  C   UNL     1     -10.164   5.443  66.483  1.00  0.00    -0.287 A  
HETATM   14  C   UNL     1      -8.659   7.155  65.832  1.00  0.00    -0.148 A  
HETATM   15  C   UNL     1      -9.138   5.872  65.656  1.00  0.00    -0.058 A  
ENDBRANCH   8  10
BRANCH   9  16
HETATM   16  C   UNL     1     -11.596  10.957  68.848  1.00  0.00    -0.309 C  
BRANCH  16  17
HETATM   17  N   UNL     1     -12.041  12.041  67.965  1.00  0.00    -0.478 NA 
HETATM   18  C   UNL     1     -11.823  14.280  67.351  1.00  0.00    -0.441 C  
HETATM   19  C   UNL     1     -11.326  13.451  66.178  1.00  0.00    -0.324 C  
HETATM   20  C   UNL     1     -11.690  13.346  68.534  1.00  0.00    -0.357 C  
HETATM   21  C   UNL     1     -11.435  11.997  66.630  1.00  0.00    -0.346 C  
ENDBRANCH  16  17
ENDBRANCH   9  16
ENDBRANCH   5   8
TORSDOF 4
ENDMDL
MODEL      107
REMARK 921   NORMALIZED FREE ENERGY PREDICTED BY IDOCK:   -4.59 KCAL/MOL
REMARK 922        TOTAL FREE ENERGY PREDICTED BY IDOCK:   -6.47 KCAL/MOL
REMARK 923 INTER-LIGAND FREE ENERGY PREDICTED BY IDOCK:   -5.55 KCAL/MOL
REMARK 924 INTRA-LIGAND FREE ENERGY PREDICTED BY IDOCK:   -0.93 KCAL/MOL
REMARK 927      BINDING AFFINITY PREDICTED BY RF-SCORE:    0.00 PKD
ROOT
HETATM    1  C   UNL     1      -9.744  14.129  66.380  1.00  0.00    -0.313 C  
HETATM    2  C   UNL     1      -9.762  12.662  66.694  1.00  0.00    -0.249 A  
HETATM    3  C   UNL     1     -10.963  11.953  66.716  1.00  0.00    -0.337 A  
HETATM    4  C   UNL     1     -10.986  10.612  67.123  1.00  0.00    -0.312 A  
HETATM    5  C   UNL     1      -9.815   9.911  67.455  1.00  0.00    -0.223 A  
HETATM    6  C   UNL     1      -8.607  10.631  67.377  1.00  0.00    -0.122 A  
HETATM    7  C   UNL     1      -8.582  11.989  67.024  1.00  0.00    -0.185 A  
ENDROOT
BRANCH   5   8
HETATM    8  C   UNL     1      -9.833   8.496  67.974  1.00  0.00    -0.202 C  
HETATM    9  C   UNL     1      -9.999   8.223  69.297  1.00  0.00    -0.192 C  
BRANCH   8  10
HETATM   10  C   UNL     1      -9.659   7.282  67.098  1.00  0.00    -0.160 A  
HETATM   11  N   UNL     1     -10.637   6.339  67.154  1.00  0.00    -0.268 NA 
HETATM   12  C   UNL     1      -8.559   7.128  66.247  1.00  0.00    -0.143 A  
HETATM   13  C   UNL     1      -8.479   5.998  65.431  1.00  0.00    -0.145 A  
HETATM   14  C   UNL     1     -10.519   5.243  66.373  1.00  0.00    -0.292 A  
HETATM   15  C   UNL     1      -9.472   5.034  65.498  1.00  0.00    -0.129 A  
ENDBRANCH   8  10
BRANCH   9  16
HETATM   16  C   UNL     1     -10.295   9.150  70.440  1.00  0.00    -0.223 C  
BRANCH  16  17
HETATM   17  N   UNL     1     -11.725   9.375  70.677  1.00  0.00    -0.262 NA 
HETATM   18  C   UNL     1     -13.470   9.417  72.223  1.00  0.00    -0.539 C  
HETATM   19  C   UNL     1     -13.266  10.846  71.752  1.00  0.00    -0.513 C  
HETATM   20  C   UNL     1     -12.143   8.748  71.935  1.00  0.00    -0.363 C  
HETATM   21  C   UNL     1     -12.087  10.792  70.782  1.00  0.00    -0.372 C  
ENDBRANCH  16  17
ENDBRANCH   9  16
ENDBRANCH   5   8
TORSDOF 4
ENDMDL
MODEL      108
REMARK 921   NORMALIZED FREE ENERGY PREDICTED BY IDOCK:   -4.56 KCAL/MOL
REMARK 922        TOTAL FREE ENERGY PREDICTED BY IDOCK:   -6.43 KCAL/MOL
REMARK 923 INTER-LIGAND FREE ENERGY PREDICTED BY IDOCK:   -5.62 KCAL/MOL
REMARK 924 INTRA-LIGAND FREE ENERGY PREDICTED BY IDOCK:   -0.81 KCAL/MOL
REMARK 927      BINDING AFFINITY PREDICTED BY RF-SCORE:    0.00 PKD
ROOT
HETATM    1  C   UNL     1     -13.032   6.738  71.940  1.00  0.00    -0.229 C  
HETATM    2  C   UNL     1     -12.009   7.605  71.268  1.00  0.00    -0.330 A  
HETATM    3  C   UNL     1     -11.909   8.962  71.578  1.00  0.00    -0.402 A  
HETATM    4  C   UNL     1     -11.033   9.790  70.864  1.00  0.00    -0.411 A  
HETATM    5  C   UNL     1     -10.178   9.290  69.869  1.00  0.00    -0.235 A  
HETATM    6  C   UNL     1     -10.257   7.909  69.606  1.00  0.00    -0.207 A  
HETATM    7  C   UNL     1     -11.172   7.084  70.277  1.00  0.00    -0.339 A  
ENDROOT
BRANCH   5   8
HETATM    8  C   UNL     1      -9.291  10.180  69.035  1.00  0.00    -0.192 C  
HETATM    9  C   UNL     1      -9.717  10.711  67.857  1.00  0.00    -0.177 C  
BRANCH   8  10
HETATM   10  C   UNL     1      -7.879  10.544  69.416  1.00  0.00    -0.147 A  
HETATM   11  N   UNL     1      -7.373   9.958  70.533  1.00  0.00    -0.279 NA 
HETATM   12  C   UNL     1      -7.106  11.428  68.654  1.00  0.00    -0.095 A  
HETATM   13  C   UNL     1      -5.790  11.692  69.040  1.00  0.00    -0.053 A  
HETATM   14  C   UNL     1      -6.106  10.254  70.898  1.00  0.00    -0.027 A  
HETATM   15  C   UNL     1      -5.281  11.101  70.185  1.00  0.00    -0.062 A  
ENDBRANCH   8  10
BRANCH   9  16
HETATM   16  C   UNL     1     -11.072  10.655  67.212  1.00  0.00    -0.243 C  
BRANCH  16  17
HETATM   17  N   UNL     1     -11.868  11.876  67.375  1.00  0.00    -0.611 NA 
HETATM   18  C   UNL     1     -11.973  14.044  68.226  1.00  0.00    -0.384 C  
HETATM   19  C   UNL     1     -11.997  14.164  66.712  1.00  0.00    -0.475 C  
HETATM   20  C   UNL     1     -11.337  12.693  68.471  1.00  0.00    -0.296 C  
HETATM   21  C   UNL     1     -11.876  12.735  66.187  1.00  0.00    -0.425 C  
ENDBRANCH  16  17
ENDBRANCH   9  16
ENDBRANCH   5   8
TORSDOF 4
ENDMDL
MODEL      109
REMARK 921   NORMALIZED FREE ENERGY PREDICTED BY IDOCK:   -4.56 KCAL/MOL
REMARK 922        TOTAL FREE ENERGY PREDICTED BY IDOCK:   -6.43 KCAL/MOL
REMARK 923 INTER-LIGAND FREE ENERGY PREDICTED BY IDOCK:   -5.44 KCAL/MOL
REMARK 924 INTRA-LIGAND FREE ENERGY PREDICTED BY IDOCK:   -0.99 KCAL/MOL
REMARK 927      BINDING AFFINITY PREDICTED BY RF-SCORE:    0.00 PKD
ROOT
HETATM    1  C   UNL     1      -7.655   8.412  65.419  1.00  0.00    -0.092 C  
HETATM    2  C   UNL     1      -8.484   8.147  66.640  1.00  0.00    -0.129 A  
HETATM    3  C   UNL     1      -9.783   7.651  66.526  1.00  0.00    -0.251 A  
HETATM    4  C   UNL     1     -10.593   7.516  67.662  1.00  0.00    -0.303 A  
HETATM    5  C   UNL     1     -10.121   7.801  68.954  1.00  0.00    -0.201 A  
HETATM    6  C   UNL     1      -8.791   8.252  69.053  1.00  0.00    -0.143 A  
HETATM    7  C   UNL     1      -7.992   8.443  67.915  1.00  0.00    -0.115 A  
ENDROOT
BRANCH   5   8
HETATM    8  C   UNL     1     -11.004   7.741  70.175  1.00  0.00    -0.246 C  
HETATM    9  C   UNL     1     -11.183   6.586  70.870  1.00  0.00    -0.366 C  
BRANCH   8  10
HETATM   10  C   UNL     1     -11.761   8.926  70.717  1.00  0.00    -0.230 A  
HETATM   11  N   UNL     1     -12.683   8.676  71.684  1.00  0.00    -0.329 NA 
HETATM   12  C   UNL     1     -11.525  10.230  70.269  1.00  0.00    -0.395 A  
HETATM   13  C   UNL     1     -12.233  11.289  70.841  1.00  0.00    -0.460 A  
HETATM   14  C   UNL     1     -13.373   9.716  72.200  1.00  0.00    -0.454 A  
HETATM   15  C   UNL     1     -13.179  11.029  71.819  1.00  0.00    -0.505 A  
ENDBRANCH   8  10
BRANCH   9  16
HETATM   16  C   UNL     1     -10.526   5.247  70.695  1.00  0.00    -0.236 C  
BRANCH  16  17
HETATM   17  N   UNL     1     -10.149   4.592  71.952  1.00  0.00    -0.190 NA 
HETATM   18  C   UNL     1      -8.955   4.730  73.949  1.00  0.00    -0.113 C  
HETATM   19  C   UNL     1     -10.428   4.716  74.318  1.00  0.00    -0.330 C  
HETATM   20  C   UNL     1      -8.946   5.212  72.515  1.00  0.00    -0.130 C  
HETATM   21  C   UNL     1     -11.181   4.676  72.990  1.00  0.00    -0.226 C  
ENDBRANCH  16  17
ENDBRANCH   9  16
ENDBRANCH   5   8
TORSDOF 4
ENDMDL
MODEL      110
REMARK 921   NORMALIZED FREE ENERGY PREDICTED BY IDOCK:   -4.51 KCAL/MOL
REMARK 922        TOTAL FREE ENERGY PREDICTED BY IDOCK:   -6.37 KCAL/MOL
REMARK 923 INTER-LIGAND FREE ENERGY PREDICTED BY IDOCK:   -6.76 KCAL/MOL
REMARK 924 INTRA-LIGAND FREE ENERGY PREDICTED BY IDOCK:    0.39 KCAL/MOL
REMARK 927      BINDING AFFINITY PREDICTED BY RF-SCORE:    0.00 PKD
ROOT
HETATM    1  C   UNL     1     -13.191  15.641  71.585  1.00  0.00    -0.554 C  
HETATM    2  C   UNL     1     -12.849  14.276  71.065  1.00  0.00    -0.427 A  
HETATM    3  C   UNL     1     -13.268  13.130  71.740  1.00  0.00    -0.494 A  
HETATM    4  C   UNL     1     -12.847  11.863  71.315  1.00  0.00    -0.391 A  
HETATM    5  C   UNL     1     -12.056  11.684  70.169  1.00  0.00    -0.414 A  
HETATM    6  C   UNL     1     -11.686  12.851  69.471  1.00  0.00    -0.387 A  
HETATM    7  C   UNL     1     -12.056  14.126  69.923  1.00  0.00    -0.405 A  
ENDROOT
BRANCH   5   8
HETATM    8  C   UNL     1     -11.526  10.337  69.746  1.00  0.00    -0.320 C  
HETATM    9  C   UNL     1     -11.122  10.097  68.469  1.00  0.00    -0.266 C  
BRANCH   8  10
HETATM   10  C   UNL     1     -11.410   9.157  70.676  1.00  0.00    -0.273 A  
HETATM   11  N   UNL     1     -10.739   8.071  70.209  1.00  0.00    -0.236 NA 
HETATM   12  C   UNL     1     -11.946   9.170  71.968  1.00  0.00    -0.421 A  
HETATM   13  C   UNL     1     -11.769   8.058  72.793  1.00  0.00    -0.352 A  
HETATM   14  C   UNL     1     -10.607   6.998  71.020  1.00  0.00    -0.218 A  
HETATM   15  C   UNL     1     -11.094   6.948  72.311  1.00  0.00    -0.284 A  
ENDBRANCH   8  10
BRANCH   9  16
HETATM   16  C   UNL     1     -10.998  11.040  67.307  1.00  0.00    -0.297 C  
BRANCH  16  17
HETATM   17  N   UNL     1     -10.142  10.549  66.222  1.00  0.00    -0.224 NA 
HETATM   18  C   UNL     1      -7.974  10.289  65.404  1.00  0.00    -0.148 C  
HETATM   19  C   UNL     1      -8.506   8.895  65.692  1.00  0.00    -0.171 C  
HETATM   20  C   UNL     1      -8.823  11.187  66.278  1.00  0.00    -0.185 C  
HETATM   21  C   UNL     1      -9.903   9.103  66.271  1.00  0.00    -0.289 C  
ENDBRANCH  16  17
ENDBRANCH   9  16
ENDBRANCH   5   8
TORSDOF 4
ENDMDL
MODEL      111
REMARK 921   NORMALIZED FREE ENERGY PREDICTED BY IDOCK:   -4.48 KCAL/MOL
REMARK 922        TOTAL FREE ENERGY PREDICTED BY IDOCK:   -6.33 KCAL/MOL
REMARK 923 INTER-LIGAND FREE ENERGY PREDICTED BY IDOCK:   -5.19 KCAL/MOL
REMARK 924 INTRA-LIGAND FREE ENERGY PREDICTED BY IDOCK:   -1.14 KCAL/MOL
REMARK 927      BINDING AFFINITY PREDICTED BY RF-SCORE:    0.00 PKD
ROOT
HETATM    1  C   UNL     1     -12.900  11.329  71.498  1.00  0.00    -0.519 C  
HETATM    2  C   UNL     1     -11.976  10.818  70.433  1.00  0.00    -0.448 A  
HETATM    3  C   UNL     1     -12.136  11.208  69.103  1.00  0.00    -0.352 A  
HETATM    4  C   UNL     1     -11.344  10.638  68.097  1.00  0.00    -0.354 A  
HETATM    5  C   UNL     1     -10.323   9.717  68.382  1.00  0.00    -0.233 A  
HETATM    6  C   UNL     1     -10.143   9.375  69.737  1.00  0.00    -0.229 A  
HETATM    7  C   UNL     1     -10.969   9.899  70.743  1.00  0.00    -0.407 A  
ENDROOT
BRANCH   5   8
HETATM    8  C   UNL     1      -9.520   9.032  67.305  1.00  0.00    -0.189 C  
HETATM    9  C   UNL     1      -9.847   7.793  66.849  1.00  0.00    -0.305 C  
BRANCH   8  10
HETATM   10  C   UNL     1      -8.301   9.640  66.659  1.00  0.00    -0.123 A  
HETATM   11  N   UNL     1      -8.257   9.631  65.301  1.00  0.00    -0.125 NA 
HETATM   12  C   UNL     1      -7.264  10.207  67.409  1.00  0.00    -0.088 A  
HETATM   13  C   UNL     1      -6.181  10.789  66.747  1.00  0.00    -0.083 A  
HETATM   14  C   UNL     1      -7.184  10.176  64.688  1.00  0.00    -0.124 A  
HETATM   15  C   UNL     1      -6.135  10.769  65.363  1.00  0.00    -0.035 A  
ENDBRANCH   8  10
BRANCH   9  16
HETATM   16  C   UNL     1     -11.032   6.930  67.176  1.00  0.00    -0.357 C  
BRANCH  16  17
HETATM   17  N   UNL     1     -10.742   5.840  68.113  1.00  0.00    -0.233 NA 
HETATM   18  C   UNL     1      -9.184   4.841  69.532  1.00  0.00    -0.177 C  
HETATM   19  C   UNL     1     -10.302   5.376  70.412  1.00  0.00    -0.353 C  
HETATM   20  C   UNL     1      -9.294   5.666  68.268  1.00  0.00    -0.112 C  
HETATM   21  C   UNL     1     -11.276   6.065  69.460  1.00  0.00    -0.346 C  
ENDBRANCH  16  17
ENDBRANCH   9  16
ENDBRANCH   5   8
TORSDOF 4
ENDMDL
MODEL      112
REMARK 921   NORMALIZED FREE ENERGY PREDICTED BY IDOCK:   -4.47 KCAL/MOL
REMARK 922        TOTAL FREE ENERGY PREDICTED BY IDOCK:   -6.32 KCAL/MOL
REMARK 923 INTER-LIGAND FREE ENERGY PREDICTED BY IDOCK:   -5.28 KCAL/MOL
REMARK 924 INTRA-LIGAND FREE ENERGY PREDICTED BY IDOCK:   -1.04 KCAL/MOL
REMARK 927      BINDING AFFINITY PREDICTED BY RF-SCORE:    0.00 PKD
ROOT
HETATM    1  C   UNL     1      -9.701  13.613  67.962  1.00  0.00    -0.226 C  
HETATM    2  C   UNL     1      -9.749  12.131  68.192  1.00  0.00    -0.208 A  
HETATM    3  C   UNL     1     -10.957  11.437  68.116  1.00  0.00    -0.284 A  
HETATM    4  C   UNL     1     -11.014  10.076  68.447  1.00  0.00    -0.266 A  
HETATM    5  C   UNL     1      -9.868   9.343  68.795  1.00  0.00    -0.172 A  
HETATM    6  C   UNL     1      -8.650  10.050  68.815  1.00  0.00    -0.131 A  
HETATM    7  C   UNL     1      -8.594  11.425  68.541  1.00  0.00    -0.150 A  
ENDROOT
BRANCH   5   8
HETATM    8  C   UNL     1      -9.925   7.901  69.233  1.00  0.00    -0.190 C  
HETATM    9  C   UNL     1     -10.129   7.558  70.533  1.00  0.00    -0.188 C  
BRANCH   8  10
HETATM   10  C   UNL     1      -9.753   6.735  68.293  1.00  0.00    -0.126 A  
HETATM   11  N   UNL     1     -10.750   6.518  67.395  1.00  0.00    -0.294 NA 
HETATM   12  C   UNL     1      -8.618   5.917  68.320  1.00  0.00    -0.113 A  
HETATM   13  C   UNL     1      -8.502   4.877  67.396  1.00  0.00    -0.105 A  
HETATM   14  C   UNL     1     -10.623   5.487  66.530  1.00  0.00    -0.279 A  
HETATM   15  C   UNL     1      -9.525   4.653  66.488  1.00  0.00    -0.171 A  
ENDBRANCH   8  10
BRANCH   9  16
HETATM   16  C   UNL     1     -10.437   8.426  71.720  1.00  0.00    -0.283 C  
BRANCH  16  17
HETATM   17  N   UNL     1     -11.812   8.304  72.214  1.00  0.00    -0.365 NA 
HETATM   18  C   UNL     1     -14.035   8.975  72.002  1.00  0.00    -0.472 C  
HETATM   19  C   UNL     1     -13.981   7.505  71.622  1.00  0.00    -0.523 C  
HETATM   20  C   UNL     1     -12.615   9.455  71.790  1.00  0.00    -0.387 C  
HETATM   21  C   UNL     1     -12.510   7.111  71.723  1.00  0.00    -0.350 C  
ENDBRANCH  16  17
ENDBRANCH   9  16
ENDBRANCH   5   8
TORSDOF 4
ENDMDL
MODEL      113
REMARK 921   NORMALIZED FREE ENERGY PREDICTED BY IDOCK:   -4.45 KCAL/MOL
REMARK 922        TOTAL FREE ENERGY PREDICTED BY IDOCK:   -6.30 KCAL/MOL
REMARK 923 INTER-LIGAND FREE ENERGY PREDICTED BY IDOCK:   -5.32 KCAL/MOL
REMARK 924 INTRA-LIGAND FREE ENERGY PREDICTED BY IDOCK:   -0.98 KCAL/MOL
REMARK 927      BINDING AFFINITY PREDICTED BY RF-SCORE:    0.00 PKD
ROOT
HETATM    1  C   UNL     1     -10.913  20.100  65.507  1.00  0.00     0.010 C  
HETATM    2  C   UNL     1     -10.603  18.984  66.461  1.00  0.00    -0.495 A  
HETATM    3  C   UNL     1     -10.460  19.232  67.826  1.00  0.00    -0.539 A  
HETATM    4  C   UNL     1     -10.055  18.209  68.693  1.00  0.00    -0.406 A  
HETATM    5  C   UNL     1      -9.847  16.893  68.250  1.00  0.00    -0.266 A  
HETATM    6  C   UNL     1     -10.047  16.652  66.878  1.00  0.00    -0.280 A  
HETATM    7  C   UNL     1     -10.397  17.683  65.993  1.00  0.00    -0.305 A  
ENDROOT
BRANCH   5   8
HETATM    8  C   UNL     1      -9.332  15.801  69.154  1.00  0.00    -0.258 C  
HETATM    9  C   UNL     1     -10.176  14.977  69.831  1.00  0.00    -0.101 C  
BRANCH   8  10
HETATM   10  C   UNL     1      -7.868  15.537  69.394  1.00  0.00    -0.231 A  
HETATM   11  N   UNL     1      -7.508  14.250  69.640  1.00  0.00     0.091 NA 
HETATM   12  C   UNL     1      -6.910  16.557  69.351  1.00  0.00    -0.220 A  
HETATM   13  C   UNL     1      -5.564  16.239  69.543  1.00  0.00    -0.143 A  
HETATM   14  C   UNL     1      -6.201  13.976  69.850  1.00  0.00    -0.142 A  
HETATM   15  C   UNL     1      -5.201  14.927  69.804  1.00  0.00    -0.094 A  
ENDBRANCH   8  10
BRANCH   9  16
HETATM   16  C   UNL     1     -11.673  14.872  69.768  1.00  0.00    -0.305 C  
BRANCH  16  17
HETATM   17  N   UNL     1     -12.171  13.517  69.506  1.00  0.00    -0.280 NA 
HETATM   18  C   UNL     1     -11.725  11.404  68.627  1.00  0.00    -0.394 C  
HETATM   19  C   UNL     1     -11.883  11.232  70.128  1.00  0.00    -0.449 C  
HETATM   20  C   UNL     1     -11.367  12.866  68.467  1.00  0.00    -0.289 C  
HETATM   21  C   UNL     1     -12.123  12.637  70.677  1.00  0.00    -0.226 C  
ENDBRANCH  16  17
ENDBRANCH   9  16
ENDBRANCH   5   8
TORSDOF 4
ENDMDL
MODEL      114
REMARK 921   NORMALIZED FREE ENERGY PREDICTED BY IDOCK:   -4.44 KCAL/MOL
REMARK 922        TOTAL FREE ENERGY PREDICTED BY IDOCK:   -6.28 KCAL/MOL
REMARK 923 INTER-LIGAND FREE ENERGY PREDICTED BY IDOCK:   -5.25 KCAL/MOL
REMARK 924 INTRA-LIGAND FREE ENERGY PREDICTED BY IDOCK:   -1.02 KCAL/MOL
REMARK 927      BINDING AFFINITY PREDICTED BY RF-SCORE:    0.00 PKD
ROOT
HETATM    1  C   UNL     1      -9.007   5.763  65.831  1.00  0.00    -0.158 C  
HETATM    2  C   UNL     1      -9.338   6.111  67.253  1.00  0.00    -0.117 A  
HETATM    3  C   UNL     1     -10.411   5.502  67.904  1.00  0.00    -0.240 A  
HETATM    4  C   UNL     1     -10.787   5.916  69.189  1.00  0.00    -0.406 A  
HETATM    5  C   UNL     1     -10.072   6.896  69.898  1.00  0.00    -0.200 A  
HETATM    6  C   UNL     1      -8.962   7.462  69.242  1.00  0.00    -0.136 A  
HETATM    7  C   UNL     1      -8.613   7.093  67.934  1.00  0.00    -0.123 A  
ENDROOT
BRANCH   5   8
HETATM    8  C   UNL     1     -10.512   7.411  71.245  1.00  0.00    -0.221 C  
HETATM    9  C   UNL     1      -9.974   6.937  72.401  1.00  0.00    -0.181 C  
BRANCH   8  10
HETATM   10  C   UNL     1     -11.574   8.464  71.430  1.00  0.00    -0.284 A  
HETATM   11  N   UNL     1     -12.671   8.110  72.151  1.00  0.00    -0.317 NA 
HETATM   12  C   UNL     1     -11.443   9.755  70.906  1.00  0.00    -0.447 A  
HETATM   13  C   UNL     1     -12.446  10.696  71.148  1.00  0.00    -0.523 A  
HETATM   14  C   UNL     1     -13.638   9.033  72.346  1.00  0.00    -0.477 A  
HETATM   15  C   UNL     1     -13.567  10.329  71.875  1.00  0.00    -0.292 A  
ENDBRANCH   8  10
BRANCH   9  16
HETATM   16  C   UNL     1      -8.841   5.974  72.610  1.00  0.00    -0.124 C  
BRANCH  16  17
HETATM   17  N   UNL     1      -9.258   4.645  73.070  1.00  0.00    -0.119 NA 
HETATM   18  C   UNL     1     -11.019   3.156  73.411  1.00  0.00    -0.302 C  
HETATM   19  C   UNL     1     -10.149   2.565  72.315  1.00  0.00    -0.227 C  
HETATM   20  C   UNL     1     -10.692   4.633  73.374  1.00  0.00    -0.253 C  
HETATM   21  C   UNL     1      -9.037   3.585  72.082  1.00  0.00    -0.107 C  
ENDBRANCH  16  17
ENDBRANCH   9  16
ENDBRANCH   5   8
TORSDOF 4
ENDMDL
MODEL      115
REMARK 921   NORMALIZED FREE ENERGY PREDICTED BY IDOCK:   -4.43 KCAL/MOL
REMARK 922        TOTAL FREE ENERGY PREDICTED BY IDOCK:   -6.28 KCAL/MOL
REMARK 923 INTER-LIGAND FREE ENERGY PREDICTED BY IDOCK:   -5.48 KCAL/MOL
REMARK 924 INTRA-LIGAND FREE ENERGY PREDICTED BY IDOCK:   -0.80 KCAL/MOL
REMARK 927      BINDING AFFINITY PREDICTED BY RF-SCORE:    0.00 PKD
ROOT
HETATM    1  C   UNL     1      -9.475   8.688  65.932  1.00  0.00    -0.243 C  
HETATM    2  C   UNL     1      -9.722   7.860  67.159  1.00  0.00    -0.249 A  
HETATM    3  C   UNL     1     -10.730   6.896  67.177  1.00  0.00    -0.436 A  
HETATM    4  C   UNL     1     -11.032   6.209  68.361  1.00  0.00    -0.391 A  
HETATM    5  C   UNL     1     -10.303   6.404  69.545  1.00  0.00    -0.252 A  
HETATM    6  C   UNL     1      -9.257   7.345  69.492  1.00  0.00    -0.146 A  
HETATM    7  C   UNL     1      -8.984   8.077  68.327  1.00  0.00    -0.132 A  
ENDROOT
BRANCH   5   8
HETATM    8  C   UNL     1     -10.669   5.736  70.846  1.00  0.00    -0.333 C  
HETATM    9  C   UNL     1     -11.732   6.150  71.587  1.00  0.00    -0.290 C  
BRANCH   8  10
HETATM   10  C   UNL     1      -9.900   4.582  71.438  1.00  0.00    -0.194 A  
HETATM   11  N   UNL     1      -9.670   3.517  70.626  1.00  0.00    -0.172 NA 
HETATM   12  C   UNL     1      -9.423   4.601  72.753  1.00  0.00    -0.156 A  
HETATM   13  C   UNL     1      -8.683   3.516  73.228  1.00  0.00    -0.089 A  
HETATM   14  C   UNL     1      -8.974   2.469  71.121  1.00  0.00    -0.084 A  
HETATM   15  C   UNL     1      -8.459   2.427  72.401  1.00  0.00    -0.065 A  
ENDBRANCH   8  10
BRANCH   9  16
HETATM   16  C   UNL     1     -12.775   7.185  71.278  1.00  0.00    -0.366 C  
BRANCH  16  17
HETATM   17  N   UNL     1     -12.423   8.541  71.712  1.00  0.00    -0.324 NA 
HETATM   18  C   UNL     1     -11.982  10.744  71.087  1.00  0.00    -0.361 C  
HETATM   19  C   UNL     1     -13.275  10.763  71.883  1.00  0.00    -0.524 C  
HETATM   20  C   UNL     1     -11.885   9.318  70.590  1.00  0.00    -0.192 C  
HETATM   21  C   UNL     1     -13.562   9.305  72.233  1.00  0.00    -0.480 C  
ENDBRANCH  16  17
ENDBRANCH   9  16
ENDBRANCH   5   8
TORSDOF 4
ENDMDL
MODEL      116
REMARK 921   NORMALIZED FREE ENERGY PREDICTED BY IDOCK:   -4.43 KCAL/MOL
REMARK 922        TOTAL FREE ENERGY PREDICTED BY IDOCK:   -6.27 KCAL/MOL
REMARK 923 INTER-LIGAND FREE ENERGY PREDICTED BY IDOCK:   -5.43 KCAL/MOL
REMARK 924 INTRA-LIGAND FREE ENERGY PREDICTED BY IDOCK:   -0.84 KCAL/MOL
REMARK 927      BINDING AFFINITY PREDICTED BY RF-SCORE:    0.00 PKD
ROOT
HETATM    1  C   UNL     1     -13.107  12.016  71.521  1.00  0.00    -0.362 C  
HETATM    2  C   UNL     1     -12.473  10.702  71.169  1.00  0.00    -0.523 A  
HETATM    3  C   UNL     1     -13.035   9.501  71.603  1.00  0.00    -0.483 A  
HETATM    4  C   UNL     1     -12.376   8.286  71.371  1.00  0.00    -0.326 A  
HETATM    5  C   UNL     1     -11.177   8.214  70.643  1.00  0.00    -0.268 A  
HETATM    6  C   UNL     1     -10.654   9.432  70.170  1.00  0.00    -0.279 A  
HETATM    7  C   UNL     1     -11.278  10.658  70.446  1.00  0.00    -0.334 A  
ENDROOT
BRANCH   5   8
HETATM    8  C   UNL     1     -10.414   6.926  70.457  1.00  0.00    -0.234 C  
HETATM    9  C   UNL     1      -9.738   6.343  71.484  1.00  0.00    -0.182 C  
BRANCH   8  10
HETATM   10  C   UNL     1     -10.322   6.192  69.145  1.00  0.00    -0.218 A  
HETATM   11  N   UNL     1      -9.668   5.001  69.152  1.00  0.00    -0.158 NA 
HETATM   12  C   UNL     1     -10.894   6.692  67.969  1.00  0.00    -0.345 A  
HETATM   13  C   UNL     1     -10.808   5.942  66.794  1.00  0.00    -0.347 A  
HETATM   14  C   UNL     1      -9.576   4.310  67.994  1.00  0.00    -0.147 A  
HETATM   15  C   UNL     1     -10.131   4.733  66.803  1.00  0.00    -0.261 A  
ENDBRANCH   8  10
BRANCH   9  16
HETATM   16  C   UNL     1      -9.682   6.721  72.936  1.00  0.00    -0.155 C  
BRANCH  16  17
HETATM   17  N   UNL     1     -10.049   5.638  73.855  1.00  0.00    -0.203 NA 
HETATM   18  C   UNL     1     -11.039   3.543  74.114  1.00  0.00    -0.029 C  
HETATM   19  C   UNL     1      -9.560   3.370  74.413  1.00  0.00    -0.131 C  
HETATM   20  C   UNL     1     -11.093   4.794  73.264  1.00  0.00    -0.333 C  
HETATM   21  C   UNL     1      -8.934   4.745  74.185  1.00  0.00    -0.112 C  
ENDBRANCH  16  17
ENDBRANCH   9  16
ENDBRANCH   5   8
TORSDOF 4
ENDMDL
MODEL      117
REMARK 921   NORMALIZED FREE ENERGY PREDICTED BY IDOCK:   -4.41 KCAL/MOL
REMARK 922        TOTAL FREE ENERGY PREDICTED BY IDOCK:   -6.25 KCAL/MOL
REMARK 923 INTER-LIGAND FREE ENERGY PREDICTED BY IDOCK:   -5.70 KCAL/MOL
REMARK 924 INTRA-LIGAND FREE ENERGY PREDICTED BY IDOCK:   -0.55 KCAL/MOL
REMARK 927      BINDING AFFINITY PREDICTED BY RF-SCORE:    0.00 PKD
ROOT
HETATM    1  C   UNL     1     -10.664   7.121  73.387  1.00  0.00    -0.410 C  
HETATM    2  C   UNL     1     -10.477   7.172  71.899  1.00  0.00    -0.220 A  
HETATM    3  C   UNL     1      -9.439   7.916  71.337  1.00  0.00    -0.182 A  
HETATM    4  C   UNL     1      -9.340   8.055  69.946  1.00  0.00    -0.156 A  
HETATM    5  C   UNL     1     -10.221   7.406  69.065  1.00  0.00    -0.201 A  
HETATM    6  C   UNL     1     -11.230   6.619  69.652  1.00  0.00    -0.397 A  
HETATM    7  C   UNL     1     -11.371   6.520  71.044  1.00  0.00    -0.378 A  
ENDROOT
BRANCH   5   8
HETATM    8  C   UNL     1     -10.179   7.612  67.572  1.00  0.00    -0.294 C  
HETATM    9  C   UNL     1     -10.498   8.807  67.007  1.00  0.00    -0.338 C  
BRANCH   8  10
HETATM   10  C   UNL     1      -9.799   6.533  66.591  1.00  0.00    -0.148 A  
HETATM   11  N   UNL     1     -10.623   5.454  66.515  1.00  0.00    -0.304 NA 
HETATM   12  C   UNL     1      -8.666   6.631  65.776  1.00  0.00    -0.126 A  
HETATM   13  C   UNL     1      -8.392   5.615  64.859  1.00  0.00    -0.139 A  
HETATM   14  C   UNL     1     -10.318   4.473  65.638  1.00  0.00    -0.247 A  
HETATM   15  C   UNL     1      -9.228   4.512  64.791  1.00  0.00    -0.152 A  
ENDBRANCH   8  10
BRANCH   9  16
HETATM   16  C   UNL     1     -10.823  10.122  67.657  1.00  0.00    -0.290 C  
BRANCH  16  17
HETATM   17  N   UNL     1     -11.427  11.107  66.753  1.00  0.00    -0.354 NA 
HETATM   18  C   UNL     1     -11.979  13.342  66.382  1.00  0.00    -0.465 C  
HETATM   19  C   UNL     1     -10.914  12.976  65.362  1.00  0.00    -0.297 C  
HETATM   20  C   UNL     1     -11.785  12.326  67.486  1.00  0.00    -0.332 C  
HETATM   21  C   UNL     1     -10.540  11.527  65.664  1.00  0.00    -0.274 C  
ENDBRANCH  16  17
ENDBRANCH   9  16
ENDBRANCH   5   8
TORSDOF 4
ENDMDL
MODEL      118
REMARK 921   NORMALIZED FREE ENERGY PREDICTED BY IDOCK:   -4.41 KCAL/MOL
REMARK 922        TOTAL FREE ENERGY PREDICTED BY IDOCK:   -6.24 KCAL/MOL
REMARK 923 INTER-LIGAND FREE ENERGY PREDICTED BY IDOCK:   -5.35 KCAL/MOL
REMARK 924 INTRA-LIGAND FREE ENERGY PREDICTED BY IDOCK:   -0.89 KCAL/MOL
REMARK 927      BINDING AFFINITY PREDICTED BY RF-SCORE:    0.00 PKD
ROOT
HETATM    1  C   UNL     1      -6.335   8.236  64.814  1.00  0.00    -0.064 C  
HETATM    2  C   UNL     1      -7.422   8.669  65.754  1.00  0.00    -0.085 A  
HETATM    3  C   UNL     1      -7.141   9.515  66.827  1.00  0.00    -0.086 A  
HETATM    4  C   UNL     1      -8.134   9.821  67.767  1.00  0.00    -0.113 A  
HETATM    5  C   UNL     1      -9.453   9.356  67.639  1.00  0.00    -0.154 A  
HETATM    6  C   UNL     1      -9.729   8.545  66.521  1.00  0.00    -0.330 A  
HETATM    7  C   UNL     1      -8.727   8.189  65.606  1.00  0.00    -0.176 A  
ENDROOT
BRANCH   5   8
HETATM    8  C   UNL     1     -10.510   9.607  68.684  1.00  0.00    -0.235 C  
HETATM    9  C   UNL     1     -11.360  10.667  68.600  1.00  0.00    -0.345 C  
BRANCH   8  10
HETATM   10  C   UNL     1     -10.710   8.734  69.896  1.00  0.00    -0.223 A  
HETATM   11  N   UNL     1     -10.850   9.366  71.092  1.00  0.00    -0.331 NA 
HETATM   12  C   UNL     1     -10.770   7.339  69.808  1.00  0.00    -0.253 A  
HETATM   13  C   UNL     1     -10.998   6.590  70.964  1.00  0.00    -0.314 A  
HETATM   14  C   UNL     1     -11.041   8.614  72.198  1.00  0.00    -0.364 A  
HETATM   15  C   UNL     1     -11.129   7.237  72.183  1.00  0.00    -0.281 A  
ENDBRANCH   8  10
BRANCH   9  16
HETATM   16  C   UNL     1     -11.527  11.681  67.505  1.00  0.00    -0.289 C  
BRANCH  16  17
HETATM   17  N   UNL     1     -11.998  12.992  67.965  1.00  0.00    -0.337 NA 
HETATM   18  C   UNL     1     -11.852  14.667  69.580  1.00  0.00    -0.374 C  
HETATM   19  C   UNL     1     -11.308  15.253  68.288  1.00  0.00    -0.344 C  
HETATM   20  C   UNL     1     -11.703  13.173  69.390  1.00  0.00    -0.327 C  
HETATM   21  C   UNL     1     -11.371  14.119  67.267  1.00  0.00    -0.332 C  
ENDBRANCH  16  17
ENDBRANCH   9  16
ENDBRANCH   5   8
TORSDOF 4
ENDMDL
MODEL      119
REMARK 921   NORMALIZED FREE ENERGY PREDICTED BY IDOCK:   -4.36 KCAL/MOL
REMARK 922        TOTAL FREE ENERGY PREDICTED BY IDOCK:   -6.18 KCAL/MOL
REMARK 923 INTER-LIGAND FREE ENERGY PREDICTED BY IDOCK:   -5.08 KCAL/MOL
REMARK 924 INTRA-LIGAND FREE ENERGY PREDICTED BY IDOCK:   -1.10 KCAL/MOL
REMARK 927      BINDING AFFINITY PREDICTED BY RF-SCORE:    0.00 PKD
ROOT
HETATM    1  C   UNL     1      -6.933  15.855  67.392  1.00  0.00    -0.233 C  
HETATM    2  C   UNL     1      -7.836  14.690  67.671  1.00  0.00    -0.196 A  
HETATM    3  C   UNL     1      -7.308  13.438  67.987  1.00  0.00    -0.129 A  
HETATM    4  C   UNL     1      -8.153  12.329  68.131  1.00  0.00    -0.158 A  
HETATM    5  C   UNL     1      -9.550  12.436  68.035  1.00  0.00    -0.211 A  
HETATM    6  C   UNL     1     -10.066  13.718  67.767  1.00  0.00    -0.245 A  
HETATM    7  C   UNL     1      -9.224  14.823  67.566  1.00  0.00    -0.198 A  
ENDROOT
BRANCH   5   8
HETATM    8  C   UNL     1     -10.465  11.239  68.105  1.00  0.00    -0.215 C  
HETATM    9  C   UNL     1     -10.818  10.545  66.989  1.00  0.00    -0.288 C  
BRANCH   8  10
HETATM   10  C   UNL     1     -11.069  10.723  69.385  1.00  0.00    -0.268 A  
HETATM   11  N   UNL     1     -10.468   9.646  69.957  1.00  0.00    -0.240 NA 
HETATM   12  C   UNL     1     -12.184  11.324  69.979  1.00  0.00    -0.389 A  
HETATM   13  C   UNL     1     -12.670  10.820  71.187  1.00  0.00    -0.532 A  
HETATM   14  C   UNL     1     -10.977   9.163  71.112  1.00  0.00    -0.320 A  
HETATM   15  C   UNL     1     -12.062   9.716  71.762  1.00  0.00    -0.446 A  
ENDBRANCH   8  10
BRANCH   9  16
HETATM   16  C   UNL     1     -10.344  10.698  65.572  1.00  0.00    -0.227 C  
BRANCH  16  17
HETATM   17  N   UNL     1      -9.337   9.712  65.164  1.00  0.00    -0.250 NA 
HETATM   18  C   UNL     1      -7.079   9.137  65.092  1.00  0.00    -0.088 C  
HETATM   19  C   UNL     1      -7.757   8.144  66.021  1.00  0.00    -0.090 C  
HETATM   20  C   UNL     1      -8.009  10.330  65.099  1.00  0.00    -0.147 C  
HETATM   21  C   UNL     1      -9.219   8.578  66.086  1.00  0.00    -0.211 C  
ENDBRANCH  16  17
ENDBRANCH   9  16
ENDBRANCH   5   8
TORSDOF 4
ENDMDL
MODEL      120
REMARK 921   NORMALIZED FREE ENERGY PREDICTED BY IDOCK:   -4.34 KCAL/MOL
REMARK 922        TOTAL FREE ENERGY PREDICTED BY IDOCK:   -6.16 KCAL/MOL
REMARK 923 INTER-LIGAND FREE ENERGY PREDICTED BY IDOCK:   -5.40 KCAL/MOL
REMARK 924 INTRA-LIGAND FREE ENERGY PREDICTED BY IDOCK:   -0.77 KCAL/MOL
REMARK 927      BINDING AFFINITY PREDICTED BY RF-SCORE:    0.00 PKD
ROOT
HETATM    1  C   UNL     1      -9.496   3.810  64.891  1.00  0.00    -0.167 C  
HETATM    2  C   UNL     1      -9.636   4.867  65.946  1.00  0.00    -0.185 A  
HETATM    3  C   UNL     1     -10.891   5.370  66.289  1.00  0.00    -0.161 A  
HETATM    4  C   UNL     1     -11.005   6.438  67.189  1.00  0.00    -0.476 A  
HETATM    5  C   UNL     1      -9.887   6.997  67.831  1.00  0.00    -0.161 A  
HETATM    6  C   UNL     1      -8.634   6.441  67.509  1.00  0.00    -0.115 A  
HETATM    7  C   UNL     1      -8.506   5.410  66.567  1.00  0.00    -0.113 A  
ENDROOT
BRANCH   5   8
HETATM    8  C   UNL     1      -9.985   8.199  68.736  1.00  0.00    -0.198 C  
HETATM    9  C   UNL     1      -9.712   9.454  68.288  1.00  0.00    -0.162 C  
BRANCH   8  10
HETATM   10  C   UNL     1     -10.372   8.120  70.190  1.00  0.00    -0.215 A  
HETATM   11  N   UNL     1     -11.552   7.510  70.479  1.00  0.00    -0.244 NA 
HETATM   12  C   UNL     1      -9.557   8.629  71.208  1.00  0.00    -0.292 A  
HETATM   13  C   UNL     1      -9.956   8.488  72.538  1.00  0.00    -0.322 A  
HETATM   14  C   UNL     1     -11.925   7.412  71.774  1.00  0.00    -0.305 A  
HETATM   15  C   UNL     1     -11.164   7.875  72.829  1.00  0.00    -0.466 A  
ENDBRANCH   8  10
BRANCH   9  16
HETATM   16  C   UNL     1      -9.396   9.932  66.899  1.00  0.00    -0.152 C  
BRANCH  16  17
HETATM   17  N   UNL     1     -10.514  10.598  66.223  1.00  0.00    -0.230 NA 
HETATM   18  C   UNL     1     -11.670  12.588  65.851  1.00  0.00    -0.480 C  
HETATM   19  C   UNL     1     -11.030  12.198  64.530  1.00  0.00    -0.361 C  
HETATM   20  C   UNL     1     -10.833  11.867  66.885  1.00  0.00    -0.263 C  
HETATM   21  C   UNL     1     -10.242  10.922  64.819  1.00  0.00    -0.333 C  
ENDBRANCH  16  17
ENDBRANCH   9  16
ENDBRANCH   5   8
TORSDOF 4
ENDMDL
MODEL      121
REMARK 921   NORMALIZED FREE ENERGY PREDICTED BY IDOCK:   -4.33 KCAL/MOL
REMARK 922        TOTAL FREE ENERGY PREDICTED BY IDOCK:   -6.14 KCAL/MOL
REMARK 923 INTER-LIGAND FREE ENERGY PREDICTED BY IDOCK:   -5.19 KCAL/MOL
REMARK 924 INTRA-LIGAND FREE ENERGY PREDICTED BY IDOCK:   -0.95 KCAL/MOL
REMARK 927      BINDING AFFINITY PREDICTED BY RF-SCORE:    0.00 PKD
ROOT
HETATM    1  C   UNL     1      -6.391   8.854  63.943  1.00  0.00    -0.086 C  
HETATM    2  C   UNL     1      -7.418   9.604  64.740  1.00  0.00    -0.122 A  
HETATM    3  C   UNL     1      -8.777   9.477  64.451  1.00  0.00    -0.235 A  
HETATM    4  C   UNL     1      -9.721  10.268  65.120  1.00  0.00    -0.364 A  
HETATM    5  C   UNL     1      -9.359  11.159  66.143  1.00  0.00    -0.227 A  
HETATM    6  C   UNL     1      -7.987  11.235  66.455  1.00  0.00    -0.125 A  
HETATM    7  C   UNL     1      -7.030  10.488  65.752  1.00  0.00    -0.125 A  
ENDROOT
BRANCH   5   8
HETATM    8  C   UNL     1     -10.350  12.075  66.814  1.00  0.00    -0.233 C  
HETATM    9  C   UNL     1     -11.249  11.612  67.723  1.00  0.00    -0.333 C  
BRANCH   8  10
HETATM   10  C   UNL     1     -10.442  13.554  66.534  1.00  0.00    -0.284 A  
HETATM   11  N   UNL     1     -10.784  14.356  67.577  1.00  0.00    -0.268 NA 
HETATM   12  C   UNL     1     -10.173  14.092  65.271  1.00  0.00    -0.383 A  
HETATM   13  C   UNL     1     -10.237  15.474  65.089  1.00  0.00    -0.334 A  
HETATM   14  C   UNL     1     -10.866  15.688  67.364  1.00  0.00    -0.315 A  
HETATM   15  C   UNL     1     -10.596  16.288  66.151  1.00  0.00    -0.272 A  
ENDBRANCH   8  10
BRANCH   9  16
HETATM   16  C   UNL     1     -11.393  10.242  68.321  1.00  0.00    -0.177 C  
BRANCH  16  17
HETATM   17  N   UNL     1     -10.499   9.982  69.455  1.00  0.00    -0.216 NA 
HETATM   18  C   UNL     1     -10.257   9.075  71.589  1.00  0.00    -0.418 C  
HETATM   19  C   UNL     1      -9.408   8.232  70.653  1.00  0.00    -0.172 C  
HETATM   20  C   UNL     1     -11.274   9.719  70.671  1.00  0.00    -0.334 C  
HETATM   21  C   UNL     1      -9.627   8.819  69.261  1.00  0.00    -0.162 C  
ENDBRANCH  16  17
ENDBRANCH   9  16
ENDBRANCH   5   8
TORSDOF 4
ENDMDL
MODEL      122
REMARK 921   NORMALIZED FREE ENERGY PREDICTED BY IDOCK:   -4.32 KCAL/MOL
REMARK 922        TOTAL FREE ENERGY PREDICTED BY IDOCK:   -6.14 KCAL/MOL
REMARK 923 INTER-LIGAND FREE ENERGY PREDICTED BY IDOCK:   -5.22 KCAL/MOL
REMARK 924 INTRA-LIGAND FREE ENERGY PREDICTED BY IDOCK:   -0.92 KCAL/MOL
REMARK 927      BINDING AFFINITY PREDICTED BY RF-SCORE:    0.00 PKD
ROOT
HETATM    1  C   UNL     1      -5.261  13.095  69.132  1.00  0.00    -0.069 C  
HETATM    2  C   UNL     1      -6.326  12.290  68.447  1.00  0.00    -0.054 A  
HETATM    3  C   UNL     1      -7.660  12.695  68.483  1.00  0.00    -0.121 A  
HETATM    4  C   UNL     1      -8.663  11.880  67.942  1.00  0.00    -0.167 A  
HETATM    5  C   UNL     1      -8.372  10.672  67.287  1.00  0.00    -0.120 A  
HETATM    6  C   UNL     1      -7.014  10.306  67.216  1.00  0.00    -0.086 A  
HETATM    7  C   UNL     1      -6.010  11.089  67.804  1.00  0.00    -0.046 A  
ENDROOT
BRANCH   5   8
HETATM    8  C   UNL     1      -9.445   9.744  66.774  1.00  0.00    -0.209 C  
HETATM    9  C   UNL     1     -10.025   9.928  65.558  1.00  0.00    -0.363 C  
BRANCH   8  10
HETATM   10  C   UNL     1      -9.968   8.563  67.550  1.00  0.00    -0.200 A  
HETATM   11  N   UNL     1     -10.539   7.561  66.832  1.00  0.00    -0.337 NA 
HETATM   12  C   UNL     1      -9.862   8.480  68.943  1.00  0.00    -0.181 A  
HETATM   13  C   UNL     1     -10.332   7.340  69.598  1.00  0.00    -0.227 A  
HETATM   14  C   UNL     1     -11.010   6.482  67.495  1.00  0.00    -0.359 A  
HETATM   15  C   UNL     1     -10.922   6.324  68.864  1.00  0.00    -0.435 A  
ENDBRANCH   8  10
BRANCH   9  16
HETATM   16  C   UNL     1      -9.701  10.920  64.477  1.00  0.00    -0.282 C  
BRANCH  16  17
HETATM   17  N   UNL     1     -10.468  12.167  64.556  1.00  0.00    -0.287 NA 
HETATM   18  C   UNL     1     -12.217  13.447  63.695  1.00  0.00    -0.480 C  
HETATM   19  C   UNL     1     -12.617  13.046  65.104  1.00  0.00    -0.530 C  
HETATM   20  C   UNL     1     -11.190  12.407  63.302  1.00  0.00    -0.309 C  
HETATM   21  C   UNL     1     -11.478  12.170  65.619  1.00  0.00    -0.355 C  
ENDBRANCH  16  17
ENDBRANCH   9  16
ENDBRANCH   5   8
TORSDOF 4
ENDMDL
MODEL      123
REMARK 921   NORMALIZED FREE ENERGY PREDICTED BY IDOCK:   -4.32 KCAL/MOL
REMARK 922        TOTAL FREE ENERGY PREDICTED BY IDOCK:   -6.14 KCAL/MOL
REMARK 923 INTER-LIGAND FREE ENERGY PREDICTED BY IDOCK:   -5.31 KCAL/MOL
REMARK 924 INTRA-LIGAND FREE ENERGY PREDICTED BY IDOCK:   -0.83 KCAL/MOL
REMARK 927      BINDING AFFINITY PREDICTED BY RF-SCORE:    0.00 PKD
ROOT
HETATM    1  C   UNL     1     -11.434   7.724  72.790  1.00  0.00    -0.415 C  
HETATM    2  C   UNL     1     -11.277   8.704  71.665  1.00  0.00    -0.379 A  
HETATM    3  C   UNL     1     -10.071   8.808  70.974  1.00  0.00    -0.301 A  
HETATM    4  C   UNL     1      -9.893   9.804  70.004  1.00  0.00    -0.295 A  
HETATM    5  C   UNL     1     -10.925  10.684  69.639  1.00  0.00    -0.331 A  
HETATM    6  C   UNL     1     -12.152  10.529  70.313  1.00  0.00    -0.402 A  
HETATM    7  C   UNL     1     -12.320   9.571  71.324  1.00  0.00    -0.430 A  
ENDROOT
BRANCH   5   8
HETATM    8  C   UNL     1     -10.725  11.813  68.660  1.00  0.00    -0.252 C  
HETATM    9  C   UNL     1     -10.605  11.587  67.324  1.00  0.00    -0.266 C  
BRANCH   8  10
HETATM   10  C   UNL     1     -10.628  13.262  69.064  1.00  0.00    -0.065 A  
HETATM   11  N   UNL     1      -9.530  13.945  68.645  1.00  0.00    -0.170 NA 
HETATM   12  C   UNL     1     -11.623  13.894  69.818  1.00  0.00    -0.335 A  
HETATM   13  C   UNL     1     -11.492  15.249  70.125  1.00  0.00    -0.319 A  
HETATM   14  C   UNL     1      -9.416  15.249  68.980  1.00  0.00    -0.232 A  
HETATM   15  C   UNL     1     -10.366  15.940  69.705  1.00  0.00    -0.290 A  
ENDBRANCH   8  10
BRANCH   9  16
HETATM   16  C   UNL     1     -10.747  10.308  66.549  1.00  0.00    -0.078 C  
BRANCH  16  17
HETATM   17  N   UNL     1      -9.520   9.875  65.872  1.00  0.00    -0.197 NA 
HETATM   18  C   UNL     1      -7.188   9.880  65.854  1.00  0.00    -0.108 C  
HETATM   19  C   UNL     1      -7.624   8.446  66.103  1.00  0.00    -0.089 C  
HETATM   20  C   UNL     1      -8.382  10.700  66.291  1.00  0.00    -0.155 C  
HETATM   21  C   UNL     1      -9.149   8.486  66.159  1.00  0.00    -0.195 C  
ENDBRANCH  16  17
ENDBRANCH   9  16
ENDBRANCH   5   8
TORSDOF 4
ENDMDL
MODEL      124
REMARK 921   NORMALIZED FREE ENERGY PREDICTED BY IDOCK:   -4.31 KCAL/MOL
REMARK 922        TOTAL FREE ENERGY PREDICTED BY IDOCK:   -6.12 KCAL/MOL
REMARK 923 INTER-LIGAND FREE ENERGY PREDICTED BY IDOCK:   -5.20 KCAL/MOL
REMARK 924 INTRA-LIGAND FREE ENERGY PREDICTED BY IDOCK:   -0.92 KCAL/MOL
REMARK 927      BINDING AFFINITY PREDICTED BY RF-SCORE:    0.00 PKD
ROOT
HETATM    1  C   UNL     1      -9.103  12.415  68.074  1.00  0.00    -0.195 C  
HETATM    2  C   UNL     1      -9.542  10.995  68.281  1.00  0.00    -0.172 A  
HETATM    3  C   UNL     1      -9.157  10.289  69.420  1.00  0.00    -0.203 A  
HETATM    4  C   UNL     1      -9.472   8.930  69.552  1.00  0.00    -0.159 A  
HETATM    5  C   UNL     1     -10.237   8.244  68.595  1.00  0.00    -0.223 A  
HETATM    6  C   UNL     1     -10.660   8.988  67.477  1.00  0.00    -0.306 A  
HETATM    7  C   UNL     1     -10.301  10.334  67.310  1.00  0.00    -0.284 A  
ENDROOT
BRANCH   5   8
HETATM    8  C   UNL     1     -10.512   6.764  68.680  1.00  0.00    -0.232 C  
HETATM    9  C   UNL     1     -11.316   6.242  69.647  1.00  0.00    -0.492 C  
BRANCH   8  10
HETATM   10  C   UNL     1      -9.927   5.749  67.733  1.00  0.00    -0.140 A  
HETATM   11  N   UNL     1      -8.734   5.198  68.083  1.00  0.00    -0.102 NA 
HETATM   12  C   UNL     1     -10.577   5.367  66.554  1.00  0.00    -0.353 A  
HETATM   13  C   UNL     1      -9.999   4.392  65.739  1.00  0.00    -0.251 A  
HETATM   14  C   UNL     1      -8.185   4.276  67.261  1.00  0.00    -0.100 A  
HETATM   15  C   UNL     1      -8.779   3.840  66.094  1.00  0.00    -0.117 A  
ENDBRANCH   8  10
BRANCH   9  16
HETATM   16  C   UNL     1     -12.142   6.939  70.689  1.00  0.00    -0.311 C  
BRANCH  16  17
HETATM   17  N   UNL     1     -11.778   6.602  72.070  1.00  0.00    -0.300 NA 
HETATM   18  C   UNL     1     -10.230   5.601  73.497  1.00  0.00    -0.227 C  
HETATM   19  C   UNL     1     -10.203   7.090  73.794  1.00  0.00    -0.401 C  
HETATM   20  C   UNL     1     -10.785   5.523  72.091  1.00  0.00    -0.231 C  
HETATM   21  C   UNL     1     -11.188   7.720  72.812  1.00  0.00    -0.398 C  
ENDBRANCH  16  17
ENDBRANCH   9  16
ENDBRANCH   5   8
TORSDOF 4
ENDMDL
MODEL      125
REMARK 921   NORMALIZED FREE ENERGY PREDICTED BY IDOCK:   -4.29 KCAL/MOL
REMARK 922        TOTAL FREE ENERGY PREDICTED BY IDOCK:   -6.10 KCAL/MOL
REMARK 923 INTER-LIGAND FREE ENERGY PREDICTED BY IDOCK:   -5.23 KCAL/MOL
REMARK 924 INTRA-LIGAND FREE ENERGY PREDICTED BY IDOCK:   -0.87 KCAL/MOL
REMARK 927      BINDING AFFINITY PREDICTED BY RF-SCORE:    0.00 PKD
ROOT
HETATM    1  C   UNL     1      -9.010  10.311  65.580  1.00  0.00    -0.198 C  
HETATM    2  C   UNL     1      -9.183   9.171  66.541  1.00  0.00    -0.221 A  
HETATM    3  C   UNL     1     -10.452   8.669  66.830  1.00  0.00    -0.329 A  
HETATM    4  C   UNL     1     -10.617   7.685  67.815  1.00  0.00    -0.265 A  
HETATM    5  C   UNL     1      -9.527   7.118  68.494  1.00  0.00    -0.139 A  
HETATM    6  C   UNL     1      -8.250   7.602  68.151  1.00  0.00    -0.124 A  
HETATM    7  C   UNL     1      -8.081   8.626  67.207  1.00  0.00    -0.101 A  
ENDROOT
BRANCH   5   8
HETATM    8  C   UNL     1      -9.695   6.121  69.613  1.00  0.00    -0.181 C  
HETATM    9  C   UNL     1      -9.980   6.514  70.883  1.00  0.00    -0.204 C  
BRANCH   8  10
HETATM   10  C   UNL     1      -9.553   4.631  69.432  1.00  0.00    -0.187 A  
HETATM   11  N   UNL     1      -9.436   4.175  68.157  1.00  0.00    -0.160 NA 
HETATM   12  C   UNL     1      -9.521   3.748  70.517  1.00  0.00    -0.254 A  
HETATM   13  C   UNL     1      -9.347   2.383  70.283  1.00  0.00    -0.188 A  
HETATM   14  C   UNL     1      -9.297   2.846  67.959  1.00  0.00    -0.205 A  
HETATM   15  C   UNL     1      -9.239   1.921  68.981  1.00  0.00    -0.200 A  
ENDBRANCH   8  10
BRANCH   9  16
HETATM   16  C   UNL     1     -10.288   7.883  71.420  1.00  0.00    -0.198 C  
BRANCH  16  17
HETATM   17  N   UNL     1     -11.620   8.008  72.021  1.00  0.00    -0.295 NA 
HETATM   18  C   UNL     1     -13.687   9.087  71.990  1.00  0.00    -0.516 C  
HETATM   19  C   UNL     1     -13.939   7.641  71.597  1.00  0.00    -0.510 C  
HETATM   20  C   UNL     1     -12.223   9.298  71.670  1.00  0.00    -0.370 C  
HETATM   21  C   UNL     1     -12.564   6.978  71.577  1.00  0.00    -0.385 C  
ENDBRANCH  16  17
ENDBRANCH   9  16
ENDBRANCH   5   8
TORSDOF 4
ENDMDL
MODEL      126
REMARK 921   NORMALIZED FREE ENERGY PREDICTED BY IDOCK:   -4.28 KCAL/MOL
REMARK 922        TOTAL FREE ENERGY PREDICTED BY IDOCK:   -6.09 KCAL/MOL
REMARK 923 INTER-LIGAND FREE ENERGY PREDICTED BY IDOCK:   -5.27 KCAL/MOL
REMARK 924 INTRA-LIGAND FREE ENERGY PREDICTED BY IDOCK:   -0.81 KCAL/MOL
REMARK 927      BINDING AFFINITY PREDICTED BY RF-SCORE:    0.00 PKD
ROOT
HETATM    1  C   UNL     1      -7.909  10.177  65.439  1.00  0.00    -0.142 C  
HETATM    2  C   UNL     1      -8.466  11.279  66.291  1.00  0.00    -0.156 A  
HETATM    3  C   UNL     1      -9.692  11.869  65.983  1.00  0.00    -0.257 A  
HETATM    4  C   UNL     1     -10.150  12.974  66.712  1.00  0.00    -0.247 A  
HETATM    5  C   UNL     1      -9.444  13.488  67.813  1.00  0.00    -0.216 A  
HETATM    6  C   UNL     1      -8.234  12.846  68.139  1.00  0.00    -0.163 A  
HETATM    7  C   UNL     1      -7.741  11.775  67.379  1.00  0.00    -0.151 A  
ENDROOT
BRANCH   5   8
HETATM    8  C   UNL     1      -9.881  14.726  68.555  1.00  0.00    -0.218 C  
HETATM    9  C   UNL     1      -9.234  15.913  68.405  1.00  0.00    -0.197 C  
BRANCH   8  10
HETATM   10  C   UNL     1     -11.040  14.757  69.517  1.00  0.00    -0.279 A  
HETATM   11  N   UNL     1     -11.206  15.895  70.242  1.00  0.00    -0.351 NA 
HETATM   12  C   UNL     1     -11.924  13.681  69.655  1.00  0.00    -0.402 A  
HETATM   13  C   UNL     1     -13.002  13.790  70.536  1.00  0.00    -0.120 A  
HETATM   14  C   UNL     1     -12.242  15.962  71.107  1.00  0.00    -0.399 A  
HETATM   15  C   UNL     1     -13.162  14.947  71.281  1.00  0.00    -0.476 A  
ENDBRANCH   8  10
BRANCH   9  16
HETATM   16  C   UNL     1      -8.116  16.288  67.475  1.00  0.00    -0.146 C  
BRANCH  16  17
HETATM   17  N   UNL     1      -7.516  17.597  67.753  1.00  0.00    -0.197 NA 
HETATM   18  C   UNL     1      -7.641  19.593  68.951  1.00  0.00    -0.344 C  
HETATM   19  C   UNL     1      -6.406  18.859  69.447  1.00  0.00    -0.299 C  
HETATM   20  C   UNL     1      -8.501  18.496  68.362  1.00  0.00    -0.328 C  
HETATM   21  C   UNL     1      -6.382  17.539  68.681  1.00  0.00    -0.186 C  
ENDBRANCH  16  17
ENDBRANCH   9  16
ENDBRANCH   5   8
TORSDOF 4
ENDMDL
MODEL      127
REMARK 921   NORMALIZED FREE ENERGY PREDICTED BY IDOCK:   -4.27 KCAL/MOL
REMARK 922        TOTAL FREE ENERGY PREDICTED BY IDOCK:   -6.07 KCAL/MOL
REMARK 923 INTER-LIGAND FREE ENERGY PREDICTED BY IDOCK:   -5.05 KCAL/MOL
REMARK 924 INTRA-LIGAND FREE ENERGY PREDICTED BY IDOCK:   -1.02 KCAL/MOL
REMARK 927      BINDING AFFINITY PREDICTED BY RF-SCORE:    0.00 PKD
ROOT
HETATM    1  C   UNL     1      -5.865  11.854  70.471  1.00  0.00    -0.125 C  
HETATM    2  C   UNL     1      -6.714  11.363  69.336  1.00  0.00    -0.122 A  
HETATM    3  C   UNL     1      -6.417  11.715  68.019  1.00  0.00    -0.055 A  
HETATM    4  C   UNL     1      -7.279  11.350  66.976  1.00  0.00    -0.141 A  
HETATM    5  C   UNL     1      -8.426  10.569  67.194  1.00  0.00    -0.127 A  
HETATM    6  C   UNL     1      -8.681  10.181  68.523  1.00  0.00    -0.123 A  
HETATM    7  C   UNL     1      -7.853  10.589  69.580  1.00  0.00    -0.134 A  
ENDROOT
BRANCH   5   8
HETATM    8  C   UNL     1      -9.407  10.240  66.097  1.00  0.00    -0.211 C  
HETATM    9  C   UNL     1      -9.442   9.010  65.516  1.00  0.00    -0.220 C  
BRANCH   8  10
HETATM   10  C   UNL     1     -10.407  11.224  65.548  1.00  0.00    -0.266 A  
HETATM   11  N   UNL     1     -10.530  11.286  64.196  1.00  0.00    -0.343 NA 
HETATM   12  C   UNL     1     -11.193  12.030  66.379  1.00  0.00    -0.389 A  
HETATM   13  C   UNL     1     -12.130  12.893  65.808  1.00  0.00    -0.513 A  
HETATM   14  C   UNL     1     -11.426  12.150  63.670  1.00  0.00    -0.481 A  
HETATM   15  C   UNL     1     -12.246  12.961  64.429  1.00  0.00    -0.484 A  
ENDBRANCH   8  10
BRANCH   9  16
HETATM   16  C   UNL     1      -8.680   7.762  65.859  1.00  0.00    -0.149 C  
BRANCH  16  17
HETATM   17  N   UNL     1      -9.455   6.772  66.613  1.00  0.00    -0.163 NA 
HETATM   18  C   UNL     1      -9.789   5.683  68.648  1.00  0.00    -0.190 C  
HETATM   19  C   UNL     1     -11.018   6.541  68.401  1.00  0.00    -0.358 C  
HETATM   20  C   UNL     1      -8.717   6.337  67.803  1.00  0.00    -0.113 C  
HETATM   21  C   UNL     1     -10.747   7.277  67.091  1.00  0.00    -0.343 C  
ENDBRANCH  16  17
ENDBRANCH   9  16
ENDBRANCH   5   8
TORSDOF 4
ENDMDL
MODEL      128
REMARK 921   NORMALIZED FREE ENERGY PREDICTED BY IDOCK:   -4.16 KCAL/MOL
REMARK 922        TOTAL FREE ENERGY PREDICTED BY IDOCK:   -5.93 KCAL/MOL
REMARK 923 INTER-LIGAND FREE ENERGY PREDICTED BY IDOCK:   -5.03 KCAL/MOL
REMARK 924 INTRA-LIGAND FREE ENERGY PREDICTED BY IDOCK:   -0.90 KCAL/MOL
REMARK 927      BINDING AFFINITY PREDICTED BY RF-SCORE:    0.00 PKD
ROOT
HETATM    1  C   UNL     1      -8.432   9.395  64.668  1.00  0.00    -0.179 C  
HETATM    2  C   UNL     1      -8.910  10.343  65.728  1.00  0.00    -0.186 A  
HETATM    3  C   UNL     1     -10.134  10.999  65.597  1.00  0.00    -0.310 A  
HETATM    4  C   UNL     1     -10.521  11.970  66.531  1.00  0.00    -0.253 A  
HETATM    5  C   UNL     1      -9.742  12.272  67.661  1.00  0.00    -0.194 A  
HETATM    6  C   UNL     1      -8.534  11.561  67.801  1.00  0.00    -0.137 A  
HETATM    7  C   UNL     1      -8.114  10.629  66.841  1.00  0.00    -0.124 A  
ENDROOT
BRANCH   5   8
HETATM    8  C   UNL     1     -10.103  13.371  68.628  1.00  0.00    -0.162 C  
HETATM    9  C   UNL     1      -9.463  14.572  68.616  1.00  0.00    -0.205 C  
BRANCH   8  10
HETATM   10  C   UNL     1     -11.172  13.238  69.682  1.00  0.00    -0.032 A  
HETATM   11  N   UNL     1     -11.579  14.382  70.292  1.00  0.00    -0.268 NA 
HETATM   12  C   UNL     1     -11.742  12.004  70.015  1.00  0.00    -0.346 A  
HETATM   13  C   UNL     1     -12.757  11.955  70.972  1.00  0.00    -0.354 A  
HETATM   14  C   UNL     1     -12.543  14.301  71.235  1.00  0.00    -0.364 A  
HETATM   15  C   UNL     1     -13.162  13.122  71.599  1.00  0.00    -0.435 A  
ENDBRANCH   8  10
BRANCH   9  16
HETATM   16  C   UNL     1      -8.430  15.101  67.663  1.00  0.00    -0.160 C  
BRANCH  16  17
HETATM   17  N   UNL     1      -8.944  16.080  66.700  1.00  0.00    -0.234 NA 
HETATM   18  C   UNL     1     -10.747  16.788  65.402  1.00  0.00    -0.201 C  
HETATM   19  C   UNL     1     -10.515  17.859  66.453  1.00  0.00    -0.318 C  
HETATM   20  C   UNL     1     -10.121  15.549  66.004  1.00  0.00    -0.332 C  
HETATM   21  C   UNL     1      -9.365  17.343  67.315  1.00  0.00    -0.238 C  
ENDBRANCH  16  17
ENDBRANCH   9  16
ENDBRANCH   5   8
TORSDOF 4
ENDMDL
MODEL      129
REMARK 921   NORMALIZED FREE ENERGY PREDICTED BY IDOCK:   -4.14 KCAL/MOL
REMARK 922        TOTAL FREE ENERGY PREDICTED BY IDOCK:   -5.92 KCAL/MOL
REMARK 923 INTER-LIGAND FREE ENERGY PREDICTED BY IDOCK:   -5.13 KCAL/MOL
REMARK 924 INTRA-LIGAND FREE ENERGY PREDICTED BY IDOCK:   -0.78 KCAL/MOL
REMARK 927      BINDING AFFINITY PREDICTED BY RF-SCORE:    0.00 PKD
ROOT
HETATM    1  C   UNL     1     -10.470  20.127  66.002  1.00  0.00    -0.446 C  
HETATM    2  C   UNL     1      -9.875  18.825  66.451  1.00  0.00    -0.403 A  
HETATM    3  C   UNL     1     -10.517  18.041  67.410  1.00  0.00    -0.399 A  
HETATM    4  C   UNL     1      -9.900  16.886  67.910  1.00  0.00    -0.263 A  
HETATM    5  C   UNL     1      -8.661  16.433  67.428  1.00  0.00    -0.195 A  
HETATM    6  C   UNL     1      -8.053  17.211  66.424  1.00  0.00    -0.337 A  
HETATM    7  C   UNL     1      -8.638  18.398  65.959  1.00  0.00    -0.018 A  
ENDROOT
BRANCH   5   8
HETATM    8  C   UNL     1      -7.947  15.241  68.014  1.00  0.00    -0.135 C  
HETATM    9  C   UNL     1      -8.134  13.986  67.525  1.00  0.00    -0.197 C  
BRANCH   8  10
HETATM   10  C   UNL     1      -6.991  15.328  69.176  1.00  0.00    -0.148 A  
HETATM   11  N   UNL     1      -6.774  14.186  69.880  1.00  0.00    -0.084 NA 
HETATM   12  C   UNL     1      -6.335  16.518  69.514  1.00  0.00    -0.214 A  
HETATM   13  C   UNL     1      -5.431  16.521  70.578  1.00  0.00    -0.153 A  
HETATM   14  C   UNL     1      -5.915  14.226  70.922  1.00  0.00    -0.200 A  
HETATM   15  C   UNL     1      -5.220  15.358  71.300  1.00  0.00    -0.091 A  
ENDBRANCH   8  10
BRANCH   9  16
HETATM   16  C   UNL     1      -8.920  13.526  66.330  1.00  0.00     0.034 C  
BRANCH  16  17
HETATM   17  N   UNL     1     -10.317  13.974  66.321  1.00  0.00    -0.286 NA 
HETATM   18  C   UNL     1     -12.136  14.682  65.046  1.00  0.00    -0.349 C  
HETATM   19  C   UNL     1     -12.513  13.336  65.640  1.00  0.00    -0.510 C  
HETATM   20  C   UNL     1     -10.623  14.677  65.071  1.00  0.00    -0.439 C  
HETATM   21  C   UNL     1     -11.285  12.878  66.425  1.00  0.00    -0.300 C  
ENDBRANCH  16  17
ENDBRANCH   9  16
ENDBRANCH   5   8
TORSDOF 4
ENDMDL
MODEL      130
REMARK 921   NORMALIZED FREE ENERGY PREDICTED BY IDOCK:   -4.14 KCAL/MOL
REMARK 922        TOTAL FREE ENERGY PREDICTED BY IDOCK:   -5.92 KCAL/MOL
REMARK 923 INTER-LIGAND FREE ENERGY PREDICTED BY IDOCK:   -6.21 KCAL/MOL
REMARK 924 INTRA-LIGAND FREE ENERGY PREDICTED BY IDOCK:    0.29 KCAL/MOL
REMARK 927      BINDING AFFINITY PREDICTED BY RF-SCORE:    0.00 PKD
ROOT
HETATM    1  C   UNL     1     -12.715  15.490  70.605  1.00  0.00    -0.487 C  
HETATM    2  C   UNL     1     -12.284  14.340  69.742  1.00  0.00    -0.390 A  
HETATM    3  C   UNL     1     -12.255  13.041  70.248  1.00  0.00    -0.368 A  
HETATM    4  C   UNL     1     -11.742  11.990  69.476  1.00  0.00    -0.408 A  
HETATM    5  C   UNL     1     -11.306  12.179  68.154  1.00  0.00    -0.349 A  
HETATM    6  C   UNL     1     -11.392  13.488  67.644  1.00  0.00    -0.326 A  
HETATM    7  C   UNL     1     -11.852  14.556  68.430  1.00  0.00    -0.351 A  
ENDROOT
BRANCH   5   8
HETATM    8  C   UNL     1     -10.675  11.078  67.340  1.00  0.00    -0.303 C  
HETATM    9  C   UNL     1     -10.324   9.888  67.898  1.00  0.00    -0.256 C  
BRANCH   8  10
HETATM   10  C   UNL     1     -10.370  11.197  65.868  1.00  0.00    -0.259 A  
HETATM   11  N   UNL     1      -9.350  10.437  65.389  1.00  0.00    -0.188 NA 
HETATM   12  C   UNL     1     -11.106  12.031  65.020  1.00  0.00    -0.368 A  
HETATM   13  C   UNL     1     -10.799  12.065  63.658  1.00  0.00    -0.510 A  
HETATM   14  C   UNL     1      -9.057  10.511  64.072  1.00  0.00    -0.231 A  
HETATM   15  C   UNL     1      -9.752  11.297  63.175  1.00  0.00    -0.408 A  
ENDBRANCH   8  10
BRANCH   9  16
HETATM   16  C   UNL     1     -10.558   9.373  69.290  1.00  0.00    -0.225 C  
BRANCH  16  17
HETATM   17  N   UNL     1     -10.372   7.925  69.435  1.00  0.00    -0.217 NA 
HETATM   18  C   UNL     1     -10.354   5.841  68.391  1.00  0.00    -0.269 C  
HETATM   19  C   UNL     1      -8.928   6.124  68.834  1.00  0.00    -0.124 C  
HETATM   20  C   UNL     1     -10.986   7.213  68.309  1.00  0.00    -0.029 C  
HETATM   21  C   UNL     1      -8.965   7.513  69.466  1.00  0.00    -0.143 C  
ENDBRANCH  16  17
ENDBRANCH   9  16
ENDBRANCH   5   8
TORSDOF 4
ENDMDL
MODEL      131
REMARK 921   NORMALIZED FREE ENERGY PREDICTED BY IDOCK:   -4.13 KCAL/MOL
REMARK 922        TOTAL FREE ENERGY PREDICTED BY IDOCK:   -5.90 KCAL/MOL
REMARK 923 INTER-LIGAND FREE ENERGY PREDICTED BY IDOCK:   -5.29 KCAL/MOL
REMARK 924 INTRA-LIGAND FREE ENERGY PREDICTED BY IDOCK:   -0.62 KCAL/MOL
REMARK 927      BINDING AFFINITY PREDICTED BY RF-SCORE:    0.00 PKD
ROOT
HETATM    1  C   UNL     1      -5.347  11.986  70.230  1.00  0.00    -0.115 C  
HETATM    2  C   UNL     1      -6.557  11.427  69.541  1.00  0.00    -0.129 A  
HETATM    3  C   UNL     1      -7.227  10.321  70.062  1.00  0.00    -0.164 A  
HETATM    4  C   UNL     1      -8.283   9.733  69.353  1.00  0.00    -0.135 A  
HETATM    5  C   UNL     1      -8.755  10.262  68.141  1.00  0.00    -0.123 A  
HETATM    6  C   UNL     1      -8.098  11.410  67.657  1.00  0.00    -0.124 A  
HETATM    7  C   UNL     1      -7.004  11.971  68.333  1.00  0.00    -0.080 A  
ENDROOT
BRANCH   5   8
HETATM    8  C   UNL     1      -9.833   9.594  67.325  1.00  0.00    -0.225 C  
HETATM    9  C   UNL     1     -10.962  10.257  66.955  1.00  0.00    -0.140 C  
BRANCH   8  10
HETATM   10  C   UNL     1      -9.766   8.160  66.867  1.00  0.00    -0.226 A  
HETATM   11  N   UNL     1      -8.671   7.795  66.149  1.00  0.00    -0.149 NA 
HETATM   12  C   UNL     1     -10.766   7.231  67.175  1.00  0.00    -0.413 A  
HETATM   13  C   UNL     1     -10.624   5.908  66.754  1.00  0.00    -0.368 A  
HETATM   14  C   UNL     1      -8.573   6.514  65.730  1.00  0.00    -0.144 A  
HETATM   15  C   UNL     1      -9.512   5.542  66.013  1.00  0.00    -0.147 A  
ENDBRANCH   8  10
BRANCH   9  16
HETATM   16  C   UNL     1     -11.333  11.701  67.137  1.00  0.00    -0.306 C  
BRANCH  16  17
HETATM   17  N   UNL     1     -11.970  12.311  65.966  1.00  0.00    -0.609 NA 
HETATM   18  C   UNL     1     -12.135  14.176  64.577  1.00  0.00    -0.489 C  
HETATM   19  C   UNL     1     -11.542  13.056  63.740  1.00  0.00    -0.517 C  
HETATM   20  C   UNL     1     -11.821  13.769  66.000  1.00  0.00    -0.390 C  
HETATM   21  C   UNL     1     -11.401  11.868  64.690  1.00  0.00    -0.293 C  
ENDBRANCH  16  17
ENDBRANCH   9  16
ENDBRANCH   5   8
TORSDOF 4
ENDMDL
MODEL      132
REMARK 921   NORMALIZED FREE ENERGY PREDICTED BY IDOCK:   -4.12 KCAL/MOL
REMARK 922        TOTAL FREE ENERGY PREDICTED BY IDOCK:   -5.88 KCAL/MOL
REMARK 923 INTER-LIGAND FREE ENERGY PREDICTED BY IDOCK:   -5.71 KCAL/MOL
REMARK 924 INTRA-LIGAND FREE ENERGY PREDICTED BY IDOCK:   -0.17 KCAL/MOL
REMARK 927      BINDING AFFINITY PREDICTED BY RF-SCORE:    0.00 PKD
ROOT
HETATM    1  C   UNL     1     -12.553  14.337  70.351  1.00  0.00    -0.405 C  
HETATM    2  C   UNL     1     -12.234  12.874  70.266  1.00  0.00    -0.362 A  
HETATM    3  C   UNL     1     -12.604  12.003  71.291  1.00  0.00    -0.357 A  
HETATM    4  C   UNL     1     -12.202  10.661  71.261  1.00  0.00    -0.447 A  
HETATM    5  C   UNL     1     -11.480  10.121  70.183  1.00  0.00    -0.368 A  
HETATM    6  C   UNL     1     -11.161  11.005  69.134  1.00  0.00    -0.301 A  
HETATM    7  C   UNL     1     -11.511  12.363  69.183  1.00  0.00    -0.358 A  
ENDROOT
BRANCH   5   8
HETATM    8  C   UNL     1     -10.968   8.703  70.174  1.00  0.00    -0.234 C  
HETATM    9  C   UNL     1     -10.607   8.082  69.019  1.00  0.00    -0.169 C  
BRANCH   8  10
HETATM   10  C   UNL     1     -10.825   7.859  71.415  1.00  0.00    -0.226 A  
HETATM   11  N   UNL     1     -11.473   6.664  71.423  1.00  0.00    -0.286 NA 
HETATM   12  C   UNL     1     -10.051   8.265  72.507  1.00  0.00    -0.376 A  
HETATM   13  C   UNL     1      -9.927   7.418  73.610  1.00  0.00    -0.379 A  
HETATM   14  C   UNL     1     -11.357   5.877  72.515  1.00  0.00    -0.304 A  
HETATM   15  C   UNL     1     -10.597   6.205  73.619  1.00  0.00    -0.279 A  
ENDBRANCH   8  10
BRANCH   9  16
HETATM   16  C   UNL     1     -10.519   8.625  67.622  1.00  0.00    -0.244 C  
BRANCH  16  17
HETATM   17  N   UNL     1      -9.161   8.641  67.067  1.00  0.00    -0.134 NA 
HETATM   18  C   UNL     1      -7.602   9.758  65.741  1.00  0.00    -0.108 C  
HETATM   19  C   UNL     1      -7.080   9.804  67.167  1.00  0.00    -0.086 C  
HETATM   20  C   UNL     1      -9.089   9.537  65.908  1.00  0.00    -0.184 C  
HETATM   21  C   UNL     1      -8.145   9.111  68.014  1.00  0.00    -0.105 C  
ENDBRANCH  16  17
ENDBRANCH   9  16
ENDBRANCH   5   8
TORSDOF 4
ENDMDL
MODEL      133
REMARK 921   NORMALIZED FREE ENERGY PREDICTED BY IDOCK:   -4.09 KCAL/MOL
REMARK 922        TOTAL FREE ENERGY PREDICTED BY IDOCK:   -5.85 KCAL/MOL
REMARK 923 INTER-LIGAND FREE ENERGY PREDICTED BY IDOCK:   -5.31 KCAL/MOL
REMARK 924 INTRA-LIGAND FREE ENERGY PREDICTED BY IDOCK:   -0.54 KCAL/MOL
REMARK 927      BINDING AFFINITY PREDICTED BY RF-SCORE:    0.00 PKD
ROOT
HETATM    1  C   UNL     1     -13.237  11.272  71.848  1.00  0.00    -0.491 C  
HETATM    2  C   UNL     1     -12.549   9.995  71.466  1.00  0.00    -0.525 A  
HETATM    3  C   UNL     1     -13.240   8.783  71.476  1.00  0.00    -0.356 A  
HETATM    4  C   UNL     1     -12.564   7.580  71.233  1.00  0.00    -0.345 A  
HETATM    5  C   UNL     1     -11.198   7.543  70.905  1.00  0.00    -0.286 A  
HETATM    6  C   UNL     1     -10.531   8.781  70.850  1.00  0.00    -0.278 A  
HETATM    7  C   UNL     1     -11.188   9.985  71.147  1.00  0.00    -0.339 A  
ENDROOT
BRANCH   5   8
HETATM    8  C   UNL     1     -10.439   6.253  70.723  1.00  0.00    -0.273 C  
HETATM    9  C   UNL     1      -9.792   5.963  69.562  1.00  0.00    -0.216 C  
BRANCH   8  10
HETATM   10  C   UNL     1     -10.340   5.186  71.783  1.00  0.00    -0.209 A  
HETATM   11  N   UNL     1     -10.680   5.543  73.049  1.00  0.00    -0.236 NA 
HETATM   12  C   UNL     1      -9.936   3.878  71.489  1.00  0.00    -0.209 A  
HETATM   13  C   UNL     1      -9.904   2.927  72.509  1.00  0.00    -0.220 A  
HETATM   14  C   UNL     1     -10.613   4.609  74.022  1.00  0.00    -0.286 A  
HETATM   15  C   UNL     1     -10.242   3.297  73.801  1.00  0.00    -0.212 A  
ENDBRANCH   8  10
BRANCH   9  16
HETATM   16  C   UNL     1      -9.586   6.810  68.339  1.00  0.00    -0.125 C  
BRANCH  16  17
HETATM   17  N   UNL     1      -9.445   6.045  67.095  1.00  0.00    -0.115 NA 
HETATM   18  C   UNL     1      -9.244   3.947  66.099  1.00  0.00    -0.161 C  
HETATM   19  C   UNL     1     -10.586   4.512  65.666  1.00  0.00    -0.231 C  
HETATM   20  C   UNL     1      -8.928   4.702  67.372  1.00  0.00    -0.111 C  
HETATM   21  C   UNL     1     -10.708   5.860  66.373  1.00  0.00    -0.088 C  
ENDBRANCH  16  17
ENDBRANCH   9  16
ENDBRANCH   5   8
TORSDOF 4
ENDMDL
MODEL      134
REMARK 921   NORMALIZED FREE ENERGY PREDICTED BY IDOCK:   -4.08 KCAL/MOL
REMARK 922        TOTAL FREE ENERGY PREDICTED BY IDOCK:   -5.84 KCAL/MOL
REMARK 923 INTER-LIGAND FREE ENERGY PREDICTED BY IDOCK:   -5.01 KCAL/MOL
REMARK 924 INTRA-LIGAND FREE ENERGY PREDICTED BY IDOCK:   -0.83 KCAL/MOL
REMARK 927      BINDING AFFINITY PREDICTED BY RF-SCORE:    0.00 PKD
ROOT
HETATM    1  C   UNL     1     -12.939  12.304  63.948  1.00  0.00    -0.309 C  
HETATM    2  C   UNL     1     -11.924  12.761  64.955  1.00  0.00    -0.456 A  
HETATM    3  C   UNL     1     -10.613  13.039  64.570  1.00  0.00    -0.413 A  
HETATM    4  C   UNL     1      -9.643  13.352  65.532  1.00  0.00     0.036 A  
HETATM    5  C   UNL     1      -9.954  13.468  66.896  1.00  0.00    -0.256 A  
HETATM    6  C   UNL     1     -11.295  13.234  67.258  1.00  0.00    -0.347 A  
HETATM    7  C   UNL     1     -12.259  12.865  66.309  1.00  0.00    -0.340 A  
ENDROOT
BRANCH   5   8
HETATM    8  C   UNL     1      -8.907  13.721  67.952  1.00  0.00    -0.186 C  
HETATM    9  C   UNL     1      -8.915  14.851  68.709  1.00  0.00    -0.188 C  
BRANCH   8  10
HETATM   10  C   UNL     1      -7.774  12.772  68.249  1.00  0.00    -0.136 A  
HETATM   11  N   UNL     1      -6.594  13.326  68.633  1.00  0.00    -0.084 NA 
HETATM   12  C   UNL     1      -7.921  11.384  68.157  1.00  0.00    -0.133 A  
HETATM   13  C   UNL     1      -6.844  10.559  68.485  1.00  0.00    -0.064 A  
HETATM   14  C   UNL     1      -5.560  12.504  68.918  1.00  0.00    -0.063 A  
HETATM   15  C   UNL     1      -5.639  11.127  68.866  1.00  0.00    -0.039 A  
ENDBRANCH   8  10
BRANCH   9  16
HETATM   16  C   UNL     1      -9.925  15.961  68.768  1.00  0.00    -0.220 C  
BRANCH  16  17
HETATM   17  N   UNL     1      -9.521  17.181  68.062  1.00  0.00    -0.256 NA 
HETATM   18  C   UNL     1      -9.844  18.575  66.221  1.00  0.00    -0.352 C  
HETATM   19  C   UNL     1     -10.274  19.361  67.448  1.00  0.00    -0.530 C  
HETATM   20  C   UNL     1      -9.951  17.131  66.661  1.00  0.00    -0.295 C  
HETATM   21  C   UNL     1     -10.098  18.406  68.626  1.00  0.00    -0.377 C  
ENDBRANCH  16  17
ENDBRANCH   9  16
ENDBRANCH   5   8
TORSDOF 4
ENDMDL
MODEL      135
REMARK 921   NORMALIZED FREE ENERGY PREDICTED BY IDOCK:   -4.08 KCAL/MOL
REMARK 922        TOTAL FREE ENERGY PREDICTED BY IDOCK:   -5.84 KCAL/MOL
REMARK 923 INTER-LIGAND FREE ENERGY PREDICTED BY IDOCK:   -5.06 KCAL/MOL
REMARK 924 INTRA-LIGAND FREE ENERGY PREDICTED BY IDOCK:   -0.79 KCAL/MOL
REMARK 927      BINDING AFFINITY PREDICTED BY RF-SCORE:    0.00 PKD
ROOT
HETATM    1  C   UNL     1     -11.385   6.168  72.054  1.00  0.00    -0.348 C  
HETATM    2  C   UNL     1     -10.904   6.722  70.745  1.00  0.00    -0.291 A  
HETATM    3  C   UNL     1     -11.387   6.218  69.537  1.00  0.00    -0.475 A  
HETATM    4  C   UNL     1     -10.849   6.657  68.320  1.00  0.00    -0.322 A  
HETATM    5  C   UNL     1      -9.866   7.659  68.256  1.00  0.00    -0.181 A  
HETATM    6  C   UNL     1      -9.429   8.191  69.484  1.00  0.00    -0.156 A  
HETATM    7  C   UNL     1      -9.922   7.717  70.709  1.00  0.00    -0.181 A  
ENDROOT
BRANCH   5   8
HETATM    8  C   UNL     1      -9.219   8.082  66.962  1.00  0.00    -0.181 C  
HETATM    9  C   UNL     1      -9.592   9.219  66.315  1.00  0.00    -0.313 C  
BRANCH   8  10
HETATM   10  C   UNL     1      -8.131   7.296  66.276  1.00  0.00    -0.121 A  
HETATM   11  N   UNL     1      -8.527   6.314  65.424  1.00  0.00    -0.147 NA 
HETATM   12  C   UNL     1      -6.773   7.565  66.482  1.00  0.00    -0.058 A  
HETATM   13  C   UNL     1      -5.816   6.827  65.784  1.00  0.00    -0.034 A  
HETATM   14  C   UNL     1      -7.578   5.596  64.783  1.00  0.00    -0.084 A  
HETATM   15  C   UNL     1      -6.223   5.819  64.924  1.00  0.00    -0.032 A  
ENDBRANCH   8  10
BRANCH   9  16
HETATM   16  C   UNL     1     -10.555  10.292  66.736  1.00  0.00    -0.185 C  
BRANCH  16  17
HETATM   17  N   UNL     1     -10.605  11.445  65.830  1.00  0.00    -0.261 NA 
HETATM   18  C   UNL     1     -11.044  12.225  63.677  1.00  0.00    -0.537 C  
HETATM   19  C   UNL     1     -12.105  12.822  64.586  1.00  0.00    -0.483 C  
HETATM   20  C   UNL     1     -10.567  11.004  64.433  1.00  0.00    -0.325 C  
HETATM   21  C   UNL     1     -11.820  12.253  65.974  1.00  0.00    -0.341 C  
ENDBRANCH  16  17
ENDBRANCH   9  16
ENDBRANCH   5   8
TORSDOF 4
ENDMDL
MODEL      136
REMARK 921   NORMALIZED FREE ENERGY PREDICTED BY IDOCK:   -4.07 KCAL/MOL
REMARK 922        TOTAL FREE ENERGY PREDICTED BY IDOCK:   -5.83 KCAL/MOL
REMARK 923 INTER-LIGAND FREE ENERGY PREDICTED BY IDOCK:   -4.98 KCAL/MOL
REMARK 924 INTRA-LIGAND FREE ENERGY PREDICTED BY IDOCK:   -0.85 KCAL/MOL
REMARK 927      BINDING AFFINITY PREDICTED BY RF-SCORE:    0.00 PKD
ROOT
HETATM    1  C   UNL     1      -7.411   8.179  74.466  1.00  0.00    -0.241 C  
HETATM    2  C   UNL     1      -7.955   8.137  73.068  1.00  0.00    -0.220 A  
HETATM    3  C   UNL     1      -7.221   8.658  72.002  1.00  0.00    -0.074 A  
HETATM    4  C   UNL     1      -7.782   8.722  70.719  1.00  0.00    -0.108 A  
HETATM    5  C   UNL     1      -9.059   8.210  70.436  1.00  0.00    -0.150 A  
HETATM    6  C   UNL     1      -9.763   7.641  71.516  1.00  0.00    -0.191 A  
HETATM    7  C   UNL     1      -9.230   7.624  72.813  1.00  0.00    -0.226 A  
ENDROOT
BRANCH   5   8
HETATM    8  C   UNL     1      -9.709   8.346  69.083  1.00  0.00    -0.171 C  
HETATM    9  C   UNL     1     -10.370   9.478  68.719  1.00  0.00    -0.228 C  
BRANCH   8  10
HETATM   10  C   UNL     1      -9.698   7.260  68.038  1.00  0.00    -0.141 A  
HETATM   11  N   UNL     1      -8.495   6.950  67.487  1.00  0.00    -0.122 NA 
HETATM   12  C   UNL     1     -10.861   6.581  67.656  1.00  0.00    -0.419 A  
HETATM   13  C   UNL     1     -10.775   5.558  66.710  1.00  0.00    -0.329 A  
HETATM   14  C   UNL     1      -8.447   5.974  66.554  1.00  0.00    -0.115 A  
HETATM   15  C   UNL     1      -9.549   5.251  66.143  1.00  0.00    -0.176 A  
ENDBRANCH   8  10
BRANCH   9  16
HETATM   16  C   UNL     1     -10.505  10.787  69.443  1.00  0.00    -0.200 C  
BRANCH  16  17
HETATM   17  N   UNL     1     -11.849  11.049  69.968  1.00  0.00    -0.322 NA 
HETATM   18  C   UNL     1     -13.276  10.985  71.811  1.00  0.00    -0.505 C  
HETATM   19  C   UNL     1     -13.064  12.450  71.470  1.00  0.00    -0.362 C  
HETATM   20  C   UNL     1     -12.073  10.295  71.206  1.00  0.00    -0.382 C  
HETATM   21  C   UNL     1     -12.088  12.458  70.295  1.00  0.00    -0.297 C  
ENDBRANCH  16  17
ENDBRANCH   9  16
ENDBRANCH   5   8
TORSDOF 4
ENDMDL
MODEL      137
REMARK 921   NORMALIZED FREE ENERGY PREDICTED BY IDOCK:   -4.05 KCAL/MOL
REMARK 922        TOTAL FREE ENERGY PREDICTED BY IDOCK:   -5.80 KCAL/MOL
REMARK 923 INTER-LIGAND FREE ENERGY PREDICTED BY IDOCK:   -4.91 KCAL/MOL
REMARK 924 INTRA-LIGAND FREE ENERGY PREDICTED BY IDOCK:   -0.89 KCAL/MOL
REMARK 927      BINDING AFFINITY PREDICTED BY RF-SCORE:    0.00 PKD
ROOT
HETATM    1  C   UNL     1     -10.523  20.947  68.928  1.00  0.00     0.625 C  
HETATM    2  C   UNL     1     -10.383  19.580  68.325  1.00  0.00    -0.524 A  
HETATM    3  C   UNL     1     -10.414  18.440  69.129  1.00  0.00     0.194 A  
HETATM    4  C   UNL     1     -10.167  17.176  68.577  1.00  0.00    -0.346 A  
HETATM    5  C   UNL     1      -9.951  16.992  67.201  1.00  0.00    -0.281 A  
HETATM    6  C   UNL     1      -9.975  18.149  66.399  1.00  0.00    -0.376 A  
HETATM    7  C   UNL     1     -10.166  19.424  66.953  1.00  0.00    -0.514 A  
ENDROOT
BRANCH   5   8
HETATM    8  C   UNL     1      -9.601  15.652  66.605  1.00  0.00    -0.267 C  
HETATM    9  C   UNL     1      -8.310  15.244  66.473  1.00  0.00    -0.124 C  
BRANCH   8  10
HETATM   10  C   UNL     1     -10.626  14.669  66.100  1.00  0.00    -0.312 A  
HETATM   11  N   UNL     1     -11.340  15.035  65.003  1.00  0.00    -0.385 NA 
HETATM   12  C   UNL     1     -10.832  13.427  66.710  1.00  0.00    -0.286 A  
HETATM   13  C   UNL     1     -11.769  12.545  66.169  1.00  0.00    -0.466 A  
HETATM   14  C   UNL     1     -12.261  14.174  64.517  1.00  0.00    -0.445 A  
HETATM   15  C   UNL     1     -12.503  12.926  65.056  1.00  0.00    -0.553 A  
ENDBRANCH   8  10
BRANCH   9  16
HETATM   16  C   UNL     1      -7.043  15.897  66.945  1.00  0.00    -0.096 C  
BRANCH  16  17
HETATM   17  N   UNL     1      -6.881  15.913  68.403  1.00  0.00    -0.113 NA 
HETATM   18  C   UNL     1      -5.503  15.442  70.224  1.00  0.00    -0.131 C  
HETATM   19  C   UNL     1      -5.658  16.953  70.168  1.00  0.00    -0.222 C  
HETATM   20  C   UNL     1      -5.812  14.995  68.812  1.00  0.00    -0.085 C  
HETATM   21  C   UNL     1      -6.521  17.229  68.939  1.00  0.00    -0.202 C  
ENDBRANCH  16  17
ENDBRANCH   9  16
ENDBRANCH   5   8
TORSDOF 4
ENDMDL
MODEL      138
REMARK 921   NORMALIZED FREE ENERGY PREDICTED BY IDOCK:   -4.03 KCAL/MOL
REMARK 922        TOTAL FREE ENERGY PREDICTED BY IDOCK:   -5.78 KCAL/MOL
REMARK 923 INTER-LIGAND FREE ENERGY PREDICTED BY IDOCK:   -4.94 KCAL/MOL
REMARK 924 INTRA-LIGAND FREE ENERGY PREDICTED BY IDOCK:   -0.83 KCAL/MOL
REMARK 927      BINDING AFFINITY PREDICTED BY RF-SCORE:    0.00 PKD
ROOT
HETATM    1  C   UNL     1     -11.397   6.706  72.657  1.00  0.00    -0.262 C  
HETATM    2  C   UNL     1     -10.898   7.471  71.466  1.00  0.00    -0.253 A  
HETATM    3  C   UNL     1     -10.295   8.719  71.623  1.00  0.00    -0.391 A  
HETATM    4  C   UNL     1      -9.937   9.479  70.501  1.00  0.00    -0.335 A  
HETATM    5  C   UNL     1     -10.101   9.000  69.191  1.00  0.00    -0.201 A  
HETATM    6  C   UNL     1     -10.664   7.716  69.056  1.00  0.00    -0.134 A  
HETATM    7  C   UNL     1     -11.076   6.973  70.172  1.00  0.00    -0.323 A  
ENDROOT
BRANCH   5   8
HETATM    8  C   UNL     1      -9.799   9.837  67.974  1.00  0.00    -0.173 C  
HETATM    9  C   UNL     1     -10.559  10.916  67.643  1.00  0.00    -0.263 C  
BRANCH   8  10
HETATM   10  C   UNL     1      -8.662   9.554  67.026  1.00  0.00    -0.128 A  
HETATM   11  N   UNL     1      -8.739  10.112  65.789  1.00  0.00    -0.146 NA 
HETATM   12  C   UNL     1      -7.562   8.771  67.394  1.00  0.00    -0.090 A  
HETATM   13  C   UNL     1      -6.522   8.580  66.482  1.00  0.00    -0.059 A  
HETATM   14  C   UNL     1      -7.731   9.888  64.918  1.00  0.00    -0.134 A  
HETATM   15  C   UNL     1      -6.609   9.142  65.219  1.00  0.00    -0.069 A  
ENDBRANCH   8  10
BRANCH   9  16
HETATM   16  C   UNL     1     -11.696  11.556  68.388  1.00  0.00    -0.303 C  
BRANCH  16  17
HETATM   17  N   UNL     1     -12.033  12.906  67.926  1.00  0.00    -0.332 NA 
HETATM   18  C   UNL     1     -11.303  15.091  67.565  1.00  0.00    -0.340 C  
HETATM   19  C   UNL     1     -11.589  14.491  66.199  1.00  0.00    -0.366 C  
HETATM   20  C   UNL     1     -11.073  13.884  68.448  1.00  0.00    -0.255 C  
HETATM   21  C   UNL     1     -12.016  13.050  66.467  1.00  0.00    -0.391 C  
ENDBRANCH  16  17
ENDBRANCH   9  16
ENDBRANCH   5   8
TORSDOF 4
ENDMDL
MODEL      139
REMARK 921   NORMALIZED FREE ENERGY PREDICTED BY IDOCK:   -4.03 KCAL/MOL
REMARK 922        TOTAL FREE ENERGY PREDICTED BY IDOCK:   -5.77 KCAL/MOL
REMARK 923 INTER-LIGAND FREE ENERGY PREDICTED BY IDOCK:   -5.52 KCAL/MOL
REMARK 924 INTRA-LIGAND FREE ENERGY PREDICTED BY IDOCK:   -0.25 KCAL/MOL
REMARK 927      BINDING AFFINITY PREDICTED BY RF-SCORE:    0.00 PKD
ROOT
HETATM    1  C   UNL     1     -10.462   4.438  65.346  1.00  0.00    -0.219 C  
HETATM    2  C   UNL     1     -10.250   4.897  66.759  1.00  0.00    -0.274 A  
HETATM    3  C   UNL     1      -9.651   4.058  67.698  1.00  0.00    -0.210 A  
HETATM    4  C   UNL     1      -9.562   4.447  69.041  1.00  0.00    -0.244 A  
HETATM    5  C   UNL     1     -10.001   5.705  69.485  1.00  0.00    -0.263 A  
HETATM    6  C   UNL     1     -10.556   6.557  68.512  1.00  0.00    -0.291 A  
HETATM    7  C   UNL     1     -10.699   6.153  67.176  1.00  0.00    -0.422 A  
ENDROOT
BRANCH   5   8
HETATM    8  C   UNL     1      -9.989   6.105  70.939  1.00  0.00    -0.223 C  
HETATM    9  C   UNL     1      -9.917   7.409  71.320  1.00  0.00    -0.194 C  
BRANCH   8  10
HETATM   10  C   UNL     1     -10.042   5.119  72.077  1.00  0.00    -0.197 A  
HETATM   11  N   UNL     1      -8.853   4.710  72.592  1.00  0.00    -0.114 NA 
HETATM   12  C   UNL     1     -11.252   4.651  72.602  1.00  0.00    -0.091 A  
HETATM   13  C   UNL     1     -11.233   3.769  73.684  1.00  0.00    -0.288 A  
HETATM   14  C   UNL     1      -8.864   3.834  73.621  1.00  0.00    -0.089 A  
HETATM   15  C   UNL     1     -10.018   3.346  74.200  1.00  0.00    -0.175 A  
ENDBRANCH   8  10
BRANCH   9  16
HETATM   16  C   UNL     1      -9.949   8.658  70.485  1.00  0.00    -0.189 C  
BRANCH  16  17
HETATM   17  N   UNL     1     -10.749   9.745  71.060  1.00  0.00    -0.317 NA 
HETATM   18  C   UNL     1     -12.471  11.284  70.745  1.00  0.00    -0.471 C  
HETATM   19  C   UNL     1     -12.947  10.301  71.801  1.00  0.00    -0.574 C  
HETATM   20  C   UNL     1     -11.398  10.521  69.999  1.00  0.00    -0.318 C  
HETATM   21  C   UNL     1     -11.821   9.281  71.946  1.00  0.00    -0.356 C  
ENDBRANCH  16  17
ENDBRANCH   9  16
ENDBRANCH   5   8
TORSDOF 4
ENDMDL
MODEL      140
REMARK 921   NORMALIZED FREE ENERGY PREDICTED BY IDOCK:   -4.02 KCAL/MOL
REMARK 922        TOTAL FREE ENERGY PREDICTED BY IDOCK:   -5.76 KCAL/MOL
REMARK 923 INTER-LIGAND FREE ENERGY PREDICTED BY IDOCK:   -4.77 KCAL/MOL
REMARK 924 INTRA-LIGAND FREE ENERGY PREDICTED BY IDOCK:   -1.00 KCAL/MOL
REMARK 927      BINDING AFFINITY PREDICTED BY RF-SCORE:    0.00 PKD
ROOT
HETATM    1  C   UNL     1      -8.657   4.914  65.952  1.00  0.00    -0.121 C  
HETATM    2  C   UNL     1      -9.195   5.909  66.938  1.00  0.00    -0.128 A  
HETATM    3  C   UNL     1     -10.536   5.880  67.320  1.00  0.00    -0.365 A  
HETATM    4  C   UNL     1     -11.058   6.882  68.149  1.00  0.00    -0.165 A  
HETATM    5  C   UNL     1     -10.256   7.904  68.682  1.00  0.00    -0.223 A  
HETATM    6  C   UNL     1      -8.894   7.885  68.326  1.00  0.00    -0.129 A  
HETATM    7  C   UNL     1      -8.375   6.918  67.451  1.00  0.00    -0.122 A  
ENDROOT
BRANCH   5   8
HETATM    8  C   UNL     1     -10.818   9.035  69.506  1.00  0.00    -0.177 C  
HETATM    9  C   UNL     1     -11.060   8.896  70.838  1.00  0.00    -0.328 C  
BRANCH   8  10
HETATM   10  C   UNL     1     -11.166  10.388  68.941  1.00  0.00    -0.235 A  
HETATM   11  N   UNL     1     -11.562  11.340  69.826  1.00  0.00    -0.305 NA 
HETATM   12  C   UNL     1     -11.074  10.670  67.574  1.00  0.00    -0.367 A  
HETATM   13  C   UNL     1     -11.373  11.956  67.120  1.00  0.00    -0.393 A  
HETATM   14  C   UNL     1     -11.872  12.568  69.355  1.00  0.00    -0.308 A  
HETATM   15  C   UNL     1     -11.785  12.922  68.023  1.00  0.00    -0.401 A  
ENDBRANCH   8  10
BRANCH   9  16
HETATM   16  C   UNL     1     -10.753   7.748  71.756  1.00  0.00    -0.223 C  
BRANCH  16  17
HETATM   17  N   UNL     1      -9.354   7.683  72.191  1.00  0.00    -0.139 NA 
HETATM   18  C   UNL     1      -7.859   7.168  73.905  1.00  0.00    -0.128 C  
HETATM   19  C   UNL     1      -7.619   6.160  72.794  1.00  0.00    -0.101 C  
HETATM   20  C   UNL     1      -9.271   7.651  73.655  1.00  0.00    -0.283 C  
HETATM   21  C   UNL     1      -8.644   6.493  71.712  1.00  0.00    -0.124 C  
ENDBRANCH  16  17
ENDBRANCH   9  16
ENDBRANCH   5   8
TORSDOF 4
ENDMDL
MODEL      141
REMARK 921   NORMALIZED FREE ENERGY PREDICTED BY IDOCK:   -4.01 KCAL/MOL
REMARK 922        TOTAL FREE ENERGY PREDICTED BY IDOCK:   -5.75 KCAL/MOL
REMARK 923 INTER-LIGAND FREE ENERGY PREDICTED BY IDOCK:   -4.87 KCAL/MOL
REMARK 924 INTRA-LIGAND FREE ENERGY PREDICTED BY IDOCK:   -0.88 KCAL/MOL
REMARK 927      BINDING AFFINITY PREDICTED BY RF-SCORE:    0.00 PKD
ROOT
HETATM    1  C   UNL     1      -9.474   7.607  73.760  1.00  0.00    -0.300 C  
HETATM    2  C   UNL     1      -9.728   7.858  72.302  1.00  0.00    -0.269 A  
HETATM    3  C   UNL     1      -8.811   7.441  71.337  1.00  0.00    -0.129 A  
HETATM    4  C   UNL     1      -8.997   7.780  69.990  1.00  0.00    -0.142 A  
HETATM    5  C   UNL     1     -10.129   8.483  69.546  1.00  0.00    -0.200 A  
HETATM    6  C   UNL     1     -11.068   8.850  70.529  1.00  0.00    -0.288 A  
HETATM    7  C   UNL     1     -10.861   8.563  71.887  1.00  0.00    -0.392 A  
ENDROOT
BRANCH   5   8
HETATM    8  C   UNL     1     -10.302   8.927  68.115  1.00  0.00    -0.261 C  
HETATM    9  C   UNL     1     -10.659   8.055  67.135  1.00  0.00    -0.367 C  
BRANCH   8  10
HETATM   10  C   UNL     1     -10.087  10.345  67.650  1.00  0.00    -0.188 A  
HETATM   11  N   UNL     1      -9.207  11.098  68.361  1.00  0.00    -0.169 NA 
HETATM   12  C   UNL     1     -10.740  10.868  66.528  1.00  0.00    -0.270 A  
HETATM   13  C   UNL     1     -10.467  12.176  66.126  1.00  0.00    -0.281 A  
HETATM   14  C   UNL     1      -8.983  12.370  67.965  1.00  0.00    -0.194 A  
HETATM   15  C   UNL     1      -9.577  12.945  66.859  1.00  0.00    -0.240 A  
ENDBRANCH   8  10
BRANCH   9  16
HETATM   16  C   UNL     1     -11.050   6.608  67.231  1.00  0.00    -0.345 C  
BRANCH  16  17
HETATM   17  N   UNL     1      -9.949   5.670  66.986  1.00  0.00    -0.152 NA 
HETATM   18  C   UNL     1      -9.052   4.025  65.598  1.00  0.00    -0.142 C  
HETATM   19  C   UNL     1      -8.123   5.224  65.516  1.00  0.00    -0.119 C  
HETATM   20  C   UNL     1     -10.367   4.618  66.054  1.00  0.00    -0.284 C  
HETATM   21  C   UNL     1      -8.763   6.298  66.393  1.00  0.00    -0.137 C  
ENDBRANCH  16  17
ENDBRANCH   9  16
ENDBRANCH   5   8
TORSDOF 4
ENDMDL
MODEL      142
REMARK 921   NORMALIZED FREE ENERGY PREDICTED BY IDOCK:   -3.98 KCAL/MOL
REMARK 922        TOTAL FREE ENERGY PREDICTED BY IDOCK:   -5.71 KCAL/MOL
REMARK 923 INTER-LIGAND FREE ENERGY PREDICTED BY IDOCK:   -4.84 KCAL/MOL
REMARK 924 INTRA-LIGAND FREE ENERGY PREDICTED BY IDOCK:   -0.87 KCAL/MOL
REMARK 927      BINDING AFFINITY PREDICTED BY RF-SCORE:    0.00 PKD
ROOT
HETATM    1  C   UNL     1      -5.747   5.734  66.997  1.00  0.00    -0.017 C  
HETATM    2  C   UNL     1      -6.930   6.516  67.487  1.00  0.00    -0.078 A  
HETATM    3  C   UNL     1      -8.214   6.232  67.023  1.00  0.00    -0.109 A  
HETATM    4  C   UNL     1      -9.297   7.041  67.395  1.00  0.00    -0.141 A  
HETATM    5  C   UNL     1      -9.156   8.113  68.291  1.00  0.00    -0.135 A  
HETATM    6  C   UNL     1      -7.860   8.351  68.788  1.00  0.00    -0.115 A  
HETATM    7  C   UNL     1      -6.761   7.581  68.378  1.00  0.00    -0.054 A  
ENDROOT
BRANCH   5   8
HETATM    8  C   UNL     1     -10.292   9.042  68.635  1.00  0.00    -0.233 C  
HETATM    9  C   UNL     1     -10.605  10.109  67.851  1.00  0.00    -0.294 C  
BRANCH   8  10
HETATM   10  C   UNL     1     -11.159   8.885  69.858  1.00  0.00    -0.136 A  
HETATM   11  N   UNL     1     -11.475   7.616  70.227  1.00  0.00    -0.190 NA 
HETATM   12  C   UNL     1     -11.609   9.983  70.599  1.00  0.00    -0.422 A  
HETATM   13  C   UNL     1     -12.376   9.767  71.745  1.00  0.00    -0.470 A  
HETATM   14  C   UNL     1     -12.242   7.437  71.325  1.00  0.00    -0.341 A  
HETATM   15  C   UNL     1     -12.705   8.472  72.113  1.00  0.00    -0.423 A  
ENDBRANCH   8  10
BRANCH   9  16
HETATM   16  C   UNL     1     -10.040  10.524  66.522  1.00  0.00    -0.225 C  
BRANCH  16  17
HETATM   17  N   UNL     1     -10.189  11.952  66.224  1.00  0.00    -0.211 NA 
HETATM   18  C   UNL     1     -11.644  13.755  65.961  1.00  0.00    -0.361 C  
HETATM   19  C   UNL     1     -10.806  14.042  67.195  1.00  0.00    -0.288 C  
HETATM   20  C   UNL     1     -11.565  12.251  65.813  1.00  0.00    -0.388 C  
HETATM   21  C   UNL     1      -9.902  12.824  67.367  1.00  0.00    -0.210 C  
ENDBRANCH  16  17
ENDBRANCH   9  16
ENDBRANCH   5   8
TORSDOF 4
ENDMDL
MODEL      143
REMARK 921   NORMALIZED FREE ENERGY PREDICTED BY IDOCK:   -3.95 KCAL/MOL
REMARK 922        TOTAL FREE ENERGY PREDICTED BY IDOCK:   -5.68 KCAL/MOL
REMARK 923 INTER-LIGAND FREE ENERGY PREDICTED BY IDOCK:   -5.67 KCAL/MOL
REMARK 924 INTRA-LIGAND FREE ENERGY PREDICTED BY IDOCK:   -0.01 KCAL/MOL
REMARK 927      BINDING AFFINITY PREDICTED BY RF-SCORE:    0.00 PKD
ROOT
HETATM    1  C   UNL     1     -14.379   8.811  72.321  1.00  0.00    -0.468 C  
HETATM    2  C   UNL     1     -13.015   9.139  71.790  1.00  0.00    -0.448 A  
HETATM    3  C   UNL     1     -12.815  10.254  70.976  1.00  0.00    -0.490 A  
HETATM    4  C   UNL     1     -11.564  10.488  70.389  1.00  0.00    -0.430 A  
HETATM    5  C   UNL     1     -10.454   9.666  70.644  1.00  0.00    -0.379 A  
HETATM    6  C   UNL     1     -10.664   8.575  71.509  1.00  0.00    -0.330 A  
HETATM    7  C   UNL     1     -11.926   8.302  72.056  1.00  0.00    -0.405 A  
ENDROOT
BRANCH   5   8
HETATM    8  C   UNL     1      -9.126   9.855  69.956  1.00  0.00    -0.217 C  
HETATM    9  C   UNL     1      -9.002  10.630  68.844  1.00  0.00    -0.172 C  
BRANCH   8  10
HETATM   10  C   UNL     1      -7.846   9.208  70.418  1.00  0.00    -0.133 A  
HETATM   11  N   UNL     1      -6.879  10.034  70.900  1.00  0.00    -0.340 NA 
HETATM   12  C   UNL     1      -7.653   7.823  70.377  1.00  0.00    -0.087 A  
HETATM   13  C   UNL     1      -6.459   7.284  70.858  1.00  0.00    -0.043 A  
HETATM   14  C   UNL     1      -5.723   9.487  71.333  1.00  0.00    -0.074 A  
HETATM   15  C   UNL     1      -5.472   8.129  71.339  1.00  0.00    -0.034 A  
ENDBRANCH   8  10
BRANCH   9  16
HETATM   16  C   UNL     1     -10.018  11.499  68.160  1.00  0.00    -0.192 C  
BRANCH  16  17
HETATM   17  N   UNL     1     -10.402  11.036  66.822  1.00  0.00    -0.229 NA 
HETATM   18  C   UNL     1     -10.184  11.313  64.517  1.00  0.00    -0.370 C  
HETATM   19  C   UNL     1      -9.554   9.974  64.861  1.00  0.00    -0.375 C  
HETATM   20  C   UNL     1     -10.142  12.077  65.823  1.00  0.00    -0.238 C  
HETATM   21  C   UNL     1      -9.668   9.846  66.379  1.00  0.00    -0.212 C  
ENDBRANCH  16  17
ENDBRANCH   9  16
ENDBRANCH   5   8
TORSDOF 4
ENDMDL
MODEL      144
REMARK 921   NORMALIZED FREE ENERGY PREDICTED BY IDOCK:   -3.92 KCAL/MOL
REMARK 922        TOTAL FREE ENERGY PREDICTED BY IDOCK:   -5.64 KCAL/MOL
REMARK 923 INTER-LIGAND FREE ENERGY PREDICTED BY IDOCK:   -4.58 KCAL/MOL
REMARK 924 INTRA-LIGAND FREE ENERGY PREDICTED BY IDOCK:   -1.07 KCAL/MOL
REMARK 927      BINDING AFFINITY PREDICTED BY RF-SCORE:    0.00 PKD
ROOT
HETATM    1  C   UNL     1      -8.605   4.283  65.965  1.00  0.00    -0.113 C  
HETATM    2  C   UNL     1      -9.132   5.541  66.589  1.00  0.00    -0.126 A  
HETATM    3  C   UNL     1      -8.268   6.450  67.201  1.00  0.00    -0.113 A  
HETATM    4  C   UNL     1      -8.778   7.563  67.883  1.00  0.00    -0.124 A  
HETATM    5  C   UNL     1     -10.152   7.850  67.922  1.00  0.00    -0.240 A  
HETATM    6  C   UNL     1     -11.003   6.949  67.254  1.00  0.00    -0.406 A  
HETATM    7  C   UNL     1     -10.506   5.802  66.618  1.00  0.00    -0.330 A  
ENDROOT
BRANCH   5   8
HETATM    8  C   UNL     1     -10.722   8.996  68.720  1.00  0.00    -0.140 C  
HETATM    9  C   UNL     1     -10.749  10.264  68.229  1.00  0.00    -0.276 C  
BRANCH   8  10
HETATM   10  C   UNL     1     -11.290   8.846  70.108  1.00  0.00    -0.106 A  
HETATM   11  N   UNL     1     -11.099   7.649  70.724  1.00  0.00    -0.260 NA 
HETATM   12  C   UNL     1     -11.968   9.886  70.752  1.00  0.00    -0.410 A  
HETATM   13  C   UNL     1     -12.435   9.695  72.054  1.00  0.00    -0.412 A  
HETATM   14  C   UNL     1     -11.586   7.483  71.973  1.00  0.00    -0.287 A  
HETATM   15  C   UNL     1     -12.247   8.471  72.675  1.00  0.00    -0.297 A  
ENDBRANCH   8  10
BRANCH   9  16
HETATM   16  C   UNL     1     -10.371  10.777  66.869  1.00  0.00    -0.241 C  
BRANCH  16  17
HETATM   17  N   UNL     1      -9.051  11.414  66.811  1.00  0.00    -0.171 NA 
HETATM   18  C   UNL     1      -6.988  11.740  67.848  1.00  0.00    -0.085 C  
HETATM   19  C   UNL     1      -6.723  10.947  66.580  1.00  0.00    -0.127 C  
HETATM   20  C   UNL     1      -8.447  11.467  68.146  1.00  0.00    -0.154 C  
HETATM   21  C   UNL     1      -8.095  10.708  65.953  1.00  0.00    -0.159 C  
ENDBRANCH  16  17
ENDBRANCH   9  16
ENDBRANCH   5   8
TORSDOF 4
ENDMDL
MODEL      145
REMARK 921   NORMALIZED FREE ENERGY PREDICTED BY IDOCK:   -3.92 KCAL/MOL
REMARK 922        TOTAL FREE ENERGY PREDICTED BY IDOCK:   -5.64 KCAL/MOL
REMARK 923 INTER-LIGAND FREE ENERGY PREDICTED BY IDOCK:   -5.24 KCAL/MOL
REMARK 924 INTRA-LIGAND FREE ENERGY PREDICTED BY IDOCK:   -0.40 KCAL/MOL
REMARK 927      BINDING AFFINITY PREDICTED BY RF-SCORE:    0.00 PKD
ROOT
HETATM    1  C   UNL     1     -12.973  15.928  72.392  1.00  0.00    -0.511 C  
HETATM    2  C   UNL     1     -12.303  15.129  71.314  1.00  0.00    -0.401 A  
HETATM    3  C   UNL     1     -12.809  13.887  70.928  1.00  0.00    -0.370 A  
HETATM    4  C   UNL     1     -12.113  13.095  70.005  1.00  0.00    -0.375 A  
HETATM    5  C   UNL     1     -10.933  13.534  69.383  1.00  0.00    -0.101 A  
HETATM    6  C   UNL     1     -10.467  14.811  69.748  1.00  0.00    -0.087 A  
HETATM    7  C   UNL     1     -11.127  15.587  70.712  1.00  0.00    -0.383 A  
ENDROOT
BRANCH   5   8
HETATM    8  C   UNL     1     -10.129  12.660  68.453  1.00  0.00    -0.222 C  
HETATM    9  C   UNL     1      -9.701  13.111  67.242  1.00  0.00    -0.230 C  
BRANCH   8  10
HETATM   10  C   UNL     1      -9.747  11.237  68.766  1.00  0.00    -0.174 A  
HETATM   11  N   UNL     1      -8.433  10.995  69.017  1.00  0.00    -0.120 NA 
HETATM   12  C   UNL     1     -10.691  10.205  68.818  1.00  0.00    -0.247 A  
HETATM   13  C   UNL     1     -10.276   8.915  69.153  1.00  0.00    -0.214 A  
HETATM   14  C   UNL     1      -8.056   9.731  69.312  1.00  0.00    -0.115 A  
HETATM   15  C   UNL     1      -8.935   8.670  69.399  1.00  0.00    -0.145 A  
ENDBRANCH   8  10
BRANCH   9  16
HETATM   16  C   UNL     1      -9.802  14.481  66.636  1.00  0.00    -0.273 C  
BRANCH  16  17
HETATM   17  N   UNL     1     -11.075  14.748  65.958  1.00  0.00    -0.327 NA 
HETATM   18  C   UNL     1     -12.152  15.303  63.967  1.00  0.00    -0.031 C  
HETATM   19  C   UNL     1     -12.568  13.883  64.311  1.00  0.00    -0.181 C  
HETATM   20  C   UNL     1     -10.849  15.488  64.713  1.00  0.00    -0.363 C  
HETATM   21  C   UNL     1     -11.808  13.533  65.588  1.00  0.00    -0.369 C  
ENDBRANCH  16  17
ENDBRANCH   9  16
ENDBRANCH   5   8
TORSDOF 4
ENDMDL
MODEL      146
REMARK 921   NORMALIZED FREE ENERGY PREDICTED BY IDOCK:   -3.91 KCAL/MOL
REMARK 922        TOTAL FREE ENERGY PREDICTED BY IDOCK:   -5.63 KCAL/MOL
REMARK 923 INTER-LIGAND FREE ENERGY PREDICTED BY IDOCK:   -5.43 KCAL/MOL
REMARK 924 INTRA-LIGAND FREE ENERGY PREDICTED BY IDOCK:   -0.20 KCAL/MOL
REMARK 927      BINDING AFFINITY PREDICTED BY RF-SCORE:    0.00 PKD
ROOT
HETATM    1  C   UNL     1     -13.774   9.200  72.488  1.00  0.00    -0.499 C  
HETATM    2  C   UNL     1     -12.684   9.144  71.458  1.00  0.00    -0.409 A  
HETATM    3  C   UNL     1     -12.258  10.302  70.808  1.00  0.00    -0.447 A  
HETATM    4  C   UNL     1     -11.324  10.227  69.766  1.00  0.00    -0.334 A  
HETATM    5  C   UNL     1     -10.730   9.014  69.381  1.00  0.00    -0.202 A  
HETATM    6  C   UNL     1     -11.136   7.864  70.084  1.00  0.00    -0.204 A  
HETATM    7  C   UNL     1     -12.112   7.923  71.090  1.00  0.00    -0.294 A  
ENDROOT
BRANCH   5   8
HETATM    8  C   UNL     1      -9.788   8.904  68.208  1.00  0.00    -0.187 C  
HETATM    9  C   UNL     1      -9.820   9.795  67.181  1.00  0.00    -0.238 C  
BRANCH   8  10
HETATM   10  C   UNL     1      -8.756   7.815  68.065  1.00  0.00    -0.125 A  
HETATM   11  N   UNL     1      -9.038   6.813  67.192  1.00  0.00    -0.123 NA 
HETATM   12  C   UNL     1      -7.552   7.831  68.777  1.00  0.00    -0.101 A  
HETATM   13  C   UNL     1      -6.620   6.812  68.569  1.00  0.00    -0.058 A  
HETATM   14  C   UNL     1      -8.130   5.825  67.031  1.00  0.00    -0.102 A  
HETATM   15  C   UNL     1      -6.915   5.786  67.685  1.00  0.00    -0.066 A  
ENDBRANCH   8  10
BRANCH   9  16
HETATM   16  C   UNL     1     -10.630  11.050  67.021  1.00  0.00    -0.256 C  
BRANCH  16  17
HETATM   17  N   UNL     1     -11.316  11.164  65.730  1.00  0.00     0.008 NA 
HETATM   18  C   UNL     1     -12.280  12.574  64.144  1.00  0.00    -0.552 C  
HETATM   19  C   UNL     1     -11.047  11.965  63.499  1.00  0.00    -0.506 C  
HETATM   20  C   UNL     1     -12.010  12.451  65.627  1.00  0.00    -0.386 C  
HETATM   21  C   UNL     1     -10.413  11.089  64.577  1.00  0.00    -0.342 C  
ENDBRANCH  16  17
ENDBRANCH   9  16
ENDBRANCH   5   8
TORSDOF 4
ENDMDL
MODEL      147
REMARK 921   NORMALIZED FREE ENERGY PREDICTED BY IDOCK:   -3.90 KCAL/MOL
REMARK 922        TOTAL FREE ENERGY PREDICTED BY IDOCK:   -5.62 KCAL/MOL
REMARK 923 INTER-LIGAND FREE ENERGY PREDICTED BY IDOCK:   -4.68 KCAL/MOL
REMARK 924 INTRA-LIGAND FREE ENERGY PREDICTED BY IDOCK:   -0.94 KCAL/MOL
REMARK 927      BINDING AFFINITY PREDICTED BY RF-SCORE:    0.00 PKD
ROOT
HETATM    1  C   UNL     1      -9.388   3.761  67.166  1.00  0.00    -0.223 C  
HETATM    2  C   UNL     1      -9.590   5.248  67.189  1.00  0.00    -0.149 A  
HETATM    3  C   UNL     1      -8.567   6.113  66.801  1.00  0.00    -0.111 A  
HETATM    4  C   UNL     1      -8.721   7.499  66.936  1.00  0.00    -0.131 A  
HETATM    5  C   UNL     1      -9.916   8.077  67.394  1.00  0.00    -0.270 A  
HETATM    6  C   UNL     1     -10.955   7.189  67.732  1.00  0.00    -0.187 A  
HETATM    7  C   UNL     1     -10.789   5.798  67.653  1.00  0.00    -0.264 A  
ENDROOT
BRANCH   5   8
HETATM    8  C   UNL     1     -10.068   9.559  67.624  1.00  0.00    -0.254 C  
HETATM    9  C   UNL     1      -9.812  10.124  68.835  1.00  0.00    -0.194 C  
BRANCH   8  10
HETATM   10  C   UNL     1     -10.520  10.527  66.560  1.00  0.00    -0.212 A  
HETATM   11  N   UNL     1     -11.424  11.471  66.932  1.00  0.00    -0.483 NA 
HETATM   12  C   UNL     1     -10.026  10.481  65.252  1.00  0.00    -0.364 A  
HETATM   13  C   UNL     1     -10.455  11.432  64.325  1.00  0.00    -0.401 A  
HETATM   14  C   UNL     1     -11.842  12.362  66.007  1.00  0.00    -0.395 A  
HETATM   15  C   UNL     1     -11.384  12.387  64.705  1.00  0.00    -0.364 A  
ENDBRANCH   8  10
BRANCH   9  16
HETATM   16  C   UNL     1      -9.257   9.506  70.086  1.00  0.00    -0.244 C  
BRANCH  16  17
HETATM   17  N   UNL     1      -7.795   9.391  70.103  1.00  0.00    -0.123 NA 
HETATM   18  C   UNL     1      -5.748  10.488  70.306  1.00  0.00    -0.079 C  
HETATM   19  C   UNL     1      -5.889   9.591  71.523  1.00  0.00    -0.051 C  
HETATM   20  C   UNL     1      -7.174  10.693  69.841  1.00  0.00    -0.102 C  
HETATM   21  C   UNL     1      -7.257   8.928  71.386  1.00  0.00    -0.078 C  
ENDBRANCH  16  17
ENDBRANCH   9  16
ENDBRANCH   5   8
TORSDOF 4
ENDMDL
MODEL      148
REMARK 921   NORMALIZED FREE ENERGY PREDICTED BY IDOCK:   -3.90 KCAL/MOL
REMARK 922        TOTAL FREE ENERGY PREDICTED BY IDOCK:   -5.61 KCAL/MOL
REMARK 923 INTER-LIGAND FREE ENERGY PREDICTED BY IDOCK:   -4.83 KCAL/MOL
REMARK 924 INTRA-LIGAND FREE ENERGY PREDICTED BY IDOCK:   -0.79 KCAL/MOL
REMARK 927      BINDING AFFINITY PREDICTED BY RF-SCORE:    0.00 PKD
ROOT
HETATM    1  C   UNL     1      -5.850   7.081  70.952  1.00  0.00    -0.028 C  
HETATM    2  C   UNL     1      -6.970   7.875  70.346  1.00  0.00    -0.045 A  
HETATM    3  C   UNL     1      -8.196   7.274  70.061  1.00  0.00    -0.132 A  
HETATM    4  C   UNL     1      -9.197   7.990  69.389  1.00  0.00    -0.152 A  
HETATM    5  C   UNL     1      -9.042   9.341  69.040  1.00  0.00    -0.147 A  
HETATM    6  C   UNL     1      -7.817   9.944  69.383  1.00  0.00    -0.127 A  
HETATM    7  C   UNL     1      -6.789   9.219  70.005  1.00  0.00    -0.053 A  
ENDROOT
BRANCH   5   8
HETATM    8  C   UNL     1     -10.074  10.100  68.244  1.00  0.00    -0.179 C  
HETATM    9  C   UNL     1     -11.162  10.661  68.838  1.00  0.00    -0.333 C  
BRANCH   8  10
HETATM   10  C   UNL     1     -10.003  10.291  66.751  1.00  0.00    -0.209 A  
HETATM   11  N   UNL     1      -9.178   9.457  66.064  1.00  0.00    -0.183 NA 
HETATM   12  C   UNL     1     -10.759  11.263  66.087  1.00  0.00    -0.307 A  
HETATM   13  C   UNL     1     -10.677  11.362  64.697  1.00  0.00    -0.378 A  
HETATM   14  C   UNL     1      -9.098   9.593  64.722  1.00  0.00    -0.231 A  
HETATM   15  C   UNL     1      -9.827  10.517  64.000  1.00  0.00    -0.387 A  
ENDBRANCH   8  10
BRANCH   9  16
HETATM   16  C   UNL     1     -11.517  10.764  70.293  1.00  0.00    -0.319 C  
BRANCH  16  17
HETATM   17  N   UNL     1     -12.599   9.867  70.714  1.00  0.00    -0.274 NA 
HETATM   18  C   UNL     1     -13.205   7.958  71.907  1.00  0.00    -0.314 C  
HETATM   19  C   UNL     1     -13.831   9.141  72.624  1.00  0.00    -0.414 C  
HETATM   20  C   UNL     1     -12.058   8.570  71.133  1.00  0.00    -0.252 C  
HETATM   21  C   UNL     1     -13.375  10.376  71.850  1.00  0.00    -0.364 C  
ENDBRANCH  16  17
ENDBRANCH   9  16
ENDBRANCH   5   8
TORSDOF 4
ENDMDL
MODEL      149
REMARK 921   NORMALIZED FREE ENERGY PREDICTED BY IDOCK:   -3.88 KCAL/MOL
REMARK 922        TOTAL FREE ENERGY PREDICTED BY IDOCK:   -5.60 KCAL/MOL
REMARK 923 INTER-LIGAND FREE ENERGY PREDICTED BY IDOCK:   -4.67 KCAL/MOL
REMARK 924 INTRA-LIGAND FREE ENERGY PREDICTED BY IDOCK:   -0.93 KCAL/MOL
REMARK 927      BINDING AFFINITY PREDICTED BY RF-SCORE:    0.00 PKD
ROOT
HETATM    1  C   UNL     1      -6.387   8.280  74.042  1.00  0.00    -0.138 C  
HETATM    2  C   UNL     1      -7.330   8.409  72.883  1.00  0.00    -0.112 A  
HETATM    3  C   UNL     1      -8.705   8.253  73.061  1.00  0.00    -0.287 A  
HETATM    4  C   UNL     1      -9.568   8.258  71.958  1.00  0.00    -0.316 A  
HETATM    5  C   UNL     1      -9.108   8.487  70.650  1.00  0.00    -0.184 A  
HETATM    6  C   UNL     1      -7.723   8.694  70.498  1.00  0.00    -0.086 A  
HETATM    7  C   UNL     1      -6.846   8.634  71.591  1.00  0.00    -0.088 A  
ENDROOT
BRANCH   5   8
HETATM    8  C   UNL     1     -10.010   8.413  69.445  1.00  0.00    -0.191 C  
HETATM    9  C   UNL     1     -10.761   9.476  69.049  1.00  0.00    -0.224 C  
BRANCH   8  10
HETATM   10  C   UNL     1     -10.169   7.178  68.595  1.00  0.00    -0.179 A  
HETATM   11  N   UNL     1     -10.822   7.327  67.412  1.00  0.00    -0.270 NA 
HETATM   12  C   UNL     1      -9.657   5.935  68.983  1.00  0.00    -0.157 A  
HETATM   13  C   UNL     1      -9.803   4.839  68.131  1.00  0.00    -0.182 A  
HETATM   14  C   UNL     1     -10.973   6.242  66.620  1.00  0.00    -0.142 A  
HETATM   15  C   UNL     1     -10.478   4.991  66.931  1.00  0.00    -0.243 A  
ENDBRANCH   8  10
BRANCH   9  16
HETATM   16  C   UNL     1     -10.792  10.881  69.577  1.00  0.00    -0.238 C  
BRANCH  16  17
HETATM   17  N   UNL     1     -10.746  11.916  68.539  1.00  0.00    -0.216 NA 
HETATM   18  C   UNL     1     -11.685  12.768  66.582  1.00  0.00    -0.459 C  
HETATM   19  C   UNL     1     -11.935  13.795  67.674  1.00  0.00    -0.392 C  
HETATM   20  C   UNL     1     -11.472  11.478  67.343  1.00  0.00    -0.274 C  
HETATM   21  C   UNL     1     -11.355  13.186  68.948  1.00  0.00    -0.289 C  
ENDBRANCH  16  17
ENDBRANCH   9  16
ENDBRANCH   5   8
TORSDOF 4
ENDMDL
MODEL      150
REMARK 921   NORMALIZED FREE ENERGY PREDICTED BY IDOCK:   -3.88 KCAL/MOL
REMARK 922        TOTAL FREE ENERGY PREDICTED BY IDOCK:   -5.59 KCAL/MOL
REMARK 923 INTER-LIGAND FREE ENERGY PREDICTED BY IDOCK:   -4.40 KCAL/MOL
REMARK 924 INTRA-LIGAND FREE ENERGY PREDICTED BY IDOCK:   -1.19 KCAL/MOL
REMARK 927      BINDING AFFINITY PREDICTED BY RF-SCORE:    0.00 PKD
ROOT
HETATM    1  C   UNL     1     -11.585   5.979  72.338  1.00  0.00    -0.349 C  
HETATM    2  C   UNL     1     -10.949   7.050  71.501  1.00  0.00    -0.260 A  
HETATM    3  C   UNL     1     -10.129   8.017  72.082  1.00  0.00    -0.298 A  
HETATM    4  C   UNL     1      -9.634   9.081  71.316  1.00  0.00    -0.361 A  
HETATM    5  C   UNL     1      -9.878   9.185  69.937  1.00  0.00    -0.206 A  
HETATM    6  C   UNL     1     -10.666   8.171  69.359  1.00  0.00    -0.164 A  
HETATM    7  C   UNL     1     -11.211   7.134  70.130  1.00  0.00    -0.295 A  
ENDROOT
BRANCH   5   8
HETATM    8  C   UNL     1      -9.424  10.366  69.116  1.00  0.00    -0.220 C  
HETATM    9  C   UNL     1      -8.188  10.407  68.548  1.00  0.00    -0.119 C  
BRANCH   8  10
HETATM   10  C   UNL     1     -10.273  11.586  68.867  1.00  0.00    -0.149 A  
HETATM   11  N   UNL     1     -10.105  12.218  67.676  1.00  0.00    -0.198 NA 
HETATM   12  C   UNL     1     -11.207  12.048  69.801  1.00  0.00    -0.105 A  
HETATM   13  C   UNL     1     -11.990  13.161  69.492  1.00  0.00    -0.354 A  
HETATM   14  C   UNL     1     -10.858  13.309  67.415  1.00  0.00    -0.267 A  
HETATM   15  C   UNL     1     -11.810  13.809  68.281  1.00  0.00    -0.413 A  
ENDBRANCH   8  10
BRANCH   9  16
HETATM   16  C   UNL     1      -7.119   9.354  68.493  1.00  0.00    -0.071 C  
BRANCH  16  17
HETATM   17  N   UNL     1      -7.277   8.392  67.398  1.00  0.00    -0.086 NA 
HETATM   18  C   UNL     1      -8.192   6.369  66.686  1.00  0.00    -0.111 C  
HETATM   19  C   UNL     1      -8.885   7.466  65.897  1.00  0.00    -0.149 C  
HETATM   20  C   UNL     1      -7.676   7.080  67.918  1.00  0.00    -0.113 C  
HETATM   21  C   UNL     1      -8.302   8.776  66.421  1.00  0.00    -0.116 C  
ENDBRANCH  16  17
ENDBRANCH   9  16
ENDBRANCH   5   8
TORSDOF 4
ENDMDL
MODEL      151
REMARK 921   NORMALIZED FREE ENERGY PREDICTED BY IDOCK:   -3.84 KCAL/MOL
REMARK 922        TOTAL FREE ENERGY PREDICTED BY IDOCK:   -5.54 KCAL/MOL
REMARK 923 INTER-LIGAND FREE ENERGY PREDICTED BY IDOCK:   -4.78 KCAL/MOL
REMARK 924 INTRA-LIGAND FREE ENERGY PREDICTED BY IDOCK:   -0.76 KCAL/MOL
REMARK 927      BINDING AFFINITY PREDICTED BY RF-SCORE:    0.00 PKD
ROOT
HETATM    1  C   UNL     1      -9.325  12.775  68.001  1.00  0.00    -0.213 C  
HETATM    2  C   UNL     1      -9.614  11.413  68.559  1.00  0.00    -0.190 A  
HETATM    3  C   UNL     1      -8.633  10.421  68.563  1.00  0.00    -0.134 A  
HETATM    4  C   UNL     1      -8.944   9.119  68.977  1.00  0.00    -0.143 A  
HETATM    5  C   UNL     1     -10.215   8.773  69.465  1.00  0.00    -0.208 A  
HETATM    6  C   UNL     1     -11.176   9.801  69.501  1.00  0.00    -0.181 A  
HETATM    7  C   UNL     1     -10.889  11.093  69.036  1.00  0.00    -0.276 A  
ENDROOT
BRANCH   5   8
HETATM    8  C   UNL     1     -10.588   7.360  69.835  1.00  0.00    -0.245 C  
HETATM    9  C   UNL     1     -10.979   6.456  68.896  1.00  0.00    -0.412 C  
BRANCH   8  10
HETATM   10  C   UNL     1     -10.575   6.835  71.247  1.00  0.00    -0.219 A  
HETATM   11  N   UNL     1     -10.337   7.737  72.236  1.00  0.00    -0.220 NA 
HETATM   12  C   UNL     1     -10.813   5.488  71.544  1.00  0.00    -0.263 A  
HETATM   13  C   UNL     1     -10.826   5.074  72.877  1.00  0.00    -0.322 A  
HETATM   14  C   UNL     1     -10.329   7.302  73.515  1.00  0.00    -0.366 A  
HETATM   15  C   UNL     1     -10.574   5.994  73.882  1.00  0.00    -0.236 A  
ENDBRANCH   8  10
BRANCH   9  16
HETATM   16  C   UNL     1     -11.020   6.580  67.400  1.00  0.00    -0.378 C  
BRANCH  16  17
HETATM   17  N   UNL     1      -9.904   5.924  66.711  1.00  0.00    -0.151 NA 
HETATM   18  C   UNL     1      -7.961   4.650  66.905  1.00  0.00    -0.102 C  
HETATM   19  C   UNL     1      -8.985   3.784  66.192  1.00  0.00    -0.135 C  
HETATM   20  C   UNL     1      -8.802   5.669  67.643  1.00  0.00    -0.105 C  
HETATM   21  C   UNL     1     -10.257   4.626  66.126  1.00  0.00    -0.277 C  
ENDBRANCH  16  17
ENDBRANCH   9  16
ENDBRANCH   5   8
TORSDOF 4
ENDMDL
MODEL      152
REMARK 921   NORMALIZED FREE ENERGY PREDICTED BY IDOCK:   -3.82 KCAL/MOL
REMARK 922        TOTAL FREE ENERGY PREDICTED BY IDOCK:   -5.52 KCAL/MOL
REMARK 923 INTER-LIGAND FREE ENERGY PREDICTED BY IDOCK:   -4.65 KCAL/MOL
REMARK 924 INTRA-LIGAND FREE ENERGY PREDICTED BY IDOCK:   -0.87 KCAL/MOL
REMARK 927      BINDING AFFINITY PREDICTED BY RF-SCORE:    0.00 PKD
ROOT
HETATM    1  C   UNL     1     -10.888   7.371  73.243  1.00  0.00    -0.417 C  
HETATM    2  C   UNL     1     -10.467   7.883  71.896  1.00  0.00    -0.284 A  
HETATM    3  C   UNL     1      -9.526   8.906  71.784  1.00  0.00    -0.334 A  
HETATM    4  C   UNL     1      -9.225   9.458  70.532  1.00  0.00    -0.314 A  
HETATM    5  C   UNL     1      -9.793   8.969  69.344  1.00  0.00    -0.183 A  
HETATM    6  C   UNL     1     -10.702   7.902  69.474  1.00  0.00    -0.195 A  
HETATM    7  C   UNL     1     -11.051   7.381  70.729  1.00  0.00    -0.285 A  
ENDROOT
BRANCH   5   8
HETATM    8  C   UNL     1      -9.544   9.606  68.000  1.00  0.00    -0.161 C  
HETATM    9  C   UNL     1      -8.532   9.191  67.190  1.00  0.00    -0.120 C  
BRANCH   8  10
HETATM   10  C   UNL     1     -10.366  10.743  67.449  1.00  0.00    -0.211 A  
HETATM   11  N   UNL     1     -11.148  11.419  68.331  1.00  0.00    -0.221 NA 
HETATM   12  C   UNL     1     -10.323  11.107  66.099  1.00  0.00    -0.302 A  
HETATM   13  C   UNL     1     -11.079  12.196  65.660  1.00  0.00    -0.360 A  
HETATM   14  C   UNL     1     -11.890  12.451  67.873  1.00  0.00    -0.308 A  
HETATM   15  C   UNL     1     -11.883  12.877  66.560  1.00  0.00    -0.473 A  
ENDBRANCH   8  10
BRANCH   9  16
HETATM   16  C   UNL     1      -7.582   8.040  67.352  1.00  0.00    -0.097 C  
BRANCH  16  17
HETATM   17  N   UNL     1      -7.055   7.512  66.089  1.00  0.00    -0.068 NA 
HETATM   18  C   UNL     1      -7.253   7.433  63.767  1.00  0.00    -0.078 C  
HETATM   19  C   UNL     1      -5.951   8.154  64.074  1.00  0.00    -0.065 C  
HETATM   20  C   UNL     1      -8.067   7.604  65.031  1.00  0.00    -0.133 C  
HETATM   21  C   UNL     1      -5.877   8.234  65.597  1.00  0.00    -0.044 C  
ENDBRANCH  16  17
ENDBRANCH   9  16
ENDBRANCH   5   8
TORSDOF 4
ENDMDL
MODEL      153
REMARK 921   NORMALIZED FREE ENERGY PREDICTED BY IDOCK:   -3.82 KCAL/MOL
REMARK 922        TOTAL FREE ENERGY PREDICTED BY IDOCK:   -5.52 KCAL/MOL
REMARK 923 INTER-LIGAND FREE ENERGY PREDICTED BY IDOCK:   -4.86 KCAL/MOL
REMARK 924 INTRA-LIGAND FREE ENERGY PREDICTED BY IDOCK:   -0.66 KCAL/MOL
REMARK 927      BINDING AFFINITY PREDICTED BY RF-SCORE:    0.00 PKD
ROOT
HETATM    1  C   UNL     1      -5.165  14.703  68.068  1.00  0.00    -0.108 C  
HETATM    2  C   UNL     1      -6.485  13.993  68.002  1.00  0.00    -0.152 A  
HETATM    3  C   UNL     1      -7.576  14.447  68.743  1.00  0.00    -0.131 A  
HETATM    4  C   UNL     1      -8.770  13.714  68.768  1.00  0.00     0.070 A  
HETATM    5  C   UNL     1      -8.946  12.546  68.007  1.00  0.00    -0.192 A  
HETATM    6  C   UNL     1      -7.850  12.133  67.226  1.00  0.00    -0.176 A  
HETATM    7  C   UNL     1      -6.632  12.831  67.239  1.00  0.00    -0.083 A  
ENDROOT
BRANCH   5   8
HETATM    8  C   UNL     1     -10.193  11.702  68.087  1.00  0.00    -0.206 C  
HETATM    9  C   UNL     1     -11.432  12.241  67.931  1.00  0.00    -0.390 C  
BRANCH   8  10
HETATM   10  C   UNL     1     -10.181  10.219  68.355  1.00  0.00    -0.167 A  
HETATM   11  N   UNL     1      -9.928   9.827  69.632  1.00  0.00    -0.209 NA 
HETATM   12  C   UNL     1     -10.436   9.278  67.351  1.00  0.00    -0.340 A  
HETATM   13  C   UNL     1     -10.450   7.920  67.674  1.00  0.00    -0.303 A  
HETATM   14  C   UNL     1      -9.920   8.505  69.910  1.00  0.00    -0.189 A  
HETATM   15  C   UNL     1     -10.181   7.523  68.975  1.00  0.00    -0.208 A  
ENDBRANCH   8  10
BRANCH   9  16
HETATM   16  C   UNL     1     -11.831  13.640  67.558  1.00  0.00    -0.381 C  
BRANCH  16  17
HETATM   17  N   UNL     1     -11.541  13.998  66.165  1.00  0.00    -0.353 NA 
HETATM   18  C   UNL     1     -12.289  15.030  64.213  1.00  0.00    -0.247 C  
HETATM   19  C   UNL     1     -11.122  15.856  64.728  1.00  0.00    -0.397 C  
HETATM   20  C   UNL     1     -12.781  14.295  65.441  1.00  0.00    -0.369 C  
HETATM   21  C   UNL     1     -10.689  15.184  66.029  1.00  0.00    -0.329 C  
ENDBRANCH  16  17
ENDBRANCH   9  16
ENDBRANCH   5   8
TORSDOF 4
ENDMDL
MODEL      154
REMARK 921   NORMALIZED FREE ENERGY PREDICTED BY IDOCK:   -3.82 KCAL/MOL
REMARK 922        TOTAL FREE ENERGY PREDICTED BY IDOCK:   -5.52 KCAL/MOL
REMARK 923 INTER-LIGAND FREE ENERGY PREDICTED BY IDOCK:   -4.72 KCAL/MOL
REMARK 924 INTRA-LIGAND FREE ENERGY PREDICTED BY IDOCK:   -0.80 KCAL/MOL
REMARK 927      BINDING AFFINITY PREDICTED BY RF-SCORE:    0.00 PKD
ROOT
HETATM    1  C   UNL     1     -13.588   9.383  72.438  1.00  0.00    -0.498 C  
HETATM    2  C   UNL     1     -12.543   8.674  71.629  1.00  0.00    -0.381 A  
HETATM    3  C   UNL     1     -12.778   7.396  71.122  1.00  0.00    -0.318 A  
HETATM    4  C   UNL     1     -11.758   6.693  70.468  1.00  0.00    -0.453 A  
HETATM    5  C   UNL     1     -10.493   7.259  70.233  1.00  0.00    -0.231 A  
HETATM    6  C   UNL     1     -10.292   8.569  70.707  1.00  0.00    -0.238 A  
HETATM    7  C   UNL     1     -11.291   9.258  71.412  1.00  0.00    -0.434 A  
ENDROOT
BRANCH   5   8
HETATM    8  C   UNL     1      -9.360   6.487  69.606  1.00  0.00    -0.144 C  
HETATM    9  C   UNL     1      -8.560   5.669  70.343  1.00  0.00    -0.132 C  
BRANCH   8  10
HETATM   10  C   UNL     1      -9.010   6.558  68.142  1.00  0.00    -0.116 A  
HETATM   11  N   UNL     1      -9.336   7.704  67.488  1.00  0.00    -0.137 NA 
HETATM   12  C   UNL     1      -8.363   5.510  67.479  1.00  0.00    -0.100 A  
HETATM   13  C   UNL     1      -8.031   5.656  66.130  1.00  0.00    -0.106 A  
HETATM   14  C   UNL     1      -9.028   7.806  66.176  1.00  0.00    -0.163 A  
HETATM   15  C   UNL     1      -8.374   6.821  65.464  1.00  0.00    -0.143 A  
ENDBRANCH   8  10
BRANCH   9  16
HETATM   16  C   UNL     1      -8.660   5.273  71.788  1.00  0.00    -0.130 C  
BRANCH  16  17
HETATM   17  N   UNL     1      -9.781   4.376  72.090  1.00  0.00    -0.154 NA 
HETATM   18  C   UNL     1     -10.462   2.297  72.896  1.00  0.00    -0.244 C  
HETATM   19  C   UNL     1     -10.952   3.336  73.889  1.00  0.00    -0.275 C  
HETATM   20  C   UNL     1      -9.318   2.988  72.186  1.00  0.00    -0.118 C  
HETATM   21  C   UNL     1     -10.448   4.677  73.360  1.00  0.00    -0.207 C  
ENDBRANCH  16  17
ENDBRANCH   9  16
ENDBRANCH   5   8
TORSDOF 4
ENDMDL
MODEL      155
REMARK 921   NORMALIZED FREE ENERGY PREDICTED BY IDOCK:   -3.80 KCAL/MOL
REMARK 922        TOTAL FREE ENERGY PREDICTED BY IDOCK:   -5.49 KCAL/MOL
REMARK 923 INTER-LIGAND FREE ENERGY PREDICTED BY IDOCK:   -4.39 KCAL/MOL
REMARK 924 INTRA-LIGAND FREE ENERGY PREDICTED BY IDOCK:   -1.11 KCAL/MOL
REMARK 927      BINDING AFFINITY PREDICTED BY RF-SCORE:    0.00 PKD
ROOT
HETATM    1  C   UNL     1      -6.562   8.659  67.180  1.00  0.00    -0.058 C  
HETATM    2  C   UNL     1      -7.613   8.328  68.198  1.00  0.00    -0.098 A  
HETATM    3  C   UNL     1      -7.814   9.149  69.308  1.00  0.00    -0.095 A  
HETATM    4  C   UNL     1      -8.714   8.773  70.314  1.00  0.00    -0.170 A  
HETATM    5  C   UNL     1      -9.495   7.609  70.221  1.00  0.00    -0.161 A  
HETATM    6  C   UNL     1      -9.315   6.821  69.068  1.00  0.00    -0.134 A  
HETATM    7  C   UNL     1      -8.375   7.161  68.084  1.00  0.00    -0.124 A  
ENDROOT
BRANCH   5   8
HETATM    8  C   UNL     1     -10.405   7.148  71.331  1.00  0.00    -0.210 C  
HETATM    9  C   UNL     1     -10.018   6.197  72.223  1.00  0.00    -0.186 C  
BRANCH   8  10
HETATM   10  C   UNL     1     -11.800   7.678  71.541  1.00  0.00    -0.295 A  
HETATM   11  N   UNL     1     -12.825   6.904  71.095  1.00  0.00    -0.309 NA 
HETATM   12  C   UNL     1     -12.046   8.898  72.180  1.00  0.00    -0.430 A  
HETATM   13  C   UNL     1     -13.364   9.313  72.380  1.00  0.00    -0.521 A  
HETATM   14  C   UNL     1     -14.090   7.343  71.277  1.00  0.00    -0.267 A  
HETATM   15  C   UNL     1     -14.406   8.526  71.915  1.00  0.00    -0.536 A  
ENDBRANCH   8  10
BRANCH   9  16
HETATM   16  C   UNL     1      -8.687   5.521  72.391  1.00  0.00    -0.128 C  
BRANCH  16  17
HETATM   17  N   UNL     1      -7.801   6.170  73.363  1.00  0.00    -0.100 NA 
HETATM   18  C   UNL     1      -6.103   7.725  73.731  1.00  0.00    -0.071 C  
HETATM   19  C   UNL     1      -7.345   8.258  74.423  1.00  0.00    -0.248 C  
HETATM   20  C   UNL     1      -6.650   6.777  72.686  1.00  0.00    -0.062 C  
HETATM   21  C   UNL     1      -8.447   7.245  74.122  1.00  0.00    -0.187 C  
ENDBRANCH  16  17
ENDBRANCH   9  16
ENDBRANCH   5   8
TORSDOF 4
ENDMDL
MODEL      156
REMARK 921   NORMALIZED FREE ENERGY PREDICTED BY IDOCK:   -3.80 KCAL/MOL
REMARK 922        TOTAL FREE ENERGY PREDICTED BY IDOCK:   -5.49 KCAL/MOL
REMARK 923 INTER-LIGAND FREE ENERGY PREDICTED BY IDOCK:   -4.82 KCAL/MOL
REMARK 924 INTRA-LIGAND FREE ENERGY PREDICTED BY IDOCK:   -0.67 KCAL/MOL
REMARK 927      BINDING AFFINITY PREDICTED BY RF-SCORE:    0.00 PKD
ROOT
HETATM    1  C   UNL     1      -6.933   6.309  72.574  1.00  0.00    -0.075 C  
HETATM    2  C   UNL     1      -7.811   7.110  71.657  1.00  0.00    -0.097 A  
HETATM    3  C   UNL     1      -8.206   6.597  70.421  1.00  0.00    -0.125 A  
HETATM    4  C   UNL     1      -8.927   7.394  69.522  1.00  0.00    -0.144 A  
HETATM    5  C   UNL     1      -9.341   8.697  69.843  1.00  0.00    -0.160 A  
HETATM    6  C   UNL     1      -8.976   9.177  71.116  1.00  0.00    -0.249 A  
HETATM    7  C   UNL     1      -8.206   8.406  72.000  1.00  0.00    -0.212 A  
ENDROOT
BRANCH   5   8
HETATM    8  C   UNL     1     -10.043   9.595  68.857  1.00  0.00    -0.198 C  
HETATM    9  C   UNL     1     -11.260  10.141  69.129  1.00  0.00    -0.234 C  
BRANCH   8  10
HETATM   10  C   UNL     1      -9.482   9.952  67.505  1.00  0.00    -0.151 A  
HETATM   11  N   UNL     1      -8.283  10.592  67.487  1.00  0.00    -0.111 NA 
HETATM   12  C   UNL     1     -10.142   9.629  66.314  1.00  0.00    -0.322 A  
HETATM   13  C   UNL     1      -9.548   9.953  65.093  1.00  0.00    -0.367 A  
HETATM   14  C   UNL     1      -7.745  10.918  66.291  1.00  0.00    -0.147 A  
HETATM   15  C   UNL     1      -8.331  10.615  65.079  1.00  0.00    -0.106 A  
ENDBRANCH   8  10
BRANCH   9  16
HETATM   16  C   UNL     1     -12.073  10.095  70.391  1.00  0.00    -0.246 C  
BRANCH  16  17
HETATM   17  N   UNL     1     -12.099  11.357  71.137  1.00  0.00    -0.203 NA 
HETATM   18  C   UNL     1     -12.604  13.633  71.116  1.00  0.00    -0.452 C  
HETATM   19  C   UNL     1     -13.574  12.977  72.083  1.00  0.00    -0.618 C  
HETATM   20  C   UNL     1     -12.165  12.497  70.217  1.00  0.00    -0.267 C  
HETATM   21  C   UNL     1     -13.251  11.485  72.035  1.00  0.00    -0.337 C  
ENDBRANCH  16  17
ENDBRANCH   9  16
ENDBRANCH   5   8
TORSDOF 4
ENDMDL
MODEL      157
REMARK 921   NORMALIZED FREE ENERGY PREDICTED BY IDOCK:   -3.79 KCAL/MOL
REMARK 922        TOTAL FREE ENERGY PREDICTED BY IDOCK:   -5.48 KCAL/MOL
REMARK 923 INTER-LIGAND FREE ENERGY PREDICTED BY IDOCK:   -4.54 KCAL/MOL
REMARK 924 INTRA-LIGAND FREE ENERGY PREDICTED BY IDOCK:   -0.94 KCAL/MOL
REMARK 927      BINDING AFFINITY PREDICTED BY RF-SCORE:    0.00 PKD
ROOT
HETATM    1  C   UNL     1     -11.346   5.504  72.669  1.00  0.00    -0.346 C  
HETATM    2  C   UNL     1     -10.886   5.725  71.258  1.00  0.00    -0.313 A  
HETATM    3  C   UNL     1      -9.585   5.400  70.873  1.00  0.00    -0.226 A  
HETATM    4  C   UNL     1      -9.126   5.716  69.587  1.00  0.00    -0.148 A  
HETATM    5  C   UNL     1      -9.959   6.300  68.619  1.00  0.00    -0.166 A  
HETATM    6  C   UNL     1     -11.284   6.574  69.011  1.00  0.00    -0.354 A  
HETATM    7  C   UNL     1     -11.735   6.312  70.314  1.00  0.00    -0.289 A  
ENDROOT
BRANCH   5   8
HETATM    8  C   UNL     1      -9.459   6.722  67.261  1.00  0.00    -0.156 C  
HETATM    9  C   UNL     1      -9.024   7.990  67.022  1.00  0.00    -0.156 C  
BRANCH   8  10
HETATM   10  C   UNL     1      -9.406   5.803  66.068  1.00  0.00    -0.117 A  
HETATM   11  N   UNL     1      -8.374   5.981  65.201  1.00  0.00    -0.148 NA 
HETATM   12  C   UNL     1     -10.356   4.798  65.858  1.00  0.00    -0.303 A  
HETATM   13  C   UNL     1     -10.227   3.954  64.754  1.00  0.00    -0.196 A  
HETATM   14  C   UNL     1      -8.290   5.167  64.126  1.00  0.00    -0.137 A  
HETATM   15  C   UNL     1      -9.180   4.144  63.867  1.00  0.00    -0.145 A  
ENDBRANCH   8  10
BRANCH   9  16
HETATM   16  C   UNL     1      -8.838   9.137  67.973  1.00  0.00    -0.129 C  
BRANCH  16  17
HETATM   17  N   UNL     1      -9.593  10.343  67.616  1.00  0.00    -0.148 NA 
HETATM   18  C   UNL     1     -11.439  11.697  68.055  1.00  0.00    -0.385 C  
HETATM   19  C   UNL     1     -10.205  12.507  68.412  1.00  0.00    -0.230 C  
HETATM   20  C   UNL     1     -10.964  10.263  68.130  1.00  0.00    -0.274 C  
HETATM   21  C   UNL     1      -9.020  11.577  68.163  1.00  0.00    -0.172 C  
ENDBRANCH  16  17
ENDBRANCH   9  16
ENDBRANCH   5   8
TORSDOF 4
ENDMDL
MODEL      158
REMARK 921   NORMALIZED FREE ENERGY PREDICTED BY IDOCK:   -3.76 KCAL/MOL
REMARK 922        TOTAL FREE ENERGY PREDICTED BY IDOCK:   -5.44 KCAL/MOL
REMARK 923 INTER-LIGAND FREE ENERGY PREDICTED BY IDOCK:   -5.43 KCAL/MOL
REMARK 924 INTRA-LIGAND FREE ENERGY PREDICTED BY IDOCK:   -0.02 KCAL/MOL
REMARK 927      BINDING AFFINITY PREDICTED BY RF-SCORE:    0.00 PKD
ROOT
HETATM    1  C   UNL     1     -13.321  12.265  72.072  1.00  0.00    -0.491 C  
HETATM    2  C   UNL     1     -12.819  10.978  71.488  1.00  0.00    -0.555 A  
HETATM    3  C   UNL     1     -13.357   9.755  71.890  1.00  0.00    -0.530 A  
HETATM    4  C   UNL     1     -12.805   8.552  71.429  1.00  0.00    -0.277 A  
HETATM    5  C   UNL     1     -11.750   8.521  70.502  1.00  0.00    -0.082 A  
HETATM    6  C   UNL     1     -11.256   9.766  70.069  1.00  0.00    -0.297 A  
HETATM    7  C   UNL     1     -11.765  10.974  70.569  1.00  0.00    -0.416 A  
ENDROOT
BRANCH   5   8
HETATM    8  C   UNL     1     -11.092   7.238  70.061  1.00  0.00    -0.262 C  
HETATM    9  C   UNL     1     -10.716   7.036  68.769  1.00  0.00    -0.226 C  
BRANCH   8  10
HETATM   10  C   UNL     1     -10.807   6.084  70.987  1.00  0.00    -0.282 A  
HETATM   11  N   UNL     1     -11.589   5.977  72.093  1.00  0.00    -0.307 NA 
HETATM   12  C   UNL     1      -9.801   5.147  70.724  1.00  0.00    -0.270 A  
HETATM   13  C   UNL     1      -9.615   4.078  71.602  1.00  0.00    -0.230 A  
HETATM   14  C   UNL     1     -11.369   4.947  72.940  1.00  0.00    -0.216 A  
HETATM   15  C   UNL     1     -10.407   3.978  72.734  1.00  0.00    -0.239 A  
ENDBRANCH   8  10
BRANCH   9  16
HETATM   16  C   UNL     1     -10.746   7.979  67.600  1.00  0.00    -0.132 C  
BRANCH  16  17
HETATM   17  N   UNL     1      -9.456   8.136  66.921  1.00  0.00    -0.176 NA 
HETATM   18  C   UNL     1      -7.148   8.391  67.137  1.00  0.00    -0.079 C  
HETATM   19  C   UNL     1      -7.383   7.033  66.499  1.00  0.00    -0.083 C  
HETATM   20  C   UNL     1      -8.455   8.691  67.838  1.00  0.00    -0.129 C  
HETATM   21  C   UNL     1      -8.899   6.876  66.418  1.00  0.00    -0.145 C  
ENDBRANCH  16  17
ENDBRANCH   9  16
ENDBRANCH   5   8
TORSDOF 4
ENDMDL
MODEL      159
REMARK 921   NORMALIZED FREE ENERGY PREDICTED BY IDOCK:   -3.76 KCAL/MOL
REMARK 922        TOTAL FREE ENERGY PREDICTED BY IDOCK:   -5.44 KCAL/MOL
REMARK 923 INTER-LIGAND FREE ENERGY PREDICTED BY IDOCK:   -4.32 KCAL/MOL
REMARK 924 INTRA-LIGAND FREE ENERGY PREDICTED BY IDOCK:   -1.12 KCAL/MOL
REMARK 927      BINDING AFFINITY PREDICTED BY RF-SCORE:    0.00 PKD
ROOT
HETATM    1  C   UNL     1     -11.606   6.479  72.217  1.00  0.00    -0.330 C  
HETATM    2  C   UNL     1     -10.861   7.012  71.028  1.00  0.00    -0.264 A  
HETATM    3  C   UNL     1      -9.900   8.011  71.178  1.00  0.00    -0.198 A  
HETATM    4  C   UNL     1      -9.293   8.585  70.052  1.00  0.00    -0.164 A  
HETATM    5  C   UNL     1      -9.566   8.141  68.748  1.00  0.00    -0.149 A  
HETATM    6  C   UNL     1     -10.501   7.096  68.622  1.00  0.00    -0.218 A  
HETATM    7  C   UNL     1     -11.155   6.555  69.739  1.00  0.00    -0.430 A  
ENDROOT
BRANCH   5   8
HETATM    8  C   UNL     1      -8.986   8.803  67.524  1.00  0.00    -0.142 C  
HETATM    9  C   UNL     1      -7.768   8.451  67.032  1.00  0.00    -0.093 C  
BRANCH   8  10
HETATM   10  C   UNL     1      -9.681   9.900  66.759  1.00  0.00    -0.192 A  
HETATM   11  N   UNL     1     -10.285  10.873  67.491  1.00  0.00    -0.184 NA 
HETATM   12  C   UNL     1      -9.696   9.939  65.360  1.00  0.00    -0.375 A  
HETATM   13  C   UNL     1     -10.324  11.004  64.712  1.00  0.00    -0.389 A  
HETATM   14  C   UNL     1     -10.909  11.877  66.837  1.00  0.00    -0.263 A  
HETATM   15  C   UNL     1     -10.948  11.989  65.462  1.00  0.00    -0.345 A  
ENDBRANCH   8  10
BRANCH   9  16
HETATM   16  C   UNL     1      -6.840   7.350  67.459  1.00  0.00    -0.078 C  
BRANCH  16  17
HETATM   17  N   UNL     1      -7.132   6.047  66.852  1.00  0.00    -0.068 NA 
HETATM   18  C   UNL     1      -8.270   4.019  67.025  1.00  0.00    -0.100 C  
HETATM   19  C   UNL     1      -8.877   4.766  65.849  1.00  0.00    -0.127 C  
HETATM   20  C   UNL     1      -7.642   5.113  67.861  1.00  0.00    -0.084 C  
HETATM   21  C   UNL     1      -8.147   6.106  65.795  1.00  0.00    -0.124 C  
ENDBRANCH  16  17
ENDBRANCH   9  16
ENDBRANCH   5   8
TORSDOF 4
ENDMDL
MODEL      160
REMARK 921   NORMALIZED FREE ENERGY PREDICTED BY IDOCK:   -3.72 KCAL/MOL
REMARK 922        TOTAL FREE ENERGY PREDICTED BY IDOCK:   -5.40 KCAL/MOL
REMARK 923 INTER-LIGAND FREE ENERGY PREDICTED BY IDOCK:   -4.65 KCAL/MOL
REMARK 924 INTRA-LIGAND FREE ENERGY PREDICTED BY IDOCK:   -0.75 KCAL/MOL
REMARK 927      BINDING AFFINITY PREDICTED BY RF-SCORE:    0.00 PKD
ROOT
HETATM    1  C   UNL     1      -9.355   3.976  64.630  1.00  0.00    -0.161 C  
HETATM    2  C   UNL     1      -9.526   4.923  65.782  1.00  0.00    -0.172 A  
HETATM    3  C   UNL     1     -10.784   5.145  66.341  1.00  0.00    -0.275 A  
HETATM    4  C   UNL     1     -10.956   6.116  67.337  1.00  0.00    -0.409 A  
HETATM    5  C   UNL     1      -9.877   6.848  67.860  1.00  0.00    -0.155 A  
HETATM    6  C   UNL     1      -8.607   6.572  67.318  1.00  0.00    -0.111 A  
HETATM    7  C   UNL     1      -8.436   5.642  66.282  1.00  0.00    -0.124 A  
ENDROOT
BRANCH   5   8
HETATM    8  C   UNL     1     -10.057   7.953  68.870  1.00  0.00    -0.203 C  
HETATM    9  C   UNL     1      -9.769   7.770  70.187  1.00  0.00    -0.183 C  
BRANCH   8  10
HETATM   10  C   UNL     1     -10.571   9.327  68.523  1.00  0.00    -0.183 A  
HETATM   11  N   UNL     1     -10.307   9.783  67.271  1.00  0.00    -0.232 NA 
HETATM   12  C   UNL     1     -11.304  10.099  69.431  1.00  0.00    -0.233 A  
HETATM   13  C   UNL     1     -11.786  11.348  69.033  1.00  0.00    -0.415 A  
HETATM   14  C   UNL     1     -10.762  11.007  66.923  1.00  0.00    -0.274 A  
HETATM   15  C   UNL     1     -11.506  11.815  67.759  1.00  0.00    -0.381 A  
ENDBRANCH   8  10
BRANCH   9  16
HETATM   16  C   UNL     1      -9.153   6.589  70.882  1.00  0.00    -0.154 C  
BRANCH  16  17
HETATM   17  N   UNL     1     -10.071   5.865  71.767  1.00  0.00    -0.184 NA 
HETATM   18  C   UNL     1     -10.602   3.846  72.805  1.00  0.00    -0.206 C  
HETATM   19  C   UNL     1     -10.219   4.820  73.907  1.00  0.00    -0.248 C  
HETATM   20  C   UNL     1      -9.938   4.417  71.571  1.00  0.00    -0.180 C  
HETATM   21  C   UNL     1      -9.830   6.112  73.192  1.00  0.00    -0.166 C  
ENDBRANCH  16  17
ENDBRANCH   9  16
ENDBRANCH   5   8
TORSDOF 4
ENDMDL
MODEL      161
REMARK 921   NORMALIZED FREE ENERGY PREDICTED BY IDOCK:   -3.71 KCAL/MOL
REMARK 922        TOTAL FREE ENERGY PREDICTED BY IDOCK:   -5.39 KCAL/MOL
REMARK 923 INTER-LIGAND FREE ENERGY PREDICTED BY IDOCK:   -4.43 KCAL/MOL
REMARK 924 INTRA-LIGAND FREE ENERGY PREDICTED BY IDOCK:   -0.96 KCAL/MOL
REMARK 927      BINDING AFFINITY PREDICTED BY RF-SCORE:    0.00 PKD
ROOT
HETATM    1  C   UNL     1      -6.391  10.340  64.780  1.00  0.00    -0.114 C  
HETATM    2  C   UNL     1      -7.375   9.505  65.546  1.00  0.00    -0.094 A  
HETATM    3  C   UNL     1      -8.744   9.614  65.302  1.00  0.00    -0.186 A  
HETATM    4  C   UNL     1      -9.664   8.920  66.100  1.00  0.00    -0.338 A  
HETATM    5  C   UNL     1      -9.256   8.043  67.119  1.00  0.00    -0.172 A  
HETATM    6  C   UNL     1      -7.869   7.908  67.315  1.00  0.00    -0.113 A  
HETATM    7  C   UNL     1      -6.943   8.642  66.558  1.00  0.00    -0.079 A  
ENDROOT
BRANCH   5   8
HETATM    8  C   UNL     1     -10.232   7.354  68.039  1.00  0.00    -0.234 C  
HETATM    9  C   UNL     1     -10.800   6.161  67.714  1.00  0.00    -0.413 C  
BRANCH   8  10
HETATM   10  C   UNL     1     -10.668   7.918  69.367  1.00  0.00    -0.168 A  
HETATM   11  N   UNL     1     -11.012   7.024  70.331  1.00  0.00    -0.257 NA 
HETATM   12  C   UNL     1     -10.705   9.294  69.617  1.00  0.00    -0.244 A  
HETATM   13  C   UNL     1     -11.080   9.750  70.882  1.00  0.00    -0.428 A  
HETATM   14  C   UNL     1     -11.397   7.494  71.537  1.00  0.00    -0.255 A  
HETATM   15  C   UNL     1     -11.439   8.836  71.859  1.00  0.00    -0.428 A  
ENDBRANCH   8  10
BRANCH   9  16
HETATM   16  C   UNL     1     -10.539   5.260  66.541  1.00  0.00    -0.285 C  
BRANCH  16  17
HETATM   17  N   UNL     1      -9.885   3.994  66.888  1.00  0.00    -0.188 NA 
HETATM   18  C   UNL     1      -8.311   2.378  66.297  1.00  0.00    -0.094 C  
HETATM   19  C   UNL     1      -7.796   3.054  67.556  1.00  0.00    -0.076 C  
HETATM   20  C   UNL     1      -9.261   3.396  65.703  1.00  0.00    -0.154 C  
HETATM   21  C   UNL     1      -8.821   4.137  67.886  1.00  0.00    -0.113 C  
ENDBRANCH  16  17
ENDBRANCH   9  16
ENDBRANCH   5   8
TORSDOF 4
ENDMDL
MODEL      162
REMARK 921   NORMALIZED FREE ENERGY PREDICTED BY IDOCK:   -3.65 KCAL/MOL
REMARK 922        TOTAL FREE ENERGY PREDICTED BY IDOCK:   -5.31 KCAL/MOL
REMARK 923 INTER-LIGAND FREE ENERGY PREDICTED BY IDOCK:   -4.41 KCAL/MOL
REMARK 924 INTRA-LIGAND FREE ENERGY PREDICTED BY IDOCK:   -0.90 KCAL/MOL
REMARK 927      BINDING AFFINITY PREDICTED BY RF-SCORE:    0.00 PKD
ROOT
HETATM    1  C   UNL     1      -7.999   3.107  72.340  1.00  0.00    -0.059 C  
HETATM    2  C   UNL     1      -8.328   4.312  71.508  1.00  0.00    -0.096 A  
HETATM    3  C   UNL     1      -9.570   4.428  70.883  1.00  0.00    -0.255 A  
HETATM    4  C   UNL     1      -9.828   5.497  70.015  1.00  0.00    -0.262 A  
HETATM    5  C   UNL     1      -8.893   6.521  69.791  1.00  0.00    -0.143 A  
HETATM    6  C   UNL     1      -7.666   6.412  70.472  1.00  0.00    -0.105 A  
HETATM    7  C   UNL     1      -7.378   5.316  71.299  1.00  0.00    -0.082 A  
ENDROOT
BRANCH   5   8
HETATM    8  C   UNL     1      -9.124   7.632  68.798  1.00  0.00    -0.139 C  
HETATM    9  C   UNL     1      -9.706   8.806  69.162  1.00  0.00    -0.175 C  
BRANCH   8  10
HETATM   10  C   UNL     1      -8.750   7.540  67.340  1.00  0.00    -0.124 A  
HETATM   11  N   UNL     1      -8.788   8.693  66.622  1.00  0.00    -0.128 NA 
HETATM   12  C   UNL     1      -8.361   6.334  66.745  1.00  0.00    -0.110 A  
HETATM   13  C   UNL     1      -7.989   6.325  65.400  1.00  0.00    -0.118 A  
HETATM   14  C   UNL     1      -8.449   8.649  65.315  1.00  0.00    -0.179 A  
HETATM   15  C   UNL     1      -8.039   7.500  64.668  1.00  0.00    -0.101 A  
ENDBRANCH   8  10
BRANCH   9  16
HETATM   16  C   UNL     1     -10.115   9.295  70.521  1.00  0.00    -0.255 C  
BRANCH  16  17
HETATM   17  N   UNL     1     -11.565   9.403  70.711  1.00  0.00    -0.286 NA 
HETATM   18  C   UNL     1     -13.364   9.239  72.187  1.00  0.00    -0.537 C  
HETATM   19  C   UNL     1     -13.250  10.701  71.791  1.00  0.00    -0.526 C  
HETATM   20  C   UNL     1     -11.980   8.685  71.921  1.00  0.00    -0.356 C  
HETATM   21  C   UNL     1     -12.037  10.782  70.868  1.00  0.00    -0.370 C  
ENDBRANCH  16  17
ENDBRANCH   9  16
ENDBRANCH   5   8
TORSDOF 4
ENDMDL
MODEL      163
REMARK 921   NORMALIZED FREE ENERGY PREDICTED BY IDOCK:   -3.59 KCAL/MOL
REMARK 922        TOTAL FREE ENERGY PREDICTED BY IDOCK:   -5.24 KCAL/MOL
REMARK 923 INTER-LIGAND FREE ENERGY PREDICTED BY IDOCK:   -4.33 KCAL/MOL
REMARK 924 INTRA-LIGAND FREE ENERGY PREDICTED BY IDOCK:   -0.91 KCAL/MOL
REMARK 927      BINDING AFFINITY PREDICTED BY RF-SCORE:    0.00 PKD
ROOT
HETATM    1  C   UNL     1      -8.953   9.761  65.383  1.00  0.00    -0.229 C  
HETATM    2  C   UNL     1      -8.935   8.789  66.526  1.00  0.00    -0.180 A  
HETATM    3  C   UNL     1      -9.287   7.454  66.331  1.00  0.00    -0.206 A  
HETATM    4  C   UNL     1      -9.381   6.579  67.422  1.00  0.00    -0.125 A  
HETATM    5  C   UNL     1      -9.064   6.980  68.730  1.00  0.00    -0.133 A  
HETATM    6  C   UNL     1      -8.661   8.319  68.898  1.00  0.00    -0.132 A  
HETATM    7  C   UNL     1      -8.618   9.215  67.819  1.00  0.00    -0.121 A  
ENDROOT
BRANCH   5   8
HETATM    8  C   UNL     1      -9.240   6.076  69.924  1.00  0.00    -0.159 C  
HETATM    9  C   UNL     1     -10.414   6.019  70.609  1.00  0.00    -0.305 C  
BRANCH   8  10
HETATM   10  C   UNL     1      -8.152   5.183  70.464  1.00  0.00    -0.095 A  
HETATM   11  N   UNL     1      -8.483   4.371  71.502  1.00  0.00    -0.102 NA 
HETATM   12  C   UNL     1      -6.863   5.166  69.920  1.00  0.00    -0.052 A  
HETATM   13  C   UNL     1      -5.913   4.286  70.440  1.00  0.00    -0.017 A  
HETATM   14  C   UNL     1      -7.535   3.550  72.004  1.00  0.00    -0.056 A  
HETATM   15  C   UNL     1      -6.250   3.467  71.506  1.00  0.00    -0.015 A  
ENDBRANCH   8  10
BRANCH   9  16
HETATM   16  C   UNL     1     -11.732   6.676  70.314  1.00  0.00    -0.371 C  
BRANCH  16  17
HETATM   17  N   UNL     1     -12.309   7.404  71.450  1.00  0.00    -0.345 NA 
HETATM   18  C   UNL     1     -13.044   9.449  72.294  1.00  0.00    -0.509 C  
HETATM   19  C   UNL     1     -14.269   8.558  72.170  1.00  0.00    -0.516 C  
HETATM   20  C   UNL     1     -12.057   8.843  71.321  1.00  0.00    -0.306 C  
HETATM   21  C   UNL     1     -13.762   7.249  71.569  1.00  0.00    -0.351 C  
ENDBRANCH  16  17
ENDBRANCH   9  16
ENDBRANCH   5   8
TORSDOF 4
ENDMDL
MODEL      164
REMARK 921   NORMALIZED FREE ENERGY PREDICTED BY IDOCK:   -3.58 KCAL/MOL
REMARK 922        TOTAL FREE ENERGY PREDICTED BY IDOCK:   -5.22 KCAL/MOL
REMARK 923 INTER-LIGAND FREE ENERGY PREDICTED BY IDOCK:   -4.25 KCAL/MOL
REMARK 924 INTRA-LIGAND FREE ENERGY PREDICTED BY IDOCK:   -0.97 KCAL/MOL
REMARK 927      BINDING AFFINITY PREDICTED BY RF-SCORE:    0.00 PKD
ROOT
HETATM    1  C   UNL     1      -7.300   7.674  71.108  1.00  0.00    -0.073 C  
HETATM    2  C   UNL     1      -7.982   8.521  70.074  1.00  0.00    -0.109 A  
HETATM    3  C   UNL     1      -9.336   8.345  69.789  1.00  0.00    -0.158 A  
HETATM    4  C   UNL     1      -9.938   9.056  68.742  1.00  0.00    -0.194 A  
HETATM    5  C   UNL     1      -9.238  10.014  67.990  1.00  0.00    -0.139 A  
HETATM    6  C   UNL     1      -7.885  10.213  68.328  1.00  0.00    -0.093 A  
HETATM    7  C   UNL     1      -7.261   9.465  69.337  1.00  0.00    -0.066 A  
ENDROOT
BRANCH   5   8
HETATM    8  C   UNL     1      -9.847  10.725  66.808  1.00  0.00    -0.233 C  
HETATM    9  C   UNL     1      -9.709  10.251  65.541  1.00  0.00    -0.326 C  
BRANCH   8  10
HETATM   10  C   UNL     1     -10.636  12.005  66.920  1.00  0.00    -0.229 A  
HETATM   11  N   UNL     1     -10.290  12.854  67.923  1.00  0.00    -0.225 NA 
HETATM   12  C   UNL     1     -11.666  12.326  66.028  1.00  0.00    -0.451 A  
HETATM   13  C   UNL     1     -12.331  13.546  66.162  1.00  0.00    -0.463 A  
HETATM   14  C   UNL     1     -10.969  14.016  68.045  1.00  0.00    -0.251 A  
HETATM   15  C   UNL     1     -11.983  14.405  67.192  1.00  0.00    -0.419 A  
ENDBRANCH   8  10
BRANCH   9  16
HETATM   16  C   UNL     1      -9.087   8.974  65.054  1.00  0.00    -0.111 C  
BRANCH  16  17
HETATM   17  N   UNL     1      -8.099   9.154  63.985  1.00  0.00    -0.142 NA 
HETATM   18  C   UNL     1      -7.174  10.589  62.397  1.00  0.00    -0.161 C  
HETATM   19  C   UNL     1      -6.091  10.316  63.428  1.00  0.00    -0.140 C  
HETATM   20  C   UNL     1      -8.460  10.296  63.139  1.00  0.00    -0.180 C  
HETATM   21  C   UNL     1      -6.743   9.417  64.476  1.00  0.00    -0.089 C  
ENDBRANCH  16  17
ENDBRANCH   9  16
ENDBRANCH   5   8
TORSDOF 4
ENDMDL
MODEL      165
REMARK 921   NORMALIZED FREE ENERGY PREDICTED BY IDOCK:   -3.57 KCAL/MOL
REMARK 922        TOTAL FREE ENERGY PREDICTED BY IDOCK:   -5.21 KCAL/MOL
REMARK 923 INTER-LIGAND FREE ENERGY PREDICTED BY IDOCK:   -4.15 KCAL/MOL
REMARK 924 INTRA-LIGAND FREE ENERGY PREDICTED BY IDOCK:   -1.06 KCAL/MOL
REMARK 927      BINDING AFFINITY PREDICTED BY RF-SCORE:    0.00 PKD
ROOT
HETATM    1  C   UNL     1      -6.144   3.810  67.111  1.00  0.00    -0.025 C  
HETATM    2  C   UNL     1      -6.885   5.114  67.137  1.00  0.00    -0.060 A  
HETATM    3  C   UNL     1      -6.196   6.325  67.208  1.00  0.00    -0.032 A  
HETATM    4  C   UNL     1      -6.895   7.531  67.350  1.00  0.00    -0.071 A  
HETATM    5  C   UNL     1      -8.298   7.585  67.356  1.00  0.00    -0.112 A  
HETATM    6  C   UNL     1      -8.976   6.357  67.232  1.00  0.00    -0.107 A  
HETATM    7  C   UNL     1      -8.283   5.140  67.146  1.00  0.00    -0.107 A  
ENDROOT
BRANCH   5   8
HETATM    8  C   UNL     1      -9.063   8.863  67.592  1.00  0.00    -0.144 C  
HETATM    9  C   UNL     1      -9.335   9.311  68.847  1.00  0.00    -0.150 C  
BRANCH   8  10
HETATM   10  C   UNL     1      -9.594   9.735  66.483  1.00  0.00    -0.194 A  
HETATM   11  N   UNL     1      -9.115   9.499  65.233  1.00  0.00    -0.209 NA 
HETATM   12  C   UNL     1     -10.550  10.731  66.711  1.00  0.00    -0.307 A  
HETATM   13  C   UNL     1     -11.031  11.477  65.633  1.00  0.00    -0.296 A  
HETATM   14  C   UNL     1      -9.577  10.256  64.213  1.00  0.00    -0.313 A  
HETATM   15  C   UNL     1     -10.532  11.242  64.362  1.00  0.00    -0.407 A  
ENDBRANCH   8  10
BRANCH   9  16
HETATM   16  C   UNL     1      -8.890   8.774  70.177  1.00  0.00    -0.154 C  
BRANCH  16  17
HETATM   17  N   UNL     1      -9.979   8.251  71.009  1.00  0.00    -0.183 NA 
HETATM   18  C   UNL     1     -12.261   8.275  71.489  1.00  0.00    -0.334 C  
HETATM   19  C   UNL     1     -11.941   6.895  70.941  1.00  0.00    -0.430 C  
HETATM   20  C   UNL     1     -11.142   9.143  70.957  1.00  0.00    -0.305 C  
HETATM   21  C   UNL     1     -10.455   6.928  70.590  1.00  0.00    -0.210 C  
ENDBRANCH  16  17
ENDBRANCH   9  16
ENDBRANCH   5   8
TORSDOF 4
ENDMDL
MODEL      166
REMARK 921   NORMALIZED FREE ENERGY PREDICTED BY IDOCK:   -3.54 KCAL/MOL
REMARK 922        TOTAL FREE ENERGY PREDICTED BY IDOCK:   -5.17 KCAL/MOL
REMARK 923 INTER-LIGAND FREE ENERGY PREDICTED BY IDOCK:   -4.34 KCAL/MOL
REMARK 924 INTRA-LIGAND FREE ENERGY PREDICTED BY IDOCK:   -0.83 KCAL/MOL
REMARK 927      BINDING AFFINITY PREDICTED BY RF-SCORE:    0.00 PKD
ROOT
HETATM    1  C   UNL     1     -11.429   5.673  72.688  1.00  0.00    -0.339 C  
HETATM    2  C   UNL     1     -10.948   5.555  71.271  1.00  0.00    -0.198 A  
HETATM    3  C   UNL     1      -9.912   4.680  70.941  1.00  0.00    -0.273 A  
HETATM    4  C   UNL     1      -9.390   4.660  69.641  1.00  0.00    -0.212 A  
HETATM    5  C   UNL     1      -9.920   5.453  68.610  1.00  0.00    -0.232 A  
HETATM    6  C   UNL     1     -10.999   6.291  68.952  1.00  0.00    -0.435 A  
HETATM    7  C   UNL     1     -11.491   6.358  70.264  1.00  0.00    -0.468 A  
ENDROOT
BRANCH   5   8
HETATM    8  C   UNL     1      -9.317   5.504  67.229  1.00  0.00    -0.114 C  
HETATM    9  C   UNL     1      -8.597   6.577  66.804  1.00  0.00    -0.117 C  
BRANCH   8  10
HETATM   10  C   UNL     1      -9.462   4.401  66.213  1.00  0.00    -0.174 A  
HETATM   11  N   UNL     1      -8.897   3.203  66.520  1.00  0.00    -0.136 NA 
HETATM   12  C   UNL     1     -10.159   4.580  65.012  1.00  0.00    -0.105 A  
HETATM   13  C   UNL     1     -10.291   3.506  64.131  1.00  0.00    -0.220 A  
HETATM   14  C   UNL     1      -9.018   2.189  65.636  1.00  0.00    -0.116 A  
HETATM   15  C   UNL     1      -9.706   2.289  64.443  1.00  0.00    -0.071 A  
ENDBRANCH   8  10
BRANCH   9  16
HETATM   16  C   UNL     1      -8.162   7.802  67.556  1.00  0.00    -0.124 C  
BRANCH  16  17
HETATM   17  N   UNL     1      -8.438   9.065  66.862  1.00  0.00    -0.118 NA 
HETATM   18  C   UNL     1      -8.474  10.216  64.835  1.00  0.00    -0.178 C  
HETATM   19  C   UNL     1      -9.916  10.087  65.293  1.00  0.00    -0.368 C  
HETATM   20  C   UNL     1      -7.763   9.095  65.561  1.00  0.00    -0.094 C  
HETATM   21  C   UNL     1      -9.863   9.287  66.593  1.00  0.00    -0.245 C  
ENDBRANCH  16  17
ENDBRANCH   9  16
ENDBRANCH   5   8
TORSDOF 4
ENDMDL
MODEL      167
REMARK 921   NORMALIZED FREE ENERGY PREDICTED BY IDOCK:   -3.53 KCAL/MOL
REMARK 922        TOTAL FREE ENERGY PREDICTED BY IDOCK:   -5.16 KCAL/MOL
REMARK 923 INTER-LIGAND FREE ENERGY PREDICTED BY IDOCK:   -4.07 KCAL/MOL
REMARK 924 INTRA-LIGAND FREE ENERGY PREDICTED BY IDOCK:   -1.09 KCAL/MOL
REMARK 927      BINDING AFFINITY PREDICTED BY RF-SCORE:    0.00 PKD
ROOT
HETATM    1  C   UNL     1      -9.331  11.427  65.729  1.00  0.00    -0.247 C  
HETATM    2  C   UNL     1      -9.359  10.232  66.636  1.00  0.00    -0.192 A  
HETATM    3  C   UNL     1      -8.516  10.160  67.745  1.00  0.00    -0.114 A  
HETATM    4  C   UNL     1      -8.463   8.994  68.521  1.00  0.00    -0.128 A  
HETATM    5  C   UNL     1      -9.291   7.889  68.265  1.00  0.00    -0.145 A  
HETATM    6  C   UNL     1     -10.172   8.002  67.172  1.00  0.00    -0.362 A  
HETATM    7  C   UNL     1     -10.191   9.144  66.358  1.00  0.00    -0.300 A  
ENDROOT
BRANCH   5   8
HETATM    8  C   UNL     1      -9.188   6.598  69.037  1.00  0.00    -0.131 C  
HETATM    9  C   UNL     1      -8.321   5.615  68.671  1.00  0.00    -0.106 C  
BRANCH   8  10
HETATM   10  C   UNL     1     -10.024   6.281  70.250  1.00  0.00    -0.173 A  
HETATM   11  N   UNL     1      -9.474   5.450  71.175  1.00  0.00    -0.153 NA 
HETATM   12  C   UNL     1     -11.300   6.823  70.439  1.00  0.00    -0.399 A  
HETATM   13  C   UNL     1     -12.006   6.520  71.604  1.00  0.00    -0.387 A  
HETATM   14  C   UNL     1     -10.192   5.152  72.280  1.00  0.00    -0.202 A  
HETATM   15  C   UNL     1     -11.447   5.665  72.540  1.00  0.00    -0.335 A  
ENDBRANCH   8  10
BRANCH   9  16
HETATM   16  C   UNL     1      -7.274   5.609  67.595  1.00  0.00    -0.076 C  
BRANCH  16  17
HETATM   17  N   UNL     1      -7.609   4.778  66.433  1.00  0.00    -0.086 NA 
HETATM   18  C   UNL     1      -8.907   3.040  65.580  1.00  0.00    -0.137 C  
HETATM   19  C   UNL     1      -9.350   4.309  64.872  1.00  0.00    -0.165 C  
HETATM   20  C   UNL     1      -8.275   3.543  66.859  1.00  0.00    -0.095 C  
HETATM   21  C   UNL     1      -8.519   5.432  65.487  1.00  0.00    -0.141 C  
ENDBRANCH  16  17
ENDBRANCH   9  16
ENDBRANCH   5   8
TORSDOF 4
ENDMDL
MODEL      168
REMARK 921   NORMALIZED FREE ENERGY PREDICTED BY IDOCK:   -3.52 KCAL/MOL
REMARK 922        TOTAL FREE ENERGY PREDICTED BY IDOCK:   -5.15 KCAL/MOL
REMARK 923 INTER-LIGAND FREE ENERGY PREDICTED BY IDOCK:   -4.00 KCAL/MOL
REMARK 924 INTRA-LIGAND FREE ENERGY PREDICTED BY IDOCK:   -1.15 KCAL/MOL
REMARK 927      BINDING AFFINITY PREDICTED BY RF-SCORE:    0.00 PKD
ROOT
HETATM    1  C   UNL     1      -9.367  11.570  66.027  1.00  0.00    -0.239 C  
HETATM    2  C   UNL     1      -9.363  10.242  66.726  1.00  0.00    -0.187 A  
HETATM    3  C   UNL     1      -8.689  10.075  67.936  1.00  0.00    -0.125 A  
HETATM    4  C   UNL     1      -8.590   8.807  68.524  1.00  0.00    -0.134 A  
HETATM    5  C   UNL     1      -9.213   7.676  67.970  1.00  0.00    -0.138 A  
HETATM    6  C   UNL     1      -9.931   7.876  66.775  1.00  0.00    -0.333 A  
HETATM    7  C   UNL     1      -9.987   9.131  66.151  1.00  0.00    -0.338 A  
ENDROOT
BRANCH   5   8
HETATM    8  C   UNL     1      -9.046   6.292  68.544  1.00  0.00    -0.125 C  
HETATM    9  C   UNL     1     -10.026   5.702  69.280  1.00  0.00    -0.251 C  
BRANCH   8  10
HETATM   10  C   UNL     1      -7.802   5.459  68.368  1.00  0.00    -0.084 A  
HETATM   11  N   UNL     1      -7.247   4.940  69.495  1.00  0.00    -0.055 NA 
HETATM   12  C   UNL     1      -7.245   5.208  67.110  1.00  0.00    -0.081 A  
HETATM   13  C   UNL     1      -6.114   4.395  67.013  1.00  0.00    -0.031 A  
HETATM   14  C   UNL     1      -6.137   4.179  69.373  1.00  0.00    -0.027 A  
HETATM   15  C   UNL     1      -5.544   3.875  68.164  1.00  0.00    -0.021 A  
ENDBRANCH   8  10
BRANCH   9  16
HETATM   16  C   UNL     1     -11.420   6.174  69.579  1.00  0.00    -0.229 C  
BRANCH  16  17
HETATM   17  N   UNL     1     -11.568   6.827  70.884  1.00  0.00    -0.333 NA 
HETATM   18  C   UNL     1     -10.590   7.342  72.936  1.00  0.00    -0.370 C  
HETATM   19  C   UNL     1     -10.774   8.655  72.195  1.00  0.00    -0.417 C  
HETATM   20  C   UNL     1     -10.584   6.304  71.836  1.00  0.00    -0.219 C  
HETATM   21  C   UNL     1     -11.368   8.279  70.839  1.00  0.00    -0.268 C  
ENDBRANCH  16  17
ENDBRANCH   9  16
ENDBRANCH   5   8
TORSDOF 4
ENDMDL
MODEL      169
REMARK 921   NORMALIZED FREE ENERGY PREDICTED BY IDOCK:   -3.50 KCAL/MOL
REMARK 922        TOTAL FREE ENERGY PREDICTED BY IDOCK:   -5.12 KCAL/MOL
REMARK 923 INTER-LIGAND FREE ENERGY PREDICTED BY IDOCK:   -5.12 KCAL/MOL
REMARK 924 INTRA-LIGAND FREE ENERGY PREDICTED BY IDOCK:    0.00 KCAL/MOL
REMARK 927      BINDING AFFINITY PREDICTED BY RF-SCORE:    0.00 PKD
ROOT
HETATM    1  C   UNL     1     -14.061  14.127  71.467  1.00  0.00    -0.343 C  
HETATM    2  C   UNL     1     -12.911  14.585  70.619  1.00  0.00    -0.358 A  
HETATM    3  C   UNL     1     -12.345  13.738  69.667  1.00  0.00    -0.284 A  
HETATM    4  C   UNL     1     -11.200  14.129  68.961  1.00  0.00    -0.303 A  
HETATM    5  C   UNL     1     -10.618  15.397  69.124  1.00  0.00    -0.248 A  
HETATM    6  C   UNL     1     -11.235  16.257  70.053  1.00  0.00    -0.324 A  
HETATM    7  C   UNL     1     -12.349  15.852  70.804  1.00  0.00    -0.342 A  
ENDROOT
BRANCH   5   8
HETATM    8  C   UNL     1      -9.339  15.801  68.436  1.00  0.00    -0.196 C  
HETATM    9  C   UNL     1      -8.681  14.955  67.598  1.00  0.00    -0.181 C  
BRANCH   8  10
HETATM   10  C   UNL     1      -8.682  17.145  68.618  1.00  0.00    -0.266 A  
HETATM   11  N   UNL     1      -9.426  18.240  68.311  1.00  0.00    -0.297 NA 
HETATM   12  C   UNL     1      -7.373  17.276  69.097  1.00  0.00    -0.157 A  
HETATM   13  C   UNL     1      -6.837  18.551  69.280  1.00  0.00    -0.234 A  
HETATM   14  C   UNL     1      -8.871  19.461  68.472  1.00  0.00    -0.366 A  
HETATM   15  C   UNL     1      -7.594  19.665  68.957  1.00  0.00    -0.320 A  
ENDBRANCH   8  10
BRANCH   9  16
HETATM   16  C   UNL     1      -9.076  13.594  67.102  1.00  0.00    -0.239 C  
BRANCH  16  17
HETATM   17  N   UNL     1      -8.195  12.510  67.551  1.00  0.00    -0.164 NA 
HETATM   18  C   UNL     1      -6.821  11.678  69.240  1.00  0.00    -0.104 C  
HETATM   19  C   UNL     1      -8.014  10.743  69.143  1.00  0.00    -0.135 C  
HETATM   20  C   UNL     1      -7.325  12.971  68.638  1.00  0.00    -0.097 C  
HETATM   21  C   UNL     1      -8.916  11.342  68.067  1.00  0.00    -0.163 C  
ENDBRANCH  16  17
ENDBRANCH   9  16
ENDBRANCH   5   8
TORSDOF 4
ENDMDL
MODEL      170
REMARK 921   NORMALIZED FREE ENERGY PREDICTED BY IDOCK:   -3.44 KCAL/MOL
REMARK 922        TOTAL FREE ENERGY PREDICTED BY IDOCK:   -5.05 KCAL/MOL
REMARK 923 INTER-LIGAND FREE ENERGY PREDICTED BY IDOCK:   -4.21 KCAL/MOL
REMARK 924 INTRA-LIGAND FREE ENERGY PREDICTED BY IDOCK:   -0.84 KCAL/MOL
REMARK 927      BINDING AFFINITY PREDICTED BY RF-SCORE:    0.00 PKD
ROOT
HETATM    1  C   UNL     1      -9.033   5.068  74.484  1.00  0.00    -0.110 C  
HETATM    2  C   UNL     1      -9.180   5.467  73.045  1.00  0.00    -0.136 A  
HETATM    3  C   UNL     1     -10.411   5.356  72.398  1.00  0.00    -0.257 A  
HETATM    4  C   UNL     1     -10.516   5.618  71.025  1.00  0.00    -0.316 A  
HETATM    5  C   UNL     1      -9.423   6.065  70.264  1.00  0.00    -0.186 A  
HETATM    6  C   UNL     1      -8.202   6.219  70.948  1.00  0.00    -0.126 A  
HETATM    7  C   UNL     1      -8.075   5.905  72.309  1.00  0.00    -0.107 A  
ENDROOT
BRANCH   5   8
HETATM    8  C   UNL     1      -9.499   6.270  68.772  1.00  0.00    -0.124 C  
HETATM    9  C   UNL     1      -9.585   7.514  68.227  1.00  0.00    -0.157 C  
BRANCH   8  10
HETATM   10  C   UNL     1      -9.499   5.142  67.773  1.00  0.00    -0.128 A  
HETATM   11  N   UNL     1     -10.009   5.413  66.542  1.00  0.00    -0.178 NA 
HETATM   12  C   UNL     1      -8.985   3.877  68.077  1.00  0.00    -0.155 A  
HETATM   13  C   UNL     1      -8.979   2.887  67.092  1.00  0.00    -0.181 A  
HETATM   14  C   UNL     1     -10.015   4.427  65.618  1.00  0.00    -0.236 A  
HETATM   15  C   UNL     1      -9.508   3.163  65.842  1.00  0.00    -0.050 A  
ENDBRANCH   8  10
BRANCH   9  16
HETATM   16  C   UNL     1      -9.513   8.860  68.887  1.00  0.00    -0.152 C  
BRANCH  16  17
HETATM   17  N   UNL     1     -10.781   9.599  68.888  1.00  0.00    -0.219 NA 
HETATM   18  C   UNL     1     -12.082  11.251  69.895  1.00  0.00    -0.414 C  
HETATM   19  C   UNL     1     -11.723  11.758  68.509  1.00  0.00    -0.390 C  
HETATM   20  C   UNL     1     -11.009  10.226  70.194  1.00  0.00    -0.314 C  
HETATM   21  C   UNL     1     -10.832  10.679  67.897  1.00  0.00    -0.277 C  
ENDBRANCH  16  17
ENDBRANCH   9  16
ENDBRANCH   5   8
TORSDOF 4
ENDMDL
MODEL      171
REMARK 921   NORMALIZED FREE ENERGY PREDICTED BY IDOCK:   -3.39 KCAL/MOL
REMARK 922        TOTAL FREE ENERGY PREDICTED BY IDOCK:   -4.98 KCAL/MOL
REMARK 923 INTER-LIGAND FREE ENERGY PREDICTED BY IDOCK:   -4.80 KCAL/MOL
REMARK 924 INTRA-LIGAND FREE ENERGY PREDICTED BY IDOCK:   -0.19 KCAL/MOL
REMARK 927      BINDING AFFINITY PREDICTED BY RF-SCORE:    0.00 PKD
ROOT
HETATM    1  C   UNL     1     -12.245  14.833  69.248  1.00  0.00    -0.234 C  
HETATM    2  C   UNL     1     -11.788  13.462  68.842  1.00  0.00    -0.373 A  
HETATM    3  C   UNL     1     -11.593  12.464  69.797  1.00  0.00    -0.302 A  
HETATM    4  C   UNL     1     -11.055  11.224  69.427  1.00  0.00    -0.316 A  
HETATM    5  C   UNL     1     -10.757  10.908  68.092  1.00  0.00    -0.256 A  
HETATM    6  C   UNL     1     -11.008  11.911  67.136  1.00  0.00    -0.319 A  
HETATM    7  C   UNL     1     -11.494  13.174  67.506  1.00  0.00    -0.371 A  
ENDROOT
BRANCH   5   8
HETATM    8  C   UNL     1     -10.100   9.612  67.689  1.00  0.00    -0.241 C  
HETATM    9  C   UNL     1      -9.163   9.562  66.703  1.00  0.00    -0.190 C  
BRANCH   8  10
HETATM   10  C   UNL     1     -10.423   8.281  68.318  1.00  0.00    -0.161 A  
HETATM   11  N   UNL     1     -10.577   7.225  67.477  1.00  0.00    -0.262 NA 
HETATM   12  C   UNL     1     -10.543   8.121  69.703  1.00  0.00    -0.223 A  
HETATM   13  C   UNL     1     -10.805   6.853  70.225  1.00  0.00    -0.294 A  
HETATM   14  C   UNL     1     -10.857   6.015  68.008  1.00  0.00    -0.287 A  
HETATM   15  C   UNL     1     -10.971   5.780  69.364  1.00  0.00    -0.352 A  
ENDBRANCH   8  10
BRANCH   9  16
HETATM   16  C   UNL     1      -8.522  10.678  65.929  1.00  0.00    -0.167 C  
BRANCH  16  17
HETATM   17  N   UNL     1      -7.112  10.907  66.260  1.00  0.00    -0.133 NA 
HETATM   18  C   UNL     1      -5.577  11.920  67.694  1.00  0.00    -0.075 C  
HETATM   19  C   UNL     1      -5.438  10.420  67.889  1.00  0.00    -0.040 C  
HETATM   20  C   UNL     1      -6.971  12.082  67.127  1.00  0.00    -0.134 C  
HETATM   21  C   UNL     1      -6.487   9.790  66.976  1.00  0.00    -0.066 C  
ENDBRANCH  16  17
ENDBRANCH   9  16
ENDBRANCH   5   8
TORSDOF 4
ENDMDL
MODEL      172
REMARK 921   NORMALIZED FREE ENERGY PREDICTED BY IDOCK:   -3.34 KCAL/MOL
REMARK 922        TOTAL FREE ENERGY PREDICTED BY IDOCK:   -4.93 KCAL/MOL
REMARK 923 INTER-LIGAND FREE ENERGY PREDICTED BY IDOCK:   -3.84 KCAL/MOL
REMARK 924 INTRA-LIGAND FREE ENERGY PREDICTED BY IDOCK:   -1.09 KCAL/MOL
REMARK 927      BINDING AFFINITY PREDICTED BY RF-SCORE:    0.00 PKD
ROOT
HETATM    1  C   UNL     1     -11.274   7.482  72.939  1.00  0.00    -0.396 C  
HETATM    2  C   UNL     1     -10.774   7.067  71.586  1.00  0.00    -0.244 A  
HETATM    3  C   UNL     1      -9.442   7.272  71.226  1.00  0.00    -0.156 A  
HETATM    4  C   UNL     1      -9.009   6.991  69.923  1.00  0.00    -0.142 A  
HETATM    5  C   UNL     1      -9.862   6.433  68.957  1.00  0.00    -0.155 A  
HETATM    6  C   UNL     1     -11.189   6.186  69.356  1.00  0.00    -0.466 A  
HETATM    7  C   UNL     1     -11.645   6.517  70.641  1.00  0.00    -0.442 A  
ENDROOT
BRANCH   5   8
HETATM    8  C   UNL     1      -9.434   6.202  67.529  1.00  0.00    -0.114 C  
HETATM    9  C   UNL     1      -9.617   7.147  66.568  1.00  0.00    -0.203 C  
BRANCH   8  10
HETATM   10  C   UNL     1      -8.792   4.928  67.045  1.00  0.00    -0.106 A  
HETATM   11  N   UNL     1      -9.626   3.911  66.701  1.00  0.00    -0.203 NA 
HETATM   12  C   UNL     1      -7.404   4.789  66.932  1.00  0.00    -0.082 A  
HETATM   13  C   UNL     1      -6.874   3.595  66.439  1.00  0.00    -0.054 A  
HETATM   14  C   UNL     1      -9.084   2.758  66.253  1.00  0.00    -0.119 A  
HETATM   15  C   UNL     1      -7.727   2.557  66.099  1.00  0.00    -0.076 A  
ENDBRANCH   8  10
BRANCH   9  16
HETATM   16  C   UNL     1     -10.124   8.556  66.688  1.00  0.00    -0.294 C  
BRANCH  16  17
HETATM   17  N   UNL     1      -9.094   9.538  67.041  1.00  0.00    -0.133 NA 
HETATM   18  C   UNL     1      -8.058  10.767  68.731  1.00  0.00    -0.143 C  
HETATM   19  C   UNL     1      -7.024   9.789  68.200  1.00  0.00    -0.077 C  
HETATM   20  C   UNL     1      -9.380  10.136  68.350  1.00  0.00    -0.136 C  
HETATM   21  C   UNL     1      -7.746   8.969  67.134  1.00  0.00    -0.099 C  
ENDBRANCH  16  17
ENDBRANCH   9  16
ENDBRANCH   5   8
TORSDOF 4
ENDMDL
MODEL      173
REMARK 921   NORMALIZED FREE ENERGY PREDICTED BY IDOCK:   -3.31 KCAL/MOL
REMARK 922        TOTAL FREE ENERGY PREDICTED BY IDOCK:   -4.89 KCAL/MOL
REMARK 923 INTER-LIGAND FREE ENERGY PREDICTED BY IDOCK:   -4.94 KCAL/MOL
REMARK 924 INTRA-LIGAND FREE ENERGY PREDICTED BY IDOCK:    0.05 KCAL/MOL
REMARK 927      BINDING AFFINITY PREDICTED BY RF-SCORE:    0.00 PKD
ROOT
HETATM    1  C   UNL     1     -13.611   9.111  72.239  1.00  0.00    -0.548 C  
HETATM    2  C   UNL     1     -12.647   9.704  71.254  1.00  0.00    -0.443 A  
HETATM    3  C   UNL     1     -12.880  10.962  70.697  1.00  0.00    -0.340 A  
HETATM    4  C   UNL     1     -12.040  11.458  69.692  1.00  0.00    -0.373 A  
HETATM    5  C   UNL     1     -10.903  10.758  69.255  1.00  0.00    -0.287 A  
HETATM    6  C   UNL     1     -10.657   9.514  69.866  1.00  0.00    -0.269 A  
HETATM    7  C   UNL     1     -11.525   8.985  70.833  1.00  0.00    -0.347 A  
ENDROOT
BRANCH   5   8
HETATM    8  C   UNL     1     -10.037  11.240  68.118  1.00  0.00    -0.195 C  
HETATM    9  C   UNL     1      -9.550  10.383  67.180  1.00  0.00    -0.192 C  
BRANCH   8  10
HETATM   10  C   UNL     1      -9.632  12.679  67.928  1.00  0.00    -0.211 A  
HETATM   11  N   UNL     1     -10.601  13.617  68.096  1.00  0.00    -0.241 NA 
HETATM   12  C   UNL     1      -8.320  13.048  67.612  1.00  0.00    -0.181 A  
HETATM   13  C   UNL     1      -8.001  14.402  67.489  1.00  0.00    -0.208 A  
HETATM   14  C   UNL     1     -10.270  14.918  67.944  1.00  0.00    -0.228 A  
HETATM   15  C   UNL     1      -8.993  15.355  67.651  1.00  0.00    -0.185 A  
ENDBRANCH   8  10
BRANCH   9  16
HETATM   16  C   UNL     1      -9.816   8.918  66.985  1.00  0.00    -0.214 C  
BRANCH  16  17
HETATM   17  N   UNL     1      -8.620   8.124  66.684  1.00  0.00    -0.130 NA 
HETATM   18  C   UNL     1      -7.667   6.434  65.392  1.00  0.00    -0.098 C  
HETATM   19  C   UNL     1      -6.974   7.728  65.003  1.00  0.00    -0.059 C  
HETATM   20  C   UNL     1      -8.985   6.892  65.978  1.00  0.00    -0.105 C  
HETATM   21  C   UNL     1      -7.653   8.819  65.828  1.00  0.00    -0.086 C  
ENDBRANCH  16  17
ENDBRANCH   9  16
ENDBRANCH   5   8
TORSDOF 4
ENDMDL
MODEL      174
REMARK 921   NORMALIZED FREE ENERGY PREDICTED BY IDOCK:   -3.29 KCAL/MOL
REMARK 922        TOTAL FREE ENERGY PREDICTED BY IDOCK:   -4.86 KCAL/MOL
REMARK 923 INTER-LIGAND FREE ENERGY PREDICTED BY IDOCK:   -3.96 KCAL/MOL
REMARK 924 INTRA-LIGAND FREE ENERGY PREDICTED BY IDOCK:   -0.89 KCAL/MOL
REMARK 927      BINDING AFFINITY PREDICTED BY RF-SCORE:    0.00 PKD
ROOT
HETATM    1  C   UNL     1     -12.279  14.907  68.718  1.00  0.00    -0.122 C  
HETATM    2  C   UNL     1     -11.358  13.727  68.617  1.00  0.00    -0.321 A  
HETATM    3  C   UNL     1     -11.700  12.504  69.194  1.00  0.00    -0.375 A  
HETATM    4  C   UNL     1     -10.786  11.442  69.197  1.00  0.00    -0.260 A  
HETATM    5  C   UNL     1      -9.533  11.532  68.569  1.00  0.00    -0.175 A  
HETATM    6  C   UNL     1      -9.228  12.758  67.947  1.00  0.00    -0.205 A  
HETATM    7  C   UNL     1     -10.114  13.845  67.989  1.00  0.00    -0.244 A  
ENDROOT
BRANCH   5   8
HETATM    8  C   UNL     1      -8.507  10.429  68.636  1.00  0.00    -0.129 C  
HETATM    9  C   UNL     1      -8.558   9.355  67.802  1.00  0.00    -0.116 C  
BRANCH   8  10
HETATM   10  C   UNL     1      -7.365  10.409  69.618  1.00  0.00    -0.156 A  
HETATM   11  N   UNL     1      -7.243   9.302  70.396  1.00  0.00    -0.083 NA 
HETATM   12  C   UNL     1      -6.453  11.466  69.722  1.00  0.00    -0.133 A  
HETATM   13  C   UNL     1      -5.392  11.367  70.625  1.00  0.00    -0.129 A  
HETATM   14  C   UNL     1      -6.223   9.246  71.281  1.00  0.00    -0.079 A  
HETATM   15  C   UNL     1      -5.277  10.241  71.424  1.00  0.00    -0.080 A  
ENDBRANCH   8  10
BRANCH   9  16
HETATM   16  C   UNL     1      -9.477   9.079  66.646  1.00  0.00    -0.194 C  
BRANCH  16  17
HETATM   17  N   UNL     1     -10.397   7.957  66.863  1.00  0.00    -0.324 NA 
HETATM   18  C   UNL     1     -10.660   5.647  67.033  1.00  0.00    -0.358 C  
HETATM   19  C   UNL     1     -10.951   6.225  68.407  1.00  0.00    -0.409 C  
HETATM   20  C   UNL     1      -9.811   6.708  66.367  1.00  0.00    -0.039 C  
HETATM   21  C   UNL     1     -10.721   7.729  68.275  1.00  0.00    -0.036 C  
ENDBRANCH  16  17
ENDBRANCH   9  16
ENDBRANCH   5   8
TORSDOF 4
ENDMDL
MODEL      175
REMARK 921   NORMALIZED FREE ENERGY PREDICTED BY IDOCK:   -3.25 KCAL/MOL
REMARK 922        TOTAL FREE ENERGY PREDICTED BY IDOCK:   -4.82 KCAL/MOL
REMARK 923 INTER-LIGAND FREE ENERGY PREDICTED BY IDOCK:   -4.03 KCAL/MOL
REMARK 924 INTRA-LIGAND FREE ENERGY PREDICTED BY IDOCK:   -0.79 KCAL/MOL
REMARK 927      BINDING AFFINITY PREDICTED BY RF-SCORE:    0.00 PKD
ROOT
HETATM    1  C   UNL     1      -8.277   4.022  73.563  1.00  0.00    -0.089 C  
HETATM    2  C   UNL     1      -8.796   4.744  72.354  1.00  0.00    -0.127 A  
HETATM    3  C   UNL     1      -7.968   5.593  71.621  1.00  0.00    -0.117 A  
HETATM    4  C   UNL     1      -8.489   6.354  70.565  1.00  0.00    -0.138 A  
HETATM    5  C   UNL     1      -9.829   6.246  70.157  1.00  0.00    -0.201 A  
HETATM    6  C   UNL     1     -10.636   5.345  70.878  1.00  0.00    -0.283 A  
HETATM    7  C   UNL     1     -10.136   4.623  71.972  1.00  0.00    -0.262 A  
ENDROOT
BRANCH   5   8
HETATM    8  C   UNL     1     -10.424   7.117  69.080  1.00  0.00    -0.221 C  
HETATM    9  C   UNL     1     -10.631   6.651  67.818  1.00  0.00    -0.311 C  
BRANCH   8  10
HETATM   10  C   UNL     1     -10.824   8.554  69.293  1.00  0.00    -0.056 A  
HETATM   11  N   UNL     1     -10.620   9.409  68.257  1.00  0.00    -0.224 NA 
HETATM   12  C   UNL     1     -11.398   8.998  70.490  1.00  0.00    -0.282 A  
HETATM   13  C   UNL     1     -11.783  10.335  70.609  1.00  0.00    -0.438 A  
HETATM   14  C   UNL     1     -10.977  10.703  68.410  1.00  0.00    -0.251 A  
HETATM   15  C   UNL     1     -11.564  11.206  69.554  1.00  0.00    -0.392 A  
ENDBRANCH   8  10
BRANCH   9  16
HETATM   16  C   UNL     1     -10.452   5.267  67.264  1.00  0.00    -0.173 C  
BRANCH  16  17
HETATM   17  N   UNL     1     -10.091   5.230  65.842  1.00  0.00    -0.110 NA 
HETATM   18  C   UNL     1      -8.862   4.180  64.162  1.00  0.00    -0.133 C  
HETATM   19  C   UNL     1     -10.329   3.933  63.854  1.00  0.00    -0.220 C  
HETATM   20  C   UNL     1      -8.850   4.474  65.646  1.00  0.00    -0.127 C  
HETATM   21  C   UNL     1     -11.102   4.588  64.996  1.00  0.00     0.124 C  
ENDBRANCH  16  17
ENDBRANCH   9  16
ENDBRANCH   5   8
TORSDOF 4
ENDMDL
MODEL      176
REMARK 921   NORMALIZED FREE ENERGY PREDICTED BY IDOCK:   -3.19 KCAL/MOL
REMARK 922        TOTAL FREE ENERGY PREDICTED BY IDOCK:   -4.74 KCAL/MOL
REMARK 923 INTER-LIGAND FREE ENERGY PREDICTED BY IDOCK:   -3.85 KCAL/MOL
REMARK 924 INTRA-LIGAND FREE ENERGY PREDICTED BY IDOCK:   -0.89 KCAL/MOL
REMARK 927      BINDING AFFINITY PREDICTED BY RF-SCORE:    0.00 PKD
ROOT
HETATM    1  C   UNL     1      -5.131  12.986  68.492  1.00  0.00    -0.065 C  
HETATM    2  C   UNL     1      -6.240  12.003  68.262  1.00  0.00    -0.051 A  
HETATM    3  C   UNL     1      -5.979  10.751  67.704  1.00  0.00    -0.044 A  
HETATM    4  C   UNL     1      -7.033   9.884  67.384  1.00  0.00    -0.083 A  
HETATM    5  C   UNL     1      -8.372  10.198  67.670  1.00  0.00    -0.114 A  
HETATM    6  C   UNL     1      -8.609  11.445  68.280  1.00  0.00    -0.156 A  
HETATM    7  C   UNL     1      -7.566  12.342  68.552  1.00  0.00    -0.118 A  
ENDROOT
BRANCH   5   8
HETATM    8  C   UNL     1      -9.522   9.315  67.257  1.00  0.00    -0.181 C  
HETATM    9  C   UNL     1     -10.060   9.380  66.009  1.00  0.00    -0.302 C  
BRANCH   8  10
HETATM   10  C   UNL     1     -10.172   8.309  68.171  1.00  0.00    -0.210 A  
HETATM   11  N   UNL     1     -10.442   8.716  69.440  1.00  0.00    -0.219 NA 
HETATM   12  C   UNL     1     -10.507   7.019  67.744  1.00  0.00    -0.282 A  
HETATM   13  C   UNL     1     -11.145   6.149  68.629  1.00  0.00    -0.378 A  
HETATM   14  C   UNL     1     -11.035   7.843  70.284  1.00  0.00    -0.248 A  
HETATM   15  C   UNL     1     -11.409   6.564  69.925  1.00  0.00    -0.469 A  
ENDBRANCH   8  10
BRANCH   9  16
HETATM   16  C   UNL     1      -9.621  10.176  64.813  1.00  0.00    -0.314 C  
BRANCH  16  17
HETATM   17  N   UNL     1      -8.803   9.422  63.856  1.00  0.00    -0.205 NA 
HETATM   18  C   UNL     1      -6.728   9.178  62.822  1.00  0.00    -0.093 C  
HETATM   19  C   UNL     1      -6.929   7.955  63.700  1.00  0.00    -0.075 C  
HETATM   20  C   UNL     1      -7.645  10.215  63.433  1.00  0.00    -0.141 C  
HETATM   21  C   UNL     1      -8.269   8.169  64.400  1.00  0.00    -0.101 C  
ENDBRANCH  16  17
ENDBRANCH   9  16
ENDBRANCH   5   8
TORSDOF 4
ENDMDL
MODEL      177
REMARK 921   NORMALIZED FREE ENERGY PREDICTED BY IDOCK:   -3.19 KCAL/MOL
REMARK 922        TOTAL FREE ENERGY PREDICTED BY IDOCK:   -4.74 KCAL/MOL
REMARK 923 INTER-LIGAND FREE ENERGY PREDICTED BY IDOCK:   -4.41 KCAL/MOL
REMARK 924 INTRA-LIGAND FREE ENERGY PREDICTED BY IDOCK:   -0.33 KCAL/MOL
REMARK 927      BINDING AFFINITY PREDICTED BY RF-SCORE:    0.00 PKD
ROOT
HETATM    1  C   UNL     1      -8.397  11.437  67.791  1.00  0.00    -0.127 C  
HETATM    2  C   UNL     1      -8.286  12.917  68.012  1.00  0.00    -0.169 A  
HETATM    3  C   UNL     1      -8.948  13.531  69.076  1.00  0.00     0.364 A  
HETATM    4  C   UNL     1      -8.936  14.926  69.209  1.00  0.00    -0.099 A  
HETATM    5  C   UNL     1      -8.211  15.753  68.335  1.00  0.00    -0.151 A  
HETATM    6  C   UNL     1      -7.508  15.110  67.298  1.00  0.00    -0.228 A  
HETATM    7  C   UNL     1      -7.561  13.719  67.125  1.00  0.00     0.051 A  
ENDROOT
BRANCH   5   8
HETATM    8  C   UNL     1      -8.256  17.258  68.414  1.00  0.00    -0.260 C  
HETATM    9  C   UNL     1      -9.277  17.972  67.869  1.00  0.00    -0.268 C  
BRANCH   8  10
HETATM   10  C   UNL     1      -7.190  18.091  69.078  1.00  0.00    -0.209 A  
HETATM   11  N   UNL     1      -6.249  17.425  69.798  1.00  0.00    -0.234 NA 
HETATM   12  C   UNL     1      -7.146  19.484  68.953  1.00  0.00    -0.394 A  
HETATM   13  C   UNL     1      -6.109  20.193  69.561  1.00  0.00    -0.375 A  
HETATM   14  C   UNL     1      -5.273  18.140  70.399  1.00  0.00    -0.250 A  
HETATM   15  C   UNL     1      -5.158  19.512  70.303  1.00  0.00    -0.213 A  
ENDBRANCH   8  10
BRANCH   9  16
HETATM   16  C   UNL     1     -10.547  17.494  67.224  1.00  0.00    -0.287 C  
BRANCH  16  17
HETATM   17  N   UNL     1     -10.485  16.119  66.717  1.00  0.00    -0.298 NA 
HETATM   18  C   UNL     1     -11.639  14.142  66.275  1.00  0.00    -0.379 C  
HETATM   19  C   UNL     1     -11.218  14.716  64.933  1.00  0.00    -0.400 C  
HETATM   20  C   UNL     1     -11.631  15.341  67.198  1.00  0.00    -0.126 C  
HETATM   21  C   UNL     1     -10.511  16.031  65.254  1.00  0.00    -0.358 C  
ENDBRANCH  16  17
ENDBRANCH   9  16
ENDBRANCH   5   8
TORSDOF 4
ENDMDL
MODEL      178
REMARK 921   NORMALIZED FREE ENERGY PREDICTED BY IDOCK:   -3.17 KCAL/MOL
REMARK 922        TOTAL FREE ENERGY PREDICTED BY IDOCK:   -4.71 KCAL/MOL
REMARK 923 INTER-LIGAND FREE ENERGY PREDICTED BY IDOCK:   -3.76 KCAL/MOL
REMARK 924 INTRA-LIGAND FREE ENERGY PREDICTED BY IDOCK:   -0.95 KCAL/MOL
REMARK 927      BINDING AFFINITY PREDICTED BY RF-SCORE:    0.00 PKD
ROOT
HETATM    1  C   UNL     1      -9.956   4.961  73.414  1.00  0.00    -0.183 C  
HETATM    2  C   UNL     1      -9.712   5.373  71.992  1.00  0.00    -0.198 A  
HETATM    3  C   UNL     1      -8.511   5.977  71.621  1.00  0.00    -0.127 A  
HETATM    4  C   UNL     1      -8.335   6.464  70.319  1.00  0.00    -0.126 A  
HETATM    5  C   UNL     1      -9.314   6.307  69.324  1.00  0.00    -0.139 A  
HETATM    6  C   UNL     1     -10.498   5.649  69.705  1.00  0.00    -0.377 A  
HETATM    7  C   UNL     1     -10.705   5.209  71.021  1.00  0.00    -0.133 A  
ENDROOT
BRANCH   5   8
HETATM    8  C   UNL     1      -9.174   6.899  67.944  1.00  0.00    -0.124 C  
HETATM    9  C   UNL     1      -8.519   6.242  66.949  1.00  0.00    -0.109 C  
BRANCH   8  10
HETATM   10  C   UNL     1      -9.723   8.247  67.553  1.00  0.00    -0.165 A  
HETATM   11  N   UNL     1      -9.415   8.698  66.309  1.00  0.00    -0.226 NA 
HETATM   12  C   UNL     1     -10.529   9.001  68.414  1.00  0.00    -0.234 A  
HETATM   13  C   UNL     1     -11.039  10.225  67.975  1.00  0.00    -0.336 A  
HETATM   14  C   UNL     1      -9.900   9.899  65.922  1.00  0.00    -0.274 A  
HETATM   15  C   UNL     1     -10.715  10.687  66.710  1.00  0.00    -0.272 A  
ENDBRANCH   8  10
BRANCH   9  16
HETATM   16  C   UNL     1      -7.936   4.858  66.932  1.00  0.00    -0.103 C  
BRANCH  16  17
HETATM   17  N   UNL     1      -8.759   3.866  66.233  1.00  0.00    -0.112 NA 
HETATM   18  C   UNL     1     -10.019   3.352  64.339  1.00  0.00    -0.167 C  
HETATM   19  C   UNL     1      -8.804   2.440  64.321  1.00  0.00    -0.101 C  
HETATM   20  C   UNL     1      -9.585   4.512  65.209  1.00  0.00    -0.172 C  
HETATM   21  C   UNL     1      -7.977   2.835  65.542  1.00  0.00    -0.085 C  
ENDBRANCH  16  17
ENDBRANCH   9  16
ENDBRANCH   5   8
TORSDOF 4
ENDMDL
MODEL      179
REMARK 921   NORMALIZED FREE ENERGY PREDICTED BY IDOCK:   -3.16 KCAL/MOL
REMARK 922        TOTAL FREE ENERGY PREDICTED BY IDOCK:   -4.71 KCAL/MOL
REMARK 923 INTER-LIGAND FREE ENERGY PREDICTED BY IDOCK:   -4.68 KCAL/MOL
REMARK 924 INTRA-LIGAND FREE ENERGY PREDICTED BY IDOCK:   -0.03 KCAL/MOL
REMARK 927      BINDING AFFINITY PREDICTED BY RF-SCORE:    0.00 PKD
ROOT
HETATM    1  C   UNL     1      -8.184   9.215  64.205  1.00  0.00    -0.162 C  
HETATM    2  C   UNL     1      -8.576   8.654  65.540  1.00  0.00    -0.200 A  
HETATM    3  C   UNL     1      -9.645   9.195  66.255  1.00  0.00    -0.321 A  
HETATM    4  C   UNL     1      -9.931   8.745  67.551  1.00  0.00    -0.254 A  
HETATM    5  C   UNL     1      -9.214   7.699  68.154  1.00  0.00    -0.138 A  
HETATM    6  C   UNL     1      -8.172   7.132  67.396  1.00  0.00    -0.116 A  
HETATM    7  C   UNL     1      -7.843   7.614  66.120  1.00  0.00    -0.096 A  
ENDROOT
BRANCH   5   8
HETATM    8  C   UNL     1      -9.455   7.261  69.576  1.00  0.00    -0.155 C  
HETATM    9  C   UNL     1      -9.762   8.153  70.556  1.00  0.00    -0.181 C  
BRANCH   8  10
HETATM   10  C   UNL     1      -9.367   5.828  70.035  1.00  0.00    -0.146 A  
HETATM   11  N   UNL     1      -9.457   4.869  69.076  1.00  0.00    -0.132 NA 
HETATM   12  C   UNL     1      -9.182   5.486  71.379  1.00  0.00    -0.167 A  
HETATM   13  C   UNL     1      -9.069   4.140  71.733  1.00  0.00    -0.168 A  
HETATM   14  C   UNL     1      -9.371   3.574  69.451  1.00  0.00    -0.173 A  
HETATM   15  C   UNL     1      -9.171   3.165  70.754  1.00  0.00    -0.205 A  
ENDBRANCH   8  10
BRANCH   9  16
HETATM   16  C   UNL     1     -10.031   9.628  70.463  1.00  0.00    -0.254 C  
BRANCH  16  17
HETATM   17  N   UNL     1     -11.446   9.991  70.595  1.00  0.00    -0.319 NA 
HETATM   18  C   UNL     1     -13.262  10.300  72.024  1.00  0.00    -0.516 C  
HETATM   19  C   UNL     1     -12.905  11.667  71.465  1.00  0.00    -0.469 C  
HETATM   20  C   UNL     1     -11.987   9.502  71.867  1.00  0.00    -0.311 C  
HETATM   21  C   UNL     1     -11.685  11.438  70.576  1.00  0.00    -0.198 C  
ENDBRANCH  16  17
ENDBRANCH   9  16
ENDBRANCH   5   8
TORSDOF 4
ENDMDL
MODEL      180
REMARK 921   NORMALIZED FREE ENERGY PREDICTED BY IDOCK:   -3.16 KCAL/MOL
REMARK 922        TOTAL FREE ENERGY PREDICTED BY IDOCK:   -4.70 KCAL/MOL
REMARK 923 INTER-LIGAND FREE ENERGY PREDICTED BY IDOCK:   -3.73 KCAL/MOL
REMARK 924 INTRA-LIGAND FREE ENERGY PREDICTED BY IDOCK:   -0.97 KCAL/MOL
REMARK 927      BINDING AFFINITY PREDICTED BY RF-SCORE:    0.00 PKD
ROOT
HETATM    1  C   UNL     1      -7.249   8.469  74.355  1.00  0.00    -0.198 C  
HETATM    2  C   UNL     1      -7.679   7.996  72.998  1.00  0.00    -0.189 A  
HETATM    3  C   UNL     1      -9.021   7.732  72.727  1.00  0.00    -0.236 A  
HETATM    4  C   UNL     1      -9.400   7.179  71.496  1.00  0.00    -0.156 A  
HETATM    5  C   UNL     1      -8.473   6.936  70.469  1.00  0.00    -0.137 A  
HETATM    6  C   UNL     1      -7.131   7.258  70.744  1.00  0.00    -0.065 A  
HETATM    7  C   UNL     1      -6.735   7.758  71.994  1.00  0.00    -0.057 A  
ENDROOT
BRANCH   5   8
HETATM    8  C   UNL     1      -8.852   6.265  69.173  1.00  0.00    -0.128 C  
HETATM    9  C   UNL     1      -9.122   6.984  68.049  1.00  0.00    -0.127 C  
BRANCH   8  10
HETATM   10  C   UNL     1      -8.975   4.772  69.009  1.00  0.00    -0.104 A  
HETATM   11  N   UNL     1      -9.121   4.303  67.742  1.00  0.00    -0.122 NA 
HETATM   12  C   UNL     1      -8.925   3.896  70.099  1.00  0.00    -0.168 A  
HETATM   13  C   UNL     1      -9.005   2.521  69.875  1.00  0.00    -0.161 A  
HETATM   14  C   UNL     1      -9.223   2.969  67.557  1.00  0.00    -0.193 A  
HETATM   15  C   UNL     1      -9.164   2.046  68.583  1.00  0.00    -0.223 A  
ENDBRANCH   8  10
BRANCH   9  16
HETATM   16  C   UNL     1      -9.008   8.462  67.803  1.00  0.00    -0.136 C  
BRANCH  16  17
HETATM   17  N   UNL     1     -10.262   9.200  67.984  1.00  0.00    -0.200 NA 
HETATM   18  C   UNL     1     -11.371  10.935  69.079  1.00  0.00    -0.348 C  
HETATM   19  C   UNL     1     -11.290  11.321  67.612  1.00  0.00    -0.352 C  
HETATM   20  C   UNL     1     -10.247   9.937  69.252  1.00  0.00    -0.209 C  
HETATM   21  C   UNL     1     -10.517  10.192  66.935  1.00  0.00    -0.222 C  
ENDBRANCH  16  17
ENDBRANCH   9  16
ENDBRANCH   5   8
TORSDOF 4
ENDMDL
MODEL      181
REMARK 921   NORMALIZED FREE ENERGY PREDICTED BY IDOCK:   -3.11 KCAL/MOL
REMARK 922        TOTAL FREE ENERGY PREDICTED BY IDOCK:   -4.64 KCAL/MOL
REMARK 923 INTER-LIGAND FREE ENERGY PREDICTED BY IDOCK:   -3.70 KCAL/MOL
REMARK 924 INTRA-LIGAND FREE ENERGY PREDICTED BY IDOCK:   -0.93 KCAL/MOL
REMARK 927      BINDING AFFINITY PREDICTED BY RF-SCORE:    0.00 PKD
ROOT
HETATM    1  C   UNL     1      -7.540   5.238  72.658  1.00  0.00    -0.097 C  
HETATM    2  C   UNL     1      -8.105   5.197  71.269  1.00  0.00    -0.113 A  
HETATM    3  C   UNL     1      -7.301   5.479  70.164  1.00  0.00    -0.069 A  
HETATM    4  C   UNL     1      -7.861   5.554  68.881  1.00  0.00    -0.095 A  
HETATM    5  C   UNL     1      -9.218   5.283  68.641  1.00  0.00    -0.143 A  
HETATM    6  C   UNL     1     -10.001   4.949  69.763  1.00  0.00    -0.314 A  
HETATM    7  C   UNL     1      -9.461   4.928  71.058  1.00  0.00    -0.225 A  
ENDROOT
BRANCH   5   8
HETATM    8  C   UNL     1      -9.852   5.440  67.282  1.00  0.00    -0.175 C  
HETATM    9  C   UNL     1     -10.544   6.561  66.943  1.00  0.00    -0.376 C  
BRANCH   8  10
HETATM   10  C   UNL     1      -9.789   4.388  66.205  1.00  0.00    -0.231 A  
HETATM   11  N   UNL     1     -10.565   4.586  65.107  1.00  0.00    -0.169 NA 
HETATM   12  C   UNL     1      -8.961   3.265  66.307  1.00  0.00    -0.151 A  
HETATM   13  C   UNL     1      -8.919   2.348  65.255  1.00  0.00    -0.127 A  
HETATM   14  C   UNL     1     -10.525   3.668  64.116  1.00  0.00    -0.247 A  
HETATM   15  C   UNL     1      -9.719   2.548  64.142  1.00  0.00    -0.138 A  
ENDBRANCH   8  10
BRANCH   9  16
HETATM   16  C   UNL     1     -10.734   7.841  67.704  1.00  0.00    -0.157 C  
BRANCH  16  17
HETATM   17  N   UNL     1      -9.868   8.939  67.260  1.00  0.00    -0.183 NA 
HETATM   18  C   UNL     1      -9.472  11.237  67.248  1.00  0.00    -0.184 C  
HETATM   19  C   UNL     1      -8.350  10.601  68.051  1.00  0.00    -0.118 C  
HETATM   20  C   UNL     1     -10.587  10.216  67.315  1.00  0.00    -0.261 C  
HETATM   21  C   UNL     1      -8.665   9.108  68.082  1.00  0.00    -0.129 C  
ENDBRANCH  16  17
ENDBRANCH   9  16
ENDBRANCH   5   8
TORSDOF 4
ENDMDL
MODEL      182
REMARK 921   NORMALIZED FREE ENERGY PREDICTED BY IDOCK:   -3.10 KCAL/MOL
REMARK 922        TOTAL FREE ENERGY PREDICTED BY IDOCK:   -4.63 KCAL/MOL
REMARK 923 INTER-LIGAND FREE ENERGY PREDICTED BY IDOCK:   -4.46 KCAL/MOL
REMARK 924 INTRA-LIGAND FREE ENERGY PREDICTED BY IDOCK:   -0.16 KCAL/MOL
REMARK 927      BINDING AFFINITY PREDICTED BY RF-SCORE:    0.00 PKD
ROOT
HETATM    1  C   UNL     1     -14.221   8.909  72.347  1.00  0.00    -0.452 C  
HETATM    2  C   UNL     1     -12.771   9.052  71.986  1.00  0.00    -0.467 A  
HETATM    3  C   UNL     1     -12.361   9.997  71.044  1.00  0.00    -0.458 A  
HETATM    4  C   UNL     1     -11.025  10.047  70.626  1.00  0.00    -0.392 A  
HETATM    5  C   UNL     1     -10.038   9.211  71.175  1.00  0.00    -0.384 A  
HETATM    6  C   UNL     1     -10.463   8.300  72.161  1.00  0.00    -0.371 A  
HETATM    7  C   UNL     1     -11.809   8.206  72.545  1.00  0.00    -0.438 A  
ENDROOT
BRANCH   5   8
HETATM    8  C   UNL     1      -8.615   9.195  70.677  1.00  0.00    -0.266 C  
HETATM    9  C   UNL     1      -8.239   9.889  69.569  1.00  0.00    -0.163 C  
BRANCH   8  10
HETATM   10  C   UNL     1      -7.508   8.416  71.339  1.00  0.00    -0.094 A  
HETATM   11  N   UNL     1      -7.237   7.184  70.835  1.00  0.00    -0.069 NA 
HETATM   12  C   UNL     1      -6.771   8.932  72.412  1.00  0.00     0.072 A  
HETATM   13  C   UNL     1      -5.731   8.176  72.954  1.00  0.00    -0.052 A  
HETATM   14  C   UNL     1      -6.243   6.462  71.397  1.00  0.00    -0.041 A  
HETATM   15  C   UNL     1      -5.464   6.915  72.444  1.00  0.00    -0.037 A  
ENDBRANCH   8  10
BRANCH   9  16
HETATM   16  C   UNL     1      -9.027  10.842  68.718  1.00  0.00    -0.170 C  
BRANCH  16  17
HETATM   17  N   UNL     1      -8.209  11.671  67.826  1.00  0.00    -0.134 NA 
HETATM   18  C   UNL     1      -6.771  13.495  67.622  1.00  0.00    -0.176 C  
HETATM   19  C   UNL     1      -5.954  12.253  67.310  1.00  0.00    -0.150 C  
HETATM   20  C   UNL     1      -7.925  12.969  68.447  1.00  0.00    -0.135 C  
HETATM   21  C   UNL     1      -6.909  11.077  67.501  1.00  0.00    -0.084 C  
ENDBRANCH  16  17
ENDBRANCH   9  16
ENDBRANCH   5   8
TORSDOF 4
ENDMDL
MODEL      183
REMARK 921   NORMALIZED FREE ENERGY PREDICTED BY IDOCK:   -3.07 KCAL/MOL
REMARK 922        TOTAL FREE ENERGY PREDICTED BY IDOCK:   -4.59 KCAL/MOL
REMARK 923 INTER-LIGAND FREE ENERGY PREDICTED BY IDOCK:   -3.74 KCAL/MOL
REMARK 924 INTRA-LIGAND FREE ENERGY PREDICTED BY IDOCK:   -0.85 KCAL/MOL
REMARK 927      BINDING AFFINITY PREDICTED BY RF-SCORE:    0.00 PKD
ROOT
HETATM    1  C   UNL     1      -6.816  10.916  69.810  1.00  0.00    -0.134 C  
HETATM    2  C   UNL     1      -7.529   9.605  69.972  1.00  0.00    -0.142 A  
HETATM    3  C   UNL     1      -6.812   8.419  70.133  1.00  0.00    -0.042 A  
HETATM    4  C   UNL     1      -7.479   7.187  70.167  1.00  0.00    -0.089 A  
HETATM    5  C   UNL     1      -8.880   7.094  70.113  1.00  0.00    -0.145 A  
HETATM    6  C   UNL     1      -9.587   8.307  70.002  1.00  0.00    -0.168 A  
HETATM    7  C   UNL     1      -8.924   9.540  69.911  1.00  0.00    -0.231 A  
ENDROOT
BRANCH   5   8
HETATM    8  C   UNL     1      -9.607   5.774  70.064  1.00  0.00    -0.206 C  
HETATM    9  C   UNL     1      -9.927   5.179  68.883  1.00  0.00    -0.245 C  
BRANCH   8  10
HETATM   10  C   UNL     1     -10.046   5.017  71.290  1.00  0.00    -0.206 A  
HETATM   11  N   UNL     1     -10.619   5.742  72.288  1.00  0.00    -0.209 NA 
HETATM   12  C   UNL     1      -9.896   3.630  71.404  1.00  0.00    -0.219 A  
HETATM   13  C   UNL     1     -10.360   2.984  72.551  1.00  0.00    -0.184 A  
HETATM   14  C   UNL     1     -11.034   5.093  73.398  1.00  0.00    -0.320 A  
HETATM   15  C   UNL     1     -10.934   3.727  73.570  1.00  0.00    -0.339 A  
ENDBRANCH   8  10
BRANCH   9  16
HETATM   16  C   UNL     1      -9.573   5.577  67.479  1.00  0.00    -0.122 C  
BRANCH  16  17
HETATM   17  N   UNL     1      -8.947   4.510  66.691  1.00  0.00    -0.112 NA 
HETATM   18  C   UNL     1      -8.885   2.237  66.176  1.00  0.00    -0.124 C  
HETATM   19  C   UNL     1      -9.360   2.958  64.926  1.00  0.00    -0.142 C  
HETATM   20  C   UNL     1      -9.213   3.200  67.295  1.00  0.00    -0.189 C  
HETATM   21  C   UNL     1      -9.438   4.434  65.311  1.00  0.00    -0.171 C  
ENDBRANCH  16  17
ENDBRANCH   9  16
ENDBRANCH   5   8
TORSDOF 4
ENDMDL
MODEL      184
REMARK 921   NORMALIZED FREE ENERGY PREDICTED BY IDOCK:   -3.02 KCAL/MOL
REMARK 922        TOTAL FREE ENERGY PREDICTED BY IDOCK:   -4.53 KCAL/MOL
REMARK 923 INTER-LIGAND FREE ENERGY PREDICTED BY IDOCK:   -3.66 KCAL/MOL
REMARK 924 INTRA-LIGAND FREE ENERGY PREDICTED BY IDOCK:   -0.87 KCAL/MOL
REMARK 927      BINDING AFFINITY PREDICTED BY RF-SCORE:    0.00 PKD
ROOT
HETATM    1  C   UNL     1      -5.840   3.905  72.649  1.00  0.00    -0.008 C  
HETATM    2  C   UNL     1      -6.784   4.052  71.492  1.00  0.00    -0.026 A  
HETATM    3  C   UNL     1      -6.575   5.033  70.522  1.00  0.00    -0.035 A  
HETATM    4  C   UNL     1      -7.521   5.242  69.510  1.00  0.00    -0.065 A  
HETATM    5  C   UNL     1      -8.669   4.443  69.384  1.00  0.00    -0.121 A  
HETATM    6  C   UNL     1      -8.835   3.425  70.343  1.00  0.00    -0.146 A  
HETATM    7  C   UNL     1      -7.921   3.245  71.392  1.00  0.00    -0.059 A  
ENDROOT
BRANCH   5   8
HETATM    8  C   UNL     1      -9.737   4.708  68.353  1.00  0.00    -0.198 C  
HETATM    9  C   UNL     1     -10.829   5.469  68.635  1.00  0.00    -0.088 C  
BRANCH   8  10
HETATM   10  C   UNL     1      -9.700   4.156  66.951  1.00  0.00    -0.205 A  
HETATM   11  N   UNL     1      -8.845   3.125  66.719  1.00  0.00    -0.136 NA 
HETATM   12  C   UNL     1     -10.514   4.658  65.930  1.00  0.00    -0.305 A  
HETATM   13  C   UNL     1     -10.460   4.075  64.663  1.00  0.00    -0.208 A  
HETATM   14  C   UNL     1      -8.793   2.598  65.476  1.00  0.00    -0.133 A  
HETATM   15  C   UNL     1      -9.580   3.031  64.427  1.00  0.00    -0.150 A  
ENDBRANCH   8  10
BRANCH   9  16
HETATM   16  C   UNL     1     -11.158   6.256  69.871  1.00  0.00    -0.401 C  
BRANCH  16  17
HETATM   17  N   UNL     1     -10.990   7.706  69.724  1.00  0.00    -0.214 NA 
HETATM   18  C   UNL     1     -11.016   9.794  70.761  1.00  0.00    -0.406 C  
HETATM   19  C   UNL     1      -9.580   9.528  70.344  1.00  0.00    -0.326 C  
HETATM   20  C   UNL     1     -11.632   8.414  70.837  1.00  0.00    -0.262 C  
HETATM   21  C   UNL     1      -9.588   8.136  69.716  1.00  0.00    -0.171 C  
ENDBRANCH  16  17
ENDBRANCH   9  16
ENDBRANCH   5   8
TORSDOF 4
ENDMDL
MODEL      185
REMARK 921   NORMALIZED FREE ENERGY PREDICTED BY IDOCK:   -3.01 KCAL/MOL
REMARK 922        TOTAL FREE ENERGY PREDICTED BY IDOCK:   -4.52 KCAL/MOL
REMARK 923 INTER-LIGAND FREE ENERGY PREDICTED BY IDOCK:   -3.98 KCAL/MOL
REMARK 924 INTRA-LIGAND FREE ENERGY PREDICTED BY IDOCK:   -0.54 KCAL/MOL
REMARK 927      BINDING AFFINITY PREDICTED BY RF-SCORE:    0.00 PKD
ROOT
HETATM    1  C   UNL     1      -8.912  10.824  63.974  1.00  0.00    -0.167 C  
HETATM    2  C   UNL     1      -8.809   9.909  65.159  1.00  0.00    -0.209 A  
HETATM    3  C   UNL     1      -7.591   9.326  65.506  1.00  0.00    -0.091 A  
HETATM    4  C   UNL     1      -7.526   8.383  66.540  1.00  0.00    -0.081 A  
HETATM    5  C   UNL     1      -8.649   8.039  67.310  1.00  0.00    -0.124 A  
HETATM    6  C   UNL     1      -9.859   8.678  66.977  1.00  0.00    -0.284 A  
HETATM    7  C   UNL     1      -9.944   9.581  65.907  1.00  0.00    -0.342 A  
ENDROOT
BRANCH   5   8
HETATM    8  C   UNL     1      -8.613   6.967  68.370  1.00  0.00    -0.126 C  
HETATM    9  C   UNL     1      -8.985   7.220  69.654  1.00  0.00    -0.141 C  
BRANCH   8  10
HETATM   10  C   UNL     1      -8.161   5.553  68.112  1.00  0.00    -0.096 A  
HETATM   11  N   UNL     1      -8.399   5.048  66.873  1.00  0.00    -0.107 NA 
HETATM   12  C   UNL     1      -7.508   4.790  69.086  1.00  0.00    -0.056 A  
HETATM   13  C   UNL     1      -7.078   3.500  68.771  1.00  0.00    -0.050 A  
HETATM   14  C   UNL     1      -7.997   3.786  66.604  1.00  0.00    -0.096 A  
HETATM   15  C   UNL     1      -7.332   2.984  67.510  1.00  0.00    -0.054 A  
ENDBRANCH   8  10
BRANCH   9  16
HETATM   16  C   UNL     1      -9.578   8.461  70.256  1.00  0.00    -0.165 C  
BRANCH  16  17
HETATM   17  N   UNL     1     -10.622   8.207  71.254  1.00  0.00    -0.211 NA 
HETATM   18  C   UNL     1     -12.673   8.860  72.151  1.00  0.00    -0.470 C  
HETATM   19  C   UNL     1     -12.889   7.506  71.497  1.00  0.00    -0.397 C  
HETATM   20  C   UNL     1     -11.444   9.404  71.456  1.00  0.00    -0.397 C  
HETATM   21  C   UNL     1     -11.545   7.132  70.878  1.00  0.00    -0.311 C  
ENDBRANCH  16  17
ENDBRANCH   9  16
ENDBRANCH   5   8
TORSDOF 4
ENDMDL
MODEL      186
REMARK 921   NORMALIZED FREE ENERGY PREDICTED BY IDOCK:   -3.01 KCAL/MOL
REMARK 922        TOTAL FREE ENERGY PREDICTED BY IDOCK:   -4.51 KCAL/MOL
REMARK 923 INTER-LIGAND FREE ENERGY PREDICTED BY IDOCK:   -3.66 KCAL/MOL
REMARK 924 INTRA-LIGAND FREE ENERGY PREDICTED BY IDOCK:   -0.85 KCAL/MOL
REMARK 927      BINDING AFFINITY PREDICTED BY RF-SCORE:    0.00 PKD
ROOT
HETATM    1  C   UNL     1      -8.898  11.929  67.385  1.00  0.00    -0.171 C  
HETATM    2  C   UNL     1      -9.300  10.501  67.613  1.00  0.00    -0.160 A  
HETATM    3  C   UNL     1     -10.643  10.126  67.583  1.00  0.00    -0.316 A  
HETATM    4  C   UNL     1     -11.020   8.817  67.912  1.00  0.00     0.056 A  
HETATM    5  C   UNL     1     -10.077   7.821  68.214  1.00  0.00    -0.221 A  
HETATM    6  C   UNL     1      -8.723   8.208  68.189  1.00  0.00    -0.136 A  
HETATM    7  C   UNL     1      -8.341   9.530  67.916  1.00  0.00    -0.115 A  
ENDROOT
BRANCH   5   8
HETATM    8  C   UNL     1     -10.470   6.432  68.651  1.00  0.00    -0.260 C  
HETATM    9  C   UNL     1     -10.784   5.463  67.750  1.00  0.00    -0.109 C  
BRANCH   8  10
HETATM   10  C   UNL     1     -10.560   6.005  70.093  1.00  0.00    -0.276 A  
HETATM   11  N   UNL     1     -11.228   6.833  70.939  1.00  0.00    -0.274 NA 
HETATM   12  C   UNL     1     -10.004   4.805  70.552  1.00  0.00    -0.306 A  
HETATM   13  C   UNL     1     -10.158   4.449  71.893  1.00  0.00    -0.245 A  
HETATM   14  C   UNL     1     -11.338   6.476  72.237  1.00  0.00    -0.282 A  
HETATM   15  C   UNL     1     -10.831   5.300  72.754  1.00  0.00    -0.313 A  
ENDBRANCH   8  10
BRANCH   9  16
HETATM   16  C   UNL     1     -10.713   5.484  66.250  1.00  0.00    -0.125 C  
BRANCH  16  17
HETATM   17  N   UNL     1      -9.823   4.470  65.675  1.00  0.00    -0.201 NA 
HETATM   18  C   UNL     1      -9.196   2.225  65.613  1.00  0.00    -0.028 C  
HETATM   19  C   UNL     1      -9.791   2.553  64.255  1.00  0.00    -0.089 C  
HETATM   20  C   UNL     1      -9.782   3.278  66.528  1.00  0.00     0.105 C  
HETATM   21  C   UNL     1     -10.236   4.011  64.345  1.00  0.00    -0.198 C  
ENDBRANCH  16  17
ENDBRANCH   9  16
ENDBRANCH   5   8
TORSDOF 4
ENDMDL
MODEL      187
REMARK 921   NORMALIZED FREE ENERGY PREDICTED BY IDOCK:   -2.95 KCAL/MOL
REMARK 922        TOTAL FREE ENERGY PREDICTED BY IDOCK:   -4.44 KCAL/MOL
REMARK 923 INTER-LIGAND FREE ENERGY PREDICTED BY IDOCK:   -3.31 KCAL/MOL
REMARK 924 INTRA-LIGAND FREE ENERGY PREDICTED BY IDOCK:   -1.13 KCAL/MOL
REMARK 927      BINDING AFFINITY PREDICTED BY RF-SCORE:    0.00 PKD
ROOT
HETATM    1  C   UNL     1     -11.724  10.929  70.520  1.00  0.00    -0.441 C  
HETATM    2  C   UNL     1     -10.859   9.807  70.024  1.00  0.00    -0.319 A  
HETATM    3  C   UNL     1     -11.260   8.479  70.175  1.00  0.00    -0.139 A  
HETATM    4  C   UNL     1     -10.398   7.434  69.817  1.00  0.00    -0.226 A  
HETATM    5  C   UNL     1      -9.141   7.668  69.235  1.00  0.00    -0.145 A  
HETATM    6  C   UNL     1      -8.777   9.015  69.044  1.00  0.00    -0.138 A  
HETATM    7  C   UNL     1      -9.611  10.067  69.452  1.00  0.00    -0.237 A  
ENDROOT
BRANCH   5   8
HETATM    8  C   UNL     1      -8.169   6.559  68.922  1.00  0.00    -0.119 C  
HETATM    9  C   UNL     1      -7.282   6.105  69.848  1.00  0.00    -0.074 C  
BRANCH   8  10
HETATM   10  C   UNL     1      -8.085   5.876  67.581  1.00  0.00    -0.102 A  
HETATM   11  N   UNL     1      -7.864   4.535  67.588  1.00  0.00    -0.085 NA 
HETATM   12  C   UNL     1      -8.243   6.573  66.378  1.00  0.00    -0.116 A  
HETATM   13  C   UNL     1      -8.194   5.873  65.171  1.00  0.00    -0.141 A  
HETATM   14  C   UNL     1      -7.794   3.888  66.404  1.00  0.00    -0.090 A  
HETATM   15  C   UNL     1      -7.959   4.508  65.181  1.00  0.00    -0.098 A  
ENDBRANCH   8  10
BRANCH   9  16
HETATM   16  C   UNL     1      -7.137   6.466  71.299  1.00  0.00    -0.077 C  
BRANCH  16  17
HETATM   17  N   UNL     1      -7.936   5.637  72.208  1.00  0.00    -0.106 NA 
HETATM   18  C   UNL     1      -9.953   5.365  73.345  1.00  0.00    -0.188 C  
HETATM   19  C   UNL     1      -9.879   4.256  72.309  1.00  0.00    -0.227 C  
HETATM   20  C   UNL     1      -9.018   6.426  72.806  1.00  0.00    -0.124 C  
HETATM   21  C   UNL     1      -8.575   4.492  71.551  1.00  0.00    -0.114 C  
ENDBRANCH  16  17
ENDBRANCH   9  16
ENDBRANCH   5   8
TORSDOF 4
ENDMDL
MODEL      188
REMARK 921   NORMALIZED FREE ENERGY PREDICTED BY IDOCK:   -2.90 KCAL/MOL
REMARK 922        TOTAL FREE ENERGY PREDICTED BY IDOCK:   -4.38 KCAL/MOL
REMARK 923 INTER-LIGAND FREE ENERGY PREDICTED BY IDOCK:   -3.47 KCAL/MOL
REMARK 924 INTRA-LIGAND FREE ENERGY PREDICTED BY IDOCK:   -0.91 KCAL/MOL
REMARK 927      BINDING AFFINITY PREDICTED BY RF-SCORE:    0.00 PKD
ROOT
HETATM    1  C   UNL     1      -7.195  12.054  67.082  1.00  0.00    -0.131 C  
HETATM    2  C   UNL     1      -7.562  10.612  67.278  1.00  0.00    -0.100 A  
HETATM    3  C   UNL     1      -8.894  10.232  67.443  1.00  0.00    -0.134 A  
HETATM    4  C   UNL     1      -9.220   8.902  67.743  1.00  0.00    -0.153 A  
HETATM    5  C   UNL     1      -8.245   7.894  67.820  1.00  0.00    -0.129 A  
HETATM    6  C   UNL     1      -6.912   8.289  67.600  1.00  0.00    -0.079 A  
HETATM    7  C   UNL     1      -6.572   9.628  67.355  1.00  0.00    -0.070 A  
ENDROOT
BRANCH   5   8
HETATM    8  C   UNL     1      -8.570   6.478  68.223  1.00  0.00    -0.115 C  
HETATM    9  C   UNL     1      -8.552   6.084  69.525  1.00  0.00    -0.119 C  
BRANCH   8  10
HETATM   10  C   UNL     1      -8.923   5.390  67.241  1.00  0.00    -0.111 A  
HETATM   11  N   UNL     1      -8.169   4.260  67.279  1.00  0.00    -0.100 NA 
HETATM   12  C   UNL     1      -9.986   5.516  66.340  1.00  0.00    -0.203 A  
HETATM   13  C   UNL     1     -10.286   4.455  65.484  1.00  0.00    -0.260 A  
HETATM   14  C   UNL     1      -8.465   3.260  66.420  1.00  0.00    -0.108 A  
HETATM   15  C   UNL     1      -9.509   3.308  65.518  1.00  0.00    -0.107 A  
ENDBRANCH   8  10
BRANCH   9  16
HETATM   16  C   UNL     1      -8.346   6.895  70.772  1.00  0.00    -0.127 C  
BRANCH  16  17
HETATM   17  N   UNL     1      -9.489   6.886  71.692  1.00  0.00    -0.158 NA 
HETATM   18  C   UNL     1     -11.108   8.134  72.813  1.00  0.00    -0.407 C  
HETATM   19  C   UNL     1     -11.841   7.268  71.804  1.00  0.00    -0.330 C  
HETATM   20  C   UNL     1      -9.702   8.221  72.260  1.00  0.00    -0.292 C  
HETATM   21  C   UNL     1     -10.752   6.503  71.054  1.00  0.00    -0.243 C  
ENDBRANCH  16  17
ENDBRANCH   9  16
ENDBRANCH   5   8
TORSDOF 4
ENDMDL
MODEL      189
REMARK 921   NORMALIZED FREE ENERGY PREDICTED BY IDOCK:   -2.72 KCAL/MOL
REMARK 922        TOTAL FREE ENERGY PREDICTED BY IDOCK:   -4.15 KCAL/MOL
REMARK 923 INTER-LIGAND FREE ENERGY PREDICTED BY IDOCK:   -3.35 KCAL/MOL
REMARK 924 INTRA-LIGAND FREE ENERGY PREDICTED BY IDOCK:   -0.80 KCAL/MOL
REMARK 927      BINDING AFFINITY PREDICTED BY RF-SCORE:    0.00 PKD
ROOT
HETATM    1  C   UNL     1      -9.319   1.694  67.971  1.00  0.00    -0.219 C  
HETATM    2  C   UNL     1      -9.145   3.181  68.061  1.00  0.00    -0.218 A  
HETATM    3  C   UNL     1      -8.308   3.856  67.172  1.00  0.00    -0.099 A  
HETATM    4  C   UNL     1      -8.059   5.226  67.335  1.00  0.00    -0.100 A  
HETATM    5  C   UNL     1      -8.682   5.985  68.339  1.00  0.00    -0.113 A  
HETATM    6  C   UNL     1      -9.563   5.294  69.194  1.00  0.00    -0.201 A  
HETATM    7  C   UNL     1      -9.775   3.913  69.073  1.00  0.00    -0.129 A  
ENDROOT
BRANCH   5   8
HETATM    8  C   UNL     1      -8.361   7.438  68.579  1.00  0.00    -0.126 C  
HETATM    9  C   UNL     1      -7.756   7.856  69.724  1.00  0.00    -0.099 C  
BRANCH   8  10
HETATM   10  C   UNL     1      -8.685   8.538  67.601  1.00  0.00    -0.136 A  
HETATM   11  N   UNL     1      -7.706   9.447  67.353  1.00  0.00    -0.095 NA 
HETATM   12  C   UNL     1      -9.924   8.621  66.957  1.00  0.00    -0.317 A  
HETATM   13  C   UNL     1     -10.147   9.642  66.031  1.00  0.00    -0.318 A  
HETATM   14  C   UNL     1      -7.959  10.441  66.473  1.00  0.00    -0.123 A  
HETATM   15  C   UNL     1      -9.150  10.573  65.788  1.00  0.00    -0.204 A  
ENDBRANCH   8  10
BRANCH   9  16
HETATM   16  C   UNL     1      -7.202   7.054  70.866  1.00  0.00    -0.072 C  
BRANCH  16  17
HETATM   17  N   UNL     1      -8.144   6.852  71.973  1.00  0.00    -0.099 NA 
HETATM   18  C   UNL     1      -8.553   7.064  74.258  1.00  0.00    -0.206 C  
HETATM   19  C   UNL     1      -9.500   8.018  73.551  1.00  0.00    -0.248 C  
HETATM   20  C   UNL     1      -7.437   6.855  73.257  1.00  0.00    -0.077 C  
HETATM   21  C   UNL     1      -9.173   7.893  72.065  1.00  0.00    -0.155 C  
ENDBRANCH  16  17
ENDBRANCH   9  16
ENDBRANCH   5   8
TORSDOF 4
ENDMDL
MODEL      190
REMARK 921   NORMALIZED FREE ENERGY PREDICTED BY IDOCK:   -2.70 KCAL/MOL
REMARK 922        TOTAL FREE ENERGY PREDICTED BY IDOCK:   -4.14 KCAL/MOL
REMARK 923 INTER-LIGAND FREE ENERGY PREDICTED BY IDOCK:   -3.06 KCAL/MOL
REMARK 924 INTRA-LIGAND FREE ENERGY PREDICTED BY IDOCK:   -1.08 KCAL/MOL
REMARK 927      BINDING AFFINITY PREDICTED BY RF-SCORE:    0.00 PKD
ROOT
HETATM    1  C   UNL     1     -10.732   9.141  66.977  1.00  0.00    -0.189 C  
HETATM    2  C   UNL     1     -10.088   8.214  67.965  1.00  0.00    -0.241 A  
HETATM    3  C   UNL     1      -9.960   6.853  67.686  1.00  0.00    -0.180 A  
HETATM    4  C   UNL     1      -9.465   5.974  68.659  1.00  0.00    -0.134 A  
HETATM    5  C   UNL     1      -9.017   6.423  69.913  1.00  0.00    -0.142 A  
HETATM    6  C   UNL     1      -9.107   7.807  70.155  1.00  0.00    -0.153 A  
HETATM    7  C   UNL     1      -9.653   8.685  69.207  1.00  0.00    -0.166 A  
ENDROOT
BRANCH   5   8
HETATM    8  C   UNL     1      -8.560   5.482  70.999  1.00  0.00    -0.126 C  
HETATM    9  C   UNL     1      -7.241   5.289  71.269  1.00  0.00    -0.077 C  
BRANCH   8  10
HETATM   10  C   UNL     1      -9.503   4.677  71.857  1.00  0.00    -0.145 A  
HETATM   11  N   UNL     1      -9.241   3.349  71.978  1.00  0.00    -0.108 NA 
HETATM   12  C   UNL     1     -10.589   5.260  72.520  1.00  0.00    -0.276 A  
HETATM   13  C   UNL     1     -11.400   4.466  73.332  1.00  0.00    -0.353 A  
HETATM   14  C   UNL     1     -10.060   2.599  72.748  1.00  0.00    -0.149 A  
HETATM   15  C   UNL     1     -11.137   3.110  73.445  1.00  0.00    -0.283 A  
ENDBRANCH   8  10
BRANCH   9  16
HETATM   16  C   UNL     1      -6.033   5.977  70.701  1.00  0.00    -0.029 C  
BRANCH  16  17
HETATM   17  N   UNL     1      -5.449   6.993  71.583  1.00  0.00    -0.035 NA 
HETATM   18  C   UNL     1      -5.363   9.243  72.189  1.00  0.00    -0.076 C  
HETATM   19  C   UNL     1      -5.972   8.493  73.362  1.00  0.00    -0.104 C  
HETATM   20  C   UNL     1      -5.617   8.331  71.008  1.00  0.00    -0.033 C  
HETATM   21  C   UNL     1      -6.060   7.036  72.915  1.00  0.00    -0.056 C  
ENDBRANCH  16  17
ENDBRANCH   9  16
ENDBRANCH   5   8
TORSDOF 4
ENDMDL
MODEL      191
REMARK 921   NORMALIZED FREE ENERGY PREDICTED BY IDOCK:   -2.66 KCAL/MOL
REMARK 922        TOTAL FREE ENERGY PREDICTED BY IDOCK:   -4.08 KCAL/MOL
REMARK 923 INTER-LIGAND FREE ENERGY PREDICTED BY IDOCK:   -3.36 KCAL/MOL
REMARK 924 INTRA-LIGAND FREE ENERGY PREDICTED BY IDOCK:   -0.73 KCAL/MOL
REMARK 927      BINDING AFFINITY PREDICTED BY RF-SCORE:    0.00 PKD
ROOT
HETATM    1  C   UNL     1      -7.573  11.271  67.079  1.00  0.00    -0.143 C  
HETATM    2  C   UNL     1      -7.907   9.839  66.780  1.00  0.00    -0.102 A  
HETATM    3  C   UNL     1      -9.234   9.421  66.686  1.00  0.00    -0.193 A  
HETATM    4  C   UNL     1      -9.539   8.063  66.523  1.00  0.00    -0.295 A  
HETATM    5  C   UNL     1      -8.542   7.085  66.378  1.00  0.00    -0.136 A  
HETATM    6  C   UNL     1      -7.208   7.535  66.424  1.00  0.00    -0.075 A  
HETATM    7  C   UNL     1      -6.894   8.884  66.643  1.00  0.00    -0.076 A  
ENDROOT
BRANCH   5   8
HETATM    8  C   UNL     1      -8.852   5.612  66.285  1.00  0.00    -0.137 C  
HETATM    9  C   UNL     1      -8.916   4.825  67.393  1.00  0.00    -0.115 C  
BRANCH   8  10
HETATM   10  C   UNL     1      -9.102   4.891  64.986  1.00  0.00    -0.131 A  
HETATM   11  N   UNL     1     -10.363   4.435  64.769  1.00  0.00    -0.115 NA 
HETATM   12  C   UNL     1      -8.096   4.708  64.029  1.00  0.00    -0.104 A  
HETATM   13  C   UNL     1      -8.404   4.067  62.828  1.00  0.00    -0.083 A  
HETATM   14  C   UNL     1     -10.625   3.793  63.609  1.00  0.00    -0.246 A  
HETATM   15  C   UNL     1      -9.688   3.594  62.615  1.00  0.00    -0.115 A  
ENDBRANCH   8  10
BRANCH   9  16
HETATM   16  C   UNL     1      -8.825   5.199  68.845  1.00  0.00    -0.092 C  
BRANCH  16  17
HETATM   17  N   UNL     1      -9.730   6.281  69.246  1.00  0.00    -0.136 NA 
HETATM   18  C   UNL     1     -11.504   6.946  70.605  1.00  0.00    -0.383 C  
HETATM   19  C   UNL     1     -10.281   7.723  71.065  1.00  0.00    -0.210 C  
HETATM   20  C   UNL     1     -10.921   5.738  69.906  1.00  0.00    -0.319 C  
HETATM   21  C   UNL     1      -9.131   7.229  70.191  1.00  0.00    -0.148 C  
ENDBRANCH  16  17
ENDBRANCH   9  16
ENDBRANCH   5   8
TORSDOF 4
ENDMDL
MODEL      192
REMARK 921   NORMALIZED FREE ENERGY PREDICTED BY IDOCK:   -2.62 KCAL/MOL
REMARK 922        TOTAL FREE ENERGY PREDICTED BY IDOCK:   -4.04 KCAL/MOL
REMARK 923 INTER-LIGAND FREE ENERGY PREDICTED BY IDOCK:   -2.94 KCAL/MOL
REMARK 924 INTRA-LIGAND FREE ENERGY PREDICTED BY IDOCK:   -1.10 KCAL/MOL
REMARK 927      BINDING AFFINITY PREDICTED BY RF-SCORE:    0.00 PKD
ROOT
HETATM    1  C   UNL     1     -10.980   8.901  67.564  1.00  0.00     0.055 C  
HETATM    2  C   UNL     1     -10.348   7.719  68.240  1.00  0.00    -0.239 A  
HETATM    3  C   UNL     1     -10.622   6.421  67.809  1.00  0.00    -0.331 A  
HETATM    4  C   UNL     1     -10.122   5.319  68.516  1.00  0.00    -0.232 A  
HETATM    5  C   UNL     1      -9.279   5.466  69.629  1.00  0.00    -0.153 A  
HETATM    6  C   UNL     1      -8.973   6.785  70.017  1.00  0.00    -0.141 A  
HETATM    7  C   UNL     1      -9.514   7.893  69.349  1.00  0.00    -0.156 A  
ENDROOT
BRANCH   5   8
HETATM    8  C   UNL     1      -8.802   4.294  70.450  1.00  0.00    -0.133 C  
HETATM    9  C   UNL     1      -7.584   3.725  70.241  1.00  0.00    -0.044 C  
BRANCH   8  10
HETATM   10  C   UNL     1      -9.617   3.653  71.543  1.00  0.00    -0.164 A  
HETATM   11  N   UNL     1      -9.528   2.302  71.664  1.00  0.00    -0.118 NA 
HETATM   12  C   UNL     1     -10.419   4.401  72.412  1.00  0.00    -0.219 A  
HETATM   13  C   UNL     1     -11.118   3.749  73.429  1.00  0.00    -0.308 A  
HETATM   14  C   UNL     1     -10.237   1.695  72.640  1.00  0.00    -0.138 A  
HETATM   15  C   UNL     1     -11.032   2.371  73.544  1.00  0.00    -0.299 A  
ENDBRANCH   8  10
BRANCH   9  16
HETATM   16  C   UNL     1      -6.471   4.145  69.323  1.00  0.00    -0.033 C  
BRANCH  16  17
HETATM   17  N   UNL     1      -6.480   3.473  68.019  1.00  0.00    -0.036 NA 
HETATM   18  C   UNL     1      -7.373   1.769  66.703  1.00  0.00    -0.056 C  
HETATM   19  C   UNL     1      -7.830   3.082  66.091  1.00  0.00    -0.081 C  
HETATM   20  C   UNL     1      -7.056   2.129  68.137  1.00  0.00    -0.047 C  
HETATM   21  C   UNL     1      -7.272   4.173  67.003  1.00  0.00    -0.068 C  
ENDBRANCH  16  17
ENDBRANCH   9  16
ENDBRANCH   5   8
TORSDOF 4
ENDMDL
MODEL      193
REMARK 921   NORMALIZED FREE ENERGY PREDICTED BY IDOCK:   -2.61 KCAL/MOL
REMARK 922        TOTAL FREE ENERGY PREDICTED BY IDOCK:   -4.02 KCAL/MOL
REMARK 923 INTER-LIGAND FREE ENERGY PREDICTED BY IDOCK:   -3.03 KCAL/MOL
REMARK 924 INTRA-LIGAND FREE ENERGY PREDICTED BY IDOCK:   -0.99 KCAL/MOL
REMARK 927      BINDING AFFINITY PREDICTED BY RF-SCORE:    0.00 PKD
ROOT
HETATM    1  C   UNL     1      -6.285   2.136  65.155  1.00  0.00    -0.019 C  
HETATM    2  C   UNL     1      -6.758   3.527  65.458  1.00  0.00    -0.044 A  
HETATM    3  C   UNL     1      -5.918   4.624  65.264  1.00  0.00    -0.022 A  
HETATM    4  C   UNL     1      -6.324   5.906  65.658  1.00  0.00    -0.042 A  
HETATM    5  C   UNL     1      -7.599   6.154  66.192  1.00  0.00    -0.090 A  
HETATM    6  C   UNL     1      -8.451   5.042  66.332  1.00  0.00    -0.111 A  
HETATM    7  C   UNL     1      -8.031   3.747  65.992  1.00  0.00    -0.090 A  
ENDROOT
BRANCH   5   8
HETATM    8  C   UNL     1      -8.020   7.511  66.697  1.00  0.00    -0.110 C  
HETATM    9  C   UNL     1      -7.832   7.880  67.993  1.00  0.00    -0.127 C  
BRANCH   8  10
HETATM   10  C   UNL     1      -8.683   8.555  65.836  1.00  0.00    -0.174 A  
HETATM   11  N   UNL     1      -8.135   8.780  64.612  1.00  0.00    -0.149 NA 
HETATM   12  C   UNL     1      -9.821   9.254  66.254  1.00  0.00    -0.361 A  
HETATM   13  C   UNL     1     -10.410  10.180  65.391  1.00  0.00    -0.177 A  
HETATM   14  C   UNL     1      -8.711   9.702  63.809  1.00  0.00    -0.223 A  
HETATM   15  C   UNL     1      -9.843  10.414  64.149  1.00  0.00    -0.379 A  
ENDBRANCH   8  10
BRANCH   9  16
HETATM   16  C   UNL     1      -7.126   7.159  69.106  1.00  0.00    -0.083 C  
BRANCH  16  17
HETATM   17  N   UNL     1      -8.010   6.707  70.186  1.00  0.00    -0.110 NA 
HETATM   18  C   UNL     1      -9.988   7.053  71.371  1.00  0.00    -0.190 C  
HETATM   19  C   UNL     1     -10.151   5.746  70.614  1.00  0.00    -0.263 C  
HETATM   20  C   UNL     1      -8.913   7.786  70.597  1.00  0.00    -0.145 C  
HETATM   21  C   UNL     1      -8.863   5.575  69.812  1.00  0.00    -0.119 C  
ENDBRANCH  16  17
ENDBRANCH   9  16
ENDBRANCH   5   8
TORSDOF 4
ENDMDL
MODEL      194
REMARK 921   NORMALIZED FREE ENERGY PREDICTED BY IDOCK:   -2.58 KCAL/MOL
REMARK 922        TOTAL FREE ENERGY PREDICTED BY IDOCK:   -3.99 KCAL/MOL
REMARK 923 INTER-LIGAND FREE ENERGY PREDICTED BY IDOCK:   -3.45 KCAL/MOL
REMARK 924 INTRA-LIGAND FREE ENERGY PREDICTED BY IDOCK:   -0.54 KCAL/MOL
REMARK 927      BINDING AFFINITY PREDICTED BY RF-SCORE:    0.00 PKD
ROOT
HETATM    1  C   UNL     1      -6.344  14.633  68.582  1.00  0.00    -0.082 C  
HETATM    2  C   UNL     1      -6.962  13.282  68.373  1.00  0.00    -0.105 A  
HETATM    3  C   UNL     1      -8.348  13.124  68.367  1.00  0.00    -0.122 A  
HETATM    4  C   UNL     1      -8.915  11.845  68.289  1.00  0.00    -0.178 A  
HETATM    5  C   UNL     1      -8.133  10.688  68.144  1.00  0.00    -0.114 A  
HETATM    6  C   UNL     1      -6.738  10.873  68.099  1.00  0.00    -0.063 A  
HETATM    7  C   UNL     1      -6.160  12.145  68.234  1.00  0.00    -0.052 A  
ENDROOT
BRANCH   5   8
HETATM    8  C   UNL     1      -8.723   9.301  68.142  1.00  0.00    -0.125 C  
HETATM    9  C   UNL     1      -8.641   8.491  67.052  1.00  0.00    -0.124 C  
BRANCH   8  10
HETATM   10  C   UNL     1      -9.453   8.702  69.317  1.00  0.00    -0.158 A  
HETATM   11  N   UNL     1      -8.863   8.827  70.535  1.00  0.00    -0.160 NA 
HETATM   12  C   UNL     1     -10.690   8.062  69.179  1.00  0.00    -0.121 A  
HETATM   13  C   UNL     1     -11.332   7.564  70.314  1.00  0.00    -0.219 A  
HETATM   14  C   UNL     1      -9.495   8.311  71.612  1.00  0.00    -0.195 A  
HETATM   15  C   UNL     1     -10.724   7.684  71.552  1.00  0.00    -0.249 A  
ENDBRANCH   8  10
BRANCH   9  16
HETATM   16  C   UNL     1      -7.916   8.698  65.753  1.00  0.00    -0.106 C  
BRANCH  16  17
HETATM   17  N   UNL     1      -8.777   9.121  64.644  1.00  0.00    -0.184 NA 
HETATM   18  C   UNL     1     -10.195  10.760  63.782  1.00  0.00    -0.354 C  
HETATM   19  C   UNL     1      -8.966  10.727  62.889  1.00  0.00    -0.284 C  
HETATM   20  C   UNL     1      -9.710  10.163  65.085  1.00  0.00    -0.304 C  
HETATM   21  C   UNL     1      -8.039   9.684  63.508  1.00  0.00    -0.149 C  
ENDBRANCH  16  17
ENDBRANCH   9  16
ENDBRANCH   5   8
TORSDOF 4
ENDMDL
MODEL      195
REMARK 921   NORMALIZED FREE ENERGY PREDICTED BY IDOCK:   -2.46 KCAL/MOL
REMARK 922        TOTAL FREE ENERGY PREDICTED BY IDOCK:   -3.84 KCAL/MOL
REMARK 923 INTER-LIGAND FREE ENERGY PREDICTED BY IDOCK:   -3.20 KCAL/MOL
REMARK 924 INTRA-LIGAND FREE ENERGY PREDICTED BY IDOCK:   -0.64 KCAL/MOL
REMARK 927      BINDING AFFINITY PREDICTED BY RF-SCORE:    0.00 PKD
ROOT
HETATM    1  C   UNL     1      -5.779  16.087  67.630  1.00  0.00    -0.169 C  
HETATM    2  C   UNL     1      -6.798  15.029  67.938  1.00  0.00    -0.172 A  
HETATM    3  C   UNL     1      -6.838  14.422  69.193  1.00  0.00    -0.120 A  
HETATM    4  C   UNL     1      -7.713  13.355  69.436  1.00  0.00     0.527 A  
HETATM    5  C   UNL     1      -8.625  12.901  68.469  1.00  0.00    -0.042 A  
HETATM    6  C   UNL     1      -8.604  13.561  67.226  1.00  0.00    -0.218 A  
HETATM    7  C   UNL     1      -7.692  14.593  66.956  1.00  0.00     0.006 A  
ENDROOT
BRANCH   5   8
HETATM    8  C   UNL     1      -9.513  11.702  68.686  1.00  0.00    -0.129 C  
HETATM    9  C   UNL     1     -10.843  11.738  68.403  1.00  0.00    -0.260 C  
BRANCH   8  10
HETATM   10  C   UNL     1      -9.023  10.388  69.237  1.00  0.00    -0.163 A  
HETATM   11  N   UNL     1      -9.402  10.072  70.503  1.00  0.00     0.103 NA 
HETATM   12  C   UNL     1      -8.229   9.514  68.485  1.00  0.00    -0.113 A  
HETATM   13  C   UNL     1      -7.841   8.293  69.040  1.00  0.00    -0.103 A  
HETATM   14  C   UNL     1      -8.989   8.896  71.025  1.00  0.00    -0.241 A  
HETATM   15  C   UNL     1      -8.221   7.979  70.335  1.00  0.00    -0.118 A  
ENDBRANCH   8  10
BRANCH   9  16
HETATM   16  C   UNL     1     -11.659  12.821  67.758  1.00  0.00    -0.353 C  
BRANCH  16  17
HETATM   17  N   UNL     1     -12.122  13.860  68.685  1.00  0.00    -0.352 NA 
HETATM   18  C   UNL     1     -11.900  14.848  70.785  1.00  0.00    -0.368 C  
HETATM   19  C   UNL     1     -11.453  15.880  69.763  1.00  0.00    -0.342 C  
HETATM   20  C   UNL     1     -11.737  13.530  70.061  1.00  0.00    -0.241 C  
HETATM   21  C   UNL     1     -11.562  15.186  68.407  1.00  0.00    -0.337 C  
ENDBRANCH  16  17
ENDBRANCH   9  16
ENDBRANCH   5   8
TORSDOF 4
ENDMDL
MODEL      196
REMARK 921   NORMALIZED FREE ENERGY PREDICTED BY IDOCK:   -2.28 KCAL/MOL
REMARK 922        TOTAL FREE ENERGY PREDICTED BY IDOCK:   -3.62 KCAL/MOL
REMARK 923 INTER-LIGAND FREE ENERGY PREDICTED BY IDOCK:   -2.58 KCAL/MOL
REMARK 924 INTRA-LIGAND FREE ENERGY PREDICTED BY IDOCK:   -1.04 KCAL/MOL
REMARK 927      BINDING AFFINITY PREDICTED BY RF-SCORE:    0.00 PKD
ROOT
HETATM    1  C   UNL     1      -9.491   9.046  64.359  1.00  0.00     0.582 C  
HETATM    2  C   UNL     1      -9.548  10.197  65.319  1.00  0.00    -0.338 A  
HETATM    3  C   UNL     1      -9.109  11.465  64.938  1.00  0.00     0.002 A  
HETATM    4  C   UNL     1      -9.055  12.507  65.873  1.00  0.00     0.139 A  
HETATM    5  C   UNL     1      -9.499  12.347  67.196  1.00  0.00    -0.198 A  
HETATM    6  C   UNL     1      -9.987  11.074  67.547  1.00  0.00    -0.199 A  
HETATM    7  C   UNL     1      -9.991  10.010  66.632  1.00  0.00    -0.274 A  
ENDROOT
BRANCH   5   8
HETATM    8  C   UNL     1      -9.370  13.433  68.235  1.00  0.00    -0.205 C  
HETATM    9  C   UNL     1     -10.441  14.174  68.630  1.00  0.00    -0.250 C  
BRANCH   8  10
HETATM   10  C   UNL     1      -8.071  13.795  68.908  1.00  0.00     0.059 A  
HETATM   11  N   UNL     1      -7.903  15.098  69.258  1.00  0.00    -0.195 NA 
HETATM   12  C   UNL     1      -7.082  12.844  69.182  1.00  0.00     0.033 A  
HETATM   13  C   UNL     1      -5.918  13.238  69.843  1.00  0.00    -0.136 A  
HETATM   14  C   UNL     1      -6.754  15.456  69.872  1.00  0.00    -0.130 A  
HETATM   15  C   UNL     1      -5.746  14.569  70.190  1.00  0.00    -0.129 A  
ENDBRANCH   8  10
BRANCH   9  16
HETATM   16  C   UNL     1     -11.891  14.040  68.263  1.00  0.00    -0.371 C  
BRANCH  16  17
HETATM   17  N   UNL     1     -12.771  13.728  69.394  1.00  0.00     0.197 NA 
HETATM   18  C   UNL     1     -13.096  12.477  71.334  1.00  0.00    -0.303 C  
HETATM   19  C   UNL     1     -12.965  13.928  71.764  1.00  0.00    -0.442 C  
HETATM   20  C   UNL     1     -12.411  12.436  69.986  1.00  0.00    -0.085 C  
HETATM   21  C   UNL     1     -12.703  14.712  70.480  1.00  0.00    -0.337 C  
ENDBRANCH  16  17
ENDBRANCH   9  16
ENDBRANCH   5   8
TORSDOF 4
ENDMDL
MODEL      197
REMARK 921   NORMALIZED FREE ENERGY PREDICTED BY IDOCK:   -2.18 KCAL/MOL
REMARK 922        TOTAL FREE ENERGY PREDICTED BY IDOCK:   -3.49 KCAL/MOL
REMARK 923 INTER-LIGAND FREE ENERGY PREDICTED BY IDOCK:   -3.95 KCAL/MOL
REMARK 924 INTRA-LIGAND FREE ENERGY PREDICTED BY IDOCK:    0.46 KCAL/MOL
REMARK 927      BINDING AFFINITY PREDICTED BY RF-SCORE:    0.00 PKD
ROOT
HETATM    1  C   UNL     1     -12.637  15.189  69.164  1.00  0.00     0.167 C  
HETATM    2  C   UNL     1     -12.092  13.854  68.749  1.00  0.00    -0.344 A  
HETATM    3  C   UNL     1     -12.501  12.686  69.393  1.00  0.00     0.239 A  
HETATM    4  C   UNL     1     -11.902  11.458  69.081  1.00  0.00    -0.413 A  
HETATM    5  C   UNL     1     -10.931  11.335  68.074  1.00  0.00    -0.302 A  
HETATM    6  C   UNL     1     -10.570  12.517  67.400  1.00  0.00    -0.242 A  
HETATM    7  C   UNL     1     -11.123  13.759  67.745  1.00  0.00    -0.288 A  
ENDROOT
BRANCH   5   8
HETATM    8  C   UNL     1     -10.219  10.038  67.784  1.00  0.00    -0.235 C  
HETATM    9  C   UNL     1      -9.198   9.969  66.887  1.00  0.00    -0.169 C  
BRANCH   8  10
HETATM   10  C   UNL     1     -10.572   8.727  68.437  1.00  0.00    -0.137 A  
HETATM   11  N   UNL     1     -11.056   8.783  69.706  1.00  0.00    -0.141 NA 
HETATM   12  C   UNL     1     -10.432   7.502  67.775  1.00  0.00    -0.288 A  
HETATM   13  C   UNL     1     -10.816   6.326  68.422  1.00  0.00    -0.394 A  
HETATM   14  C   UNL     1     -11.394   7.627  70.318  1.00  0.00    -0.181 A  
HETATM   15  C   UNL     1     -11.299   6.386  69.719  1.00  0.00    -0.494 A  
ENDBRANCH   8  10
BRANCH   9  16
HETATM   16  C   UNL     1      -8.511  11.067  66.127  1.00  0.00    -0.168 C  
BRANCH  16  17
HETATM   17  N   UNL     1      -8.531  10.893  64.670  1.00  0.00    -0.014 NA 
HETATM   18  C   UNL     1      -7.684   9.750  62.824  1.00  0.00    -0.124 C  
HETATM   19  C   UNL     1      -9.148   9.364  62.946  1.00  0.00    -0.101 C  
HETATM   20  C   UNL     1      -7.315  10.212  64.216  1.00  0.00    -0.110 C  
HETATM   21  C   UNL     1      -9.658  10.088  64.190  1.00  0.00    -0.208 C  
ENDBRANCH  16  17
ENDBRANCH   9  16
ENDBRANCH   5   8
TORSDOF 4
ENDMDL
MODEL      198
REMARK 921   NORMALIZED FREE ENERGY PREDICTED BY IDOCK:   -1.98 KCAL/MOL
REMARK 922        TOTAL FREE ENERGY PREDICTED BY IDOCK:   -3.24 KCAL/MOL
REMARK 923 INTER-LIGAND FREE ENERGY PREDICTED BY IDOCK:   -2.82 KCAL/MOL
REMARK 924 INTRA-LIGAND FREE ENERGY PREDICTED BY IDOCK:   -0.42 KCAL/MOL
REMARK 927      BINDING AFFINITY PREDICTED BY RF-SCORE:    0.00 PKD
ROOT
HETATM    1  C   UNL     1     -13.965   8.538  72.233  1.00  0.00    -0.423 C  
HETATM    2  C   UNL     1     -12.533   8.608  71.790  1.00  0.00    -0.397 A  
HETATM    3  C   UNL     1     -12.210   8.923  70.470  1.00  0.00     0.137 A  
HETATM    4  C   UNL     1     -10.879   8.873  70.036  1.00  0.00    -0.239 A  
HETATM    5  C   UNL     1      -9.818   8.577  70.908  1.00  0.00    -0.234 A  
HETATM    6  C   UNL     1     -10.161   8.312  72.248  1.00  0.00    -0.375 A  
HETATM    7  C   UNL     1     -11.497   8.306  72.678  1.00  0.00    -0.423 A  
ENDROOT
BRANCH   5   8
HETATM    8  C   UNL     1      -8.392   8.437  70.439  1.00  0.00    -0.121 C  
HETATM    9  C   UNL     1      -7.615   7.388  70.822  1.00  0.00    -0.083 C  
BRANCH   8  10
HETATM   10  C   UNL     1      -7.710   9.429  69.532  1.00  0.00    -0.089 A  
HETATM   11  N   UNL     1      -7.134   8.936  68.405  1.00  0.00    -0.076 NA 
HETATM   12  C   UNL     1      -7.679  10.799  69.816  1.00  0.00     0.066 A  
HETATM   13  C   UNL     1      -7.065  11.670  68.914  1.00  0.00    -0.115 A  
HETATM   14  C   UNL     1      -6.522   9.799  67.564  1.00  0.00    -0.068 A  
HETATM   15  C   UNL     1      -6.469  11.163  67.771  1.00  0.00    -0.063 A  
ENDBRANCH   8  10
BRANCH   9  16
HETATM   16  C   UNL     1      -7.970   6.170  71.625  1.00  0.00    -0.103 C  
BRANCH  16  17
HETATM   17  N   UNL     1      -7.138   4.997  71.340  1.00  0.00    -0.055 NA 
HETATM   18  C   UNL     1      -6.694   2.754  71.797  1.00  0.00    -0.022 C  
HETATM   19  C   UNL     1      -7.191   2.821  70.363  1.00  0.00    -0.033 C  
HETATM   20  C   UNL     1      -7.239   4.018  72.427  1.00  0.00    -0.057 C  
HETATM   21  C   UNL     1      -7.519   4.291  70.113  1.00  0.00    -0.046 C  
ENDBRANCH  16  17
ENDBRANCH   9  16
ENDBRANCH   5   8
TORSDOF 4
ENDMDL
MODEL      199
REMARK 921   NORMALIZED FREE ENERGY PREDICTED BY IDOCK:   -0.80 KCAL/MOL
REMARK 922        TOTAL FREE ENERGY PREDICTED BY IDOCK:   -1.79 KCAL/MOL
REMARK 923 INTER-LIGAND FREE ENERGY PREDICTED BY IDOCK:   -0.78 KCAL/MOL
REMARK 924 INTRA-LIGAND FREE ENERGY PREDICTED BY IDOCK:   -1.01 KCAL/MOL
REMARK 927      BINDING AFFINITY PREDICTED BY RF-SCORE:    0.00 PKD
ROOT
HETATM    1  C   UNL     1     -13.018  15.488  68.420  1.00  0.00     2.041 C  
HETATM    2  C   UNL     1     -11.701  14.784  68.274  1.00  0.00    -0.340 A  
HETATM    3  C   UNL     1     -11.592  13.417  68.531  1.00  0.00    -0.368 A  
HETATM    4  C   UNL     1     -10.339  12.789  68.507  1.00  0.00    -0.231 A  
HETATM    5  C   UNL     1      -9.165  13.478  68.162  1.00  0.00    -0.208 A  
HETATM    6  C   UNL     1      -9.304  14.845  67.856  1.00  0.00    -0.191 A  
HETATM    7  C   UNL     1     -10.546  15.493  67.932  1.00  0.00    -0.274 A  
ENDROOT
BRANCH   5   8
HETATM    8  C   UNL     1      -7.800  12.838  68.213  1.00  0.00    -0.141 C  
HETATM    9  C   UNL     1      -7.328  12.080  67.186  1.00  0.00    -0.134 C  
BRANCH   8  10
HETATM   10  C   UNL     1      -6.862  12.965  69.385  1.00  0.00     0.040 A  
HETATM   11  N   UNL     1      -6.612  14.222  69.839  1.00  0.00    -0.134 NA 
HETATM   12  C   UNL     1      -6.281  11.850  69.999  1.00  0.00    -0.123 A  
HETATM   13  C   UNL     1      -5.451  12.035  71.107  1.00  0.00    -0.029 A  
HETATM   14  C   UNL     1      -5.783  14.372  70.895  1.00  0.00    -0.191 A  
HETATM   15  C   UNL     1      -5.191  13.318  71.560  1.00  0.00    -0.178 A  
ENDBRANCH   8  10
BRANCH   9  16
HETATM   16  C   UNL     1      -7.926  11.814  65.834  1.00  0.00     0.499 C  
BRANCH  16  17
HETATM   17  N   UNL     1      -8.590  10.512  65.716  1.00  0.00    -0.167 NA 
HETATM   18  C   UNL     1      -9.289   8.566  66.794  1.00  0.00    -0.232 C  
HETATM   19  C   UNL     1     -10.544   9.309  66.370  1.00  0.00    -0.037 C  
HETATM   20  C   UNL     1      -8.230   9.646  66.843  1.00  0.00    -0.113 C  
HETATM   21  C   UNL     1     -10.054  10.598  65.714  1.00  0.00    -0.266 C  
ENDBRANCH  16  17
ENDBRANCH   9  16
ENDBRANCH   5   8
TORSDOF 4
ENDMDL
MODEL      200
REMARK 921   NORMALIZED FREE ENERGY PREDICTED BY IDOCK:   -0.41 KCAL/MOL
REMARK 922        TOTAL FREE ENERGY PREDICTED BY IDOCK:   -1.31 KCAL/MOL
REMARK 923 INTER-LIGAND FREE ENERGY PREDICTED BY IDOCK:   -0.68 KCAL/MOL
REMARK 924 INTRA-LIGAND FREE ENERGY PREDICTED BY IDOCK:   -0.63 KCAL/MOL
REMARK 927      BINDING AFFINITY PREDICTED BY RF-SCORE:    0.00 PKD
ROOT
HETATM    1  C   UNL     1     -10.295   1.880  69.003  1.00  0.00     1.467 C  
HETATM    2  C   UNL     1      -9.625   3.155  68.583  1.00  0.00    -0.104 A  
HETATM    3  C   UNL     1      -9.012   3.260  67.334  1.00  0.00    -0.176 A  
HETATM    4  C   UNL     1      -8.288   4.410  66.994  1.00  0.00    -0.101 A  
HETATM    5  C   UNL     1      -8.205   5.521  67.849  1.00  0.00    -0.100 A  
HETATM    6  C   UNL     1      -8.873   5.415  69.084  1.00  0.00    -0.110 A  
HETATM    7  C   UNL     1      -9.553   4.245  69.455  1.00  0.00    -0.274 A  
ENDROOT
BRANCH   5   8
HETATM    8  C   UNL     1      -7.362   6.731  67.534  1.00  0.00    -0.096 C  
HETATM    9  C   UNL     1      -6.298   7.081  68.306  1.00  0.00    -0.035 C  
BRANCH   8  10
HETATM   10  C   UNL     1      -7.623   7.650  66.368  1.00  0.00    -0.088 A  
HETATM   11  N   UNL     1      -6.631   7.770  65.447  1.00  0.00    -0.044 NA 
HETATM   12  C   UNL     1      -8.832   8.338  66.217  1.00  0.00    -0.192 A  
HETATM   13  C   UNL     1      -9.026   9.143  65.093  1.00  0.00    -0.238 A  
HETATM   14  C   UNL     1      -6.835   8.578  64.383  1.00  0.00    -0.070 A  
HETATM   15  C   UNL     1      -8.008   9.272  64.161  1.00  0.00    -0.136 A  
ENDBRANCH   8  10
BRANCH   9  16
HETATM   16  C   UNL     1      -5.681   6.365  69.473  1.00  0.00    -0.014 C  
BRANCH  16  17
HETATM   17  N   UNL     1      -6.090   6.885  70.783  1.00  0.00    -0.031 NA 
HETATM   18  C   UNL     1      -7.463   8.353  71.964  1.00  0.00    -0.135 C  
HETATM   19  C   UNL     1      -7.915   6.946  72.318  1.00  0.00    -0.093 C  
HETATM   20  C   UNL     1      -6.758   8.182  70.636  1.00  0.00    -0.037 C  
HETATM   21  C   UNL     1      -7.032   6.014  71.492  1.00  0.00    -0.076 C  
ENDBRANCH  16  17
ENDBRANCH   9  16
ENDBRANCH   5   8
TORSDOF 4
ENDMDL
MODEL      201
REMARK 921   NORMALIZED FREE ENERGY PREDICTED BY IDOCK:    0.06 KCAL/MOL
REMARK 922        TOTAL FREE ENERGY PREDICTED BY IDOCK:   -0.73 KCAL/MOL
REMARK 923 INTER-LIGAND FREE ENERGY PREDICTED BY IDOCK:   -2.44 KCAL/MOL
REMARK 924 INTRA-LIGAND FREE ENERGY PREDICTED BY IDOCK:    1.71 KCAL/MOL
REMARK 927      BINDING AFFINITY PREDICTED BY RF-SCORE:    0.00 PKD
ROOT
HETATM    1  C   UNL     1     -13.413  14.708  73.010  1.00  0.00    -0.450 C  
HETATM    2  C   UNL     1     -12.634  13.755  72.152  1.00  0.00    -0.207 A  
HETATM    3  C   UNL     1     -11.662  14.224  71.267  1.00  0.00    -0.097 A  
HETATM    4  C   UNL     1     -11.022  13.342  70.386  1.00  0.00     1.056 A  
HETATM    5  C   UNL     1     -11.271  11.960  70.400  1.00  0.00     0.593 A  
HETATM    6  C   UNL     1     -12.218  11.500  71.335  1.00  0.00    -0.086 A  
HETATM    7  C   UNL     1     -12.905  12.384  72.182  1.00  0.00    -0.173 A  
ENDROOT
BRANCH   5   8
HETATM    8  C   UNL     1     -10.653  11.011  69.404  1.00  0.00    -0.212 C  
HETATM    9  C   UNL     1     -10.594  11.308  68.077  1.00  0.00    -0.230 C  
BRANCH   8  10
HETATM   10  C   UNL     1     -10.069   9.673  69.777  1.00  0.00    -0.233 A  
HETATM   11  N   UNL     1      -8.813   9.406  69.332  1.00  0.00    -0.149 NA 
HETATM   12  C   UNL     1     -10.767   8.746  70.559  1.00  0.00    -0.259 A  
HETATM   13  C   UNL     1     -10.153   7.541  70.903  1.00  0.00    -0.192 A  
HETATM   14  C   UNL     1      -8.254   8.219  69.657  1.00  0.00    -0.118 A  
HETATM   15  C   UNL     1      -8.877   7.267  70.439  1.00  0.00    -0.150 A  
ENDBRANCH   8  10
BRANCH   9  16
HETATM   16  C   UNL     1     -10.976  12.568  67.356  1.00  0.00    -0.259 C  
BRANCH  16  17
HETATM   17  N   UNL     1     -10.520  13.799  68.011  1.00  0.00    -0.239 NA 
HETATM   18  C   UNL     1      -9.124  15.664  67.916  1.00  0.00    -0.185 C  
HETATM   19  C   UNL     1     -10.551  16.177  67.822  1.00  0.00    -0.309 C  
HETATM   20  C   UNL     1      -9.227  14.224  67.463  1.00  0.00    -0.197 C  
HETATM   21  C   UNL     1     -11.434  14.931  67.836  1.00  0.00    -0.340 C  
ENDBRANCH  16  17
ENDBRANCH   9  16
ENDBRANCH   5   8
TORSDOF 4
ENDMDL
MODEL      202
REMARK 921   NORMALIZED FREE ENERGY PREDICTED BY IDOCK:    1.50 KCAL/MOL
REMARK 922        TOTAL FREE ENERGY PREDICTED BY IDOCK:    1.05 KCAL/MOL
REMARK 923 INTER-LIGAND FREE ENERGY PREDICTED BY IDOCK:    1.92 KCAL/MOL
REMARK 924 INTRA-LIGAND FREE ENERGY PREDICTED BY IDOCK:   -0.86 KCAL/MOL
REMARK 927      BINDING AFFINITY PREDICTED BY RF-SCORE:    0.00 PKD
ROOT
HETATM    1  C   UNL     1      -8.912   9.404  63.926  1.00  0.00    -0.166 C  
HETATM    2  C   UNL     1      -8.928  10.228  65.180  1.00  0.00    -0.220 A  
HETATM    3  C   UNL     1      -8.329  11.487  65.214  1.00  0.00     0.497 A  
HETATM    4  C   UNL     1      -8.245  12.200  66.418  1.00  0.00     0.157 A  
HETATM    5  C   UNL     1      -8.812  11.721  67.611  1.00  0.00    -0.162 A  
HETATM    6  C   UNL     1      -9.457  10.471  67.544  1.00  0.00    -0.166 A  
HETATM    7  C   UNL     1      -9.496   9.726  66.356  1.00  0.00    -0.237 A  
ENDROOT
BRANCH   5   8
HETATM    8  C   UNL     1      -8.657  12.435  68.929  1.00  0.00     0.281 C  
HETATM    9  C   UNL     1      -9.626  13.260  69.412  1.00  0.00     0.933 C  
BRANCH   8  10
HETATM   10  C   UNL     1      -7.439  12.314  69.808  1.00  0.00     0.970 A  
HETATM   11  N   UNL     1      -7.199  11.095  70.360  1.00  0.00     0.352 NA 
HETATM   12  C   UNL     1      -6.575  13.391  70.038  1.00  0.00     0.138 A  
HETATM   13  C   UNL     1      -5.441  13.201  70.830  1.00  0.00    -0.177 A  
HETATM   14  C   UNL     1      -6.108  10.948  71.145  1.00  0.00     0.345 A  
HETATM   15  C   UNL     1      -5.205  11.960  71.400  1.00  0.00    -0.035 A  
ENDBRANCH   8  10
BRANCH   9  16
HETATM   16  C   UNL     1     -10.999  13.547  68.876  1.00  0.00    -0.252 C  
BRANCH  16  17
HETATM   17  N   UNL     1     -11.565  14.825  69.324  1.00  0.00    -0.286 NA 
HETATM   18  C   UNL     1     -11.363  16.665  70.741  1.00  0.00     0.104 C  
HETATM   19  C   UNL     1     -11.179  17.179  69.324  1.00  0.00     0.434 C  
HETATM   20  C   UNL     1     -11.028  15.193  70.638  1.00  0.00    -0.225 C  
HETATM   21  C   UNL     1     -11.265  15.946  68.427  1.00  0.00    -0.368 C  
ENDBRANCH  16  17
ENDBRANCH   9  16
ENDBRANCH   5   8
TORSDOF 4
ENDMDL
MODEL      203
REMARK 921   NORMALIZED FREE ENERGY PREDICTED BY IDOCK:    4.15 KCAL/MOL
REMARK 922        TOTAL FREE ENERGY PREDICTED BY IDOCK:    4.32 KCAL/MOL
REMARK 923 INTER-LIGAND FREE ENERGY PREDICTED BY IDOCK:    5.21 KCAL/MOL
REMARK 924 INTRA-LIGAND FREE ENERGY PREDICTED BY IDOCK:   -0.90 KCAL/MOL
REMARK 927      BINDING AFFINITY PREDICTED BY RF-SCORE:    0.00 PKD
ROOT
HETATM    1  C   UNL     1     -11.514  11.510  66.727  1.00  0.00    -0.233 C  
HETATM    2  C   UNL     1     -11.092  12.825  67.312  1.00  0.00    -0.314 A  
HETATM    3  C   UNL     1      -9.860  12.958  67.952  1.00  0.00    -0.227 A  
HETATM    4  C   UNL     1      -9.522  14.155  68.597  1.00  0.00    -0.163 A  
HETATM    5  C   UNL     1     -10.362  15.281  68.571  1.00  0.00    -0.231 A  
HETATM    6  C   UNL     1     -11.579  15.142  67.876  1.00  0.00    -0.326 A  
HETATM    7  C   UNL     1     -11.949  13.930  67.275  1.00  0.00    -0.446 A  
ENDROOT
BRANCH   5   8
HETATM    8  C   UNL     1     -10.051  16.546  69.330  1.00  0.00    -0.270 C  
HETATM    9  C   UNL     1      -9.152  17.456  68.864  1.00  0.00    -0.161 C  
BRANCH   8  10
HETATM   10  C   UNL     1     -10.684  16.906  70.649  1.00  0.00     0.647 A  
HETATM   11  N   UNL     1     -10.911  18.226  70.882  1.00  0.00     2.388 NA 
HETATM   12  C   UNL     1     -11.044  15.937  71.592  1.00  0.00    -0.042 A  
HETATM   13  C   UNL     1     -11.664  16.333  72.779  1.00  0.00    -0.421 A  
HETATM   14  C   UNL     1     -11.487  18.583  72.051  1.00  0.00     4.908 A  
HETATM   15  C   UNL     1     -11.884  17.680  73.018  1.00  0.00     1.612 A  
ENDBRANCH   8  10
BRANCH   9  16
HETATM   16  C   UNL     1      -8.408  17.491  67.560  1.00  0.00    -0.215 C  
BRANCH  16  17
HETATM   17  N   UNL     1      -7.870  18.809  67.210  1.00  0.00    -0.231 NA 
HETATM   18  C   UNL     1      -6.679  20.687  67.912  1.00  0.00    -0.348 C  
HETATM   19  C   UNL     1      -5.832  19.998  66.856  1.00  0.00    -0.185 C  
HETATM   20  C   UNL     1      -7.587  19.588  68.419  1.00  0.00    -0.330 C  
HETATM   21  C   UNL     1      -6.614  18.749  66.455  1.00  0.00    -0.198 C  
ENDBRANCH  16  17
ENDBRANCH   9  16
ENDBRANCH   5   8
TORSDOF 4
ENDMDL
MODEL      204
REMARK 921   NORMALIZED FREE ENERGY PREDICTED BY IDOCK:    8.26 KCAL/MOL
REMARK 922        TOTAL FREE ENERGY PREDICTED BY IDOCK:    9.39 KCAL/MOL
REMARK 923 INTER-LIGAND FREE ENERGY PREDICTED BY IDOCK:   10.28 KCAL/MOL
REMARK 924 INTRA-LIGAND FREE ENERGY PREDICTED BY IDOCK:   -0.88 KCAL/MOL
REMARK 927      BINDING AFFINITY PREDICTED BY RF-SCORE:    0.00 PKD
ROOT
HETATM    1  C   UNL     1     -11.430  11.792  67.619  1.00  0.00    -0.370 C  
HETATM    2  C   UNL     1     -10.868  13.183  67.590  1.00  0.00    -0.269 A  
HETATM    3  C   UNL     1      -9.594  13.449  68.092  1.00  0.00    -0.222 A  
HETATM    4  C   UNL     1      -9.123  14.766  68.168  1.00  0.00    -0.180 A  
HETATM    5  C   UNL     1      -9.868  15.855  67.687  1.00  0.00    -0.233 A  
HETATM    6  C   UNL     1     -11.130  15.561  67.137  1.00  0.00    -0.256 A  
HETATM    7  C   UNL     1     -11.632  14.251  67.108  1.00  0.00    -0.402 A  
ENDROOT
BRANCH   5   8
HETATM    8  C   UNL     1      -9.411  17.284  67.838  1.00  0.00    -0.266 C  
HETATM    9  C   UNL     1      -8.467  17.823  67.019  1.00  0.00    -0.245 C  
BRANCH   8  10
HETATM   10  C   UNL     1      -9.938  18.222  68.894  1.00  0.00    -0.339 A  
HETATM   11  N   UNL     1      -9.926  19.549  68.598  1.00  0.00    -0.431 NA 
HETATM   12  C   UNL     1     -10.436  17.763  70.118  1.00  0.00     1.055 A  
HETATM   13  C   UNL     1     -10.947  18.682  71.037  1.00  0.00     3.465 A  
HETATM   14  C   UNL     1     -10.400  20.418  69.518  1.00  0.00     0.355 A  
HETATM   15  C   UNL     1     -10.923  20.034  70.736  1.00  0.00     3.511 A  
ENDBRANCH   8  10
BRANCH   9  16
HETATM   16  C   UNL     1      -7.796  17.237  65.810  1.00  0.00     0.222 C  
BRANCH  16  17
HETATM   17  N   UNL     1      -7.331  18.232  64.838  1.00  0.00     0.910 NA 
HETATM   18  C   UNL     1      -5.943  20.057  64.418  1.00  0.00    -0.308 C  
HETATM   19  C   UNL     1      -5.425  18.906  63.572  1.00  0.00    -0.155 C  
HETATM   20  C   UNL     1      -6.716  19.373  65.524  1.00  0.00    -0.280 C  
HETATM   21  C   UNL     1      -6.322  17.717  63.908  1.00  0.00     4.716 C  
ENDBRANCH  16  17
ENDBRANCH   9  16
ENDBRANCH   5   8
TORSDOF 4
ENDMDL
MODEL      205
REMARK 921   NORMALIZED FREE ENERGY PREDICTED BY IDOCK:   14.88 KCAL/MOL
REMARK 922        TOTAL FREE ENERGY PREDICTED BY IDOCK:   17.55 KCAL/MOL
REMARK 923 INTER-LIGAND FREE ENERGY PREDICTED BY IDOCK:   17.41 KCAL/MOL
REMARK 924 INTRA-LIGAND FREE ENERGY PREDICTED BY IDOCK:    0.14 KCAL/MOL
REMARK 927      BINDING AFFINITY PREDICTED BY RF-SCORE:    0.00 PKD
ROOT
HETATM    1  C   UNL     1      -8.479  20.572  69.586  1.00  0.00     1.448 C  
HETATM    2  C   UNL     1      -8.481  19.074  69.497  1.00  0.00     0.351 A  
HETATM    3  C   UNL     1      -9.664  18.352  69.653  1.00  0.00     0.459 A  
HETATM    4  C   UNL     1      -9.641  16.951  69.685  1.00  0.00     0.324 A  
HETATM    5  C   UNL     1      -8.458  16.219  69.494  1.00  0.00     0.129 A  
HETATM    6  C   UNL     1      -7.282  16.966  69.286  1.00  0.00    -0.171 A  
HETATM    7  C   UNL     1      -7.288  18.369  69.309  1.00  0.00    -0.066 A  
ENDROOT
BRANCH   5   8
HETATM    8  C   UNL     1      -8.402  14.717  69.609  1.00  0.00     0.255 C  
HETATM    9  C   UNL     1      -9.350  13.922  69.043  1.00  0.00     0.179 C  
BRANCH   8  10
HETATM   10  C   UNL     1      -7.323  13.975  70.356  1.00  0.00     1.060 A  
HETATM   11  N   UNL     1      -7.486  12.634  70.499  1.00  0.00     2.422 NA 
HETATM   12  C   UNL     1      -6.191  14.621  70.866  1.00  0.00    -0.011 A  
HETATM   13  C   UNL     1      -5.209  13.870  71.513  1.00  0.00    -0.185 A  
HETATM   14  C   UNL     1      -6.532  11.936  71.154  1.00  0.00     1.940 A  
HETATM   15  C   UNL     1      -5.383  12.504  71.667  1.00  0.00     0.050 A  
ENDBRANCH   8  10
BRANCH   9  16
HETATM   16  C   UNL     1     -10.504  14.286  68.153  1.00  0.00    -0.246 C  
BRANCH  16  17
HETATM   17  N   UNL     1     -11.677  14.799  68.868  1.00  0.00    -0.300 NA 
HETATM   18  C   UNL     1     -13.974  15.199  68.826  1.00  0.00     6.587 C  
HETATM   19  C   UNL     1     -13.733  14.128  69.875  1.00  0.00     2.107 C  
HETATM   20  C   UNL     1     -12.760  15.104  67.927  1.00  0.00     1.406 C  
HETATM   21  C   UNL     1     -12.231  13.854  69.842  1.00  0.00    -0.333 C  
ENDBRANCH  16  17
ENDBRANCH   9  16
ENDBRANCH   5   8
TORSDOF 4
ENDMDL
MODEL      206
REMARK 921   NORMALIZED FREE ENERGY PREDICTED BY IDOCK:   17.87 KCAL/MOL
REMARK 922        TOTAL FREE ENERGY PREDICTED BY IDOCK:   21.24 KCAL/MOL
REMARK 923 INTER-LIGAND FREE ENERGY PREDICTED BY IDOCK:   21.47 KCAL/MOL
REMARK 924 INTRA-LIGAND FREE ENERGY PREDICTED BY IDOCK:   -0.23 KCAL/MOL
REMARK 927      BINDING AFFINITY PREDICTED BY RF-SCORE:    0.00 PKD
ROOT
HETATM    1  C   UNL     1      -8.878  12.287  64.376  1.00  0.00     1.319 C  
HETATM    2  C   UNL     1      -8.815  12.006  65.849  1.00  0.00     0.115 A  
HETATM    3  C   UNL     1      -8.936  10.703  66.332  1.00  0.00    -0.176 A  
HETATM    4  C   UNL     1      -8.994  10.461  67.711  1.00  0.00    -0.131 A  
HETATM    5  C   UNL     1      -8.863  11.491  68.656  1.00  0.00    -0.108 A  
HETATM    6  C   UNL     1      -8.690  12.793  68.148  1.00  0.00    -0.193 A  
HETATM    7  C   UNL     1      -8.688  13.050  66.769  1.00  0.00    -0.105 A  
ENDROOT
BRANCH   5   8
HETATM    8  C   UNL     1      -9.007  11.259  70.139  1.00  0.00     2.246 C  
HETATM    9  C   UNL     1      -9.905  11.954  70.887  1.00  0.00     6.894 C  
BRANCH   8  10
HETATM   10  C   UNL     1      -8.178  10.266  70.913  1.00  0.00     1.723 A  
HETATM   11  N   UNL     1      -7.442   9.382  70.188  1.00  0.00    -0.102 NA 
HETATM   12  C   UNL     1      -8.143  10.253  72.312  1.00  0.00     5.788 A  
HETATM   13  C   UNL     1      -7.323   9.333  72.967  1.00  0.00     0.986 A  
HETATM   14  C   UNL     1      -6.679   8.485  70.849  1.00  0.00    -0.046 A  
HETATM   15  C   UNL     1      -6.582   8.427  72.225  1.00  0.00    -0.089 A  
ENDBRANCH   8  10
BRANCH   9  16
HETATM   16  C   UNL     1     -10.955  12.939  70.459  1.00  0.00     1.811 C  
BRANCH  16  17
HETATM   17  N   UNL     1     -10.783  14.284  71.018  1.00  0.00     1.106 NA 
HETATM   18  C   UNL     1     -11.613  16.457  71.181  1.00  0.00    -0.250 C  
HETATM   19  C   UNL     1     -11.732  15.836  72.563  1.00  0.00    -0.566 C  
HETATM   20  C   UNL     1     -11.561  15.263  70.253  1.00  0.00    -0.301 C  
HETATM   21  C   UNL     1     -11.229  14.402  72.411  1.00  0.00     1.548 C  
ENDBRANCH  16  17
ENDBRANCH   9  16
ENDBRANCH   5   8
TORSDOF 4
ENDMDL
