MODEL        1
REMARK 921   NORMALIZED FREE ENERGY PREDICTED BY IDOCK:   -8.15 KCAL/MOL
REMARK 922        TOTAL FREE ENERGY PREDICTED BY IDOCK:  -12.75 KCAL/MOL
REMARK 923 INTER-LIGAND FREE ENERGY PREDICTED BY IDOCK:  -11.97 KCAL/MOL
REMARK 924 INTRA-LIGAND FREE ENERGY PREDICTED BY IDOCK:   -0.78 KCAL/MOL
REMARK 927      BINDING AFFINITY PREDICTED BY RF-SCORE:    0.00 PKD
ROOT
HETATM    1  C   UNL     1     -12.102  16.063  72.014  1.00  0.00    -0.606 C  
HETATM    2  C   UNL     1     -12.460  15.709  70.580  1.00  0.00    -0.417 C  
ENDROOT
BRANCH   2   3
HETATM    3  O   UNL     1     -11.282  15.455  69.849  1.00  0.00    -0.253 OA 
BRANCH   3   4
HETATM    4  C   UNL     1     -11.194  15.476  68.495  1.00  0.00    -0.333 A  
HETATM    5  C   UNL     1     -10.539  16.625  67.932  1.00  0.00    -0.342 A  
HETATM    6  C   UNL     1     -10.607  16.850  66.531  1.00  0.00    -0.185 A  
HETATM    7  C   UNL     1     -12.162  13.507  65.621  1.00  0.00    -0.458 C  
HETATM    8  C   UNL     1     -11.251  15.897  65.691  1.00  0.00     0.003 A  
HETATM    9  O   UNL     1     -12.251  12.533  66.565  1.00  0.00    -0.569 OA 
HETATM   10  O   UNL     1     -12.465  13.396  64.452  1.00  0.00    -0.568 OA 
HETATM   11  N   UNL     1     -11.181  16.008  64.292  1.00  0.00    -1.049 NA 
HETATM   12  C   UNL     1     -11.828  12.996  67.871  1.00  0.00    -0.343 C  
HETATM   13  C   UNL     1     -11.673  14.708  66.294  1.00  0.00    -0.325 A  
HETATM   14  H2  UNL     1     -10.197  16.053  64.026  1.00  0.00     0.000 HD 
HETATM   15  H1  UNL     1     -11.642  15.325  63.690  1.00  0.00     0.000 HD 
HETATM   16  C   UNL     1     -11.592  14.462  67.652  1.00  0.00    -0.396 A  
BRANCH   5  17
HETATM   17  O   UNL     1      -9.729  17.477  68.694  1.00  0.00    -0.295 OA 
BRANCH  17  18
HETATM   18  C   UNL     1      -8.338  17.092  68.721  1.00  0.00    -0.237 C  
HETATM   19  C   UNL     1      -7.330  18.208  68.543  1.00  0.00    -0.285 C  
ENDBRANCH  17  18
ENDBRANCH   5  17
BRANCH   6  20
HETATM   20  O   UNL     1      -9.965  17.853  65.831  1.00  0.00    -0.533 OA 
BRANCH  20  21
HETATM   21  C   UNL     1     -10.632  19.113  65.734  1.00  0.00    -0.341 C  
HETATM   22  C   UNL     1      -9.854  20.136  66.566  1.00  0.00    -0.574 C  
ENDBRANCH  20  21
ENDBRANCH   6  20
BRANCH  12  23
HETATM   23  C   UNL     1     -10.587  12.148  68.404  1.00  0.00    -0.226 C  
HETATM   24  C   UNL     1      -9.820  10.585  66.652  1.00  0.00    -0.199 C  
HETATM   25  C   UNL     1      -8.878  12.799  66.640  1.00  0.00    -0.108 C  
HETATM   26  N   UNL     1      -9.499  11.768  67.448  1.00  0.00    -0.171 NA 
HETATM   27  C   UNL     1      -9.789   9.381  67.574  1.00  0.00    -0.220 C  
HETATM   28  C   UNL     1     -10.652   9.584  68.792  1.00  0.00    -0.240 A  
HETATM   29  C   UNL     1     -11.001   8.438  69.522  1.00  0.00    -0.051 A  
HETATM   30  C   UNL     1     -11.783   8.596  70.635  1.00  0.00    -0.155 A  
HETATM   31  C   UNL     1     -12.193   9.835  71.068  1.00  0.00    -0.347 A  
HETATM   32  O   UNL     1     -12.970   9.719  72.186  1.00  0.00    -0.407 OA 
HETATM   33  C   UNL     1     -11.824  11.005  70.406  1.00  0.00    -0.367 A  
HETATM   34  C   UNL     1     -11.046  10.892  69.220  1.00  0.00    -0.305 A  
HETATM   35  O   UNL     1     -12.235   7.576  71.414  1.00  0.00    -0.310 OA 
HETATM   36  C   UNL     1     -13.113   8.292  72.295  1.00  0.00    -0.237 C  
BRANCH  33  37
HETATM   37  O   UNL     1     -12.152  12.268  70.812  1.00  0.00    -0.340 OA 
HETATM   38  C   UNL     1     -13.316  12.430  71.618  1.00  0.00    -0.176 C  
ENDBRANCH  33  37
ENDBRANCH  12  23
ENDBRANCH   3   4
ENDBRANCH   2   3
TORSDOF 8
ENDMDL
MODEL        2
REMARK 921   NORMALIZED FREE ENERGY PREDICTED BY IDOCK:   -7.01 KCAL/MOL
REMARK 922        TOTAL FREE ENERGY PREDICTED BY IDOCK:  -11.07 KCAL/MOL
REMARK 923 INTER-LIGAND FREE ENERGY PREDICTED BY IDOCK:  -10.75 KCAL/MOL
REMARK 924 INTRA-LIGAND FREE ENERGY PREDICTED BY IDOCK:   -0.32 KCAL/MOL
REMARK 927      BINDING AFFINITY PREDICTED BY RF-SCORE:    0.00 PKD
ROOT
HETATM    1  C   UNL     1     -12.901  15.628  71.248  1.00  0.00    -0.550 C  
HETATM    2  C   UNL     1     -12.141  14.438  70.688  1.00  0.00    -0.334 C  
ENDROOT
BRANCH   2   3
HETATM    3  O   UNL     1     -11.091  14.894  69.863  1.00  0.00    -0.258 OA 
BRANCH   3   4
HETATM    4  C   UNL     1     -11.094  14.837  68.507  1.00  0.00    -0.264 A  
HETATM    5  C   UNL     1     -10.560  15.991  67.836  1.00  0.00    -0.301 A  
HETATM    6  C   UNL     1     -10.735  16.125  66.433  1.00  0.00    -0.211 A  
HETATM    7  C   UNL     1     -12.110  12.636  65.825  1.00  0.00    -0.423 C  
HETATM    8  C   UNL     1     -11.365  15.081  65.696  1.00  0.00    -0.297 A  
HETATM    9  O   UNL     1     -12.068  11.718  66.827  1.00  0.00    -0.547 OA 
HETATM   10  O   UNL     1     -12.480  12.435  64.688  1.00  0.00    -0.466 OA 
HETATM   11  N   UNL     1     -11.395  15.110  64.291  1.00  0.00    -0.673 NA 
HETATM   12  C   UNL     1     -11.594  12.288  68.071  1.00  0.00    -0.349 C  
HETATM   13  C   UNL     1     -11.662  13.906  66.393  1.00  0.00    -0.403 A  
HETATM   14  H2  UNL     1     -10.436  15.204  63.955  1.00  0.00     0.000 HD 
HETATM   15  H1  UNL     1     -11.845  14.363  63.763  1.00  0.00     0.000 HD 
HETATM   16  C   UNL     1     -11.475  13.750  67.753  1.00  0.00    -0.354 A  
BRANCH   5  17
HETATM   17  O   UNL     1      -9.762  16.939  68.490  1.00  0.00    -0.243 OA 
BRANCH  17  18
HETATM   18  C   UNL     1     -10.511  18.003  69.115  1.00  0.00     0.069 C  
HETATM   19  C   UNL     1      -9.774  19.310  69.321  1.00  0.00    -0.292 C  
ENDBRANCH  17  18
ENDBRANCH   5  17
BRANCH   6  20
HETATM   20  O   UNL     1     -10.212  17.123  65.634  1.00  0.00    -0.564 OA 
BRANCH  20  21
HETATM   21  C   UNL     1     -10.885  18.383  65.638  1.00  0.00     0.086 C  
HETATM   22  C   UNL     1      -9.843  19.486  65.840  1.00  0.00    -0.322 C  
ENDBRANCH  20  21
ENDBRANCH   6  20
BRANCH  12  23
HETATM   23  C   UNL     1     -10.264  11.558  68.563  1.00  0.00    -0.213 C  
HETATM   24  C   UNL     1      -9.215  10.356  66.677  1.00  0.00    -0.156 C  
HETATM   25  C   UNL     1      -8.602  12.662  66.990  1.00  0.00    -0.181 C  
HETATM   26  N   UNL     1      -9.097  11.458  67.629  1.00  0.00    -0.152 NA 
HETATM   27  C   UNL     1      -9.046   9.058  67.445  1.00  0.00    -0.146 C  
HETATM   28  C   UNL     1      -9.973   8.981  68.629  1.00  0.00    -0.187 A  
HETATM   29  C   UNL     1     -10.180   7.712  69.192  1.00  0.00    -0.204 A  
HETATM   30  C   UNL     1     -11.018   7.615  70.271  1.00  0.00    -0.252 A  
HETATM   31  C   UNL     1     -11.618   8.719  70.830  1.00  0.00    -0.251 A  
HETATM   32  O   UNL     1     -12.411   8.352  71.881  1.00  0.00    -0.311 OA 
HETATM   33  C   UNL     1     -11.397  10.005  70.338  1.00  0.00    -0.320 A  
HETATM   34  C   UNL     1     -10.567  10.155  69.193  1.00  0.00    -0.247 A  
HETATM   35  O   UNL     1     -11.347   6.450  70.892  1.00  0.00    -0.304 OA 
HETATM   36  C   UNL     1     -12.351   6.918  71.805  1.00  0.00    -0.361 C  
BRANCH  33  37
HETATM   37  O   UNL     1     -11.918  11.147  70.878  1.00  0.00    -0.331 OA 
HETATM   38  C   UNL     1     -13.077  11.030  71.700  1.00  0.00    -0.438 C  
ENDBRANCH  33  37
ENDBRANCH  12  23
ENDBRANCH   3   4
ENDBRANCH   2   3
TORSDOF 8
ENDMDL
MODEL        3
REMARK 921   NORMALIZED FREE ENERGY PREDICTED BY IDOCK:   -7.00 KCAL/MOL
REMARK 922        TOTAL FREE ENERGY PREDICTED BY IDOCK:  -11.06 KCAL/MOL
REMARK 923 INTER-LIGAND FREE ENERGY PREDICTED BY IDOCK:  -10.60 KCAL/MOL
REMARK 924 INTRA-LIGAND FREE ENERGY PREDICTED BY IDOCK:   -0.46 KCAL/MOL
REMARK 927      BINDING AFFINITY PREDICTED BY RF-SCORE:    0.00 PKD
ROOT
HETATM    1  C   UNL     1     -12.103  13.194  63.525  1.00  0.00    -0.585 C  
HETATM    2  C   UNL     1     -12.124  14.223  64.643  1.00  0.00    -0.463 C  
ENDROOT
BRANCH   2   3
HETATM    3  O   UNL     1     -11.069  13.963  65.543  1.00  0.00    -0.297 OA 
BRANCH   3   4
HETATM    4  C   UNL     1     -11.221  13.786  66.880  1.00  0.00    -0.313 A  
HETATM    5  C   UNL     1     -11.626  12.470  67.291  1.00  0.00    -0.367 A  
HETATM    6  C   UNL     1     -12.036  12.253  68.634  1.00  0.00    -0.227 A  
HETATM    7  C   UNL     1     -10.987  15.651  69.969  1.00  0.00    -0.327 C  
HETATM    8  C   UNL     1     -11.965  13.320  69.576  1.00  0.00    -0.307 A  
HETATM    9  O   UNL     1     -10.243  16.476  69.185  1.00  0.00    -0.263 OA 
HETATM   10  O   UNL     1     -11.300  15.855  71.123  1.00  0.00    -0.371 OA 
HETATM   11  N   UNL     1     -12.198  13.088  70.943  1.00  0.00    -0.456 NA 
HETATM   12  C   UNL     1     -10.066  15.948  67.848  1.00  0.00    -0.235 C  
HETATM   13  C   UNL     1     -11.362  14.505  69.144  1.00  0.00    -0.305 A  
HETATM   14  H2  UNL     1     -11.567  12.348  71.251  1.00  0.00     0.000 HD 
HETATM   15  H1  UNL     1     -12.147  13.851  71.617  1.00  0.00     0.000 HD 
HETATM   16  C   UNL     1     -10.935  14.723  67.848  1.00  0.00    -0.282 A  
BRANCH   5  17
HETATM   17  O   UNL     1     -11.519  11.354  66.451  1.00  0.00    -0.349 OA 
BRANCH  17  18
HETATM   18  C   UNL     1     -10.159  10.962  66.168  1.00  0.00    -0.239 C  
HETATM   19  C   UNL     1      -9.893  10.420  64.779  1.00  0.00    -0.406 C  
ENDBRANCH  17  18
ENDBRANCH   5  17
BRANCH   6  20
HETATM   20  O   UNL     1     -12.368  11.039  69.203  1.00  0.00    -0.451 OA 
BRANCH  20  21
HETATM   21  C   UNL     1     -11.294  10.215  69.660  1.00  0.00    -0.235 C  
HETATM   22  C   UNL     1     -11.689   9.612  71.010  1.00  0.00    -0.433 C  
ENDBRANCH  20  21
ENDBRANCH   6  20
BRANCH  12  23
HETATM   23  C   UNL     1      -8.521  15.722  67.522  1.00  0.00    -0.168 C  
HETATM   24  C   UNL     1      -7.334  14.964  69.552  1.00  0.00    -0.178 C  
HETATM   25  C   UNL     1      -8.336  13.271  68.166  1.00  0.00    -0.161 C  
HETATM   26  N   UNL     1      -7.785  14.612  68.207  1.00  0.00    -0.115 NA 
HETATM   27  C   UNL     1      -6.212  15.976  69.415  1.00  0.00    -0.159 C  
HETATM   28  C   UNL     1      -6.609  17.142  68.549  1.00  0.00    -0.167 A  
HETATM   29  C   UNL     1      -5.820  18.299  68.641  1.00  0.00    -0.195 A  
HETATM   30  C   UNL     1      -6.159  19.374  67.862  1.00  0.00    -0.209 A  
HETATM   31  C   UNL     1      -7.211  19.330  66.978  1.00  0.00    -0.208 A  
HETATM   32  O   UNL     1      -7.347  20.528  66.335  1.00  0.00    -0.249 OA 
HETATM   33  C   UNL     1      -7.988  18.183  66.813  1.00  0.00    -0.240 A  
HETATM   34  C   UNL     1      -7.702  17.054  67.630  1.00  0.00    -0.183 A  
HETATM   35  O   UNL     1      -5.516  20.573  67.875  1.00  0.00    -0.193 OA 
HETATM   36  C   UNL     1      -6.378  21.339  67.022  1.00  0.00    -0.336 C  
BRANCH  33  37
HETATM   37  O   UNL     1      -9.011  18.055  65.917  1.00  0.00    -0.506 OA 
HETATM   38  C   UNL     1     -10.194  18.819  66.141  1.00  0.00    -0.421 C  
ENDBRANCH  33  37
ENDBRANCH  12  23
ENDBRANCH   3   4
ENDBRANCH   2   3
TORSDOF 8
ENDMDL
MODEL        4
REMARK 921   NORMALIZED FREE ENERGY PREDICTED BY IDOCK:   -6.83 KCAL/MOL
REMARK 922        TOTAL FREE ENERGY PREDICTED BY IDOCK:  -10.81 KCAL/MOL
REMARK 923 INTER-LIGAND FREE ENERGY PREDICTED BY IDOCK:   -9.74 KCAL/MOL
REMARK 924 INTRA-LIGAND FREE ENERGY PREDICTED BY IDOCK:   -1.07 KCAL/MOL
REMARK 927      BINDING AFFINITY PREDICTED BY RF-SCORE:    0.00 PKD
ROOT
HETATM    1  C   UNL     1     -12.330  12.215  63.511  1.00  0.00    -0.682 C  
HETATM    2  C   UNL     1     -10.951  11.646  63.220  1.00  0.00    -0.279 C  
ENDROOT
BRANCH   2   3
HETATM    3  O   UNL     1     -10.107  11.865  64.328  1.00  0.00    -0.278 OA 
BRANCH   3   4
HETATM    4  C   UNL     1     -10.319  11.365  65.572  1.00  0.00    -0.266 A  
HETATM    5  C   UNL     1      -9.933   9.994  65.764  1.00  0.00    -0.276 A  
HETATM    6  C   UNL     1     -10.330   9.318  66.949  1.00  0.00    -0.246 A  
HETATM    7  C   UNL     1     -11.669  12.370  68.772  1.00  0.00    -0.332 C  
HETATM    8  C   UNL     1     -11.033  10.026  67.967  1.00  0.00    -0.240 A  
HETATM    9  O   UNL     1     -11.442  13.607  68.258  1.00  0.00    -0.274 OA 
HETATM   10  O   UNL     1     -12.205  12.125  69.832  1.00  0.00    -0.251 OA 
HETATM   11  N   UNL     1     -11.282   9.430  69.215  1.00  0.00    -0.442 NA 
HETATM   12  C   UNL     1     -10.798  13.552  66.962  1.00  0.00    -0.282 C  
HETATM   13  C   UNL     1     -11.179  11.405  67.790  1.00  0.00    -0.346 A  
HETATM   14  H2  UNL     1     -10.391   9.119  69.602  1.00  0.00     0.000 HD 
HETATM   15  H1  UNL     1     -11.785   9.937  69.944  1.00  0.00     0.000 HD 
HETATM   16  C   UNL     1     -10.778  12.083  66.654  1.00  0.00    -0.280 A  
BRANCH   5  17
HETATM   17  O   UNL     1      -9.075   9.323  64.884  1.00  0.00    -0.218 OA 
BRANCH  17  18
HETATM   18  C   UNL     1      -7.676   9.603  65.103  1.00  0.00    -0.117 C  
HETATM   19  C   UNL     1      -6.884  10.050  63.893  1.00  0.00    -0.126 C  
ENDBRANCH  17  18
ENDBRANCH   5  17
BRANCH   6  20
HETATM   20  O   UNL     1      -9.970   8.037  67.321  1.00  0.00    -0.175 OA 
BRANCH  20  21
HETATM   21  C   UNL     1     -10.805   6.968  66.872  1.00  0.00    -0.280 C  
HETATM   22  C   UNL     1     -10.896   5.926  67.989  1.00  0.00    -0.321 C  
ENDBRANCH  20  21
ENDBRANCH   6  20
BRANCH  12  23
HETATM   23  C   UNL     1      -9.385  14.290  66.993  1.00  0.00    -0.241 C  
HETATM   24  C   UNL     1      -8.627  14.561  69.329  1.00  0.00     0.109 C  
HETATM   25  C   UNL     1      -8.038  12.513  68.211  1.00  0.00    -0.165 C  
HETATM   26  N   UNL     1      -8.386  13.911  68.043  1.00  0.00    -0.154 NA 
HETATM   27  C   UNL     1      -8.297  16.034  69.174  1.00  0.00    -0.244 C  
HETATM   28  C   UNL     1      -9.014  16.651  68.002  1.00  0.00    -0.211 A  
HETATM   29  C   UNL     1      -9.088  18.052  67.969  1.00  0.00    -0.274 A  
HETATM   30  C   UNL     1      -9.734  18.638  66.913  1.00  0.00    -0.314 A  
HETATM   31  C   UNL     1     -10.264  17.899  65.882  1.00  0.00    -0.224 A  
HETATM   32  O   UNL     1     -10.862  18.716  64.964  1.00  0.00    -0.546 OA 
HETATM   33  C   UNL     1     -10.164  16.508  65.845  1.00  0.00    -0.349 A  
HETATM   34  C   UNL     1      -9.540  15.849  66.940  1.00  0.00    -0.242 A  
HETATM   35  O   UNL     1      -9.922  19.978  66.767  1.00  0.00    -0.396 OA 
HETATM   36  C   UNL     1     -10.774  19.996  65.613  1.00  0.00    -0.216 C  
BRANCH  33  37
HETATM   37  O   UNL     1     -10.621  15.719  64.827  1.00  0.00    -0.504 OA 
HETATM   38  C   UNL     1     -12.014  15.759  64.525  1.00  0.00    -0.060 C  
ENDBRANCH  33  37
ENDBRANCH  12  23
ENDBRANCH   3   4
ENDBRANCH   2   3
TORSDOF 8
ENDMDL
MODEL        5
REMARK 921   NORMALIZED FREE ENERGY PREDICTED BY IDOCK:   -6.69 KCAL/MOL
REMARK 922        TOTAL FREE ENERGY PREDICTED BY IDOCK:  -10.60 KCAL/MOL
REMARK 923 INTER-LIGAND FREE ENERGY PREDICTED BY IDOCK:   -9.46 KCAL/MOL
REMARK 924 INTRA-LIGAND FREE ENERGY PREDICTED BY IDOCK:   -1.14 KCAL/MOL
REMARK 927      BINDING AFFINITY PREDICTED BY RF-SCORE:    0.00 PKD
ROOT
HETATM    1  C   UNL     1     -12.964  13.777  71.623  1.00  0.00    -0.448 C  
HETATM    2  C   UNL     1     -12.684  14.399  70.264  1.00  0.00    -0.263 C  
ENDROOT
BRANCH   2   3
HETATM    3  O   UNL     1     -11.412  13.991  69.811  1.00  0.00    -0.258 OA 
BRANCH   3   4
HETATM    4  C   UNL     1     -11.044  13.917  68.507  1.00  0.00    -0.265 A  
HETATM    5  C   UNL     1     -10.577  15.143  67.922  1.00  0.00    -0.257 A  
HETATM    6  C   UNL     1     -10.396  15.220  66.515  1.00  0.00    -0.286 A  
HETATM    7  C   UNL     1     -10.879  11.520  65.805  1.00  0.00    -0.262 C  
HETATM    8  C   UNL     1     -10.600  14.062  65.711  1.00  0.00    -0.299 A  
HETATM    9  O   UNL     1     -10.934  10.642  66.842  1.00  0.00    -0.243 OA 
HETATM   10  O   UNL     1     -10.890  11.233  64.627  1.00  0.00    -0.317 OA 
HETATM   11  N   UNL     1     -10.260  14.064  64.347  1.00  0.00    -0.711 NA 
HETATM   12  C   UNL     1     -10.923  11.312  68.127  1.00  0.00    -0.231 C  
HETATM   13  C   UNL     1     -10.845  12.861  66.384  1.00  0.00    -0.293 A  
HETATM   14  H2  UNL     1      -9.282  14.341  64.264  1.00  0.00     0.000 HD 
HETATM   15  H1  UNL     1     -10.406  13.235  63.771  1.00  0.00     0.000 HD 
HETATM   16  C   UNL     1     -11.001  12.764  67.754  1.00  0.00    -0.266 A  
BRANCH   5  17
HETATM   17  O   UNL     1     -10.175  16.240  68.695  1.00  0.00    -0.232 OA 
BRANCH  17  18
HETATM   18  C   UNL     1      -8.813  16.156  69.166  1.00  0.00    -0.239 C  
HETATM   19  C   UNL     1      -7.892  17.288  68.761  1.00  0.00    -0.254 C  
ENDBRANCH  17  18
ENDBRANCH   5  17
BRANCH   6  20
HETATM   20  O   UNL     1      -9.876  16.290  65.813  1.00  0.00    -0.380 OA 
BRANCH  20  21
HETATM   21  C   UNL     1     -10.783  17.330  65.442  1.00  0.00    -0.066 C  
HETATM   22  C   UNL     1     -10.353  18.619  66.148  1.00  0.00    -0.481 C  
ENDBRANCH  20  21
ENDBRANCH   6  20
BRANCH  12  23
HETATM   23  C   UNL     1      -9.659  10.868  68.992  1.00  0.00    -0.156 C  
HETATM   24  C   UNL     1      -8.040   9.668  67.564  1.00  0.00    -0.114 C  
HETATM   25  C   UNL     1      -7.841  12.063  67.679  1.00  0.00    -0.149 C  
HETATM   26  N   UNL     1      -8.303  10.867  68.356  1.00  0.00    -0.129 NA 
HETATM   27  C   UNL     1      -7.880   8.502  68.523  1.00  0.00    -0.108 C  
HETATM   28  C   UNL     1      -9.040   8.396  69.476  1.00  0.00    -0.153 A  
HETATM   29  C   UNL     1      -9.198   7.176  70.152  1.00  0.00    -0.155 A  
HETATM   30  C   UNL     1     -10.245   7.054  71.026  1.00  0.00    -0.196 A  
HETATM   31  C   UNL     1     -11.105   8.095  71.283  1.00  0.00    -0.248 A  
HETATM   32  O   UNL     1     -12.065   7.713  72.178  1.00  0.00    -0.297 OA 
HETATM   33  C   UNL     1     -10.954   9.342  70.678  1.00  0.00    -0.290 A  
HETATM   34  C   UNL     1      -9.906   9.507  69.729  1.00  0.00    -0.236 A  
HETATM   35  O   UNL     1     -10.547   5.922  71.718  1.00  0.00    -0.219 OA 
HETATM   36  C   UNL     1     -11.792   6.309  72.317  1.00  0.00    -0.278 C  
BRANCH  33  37
HETATM   37  O   UNL     1     -11.739  10.432  70.927  1.00  0.00    -0.335 OA 
HETATM   38  C   UNL     1     -13.153  10.271  70.841  1.00  0.00    -0.344 C  
ENDBRANCH  33  37
ENDBRANCH  12  23
ENDBRANCH   3   4
ENDBRANCH   2   3
TORSDOF 8
ENDMDL
MODEL        6
REMARK 921   NORMALIZED FREE ENERGY PREDICTED BY IDOCK:   -6.63 KCAL/MOL
REMARK 922        TOTAL FREE ENERGY PREDICTED BY IDOCK:  -10.52 KCAL/MOL
REMARK 923 INTER-LIGAND FREE ENERGY PREDICTED BY IDOCK:  -10.29 KCAL/MOL
REMARK 924 INTRA-LIGAND FREE ENERGY PREDICTED BY IDOCK:   -0.23 KCAL/MOL
REMARK 927      BINDING AFFINITY PREDICTED BY RF-SCORE:    0.00 PKD
ROOT
HETATM    1  C   UNL     1     -13.016  12.410  71.819  1.00  0.00    -0.422 C  
HETATM    2  C   UNL     1     -13.192  10.901  71.778  1.00  0.00    -0.408 C  
ENDROOT
BRANCH   2   3
HETATM    3  O   UNL     1     -12.364  10.357  70.774  1.00  0.00    -0.311 OA 
BRANCH   3   4
HETATM    4  C   UNL     1     -11.182   9.731  71.002  1.00  0.00    -0.381 A  
HETATM    5  C   UNL     1     -11.205   8.707  72.011  1.00  0.00    -0.364 A  
HETATM    6  C   UNL     1      -9.980   8.165  72.483  1.00  0.00    -0.302 A  
HETATM    7  C   UNL     1      -7.741   9.810  69.893  1.00  0.00    -0.157 C  
HETATM    8  C   UNL     1      -8.750   8.581  71.898  1.00  0.00    -0.203 A  
HETATM    9  O   UNL     1      -8.304  10.447  68.832  1.00  0.00    -0.120 OA 
HETATM   10  O   UNL     1      -6.555   9.633  70.071  1.00  0.00    -0.055 OA 
HETATM   11  N   UNL     1      -7.544   7.936  72.224  1.00  0.00    -0.091 NA 
HETATM   12  C   UNL     1      -9.748  10.506  68.932  1.00  0.00    -0.199 C  
HETATM   13  C   UNL     1      -8.833   9.419  70.782  1.00  0.00    -0.233 A  
HETATM   14  H2  UNL     1      -7.659   6.939  72.047  1.00  0.00     0.000 HD 
HETATM   15  H1  UNL     1      -6.663   8.234  71.805  1.00  0.00     0.000 HD 
HETATM   16  C   UNL     1     -10.018   9.937  70.295  1.00  0.00    -0.261 A  
BRANCH   5  17
HETATM   17  O   UNL     1     -12.397   8.128  72.468  1.00  0.00    -0.323 OA 
BRANCH  17  18
HETATM   18  C   UNL     1     -13.028   7.254  71.509  1.00  0.00    -0.389 C  
HETATM   19  C   UNL     1     -12.135   6.696  70.420  1.00  0.00    -0.251 C  
ENDBRANCH  17  18
ENDBRANCH   5  17
BRANCH   6  20
HETATM   20  O   UNL     1      -9.837   7.123  73.379  1.00  0.00    -0.204 OA 
BRANCH  20  21
HETATM   21  C   UNL     1      -9.781   5.801  72.841  1.00  0.00    -0.155 C  
HETATM   22  C   UNL     1     -10.837   4.948  73.547  1.00  0.00    -0.370 C  
ENDBRANCH  20  21
ENDBRANCH   6  20
BRANCH  12  23
HETATM   23  C   UNL     1     -10.438   9.761  67.702  1.00  0.00    -0.251 C  
HETATM   24  C   UNL     1      -8.709   8.792  66.228  1.00  0.00    -0.147 C  
HETATM   25  C   UNL     1      -9.478   7.436  68.060  1.00  0.00    -0.141 C  
HETATM   26  N   UNL     1      -9.805   8.519  67.154  1.00  0.00    -0.186 NA 
HETATM   27  C   UNL     1      -9.305   9.364  64.956  1.00  0.00    -0.258 C  
HETATM   28  C   UNL     1     -10.210  10.535  65.236  1.00  0.00    -0.352 A  
HETATM   29  C   UNL     1     -10.524  11.370  64.153  1.00  0.00    -0.421 A  
HETATM   30  C   UNL     1     -11.346  12.441  64.382  1.00  0.00    -0.340 A  
HETATM   31  C   UNL     1     -11.894  12.688  65.618  1.00  0.00    -0.437 A  
HETATM   32  O   UNL     1     -12.663  13.817  65.585  1.00  0.00    -0.509 OA 
HETATM   33  C   UNL     1     -11.655  11.854  66.710  1.00  0.00    -0.268 A  
HETATM   34  C   UNL     1     -10.773  10.751  66.534  1.00  0.00    -0.245 A  
HETATM   35  O   UNL     1     -11.702  13.358  63.442  1.00  0.00    -0.361 OA 
HETATM   36  C   UNL     1     -12.404  14.307  64.258  1.00  0.00    -0.377 C  
BRANCH  33  37
HETATM   37  O   UNL     1     -12.208  12.012  67.949  1.00  0.00    -0.470 OA 
HETATM   38  C   UNL     1     -11.897  13.199  68.674  1.00  0.00    -0.328 C  
ENDBRANCH  33  37
ENDBRANCH  12  23
ENDBRANCH   3   4
ENDBRANCH   2   3
TORSDOF 8
ENDMDL
MODEL        7
REMARK 921   NORMALIZED FREE ENERGY PREDICTED BY IDOCK:   -6.59 KCAL/MOL
REMARK 922        TOTAL FREE ENERGY PREDICTED BY IDOCK:  -10.45 KCAL/MOL
REMARK 923 INTER-LIGAND FREE ENERGY PREDICTED BY IDOCK:   -9.42 KCAL/MOL
REMARK 924 INTRA-LIGAND FREE ENERGY PREDICTED BY IDOCK:   -1.03 KCAL/MOL
REMARK 927      BINDING AFFINITY PREDICTED BY RF-SCORE:    0.00 PKD
ROOT
HETATM    1  C   UNL     1     -13.251   9.950  72.195  1.00  0.00    -0.511 C  
HETATM    2  C   UNL     1     -13.154  10.410  70.749  1.00  0.00    -0.286 C  
ENDROOT
BRANCH   2   3
HETATM    3  O   UNL     1     -12.073  11.305  70.611  1.00  0.00    -0.355 OA 
BRANCH   3   4
HETATM    4  C   UNL     1     -11.840  12.070  69.514  1.00  0.00    -0.326 A  
HETATM    5  C   UNL     1     -11.891  13.491  69.725  1.00  0.00    -0.329 A  
HETATM    6  C   UNL     1     -11.894  14.362  68.604  1.00  0.00    -0.331 A  
HETATM    7  C   UNL     1     -11.135  11.717  65.985  1.00  0.00    -0.312 C  
HETATM    8  C   UNL     1     -11.766  13.826  67.290  1.00  0.00    -0.382 A  
HETATM    9  O   UNL     1     -10.774  10.468  66.383  1.00  0.00    -0.191 OA 
HETATM   10  O   UNL     1     -11.168  12.120  64.842  1.00  0.00    -0.309 OA 
HETATM   11  N   UNL     1     -11.592  14.673  66.182  1.00  0.00    -0.355 NA 
HETATM   12  C   UNL     1     -10.863  10.305  67.819  1.00  0.00    -0.292 C  
HETATM   13  C   UNL     1     -11.508  12.456  67.190  1.00  0.00    -0.423 A  
HETATM   14  H2  UNL     1     -10.785  15.270  66.362  1.00  0.00     0.000 HD 
HETATM   15  H1  UNL     1     -11.500  14.289  65.241  1.00  0.00     0.000 HD 
HETATM   16  C   UNL     1     -11.478  11.597  68.272  1.00  0.00    -0.369 A  
BRANCH   5  17
HETATM   17  O   UNL     1     -11.815  14.065  71.001  1.00  0.00    -0.283 OA 
BRANCH  17  18
HETATM   18  C   UNL     1     -13.073  14.578  71.487  1.00  0.00    -0.343 C  
HETATM   19  C   UNL     1     -13.911  13.626  72.315  1.00  0.00    -0.689 C  
ENDBRANCH  17  18
ENDBRANCH   5  17
BRANCH   6  20
HETATM   20  O   UNL     1     -11.854  15.743  68.639  1.00  0.00    -0.385 OA 
BRANCH  20  21
HETATM   21  C   UNL     1     -10.630  16.350  69.058  1.00  0.00    -0.308 C  
HETATM   22  C   UNL     1     -10.406  17.612  68.221  1.00  0.00    -0.384 C  
ENDBRANCH  20  21
ENDBRANCH   6  20
BRANCH  12  23
HETATM   23  C   UNL     1      -9.441   9.938  68.442  1.00  0.00    -0.137 C  
HETATM   24  C   UNL     1      -7.654  10.430  66.807  1.00  0.00    -0.110 C  
HETATM   25  C   UNL     1      -8.334  12.219  68.266  1.00  0.00    -0.174 C  
HETATM   26  N   UNL     1      -8.252  10.781  68.093  1.00  0.00    -0.115 NA 
HETATM   27  C   UNL     1      -6.980   9.079  66.962  1.00  0.00    -0.078 C  
HETATM   28  C   UNL     1      -7.914   8.047  67.535  1.00  0.00    -0.122 A  
HETATM   29  C   UNL     1      -7.543   6.702  67.387  1.00  0.00    -0.104 A  
HETATM   30  C   UNL     1      -8.375   5.743  67.901  1.00  0.00    -0.104 A  
HETATM   31  C   UNL     1      -9.524   6.065  68.583  1.00  0.00    -0.124 A  
HETATM   32  O   UNL     1     -10.179   4.933  68.980  1.00  0.00    -0.179 OA 
HETATM   33  C   UNL     1      -9.904   7.389  68.804  1.00  0.00    -0.164 A  
HETATM   34  C   UNL     1      -9.094   8.421  68.253  1.00  0.00    -0.139 A  
HETATM   35  O   UNL     1      -8.169   4.402  67.796  1.00  0.00    -0.097 OA 
HETATM   36  C   UNL     1      -9.399   3.907  68.344  1.00  0.00    -0.163 C  
BRANCH  33  37
HETATM   37  O   UNL     1     -11.002   7.778  69.517  1.00  0.00    -0.198 OA 
HETATM   38  C   UNL     1     -10.921   7.747  70.940  1.00  0.00    -0.250 C  
ENDBRANCH  33  37
ENDBRANCH  12  23
ENDBRANCH   3   4
ENDBRANCH   2   3
TORSDOF 8
ENDMDL
MODEL        8
REMARK 921   NORMALIZED FREE ENERGY PREDICTED BY IDOCK:   -6.52 KCAL/MOL
REMARK 922        TOTAL FREE ENERGY PREDICTED BY IDOCK:  -10.35 KCAL/MOL
REMARK 923 INTER-LIGAND FREE ENERGY PREDICTED BY IDOCK:   -9.29 KCAL/MOL
REMARK 924 INTRA-LIGAND FREE ENERGY PREDICTED BY IDOCK:   -1.05 KCAL/MOL
REMARK 927      BINDING AFFINITY PREDICTED BY RF-SCORE:    0.00 PKD
ROOT
HETATM    1  C   UNL     1     -13.509  11.166  71.847  1.00  0.00    -0.284 C  
HETATM    2  C   UNL     1     -12.604  10.651  70.740  1.00  0.00    -0.386 C  
ENDROOT
BRANCH   2   3
HETATM    3  O   UNL     1     -11.305  10.445  71.248  1.00  0.00    -0.202 OA 
BRANCH   3   4
HETATM    4  C   UNL     1     -10.476   9.442  70.864  1.00  0.00    -0.310 A  
HETATM    5  C   UNL     1     -10.728   8.161  71.466  1.00  0.00    -0.233 A  
HETATM    6  C   UNL     1      -9.777   7.118  71.310  1.00  0.00    -0.170 A  
HETATM    7  C   UNL     1      -7.613   8.874  68.729  1.00  0.00    -0.091 C  
HETATM    8  C   UNL     1      -8.627   7.324  70.494  1.00  0.00    -0.143 A  
HETATM    9  O   UNL     1      -8.053  10.030  68.164  1.00  0.00    -0.106 OA 
HETATM   10  O   UNL     1      -6.601   8.275  68.432  1.00  0.00    -0.057 OA 
HETATM   11  N   UNL     1      -7.766   6.257  70.183  1.00  0.00    -0.096 NA 
HETATM   12  C   UNL     1      -9.288  10.495  68.762  1.00  0.00    -0.180 C  
HETATM   13  C   UNL     1      -8.569   8.522  69.777  1.00  0.00    -0.131 A  
HETATM   14  H2  UNL     1      -8.322   5.511  69.767  1.00  0.00     0.000 HD 
HETATM   15  H1  UNL     1      -6.943   6.405  69.599  1.00  0.00     0.000 HD 
HETATM   16  C   UNL     1      -9.498   9.539  69.899  1.00  0.00    -0.247 A  
BRANCH   5  17
HETATM   17  O   UNL     1     -11.936   7.856  72.106  1.00  0.00    -0.303 OA 
BRANCH  17  18
HETATM   18  C   UNL     1     -12.858   7.105  71.288  1.00  0.00    -0.349 C  
HETATM   19  C   UNL     1     -14.330   7.392  71.501  1.00  0.00    -0.594 C  
ENDBRANCH  17  18
ENDBRANCH   5  17
BRANCH   6  20
HETATM   20  O   UNL     1      -9.911   5.815  71.750  1.00  0.00    -0.164 OA 
BRANCH  20  21
HETATM   21  C   UNL     1      -9.686   5.569  73.140  1.00  0.00    -0.150 C  
HETATM   22  C   UNL     1     -10.935   4.898  73.719  1.00  0.00    -0.361 C  
ENDBRANCH  20  21
ENDBRANCH   6  20
BRANCH  12  23
HETATM   23  C   UNL     1     -10.454  10.575  67.676  1.00  0.00    -0.234 C  
HETATM   24  C   UNL     1      -9.726   9.494  65.577  1.00  0.00    -0.273 C  
HETATM   25  C   UNL     1     -10.756   8.091  67.238  1.00  0.00    -0.210 C  
HETATM   26  N   UNL     1     -10.638   9.439  66.718  1.00  0.00    -0.187 NA 
HETATM   27  C   UNL     1     -10.155  10.652  64.695  1.00  0.00    -0.417 C  
HETATM   28  C   UNL     1     -10.283  11.935  65.474  1.00  0.00    -0.290 A  
HETATM   29  C   UNL     1     -10.308  13.127  64.734  1.00  0.00    -0.369 A  
HETATM   30  C   UNL     1     -10.425  14.308  65.418  1.00  0.00    -0.365 A  
HETATM   31  C   UNL     1     -10.557  14.347  66.786  1.00  0.00    -0.282 A  
HETATM   32  O   UNL     1     -10.643  15.640  67.222  1.00  0.00    -0.294 OA 
HETATM   33  C   UNL     1     -10.593  13.185  67.557  1.00  0.00    -0.235 A  
HETATM   34  C   UNL     1     -10.433  11.935  66.897  1.00  0.00    -0.253 A  
HETATM   35  O   UNL     1     -10.420  15.540  64.842  1.00  0.00    -0.397 OA 
HETATM   36  C   UNL     1     -10.398  16.373  66.010  1.00  0.00    -0.352 C  
BRANCH  33  37
HETATM   37  O   UNL     1     -10.774  13.151  68.910  1.00  0.00    -0.233 OA 
HETATM   38  C   UNL     1     -11.924  13.799  69.448  1.00  0.00    -0.347 C  
ENDBRANCH  33  37
ENDBRANCH  12  23
ENDBRANCH   3   4
ENDBRANCH   2   3
TORSDOF 8
ENDMDL
MODEL        9
REMARK 921   NORMALIZED FREE ENERGY PREDICTED BY IDOCK:   -6.38 KCAL/MOL
REMARK 922        TOTAL FREE ENERGY PREDICTED BY IDOCK:  -10.14 KCAL/MOL
REMARK 923 INTER-LIGAND FREE ENERGY PREDICTED BY IDOCK:   -9.22 KCAL/MOL
REMARK 924 INTRA-LIGAND FREE ENERGY PREDICTED BY IDOCK:   -0.93 KCAL/MOL
REMARK 927      BINDING AFFINITY PREDICTED BY RF-SCORE:    0.00 PKD
ROOT
HETATM    1  C   UNL     1     -13.126  10.955  71.588  1.00  0.00    -0.538 C  
HETATM    2  C   UNL     1     -12.241  10.471  70.450  1.00  0.00    -0.328 C  
ENDROOT
BRANCH   2   3
HETATM    3  O   UNL     1     -10.919  10.315  70.914  1.00  0.00    -0.281 OA 
BRANCH   3   4
HETATM    4  C   UNL     1     -10.003   9.475  70.369  1.00  0.00    -0.267 A  
HETATM    5  C   UNL     1     -10.063   8.112  70.821  1.00  0.00    -0.189 A  
HETATM    6  C   UNL     1      -9.007   7.221  70.490  1.00  0.00    -0.154 A  
HETATM    7  C   UNL     1      -7.237   9.521  68.041  1.00  0.00    -0.081 C  
HETATM    8  C   UNL     1      -7.945   7.662  69.650  1.00  0.00    -0.124 A  
HETATM    9  O   UNL     1      -7.846  10.670  67.645  1.00  0.00    -0.104 OA 
HETATM   10  O   UNL     1      -6.182   9.092  67.623  1.00  0.00    -0.057 OA 
HETATM   11  N   UNL     1      -6.985   6.755  69.168  1.00  0.00    -0.075 NA 
HETATM   12  C   UNL     1      -9.086  10.906  68.356  1.00  0.00    -0.164 C  
HETATM   13  C   UNL     1      -8.075   8.934  69.084  1.00  0.00    -0.117 A  
HETATM   14  H2  UNL     1      -7.475   5.998  68.691  1.00  0.00     0.000 HD 
HETATM   15  H1  UNL     1      -6.224   7.071  68.566  1.00  0.00     0.000 HD 
HETATM   16  C   UNL     1      -9.108   9.805  69.376  1.00  0.00    -0.209 A  
BRANCH   5  17
HETATM   17  O   UNL     1     -11.183   7.586  71.477  1.00  0.00    -0.239 OA 
BRANCH  17  18
HETATM   18  C   UNL     1     -11.197   7.831  72.900  1.00  0.00    -0.376 C  
HETATM   19  C   UNL     1     -10.578   6.758  73.771  1.00  0.00    -0.323 C  
ENDBRANCH  17  18
ENDBRANCH   5  17
BRANCH   6  20
HETATM   20  O   UNL     1      -8.958   5.869  70.773  1.00  0.00    -0.145 OA 
BRANCH  20  21
HETATM   21  C   UNL     1      -9.819   5.012  70.021  1.00  0.00    -0.228 C  
HETATM   22  C   UNL     1      -9.709   3.597  70.593  1.00  0.00    -0.215 C  
ENDBRANCH  20  21
ENDBRANCH   6  20
BRANCH  12  23
HETATM   23  C   UNL     1     -10.320  10.964  67.348  1.00  0.00    -0.211 C  
HETATM   24  C   UNL     1      -9.685   9.968  65.178  1.00  0.00    -0.311 C  
HETATM   25  C   UNL     1     -10.551   8.482  66.860  1.00  0.00    -0.209 C  
HETATM   26  N   UNL     1     -10.519   9.846  66.371  1.00  0.00    -0.172 NA 
HETATM   27  C   UNL     1     -10.215  11.129  64.357  1.00  0.00    -0.390 C  
HETATM   28  C   UNL     1     -10.343  12.385  65.177  1.00  0.00    -0.313 A  
HETATM   29  C   UNL     1     -10.463  13.593  64.474  1.00  0.00    -0.411 A  
HETATM   30  C   UNL     1     -10.583  14.751  65.197  1.00  0.00    -0.417 A  
HETATM   31  C   UNL     1     -10.630  14.750  66.571  1.00  0.00    -0.299 A  
HETATM   32  O   UNL     1     -10.739  16.026  67.047  1.00  0.00    -0.319 OA 
HETATM   33  C   UNL     1     -10.571  13.568  67.309  1.00  0.00    -0.263 A  
HETATM   34  C   UNL     1     -10.403  12.343  66.607  1.00  0.00    -0.245 A  
HETATM   35  O   UNL     1     -10.664  15.996  64.655  1.00  0.00    -0.601 OA 
HETATM   36  C   UNL     1     -10.602  16.800  65.843  1.00  0.00    -0.248 C  
BRANCH  33  37
HETATM   37  O   UNL     1     -10.664  13.493  68.670  1.00  0.00    -0.245 OA 
HETATM   38  C   UNL     1     -11.922  13.789  69.272  1.00  0.00    -0.352 C  
ENDBRANCH  33  37
ENDBRANCH  12  23
ENDBRANCH   3   4
ENDBRANCH   2   3
TORSDOF 8
ENDMDL
MODEL       10
REMARK 921   NORMALIZED FREE ENERGY PREDICTED BY IDOCK:   -6.24 KCAL/MOL
REMARK 922        TOTAL FREE ENERGY PREDICTED BY IDOCK:   -9.94 KCAL/MOL
REMARK 923 INTER-LIGAND FREE ENERGY PREDICTED BY IDOCK:   -8.71 KCAL/MOL
REMARK 924 INTRA-LIGAND FREE ENERGY PREDICTED BY IDOCK:   -1.23 KCAL/MOL
REMARK 927      BINDING AFFINITY PREDICTED BY RF-SCORE:    0.00 PKD
ROOT
HETATM    1  C   UNL     1      -5.663   9.603  70.724  1.00  0.00    -0.066 C  
HETATM    2  C   UNL     1      -6.518  10.713  70.134  1.00  0.00    -0.152 C  
ENDROOT
BRANCH   2   3
HETATM    3  O   UNL     1      -7.882  10.411  70.325  1.00  0.00    -0.104 OA 
BRANCH   3   4
HETATM    4  C   UNL     1      -8.674   9.801  69.408  1.00  0.00    -0.174 A  
HETATM    5  C   UNL     1      -9.383   8.639  69.872  1.00  0.00    -0.159 A  
HETATM    6  C   UNL     1     -10.045   7.804  68.933  1.00  0.00    -0.195 A  
HETATM    7  C   UNL     1      -9.631  10.098  65.933  1.00  0.00    -0.218 C  
HETATM    8  C   UNL     1     -10.068   8.167  67.556  1.00  0.00    -0.224 A  
HETATM    9  O   UNL     1      -9.172  11.364  66.119  1.00  0.00    -0.200 OA 
HETATM   10  O   UNL     1     -10.013   9.625  64.884  1.00  0.00    -0.173 OA 
HETATM   11  N   UNL     1     -10.859   7.455  66.637  1.00  0.00    -0.416 NA 
HETATM   12  C   UNL     1      -8.775  11.606  67.491  1.00  0.00    -0.156 C  
HETATM   13  C   UNL     1      -9.538   9.418  67.223  1.00  0.00    -0.194 A  
HETATM   14  H2  UNL     1     -11.818   7.451  66.982  1.00  0.00     0.000 HD 
HETATM   15  H1  UNL     1     -10.875   7.716  65.651  1.00  0.00     0.000 HD 
HETATM   16  C   UNL     1      -8.912  10.254  68.129  1.00  0.00    -0.130 A  
BRANCH   5  17
HETATM   17  O   UNL     1      -9.553   8.357  71.234  1.00  0.00    -0.160 OA 
BRANCH  17  18
HETATM   18  C   UNL     1     -10.729   8.961  71.814  1.00  0.00    -0.362 C  
HETATM   19  C   UNL     1     -11.729   8.014  72.443  1.00  0.00    -0.444 C  
ENDBRANCH  17  18
ENDBRANCH   5  17
BRANCH   6  20
HETATM   20  O   UNL     1     -10.834   6.709  69.225  1.00  0.00    -0.243 OA 
BRANCH  20  21
HETATM   21  C   UNL     1     -10.181   5.442  69.330  1.00  0.00    -0.264 C  
HETATM   22  C   UNL     1     -10.220   5.000  70.795  1.00  0.00    -0.299 C  
ENDBRANCH  20  21
ENDBRANCH   6  20
BRANCH  12  23
HETATM   23  C   UNL     1      -9.634  12.785  68.135  1.00  0.00    -0.223 C  
HETATM   24  C   UNL     1     -11.839  12.921  67.031  1.00  0.00    -0.374 C  
HETATM   25  C   UNL     1     -11.640  11.434  68.912  1.00  0.00    -0.323 C  
HETATM   26  N   UNL     1     -11.117  12.621  68.265  1.00  0.00    -0.244 NA 
HETATM   27  C   UNL     1     -11.762  14.419  66.799  1.00  0.00    -0.415 C  
HETATM   28  C   UNL     1     -10.343  14.922  66.847  1.00  0.00    -0.264 A  
HETATM   29  C   UNL     1     -10.099  16.188  66.294  1.00  0.00    -0.337 A  
HETATM   30  C   UNL     1      -8.817  16.670  66.326  1.00  0.00    -0.312 A  
HETATM   31  C   UNL     1      -7.791  15.970  66.915  1.00  0.00    -0.249 A  
HETATM   32  O   UNL     1      -6.615  16.658  66.802  1.00  0.00    -0.200 OA 
HETATM   33  C   UNL     1      -7.997  14.734  67.526  1.00  0.00    -0.188 A  
HETATM   34  C   UNL     1      -9.303  14.171  67.482  1.00  0.00    -0.204 A  
HETATM   35  O   UNL     1      -8.423  17.858  65.792  1.00  0.00    -0.513 OA 
HETATM   36  C   UNL     1      -7.002  17.759  65.962  1.00  0.00    -0.300 C  
BRANCH  33  37
HETATM   37  O   UNL     1      -7.035  14.012  68.173  1.00  0.00    -0.092 OA 
HETATM   38  C   UNL     1      -6.708  14.382  69.511  1.00  0.00    -0.141 C  
ENDBRANCH  33  37
ENDBRANCH  12  23
ENDBRANCH   3   4
ENDBRANCH   2   3
TORSDOF 8
ENDMDL
MODEL       11
REMARK 921   NORMALIZED FREE ENERGY PREDICTED BY IDOCK:   -6.23 KCAL/MOL
REMARK 922        TOTAL FREE ENERGY PREDICTED BY IDOCK:   -9.92 KCAL/MOL
REMARK 923 INTER-LIGAND FREE ENERGY PREDICTED BY IDOCK:   -8.87 KCAL/MOL
REMARK 924 INTRA-LIGAND FREE ENERGY PREDICTED BY IDOCK:   -1.05 KCAL/MOL
REMARK 927      BINDING AFFINITY PREDICTED BY RF-SCORE:    0.00 PKD
ROOT
HETATM    1  C   UNL     1     -13.099  11.127  71.488  1.00  0.00    -0.489 C  
HETATM    2  C   UNL     1     -12.067  11.541  70.453  1.00  0.00    -0.382 C  
ENDROOT
BRANCH   2   3
HETATM    3  O   UNL     1     -12.435  11.035  69.189  1.00  0.00    -0.432 OA 
BRANCH   3   4
HETATM    4  C   UNL     1     -11.587  10.881  68.141  1.00  0.00    -0.241 A  
HETATM    5  C   UNL     1     -11.532  11.981  67.218  1.00  0.00    -0.335 A  
HETATM    6  C   UNL     1     -10.860  11.818  65.978  1.00  0.00    -0.296 A  
HETATM    7  C   UNL     1      -9.297   8.446  66.762  1.00  0.00    -0.184 C  
HETATM    8  C   UNL     1     -10.180  10.598  65.696  1.00  0.00    -0.253 A  
HETATM    9  O   UNL     1      -9.360   7.960  68.030  1.00  0.00    -0.144 OA 
HETATM   10  O   UNL     1      -8.705   7.939  65.833  1.00  0.00    -0.149 OA 
HETATM   11  N   UNL     1      -9.365  10.476  64.557  1.00  0.00    -0.230 NA 
HETATM   12  C   UNL     1     -10.165   8.795  68.897  1.00  0.00    -0.207 C  
HETATM   13  C   UNL     1     -10.104   9.663  66.733  1.00  0.00    -0.301 A  
HETATM   14  H2  UNL     1      -8.675  11.227  64.578  1.00  0.00     0.000 HD 
HETATM   15  H1  UNL     1      -8.878   9.602  64.356  1.00  0.00     0.000 HD 
HETATM   16  C   UNL     1     -10.732   9.817  67.955  1.00  0.00    -0.312 A  
BRANCH   5  17
HETATM   17  O   UNL     1     -12.013  13.257  67.540  1.00  0.00    -0.356 OA 
BRANCH  17  18
HETATM   18  C   UNL     1     -11.011  14.139  68.088  1.00  0.00    -0.249 C  
HETATM   19  C   UNL     1     -11.497  15.493  68.561  1.00  0.00    -0.369 C  
ENDBRANCH  17  18
ENDBRANCH   5  17
BRANCH   6  20
HETATM   20  O   UNL     1     -10.646  12.797  65.027  1.00  0.00    -0.290 OA 
BRANCH  20  21
HETATM   21  C   UNL     1     -11.725  13.090  64.137  1.00  0.00    -0.412 C  
HETATM   22  C   UNL     1     -12.176  14.532  64.384  1.00  0.00    -0.480 C  
ENDBRANCH  20  21
ENDBRANCH   6  20
BRANCH  12  23
HETATM   23  C   UNL     1      -9.302   9.354  70.115  1.00  0.00    -0.241 C  
HETATM   24  C   UNL     1      -6.893   9.086  69.635  1.00  0.00    -0.050 C  
HETATM   25  C   UNL     1      -7.950  11.108  68.869  1.00  0.00    -0.126 C  
HETATM   26  N   UNL     1      -7.993  10.027  69.834  1.00  0.00    -0.177 NA 
HETATM   27  C   UNL     1      -6.577   8.449  70.975  1.00  0.00    -0.043 C  
HETATM   28  C   UNL     1      -7.804   7.868  71.625  1.00  0.00    -0.102 A  
HETATM   29  C   UNL     1      -7.598   6.947  72.663  1.00  0.00    -0.090 A  
HETATM   30  C   UNL     1      -8.699   6.404  73.272  1.00  0.00    -0.124 A  
HETATM   31  C   UNL     1      -9.978   6.767  72.922  1.00  0.00    -0.174 A  
HETATM   32  O   UNL     1     -10.892   6.075  73.666  1.00  0.00    -0.254 OA 
HETATM   33  C   UNL     1     -10.230   7.719  71.935  1.00  0.00    -0.202 A  
HETATM   34  C   UNL     1      -9.121   8.282  71.244  1.00  0.00    -0.202 A  
HETATM   35  O   UNL     1      -8.655   5.469  74.260  1.00  0.00    -0.118 OA 
HETATM   36  C   UNL     1     -10.050   5.158  74.384  1.00  0.00    -0.247 C  
BRANCH  33  37
HETATM   37  O   UNL     1     -11.471   8.163  71.576  1.00  0.00    -0.252 OA 
HETATM   38  C   UNL     1     -12.431   7.196  71.157  1.00  0.00    -0.359 C  
ENDBRANCH  33  37
ENDBRANCH  12  23
ENDBRANCH   3   4
ENDBRANCH   2   3
TORSDOF 8
ENDMDL
MODEL       12
REMARK 921   NORMALIZED FREE ENERGY PREDICTED BY IDOCK:   -6.19 KCAL/MOL
REMARK 922        TOTAL FREE ENERGY PREDICTED BY IDOCK:   -9.87 KCAL/MOL
REMARK 923 INTER-LIGAND FREE ENERGY PREDICTED BY IDOCK:   -8.74 KCAL/MOL
REMARK 924 INTRA-LIGAND FREE ENERGY PREDICTED BY IDOCK:   -1.13 KCAL/MOL
REMARK 927      BINDING AFFINITY PREDICTED BY RF-SCORE:    0.00 PKD
ROOT
HETATM    1  C   UNL     1     -11.631   9.934  71.065  1.00  0.00    -0.470 C  
HETATM    2  C   UNL     1     -10.888  10.573  69.903  1.00  0.00    -0.276 C  
ENDROOT
BRANCH   2   3
HETATM    3  O   UNL     1     -11.815  11.134  69.001  1.00  0.00    -0.311 OA 
BRANCH   3   4
HETATM    4  C   UNL     1     -11.486  11.924  67.947  1.00  0.00    -0.316 A  
HETATM    5  C   UNL     1     -11.420  13.333  68.224  1.00  0.00    -0.316 A  
HETATM    6  C   UNL     1     -11.317  14.252  67.145  1.00  0.00    -0.337 A  
HETATM    7  C   UNL     1     -10.720  11.671  64.423  1.00  0.00    -0.330 C  
HETATM    8  C   UNL     1     -11.201  13.766  65.811  1.00  0.00    -0.297 A  
HETATM    9  O   UNL     1     -10.480  10.379  64.769  1.00  0.00    -0.261 OA 
HETATM   10  O   UNL     1     -10.687  12.126  63.299  1.00  0.00    -0.421 OA 
HETATM   11  N   UNL     1     -10.924  14.644  64.748  1.00  0.00    -0.518 NA 
HETATM   12  C   UNL     1     -10.621  10.159  66.194  1.00  0.00    -0.028 C  
HETATM   13  C   UNL     1     -11.060  12.384  65.652  1.00  0.00    -0.343 A  
HETATM   14  H2  UNL     1     -10.074  15.159  64.975  1.00  0.00     0.000 HD 
HETATM   15  H1  UNL     1     -10.840  14.296  63.793  1.00  0.00     0.000 HD 
HETATM   16  C   UNL     1     -11.133  11.478  66.693  1.00  0.00    -0.355 A  
BRANCH   5  17
HETATM   17  O   UNL     1     -11.330  13.840  69.527  1.00  0.00    -0.260 OA 
BRANCH  17  18
HETATM   18  C   UNL     1     -12.601  14.208  70.101  1.00  0.00    -0.268 C  
HETATM   19  C   UNL     1     -12.952  13.560  71.424  1.00  0.00    -0.421 C  
ENDBRANCH  17  18
ENDBRANCH   5  17
BRANCH   6  20
HETATM   20  O   UNL     1     -11.158  15.620  67.247  1.00  0.00    -0.309 OA 
BRANCH  20  21
HETATM   21  C   UNL     1      -9.870  16.101  67.637  1.00  0.00    -0.236 C  
HETATM   22  C   UNL     1     -10.063  17.216  68.667  1.00  0.00    -0.329 C  
ENDBRANCH  20  21
ENDBRANCH   6  20
BRANCH  12  23
HETATM   23  C   UNL     1      -9.253   9.641  66.830  1.00  0.00    -0.143 C  
HETATM   24  C   UNL     1      -7.351  10.326  65.411  1.00  0.00    -0.144 C  
HETATM   25  C   UNL     1      -8.074  11.875  67.104  1.00  0.00    -0.172 C  
HETATM   26  N   UNL     1      -8.022  10.484  66.699  1.00  0.00    -0.120 NA 
HETATM   27  C   UNL     1      -6.725   8.944  65.379  1.00  0.00    -0.072 C  
HETATM   28  C   UNL     1      -7.723   7.867  65.715  1.00  0.00    -0.090 A  
HETATM   29  C   UNL     1      -7.381   6.552  65.368  1.00  0.00    -0.076 A  
HETATM   30  C   UNL     1      -8.271   5.554  65.664  1.00  0.00    -0.127 A  
HETATM   31  C   UNL     1      -9.453   5.803  66.320  1.00  0.00    -0.148 A  
HETATM   32  O   UNL     1     -10.164   4.647  66.483  1.00  0.00    -0.242 OA 
HETATM   33  C   UNL     1      -9.809   7.086  66.735  1.00  0.00    -0.186 A  
HETATM   34  C   UNL     1      -8.937   8.164  66.413  1.00  0.00    -0.207 A  
HETATM   35  O   UNL     1      -8.096   4.242  65.349  1.00  0.00    -0.100 OA 
HETATM   36  C   UNL     1      -9.372   3.710  65.733  1.00  0.00    -0.164 C  
BRANCH  33  37
HETATM   37  O   UNL     1     -10.941   7.395  67.436  1.00  0.00    -0.243 OA 
HETATM   38  C   UNL     1     -11.005   7.006  68.806  1.00  0.00    -0.101 C  
ENDBRANCH  33  37
ENDBRANCH  12  23
ENDBRANCH   3   4
ENDBRANCH   2   3
TORSDOF 8
ENDMDL
MODEL       13
REMARK 921   NORMALIZED FREE ENERGY PREDICTED BY IDOCK:   -6.13 KCAL/MOL
REMARK 922        TOTAL FREE ENERGY PREDICTED BY IDOCK:   -9.78 KCAL/MOL
REMARK 923 INTER-LIGAND FREE ENERGY PREDICTED BY IDOCK:   -8.74 KCAL/MOL
REMARK 924 INTRA-LIGAND FREE ENERGY PREDICTED BY IDOCK:   -1.04 KCAL/MOL
REMARK 927      BINDING AFFINITY PREDICTED BY RF-SCORE:    0.00 PKD
ROOT
HETATM    1  C   UNL     1     -13.157  10.614  71.525  1.00  0.00    -0.527 C  
HETATM    2  C   UNL     1     -12.257  10.652  70.301  1.00  0.00    -0.334 C  
ENDROOT
BRANCH   2   3
HETATM    3  O   UNL     1     -10.919  10.436  70.691  1.00  0.00    -0.289 OA 
BRANCH   3   4
HETATM    4  C   UNL     1     -10.008   9.737  69.969  1.00  0.00    -0.254 A  
HETATM    5  C   UNL     1     -10.060   8.309  70.118  1.00  0.00    -0.191 A  
HETATM    6  C   UNL     1      -9.006   7.514  69.593  1.00  0.00    -0.141 A  
HETATM    7  C   UNL     1      -7.267  10.295  67.677  1.00  0.00    -0.087 C  
HETATM    8  C   UNL     1      -7.953   8.130  68.857  1.00  0.00    -0.114 A  
HETATM    9  O   UNL     1      -7.883  11.499  67.543  1.00  0.00    -0.120 OA 
HETATM   10  O   UNL     1      -6.216   9.970  67.166  1.00  0.00    -0.064 OA 
HETATM   11  N   UNL     1      -6.997   7.352  68.181  1.00  0.00    -0.073 NA 
HETATM   12  C   UNL     1      -9.116  11.571  68.300  1.00  0.00    -0.185 C  
HETATM   13  C   UNL     1      -8.092   9.493  68.578  1.00  0.00    -0.101 A  
HETATM   14  H2  UNL     1      -7.490   6.713  67.558  1.00  0.00     0.000 HD 
HETATM   15  H1  UNL     1      -6.243   7.794  67.654  1.00  0.00     0.000 HD 
HETATM   16  C   UNL     1      -9.124  10.276  69.060  1.00  0.00    -0.187 A  
BRANCH   5  17
HETATM   17  O   UNL     1     -11.171   7.649  70.657  1.00  0.00    -0.262 OA 
BRANCH  17  18
HETATM   18  C   UNL     1     -11.050   7.352  72.065  1.00  0.00    -0.242 C  
HETATM   19  C   UNL     1     -11.417   5.944  72.487  1.00  0.00    -0.347 C  
ENDBRANCH  17  18
ENDBRANCH   5  17
BRANCH   6  20
HETATM   20  O   UNL     1      -8.950   6.134  69.579  1.00  0.00    -0.131 OA 
BRANCH  20  21
HETATM   21  C   UNL     1      -9.704   5.460  68.569  1.00  0.00    -0.137 C  
HETATM   22  C   UNL     1      -8.932   4.208  68.145  1.00  0.00    -0.150 C  
ENDBRANCH  20  21
ENDBRANCH   6  20
BRANCH  12  23
HETATM   23  C   UNL     1     -10.361  11.839  67.341  1.00  0.00    -0.204 C  
HETATM   24  C   UNL     1      -9.806  11.163  65.030  1.00  0.00    -0.266 C  
HETATM   25  C   UNL     1     -10.715   9.474  66.483  1.00  0.00     0.039 C  
HETATM   26  N   UNL     1     -10.627  10.895  66.209  1.00  0.00    -0.241 NA 
HETATM   27  C   UNL     1     -10.293  12.459  64.409  1.00  0.00    -0.370 C  
HETATM   28  C   UNL     1     -10.350  13.578  65.415  1.00  0.00    -0.329 A  
HETATM   29  C   UNL     1     -10.424  14.884  64.910  1.00  0.00    -0.389 A  
HETATM   30  C   UNL     1     -10.479  15.920  65.804  1.00  0.00    -0.370 A  
HETATM   31  C   UNL     1     -10.505  15.709  67.162  1.00  0.00    -0.303 A  
HETATM   32  O   UNL     1     -10.547  16.900  67.831  1.00  0.00    -0.339 OA 
HETATM   33  C   UNL     1     -10.490  14.426  67.709  1.00  0.00    -0.245 A  
HETATM   34  C   UNL     1     -10.391  13.318  66.822  1.00  0.00    -0.257 A  
HETATM   35  O   UNL     1     -10.509  17.237  65.462  1.00  0.00    -0.609 OA 
HETATM   36  C   UNL     1     -10.391  17.843  66.757  1.00  0.00    -0.355 C  
BRANCH  33  37
HETATM   37  O   UNL     1     -10.566  14.145  69.044  1.00  0.00    -0.246 OA 
HETATM   38  C   UNL     1     -11.826  14.308  69.690  1.00  0.00    -0.318 C  
ENDBRANCH  33  37
ENDBRANCH  12  23
ENDBRANCH   3   4
ENDBRANCH   2   3
TORSDOF 8
ENDMDL
MODEL       14
REMARK 921   NORMALIZED FREE ENERGY PREDICTED BY IDOCK:   -6.12 KCAL/MOL
REMARK 922        TOTAL FREE ENERGY PREDICTED BY IDOCK:   -9.76 KCAL/MOL
REMARK 923 INTER-LIGAND FREE ENERGY PREDICTED BY IDOCK:   -8.83 KCAL/MOL
REMARK 924 INTRA-LIGAND FREE ENERGY PREDICTED BY IDOCK:   -0.93 KCAL/MOL
REMARK 927      BINDING AFFINITY PREDICTED BY RF-SCORE:    0.00 PKD
ROOT
HETATM    1  C   UNL     1     -12.854  12.087  71.285  1.00  0.00    -0.364 C  
HETATM    2  C   UNL     1     -11.803  11.769  70.234  1.00  0.00    -0.295 C  
ENDROOT
BRANCH   2   3
HETATM    3  O   UNL     1     -12.406  11.732  68.959  1.00  0.00    -0.254 OA 
BRANCH   3   4
HETATM    4  C   UNL     1     -11.764  11.992  67.793  1.00  0.00    -0.309 A  
HETATM    5  C   UNL     1     -11.756  13.369  67.380  1.00  0.00    -0.373 A  
HETATM    6  C   UNL     1     -11.319  13.701  66.070  1.00  0.00    -0.312 A  
HETATM    7  C   UNL     1      -9.985  10.263  65.162  1.00  0.00    -0.325 C  
HETATM    8  C   UNL     1     -10.818  12.682  65.210  1.00  0.00    -0.288 A  
HETATM    9  O   UNL     1      -9.884   9.310  66.126  1.00  0.00    -0.261 OA 
HETATM   10  O   UNL     1      -9.610  10.158  64.014  1.00  0.00    -0.291 OA 
HETATM   11  N   UNL     1     -10.221  13.008  63.981  1.00  0.00    -0.659 NA 
HETATM   12  C   UNL     1     -10.448   9.745  67.387  1.00  0.00    -0.259 C  
HETATM   13  C   UNL     1     -10.663  11.408  65.765  1.00  0.00    -0.309 A  
HETATM   14  H2  UNL     1      -9.467  13.671  64.160  1.00  0.00     0.000 HD 
HETATM   15  H1  UNL     1      -9.862  12.278  63.365  1.00  0.00     0.000 HD 
HETATM   16  C   UNL     1     -11.061  11.072  67.046  1.00  0.00    -0.311 A  
BRANCH   5  17
HETATM   17  O   UNL     1     -12.049  14.419  68.260  1.00  0.00    -0.309 OA 
BRANCH  17  18
HETATM   18  C   UNL     1     -10.929  14.834  69.070  1.00  0.00    -0.248 C  
HETATM   19  C   UNL     1     -11.262  15.613  70.325  1.00  0.00    -0.357 C  
ENDBRANCH  17  18
ENDBRANCH   5  17
BRANCH   6  20
HETATM   20  O   UNL     1     -11.171  14.975  65.555  1.00  0.00    -0.344 OA 
BRANCH  20  21
HETATM   21  C   UNL     1      -9.956  15.664  65.854  1.00  0.00    -0.351 C  
HETATM   22  C   UNL     1     -10.284  17.141  66.088  1.00  0.00    -0.343 C  
ENDBRANCH  20  21
ENDBRANCH   6  20
BRANCH  12  23
HETATM   23  C   UNL     1      -9.342   9.748  68.537  1.00  0.00    -0.142 C  
HETATM   24  C   UNL     1      -7.085   9.805  67.536  1.00  0.00    -0.088 C  
HETATM   25  C   UNL     1      -8.161  11.918  67.944  1.00  0.00    -0.150 C  
HETATM   26  N   UNL     1      -8.077  10.524  68.332  1.00  0.00    -0.114 NA 
HETATM   27  C   UNL     1      -6.555   8.659  68.377  1.00  0.00    -0.060 C  
HETATM   28  C   UNL     1      -7.667   7.808  68.931  1.00  0.00    -0.113 A  
HETATM   29  C   UNL     1      -7.316   6.534  69.405  1.00  0.00    -0.092 A  
HETATM   30  C   UNL     1      -8.309   5.741  69.915  1.00  0.00    -0.119 A  
HETATM   31  C   UNL     1      -9.611   6.173  70.011  1.00  0.00    -0.160 A  
HETATM   32  O   UNL     1     -10.403   5.193  70.540  1.00  0.00    -0.256 OA 
HETATM   33  C   UNL     1      -9.994   7.451  69.605  1.00  0.00    -0.182 A  
HETATM   34  C   UNL     1      -9.008   8.298  69.029  1.00  0.00    -0.147 A  
HETATM   35  O   UNL     1      -8.128   4.471  70.370  1.00  0.00    -0.065 OA 
HETATM   36  C   UNL     1      -9.489   4.086  70.612  1.00  0.00    -0.170 C  
BRANCH  33  37
HETATM   37  O   UNL     1     -11.257   7.961  69.720  1.00  0.00    -0.143 OA 
HETATM   38  C   UNL     1     -11.696   8.373  71.012  1.00  0.00    -0.267 C  
ENDBRANCH  33  37
ENDBRANCH  12  23
ENDBRANCH   3   4
ENDBRANCH   2   3
TORSDOF 8
ENDMDL
MODEL       15
REMARK 921   NORMALIZED FREE ENERGY PREDICTED BY IDOCK:   -6.09 KCAL/MOL
REMARK 922        TOTAL FREE ENERGY PREDICTED BY IDOCK:   -9.73 KCAL/MOL
REMARK 923 INTER-LIGAND FREE ENERGY PREDICTED BY IDOCK:   -8.48 KCAL/MOL
REMARK 924 INTRA-LIGAND FREE ENERGY PREDICTED BY IDOCK:   -1.24 KCAL/MOL
REMARK 927      BINDING AFFINITY PREDICTED BY RF-SCORE:    0.00 PKD
ROOT
HETATM    1  C   UNL     1     -11.689   6.670  70.222  1.00  0.00    -0.432 C  
HETATM    2  C   UNL     1     -10.668   7.769  69.979  1.00  0.00    -0.244 C  
ENDROOT
BRANCH   2   3
HETATM    3  O   UNL     1     -10.885   8.343  68.709  1.00  0.00    -0.102 OA 
BRANCH   3   4
HETATM    4  C   UNL     1      -9.902   8.767  67.875  1.00  0.00    -0.169 A  
HETATM    5  C   UNL     1      -9.564   7.869  66.805  1.00  0.00    -0.215 A  
HETATM    6  C   UNL     1      -8.399   8.115  66.030  1.00  0.00    -0.131 A  
HETATM    7  C   UNL     1      -7.654  11.565  67.436  1.00  0.00    -0.135 C  
HETATM    8  C   UNL     1      -7.626   9.288  66.267  1.00  0.00    -0.096 A  
HETATM    9  O   UNL     1      -8.573  12.175  68.230  1.00  0.00    -0.173 OA 
HETATM   10  O   UNL     1      -6.613  12.051  67.046  1.00  0.00    -0.148 OA 
HETATM   11  N   UNL     1      -6.575   9.643  65.404  1.00  0.00    -0.077 NA 
HETATM   12  C   UNL     1      -9.697  11.311  68.530  1.00  0.00    -0.198 C  
HETATM   13  C   UNL     1      -8.144  10.212  67.180  1.00  0.00    -0.120 A  
HETATM   14  H2  UNL     1      -6.946   9.692  64.455  1.00  0.00     0.000 HD 
HETATM   15  H1  UNL     1      -6.021  10.483  65.574  1.00  0.00     0.000 HD 
HETATM   16  C   UNL     1      -9.288   9.999  67.925  1.00  0.00    -0.151 A  
BRANCH   5  17
HETATM   17  O   UNL     1     -10.403   6.819  66.411  1.00  0.00    -0.083 OA 
BRANCH  17  18
HETATM   18  C   UNL     1     -10.097   5.557  67.041  1.00  0.00    -0.194 C  
HETATM   19  C   UNL     1     -10.049   4.348  66.131  1.00  0.00    -0.257 C  
ENDBRANCH  17  18
ENDBRANCH   5  17
BRANCH   6  20
HETATM   20  O   UNL     1      -7.987   7.401  64.922  1.00  0.00    -0.120 OA 
BRANCH  20  21
HETATM   21  C   UNL     1      -7.067   6.330  65.140  1.00  0.00    -0.061 C  
HETATM   22  C   UNL     1      -6.052   6.324  63.995  1.00  0.00    -0.022 C  
ENDBRANCH  20  21
ENDBRANCH   6  20
BRANCH  12  23
HETATM   23  C   UNL     1     -11.061  11.944  67.999  1.00  0.00    -0.240 C  
HETATM   24  C   UNL     1     -10.582  13.889  66.553  1.00  0.00    -0.279 C  
HETATM   25  C   UNL     1     -10.652  11.726  65.501  1.00  0.00    -0.276 C  
HETATM   26  N   UNL     1     -11.108  12.527  66.620  1.00  0.00    -0.270 NA 
HETATM   27  C   UNL     1     -11.568  14.803  67.257  1.00  0.00    -0.385 C  
HETATM   28  C   UNL     1     -11.898  14.313  68.642  1.00  0.00    -0.379 A  
HETATM   29  C   UNL     1     -12.491  15.236  69.518  1.00  0.00    -0.122 A  
HETATM   30  C   UNL     1     -12.803  14.815  70.783  1.00  0.00    -0.361 A  
HETATM   31  C   UNL     1     -12.590  13.520  71.194  1.00  0.00    -0.355 A  
HETATM   32  O   UNL     1     -12.972  13.362  72.497  1.00  0.00    -0.334 OA 
HETATM   33  C   UNL     1     -12.055  12.555  70.341  1.00  0.00    -0.297 A  
HETATM   34  C   UNL     1     -11.676  12.953  69.029  1.00  0.00    -0.375 A  
HETATM   35  O   UNL     1     -13.340  15.606  71.751  1.00  0.00    -0.469 OA 
HETATM   36  C   UNL     1     -13.291  14.712  72.873  1.00  0.00    -0.487 C  
BRANCH  33  37
HETATM   37  O   UNL     1     -11.867  11.242  70.667  1.00  0.00    -0.340 OA 
HETATM   38  C   UNL     1     -13.020  10.448  70.935  1.00  0.00    -0.387 C  
ENDBRANCH  33  37
ENDBRANCH  12  23
ENDBRANCH   3   4
ENDBRANCH   2   3
TORSDOF 8
ENDMDL
MODEL       16
REMARK 921   NORMALIZED FREE ENERGY PREDICTED BY IDOCK:   -6.03 KCAL/MOL
REMARK 922        TOTAL FREE ENERGY PREDICTED BY IDOCK:   -9.64 KCAL/MOL
REMARK 923 INTER-LIGAND FREE ENERGY PREDICTED BY IDOCK:   -8.82 KCAL/MOL
REMARK 924 INTRA-LIGAND FREE ENERGY PREDICTED BY IDOCK:   -0.82 KCAL/MOL
REMARK 927      BINDING AFFINITY PREDICTED BY RF-SCORE:    0.00 PKD
ROOT
HETATM    1  C   UNL     1      -9.648  11.613  63.083  1.00  0.00    -0.348 C  
HETATM    2  C   UNL     1      -9.181  10.745  64.240  1.00  0.00    -0.218 C  
ENDROOT
BRANCH   2   3
HETATM    3  O   UNL     1     -10.301  10.215  64.914  1.00  0.00    -0.236 OA 
BRANCH   3   4
HETATM    4  C   UNL     1     -10.403  10.088  66.261  1.00  0.00    -0.165 A  
HETATM    5  C   UNL     1     -10.021   8.809  66.795  1.00  0.00    -0.268 A  
HETATM    6  C   UNL     1     -10.314   8.504  68.151  1.00  0.00    -0.206 A  
HETATM    7  C   UNL     1     -11.429  11.993  69.158  1.00  0.00    -0.300 C  
HETATM    8  C   UNL     1     -10.907   9.494  68.987  1.00  0.00    -0.160 A  
HETATM    9  O   UNL     1     -11.233  13.030  68.301  1.00  0.00    -0.244 OA 
HETATM   10  O   UNL     1     -11.866  12.074  70.286  1.00  0.00    -0.333 OA 
HETATM   11  N   UNL     1     -11.046   9.278  70.369  1.00  0.00    -0.246 NA 
HETATM   12  C   UNL     1     -10.715  12.591  67.021  1.00  0.00    -0.242 C  
HETATM   13  C   UNL     1     -11.049  10.775  68.446  1.00  0.00    -0.323 A  
HETATM   14  H2  UNL     1     -10.128   9.049  70.749  1.00  0.00     0.000 HD 
HETATM   15  H1  UNL     1     -11.470   9.987  70.968  1.00  0.00     0.000 HD 
HETATM   16  C   UNL     1     -10.746  11.095  67.136  1.00  0.00    -0.305 A  
BRANCH   5  17
HETATM   17  O   UNL     1      -9.260   7.886  66.066  1.00  0.00    -0.172 OA 
BRANCH  17  18
HETATM   18  C   UNL     1      -7.842   7.966  66.321  1.00  0.00    -0.094 C  
HETATM   19  C   UNL     1      -7.172   6.691  66.788  1.00  0.00    -0.077 C  
ENDBRANCH  17  18
ENDBRANCH   5  17
BRANCH   6  20
HETATM   20  O   UNL     1      -9.941   7.362  68.833  1.00  0.00    -0.161 OA 
BRANCH  20  21
HETATM   21  C   UNL     1     -10.708   6.180  68.597  1.00  0.00    -0.307 C  
HETATM   22  C   UNL     1      -9.994   5.001  69.263  1.00  0.00    -0.277 C  
ENDBRANCH  20  21
ENDBRANCH   6  20
BRANCH  12  23
HETATM   23  C   UNL     1      -9.294  13.251  66.723  1.00  0.00    -0.252 C  
HETATM   24  C   UNL     1      -8.029  13.515  68.828  1.00  0.00    -0.002 C  
HETATM   25  C   UNL     1      -7.804  11.422  67.664  1.00  0.00    -0.122 C  
HETATM   26  N   UNL     1      -8.109  12.833  67.538  1.00  0.00    -0.168 NA 
HETATM   27  C   UNL     1      -7.666  14.965  68.565  1.00  0.00    -0.123 C  
HETATM   28  C   UNL     1      -8.591  15.603  67.563  1.00  0.00    -0.185 A  
HETATM   29  C   UNL     1      -8.601  17.005  67.509  1.00  0.00    -0.212 A  
HETATM   30  C   UNL     1      -9.432  17.610  66.604  1.00  0.00    -0.279 A  
HETATM   31  C   UNL     1     -10.213  16.885  65.734  1.00  0.00    -0.268 A  
HETATM   32  O   UNL     1     -10.956  17.721  64.948  1.00  0.00    -0.866 OA 
HETATM   33  C   UNL     1     -10.194  15.491  65.714  1.00  0.00    -0.366 A  
HETATM   34  C   UNL     1      -9.378  14.815  66.663  1.00  0.00    -0.291 A  
HETATM   35  O   UNL     1      -9.580  18.955  66.468  1.00  0.00    -0.322 OA 
HETATM   36  C   UNL     1     -10.663  19.004  65.528  1.00  0.00    -0.039 C  
BRANCH  33  37
HETATM   37  O   UNL     1     -10.903  14.713  64.843  1.00  0.00    -0.388 OA 
HETATM   38  C   UNL     1     -12.326  14.740  64.928  1.00  0.00    -0.252 C  
ENDBRANCH  33  37
ENDBRANCH  12  23
ENDBRANCH   3   4
ENDBRANCH   2   3
TORSDOF 8
ENDMDL
MODEL       17
REMARK 921   NORMALIZED FREE ENERGY PREDICTED BY IDOCK:   -6.01 KCAL/MOL
REMARK 922        TOTAL FREE ENERGY PREDICTED BY IDOCK:   -9.60 KCAL/MOL
REMARK 923 INTER-LIGAND FREE ENERGY PREDICTED BY IDOCK:   -8.61 KCAL/MOL
REMARK 924 INTRA-LIGAND FREE ENERGY PREDICTED BY IDOCK:   -1.00 KCAL/MOL
REMARK 927      BINDING AFFINITY PREDICTED BY RF-SCORE:    0.00 PKD
ROOT
HETATM    1  C   UNL     1     -13.306   9.660  71.868  1.00  0.00    -0.526 C  
HETATM    2  C   UNL     1     -12.079  10.018  71.046  1.00  0.00    -0.373 C  
ENDROOT
BRANCH   2   3
HETATM    3  O   UNL     1     -11.698   8.911  70.259  1.00  0.00    -0.126 OA 
BRANCH   3   4
HETATM    4  C   UNL     1     -10.424   8.467  70.116  1.00  0.00    -0.228 A  
HETATM    5  C   UNL     1     -10.139   7.193  70.718  1.00  0.00    -0.190 A  
HETATM    6  C   UNL     1      -8.791   6.758  70.825  1.00  0.00    -0.150 A  
HETATM    7  C   UNL     1      -7.272   9.499  68.678  1.00  0.00    -0.074 C  
HETATM    8  C   UNL     1      -7.746   7.549  70.265  1.00  0.00    -0.092 A  
HETATM    9  O   UNL     1      -8.089  10.324  67.971  1.00  0.00    -0.104 OA 
HETATM   10  O   UNL     1      -6.060   9.490  68.637  1.00  0.00    -0.043 OA 
HETATM   11  N   UNL     1      -6.429   7.060  70.203  1.00  0.00    -0.038 NA 
HETATM   12  C   UNL     1      -9.488  10.090  68.264  1.00  0.00    -0.140 C  
HETATM   13  C   UNL     1      -8.131   8.663  69.514  1.00  0.00    -0.110 A  
HETATM   14  H2  UNL     1      -6.445   6.164  69.718  1.00  0.00     0.000 HD 
HETATM   15  H1  UNL     1      -5.681   7.626  69.802  1.00  0.00     0.000 HD 
HETATM   16  C   UNL     1      -9.440   9.086  69.379  1.00  0.00    -0.159 A  
BRANCH   5  17
HETATM   17  O   UNL     1     -11.147   6.298  71.099  1.00  0.00    -0.273 OA 
BRANCH  17  18
HETATM   18  C   UNL     1     -11.401   6.272  72.519  1.00  0.00    -0.275 C  
HETATM   19  C   UNL     1     -11.467   4.902  73.163  1.00  0.00    -0.362 C  
ENDBRANCH  17  18
ENDBRANCH   5  17
BRANCH   6  20
HETATM   20  O   UNL     1      -8.360   5.533  71.295  1.00  0.00    -0.122 OA 
BRANCH  20  21
HETATM   21  C   UNL     1      -8.601   4.394  70.467  1.00  0.00    -0.081 C  
HETATM   22  C   UNL     1      -7.842   3.201  71.053  1.00  0.00    -0.050 C  
ENDBRANCH  20  21
ENDBRANCH   6  20
BRANCH  12  23
HETATM   23  C   UNL     1     -10.282   9.654  66.951  1.00  0.00    -0.237 C  
HETATM   24  C   UNL     1      -8.688   9.051  65.163  1.00  0.00    -0.189 C  
HETATM   25  C   UNL     1      -9.347   7.307  66.684  1.00  0.00    -0.171 C  
HETATM   26  N   UNL     1      -9.719   8.573  66.082  1.00  0.00    -0.226 NA 
HETATM   27  C   UNL     1      -9.366   9.906  64.109  1.00  0.00    -0.295 C  
HETATM   28  C   UNL     1     -10.223  10.982  64.723  1.00  0.00    -0.381 A  
HETATM   29  C   UNL     1     -10.600  12.047  63.891  1.00  0.00    -0.447 A  
HETATM   30  C   UNL     1     -11.380  13.037  64.425  1.00  0.00    -0.357 A  
HETATM   31  C   UNL     1     -11.830  12.990  65.724  1.00  0.00    -0.404 A  
HETATM   32  O   UNL     1     -12.575  14.099  66.013  1.00  0.00    -0.478 OA 
HETATM   33  C   UNL     1     -11.527  11.924  66.570  1.00  0.00    -0.314 A  
HETATM   34  C   UNL     1     -10.684  10.891  66.075  1.00  0.00    -0.208 A  
HETATM   35  O   UNL     1     -11.786  14.149  63.754  1.00  0.00    -0.253 OA 
HETATM   36  C   UNL     1     -12.406  14.884  64.820  1.00  0.00    -0.233 C  
BRANCH  33  37
HETATM   37  O   UNL     1     -11.983  11.790  67.851  1.00  0.00    -0.575 OA 
HETATM   38  C   UNL     1     -11.671  12.822  68.783  1.00  0.00    -0.323 C  
ENDBRANCH  33  37
ENDBRANCH  12  23
ENDBRANCH   3   4
ENDBRANCH   2   3
TORSDOF 8
ENDMDL
MODEL       18
REMARK 921   NORMALIZED FREE ENERGY PREDICTED BY IDOCK:   -5.99 KCAL/MOL
REMARK 922        TOTAL FREE ENERGY PREDICTED BY IDOCK:   -9.58 KCAL/MOL
REMARK 923 INTER-LIGAND FREE ENERGY PREDICTED BY IDOCK:   -8.22 KCAL/MOL
REMARK 924 INTRA-LIGAND FREE ENERGY PREDICTED BY IDOCK:   -1.35 KCAL/MOL
REMARK 927      BINDING AFFINITY PREDICTED BY RF-SCORE:    0.00 PKD
ROOT
HETATM    1  C   UNL     1     -11.033   7.007  72.188  1.00  0.00    -0.267 C  
HETATM    2  C   UNL     1     -11.108   6.060  71.002  1.00  0.00    -0.282 C  
ENDROOT
BRANCH   2   3
HETATM    3  O   UNL     1     -11.042   6.799  69.803  1.00  0.00    -0.281 OA 
BRANCH   3   4
HETATM    4  C   UNL     1      -9.892   7.148  69.173  1.00  0.00    -0.160 A  
HETATM    5  C   UNL     1      -9.343   6.158  68.287  1.00  0.00    -0.116 A  
HETATM    6  C   UNL     1      -8.032   6.335  67.770  1.00  0.00    -0.114 A  
HETATM    7  C   UNL     1      -7.549   9.896  69.000  1.00  0.00    -0.086 C  
HETATM    8  C   UNL     1      -7.308   7.525  68.069  1.00  0.00    -0.096 A  
HETATM    9  O   UNL     1      -8.608  10.574  69.515  1.00  0.00    -0.131 OA 
HETATM   10  O   UNL     1      -6.439  10.346  68.809  1.00  0.00    -0.050 OA 
HETATM   11  N   UNL     1      -6.085   7.802  67.432  1.00  0.00    -0.048 NA 
HETATM   12  C   UNL     1      -9.787   9.740  69.633  1.00  0.00    -0.221 C  
HETATM   13  C   UNL     1      -7.996   8.526  68.761  1.00  0.00    -0.119 A  
HETATM   14  H2  UNL     1      -6.237   7.766  66.424  1.00  0.00     0.000 HD 
HETATM   15  H1  UNL     1      -5.567   8.654  67.646  1.00  0.00     0.000 HD 
HETATM   16  C   UNL     1      -9.281   8.380  69.250  1.00  0.00    -0.154 A  
BRANCH   5  17
HETATM   17  O   UNL     1     -10.095   5.077  67.810  1.00  0.00    -0.159 OA 
BRANCH  17  18
HETATM   18  C   UNL     1     -10.752   5.331  66.550  1.00  0.00    -0.221 C  
HETATM   19  C   UNL     1     -10.470   4.345  65.436  1.00  0.00    -0.219 C  
ENDBRANCH  17  18
ENDBRANCH   5  17
BRANCH   6  20
HETATM   20  O   UNL     1      -7.399   5.525  66.847  1.00  0.00    -0.077 OA 
BRANCH  20  21
HETATM   21  C   UNL     1      -6.707   4.380  67.348  1.00  0.00    -0.047 C  
HETATM   22  C   UNL     1      -7.181   3.151  66.570  1.00  0.00    -0.062 C  
ENDBRANCH  20  21
ENDBRANCH   6  20
BRANCH  12  23
HETATM   23  C   UNL     1     -10.988  10.322  68.760  1.00  0.00    -0.243 C  
HETATM   24  C   UNL     1     -10.104  11.791  66.982  1.00  0.00    -0.209 C  
HETATM   25  C   UNL     1     -10.284   9.444  66.483  1.00  0.00    -0.238 C  
HETATM   26  N   UNL     1     -10.787  10.537  67.292  1.00  0.00    -0.286 NA 
HETATM   27  C   UNL     1     -11.062  12.928  67.283  1.00  0.00    -0.309 C  
HETATM   28  C   UNL     1     -11.624  12.835  68.677  1.00  0.00    -0.352 A  
HETATM   29  C   UNL     1     -12.217  13.994  69.202  1.00  0.00    -0.299 A  
HETATM   30  C   UNL     1     -12.737  13.936  70.467  1.00  0.00    -0.249 A  
HETATM   31  C   UNL     1     -12.730  12.776  71.205  1.00  0.00    -0.269 A  
HETATM   32  O   UNL     1     -13.294  12.985  72.432  1.00  0.00    -0.535 OA 
HETATM   33  C   UNL     1     -12.203  11.586  70.703  1.00  0.00    -0.378 A  
HETATM   34  C   UNL     1     -11.612  11.606  69.409  1.00  0.00    -0.392 A  
HETATM   35  O   UNL     1     -13.301  14.987  71.121  1.00  0.00    -0.396 OA 
HETATM   36  C   UNL     1     -13.502  14.407  72.419  1.00  0.00    -0.462 C  
BRANCH  33  37
HETATM   37  O   UNL     1     -12.211  10.389  71.361  1.00  0.00    -0.366 OA 
HETATM   38  C   UNL     1     -13.392   9.594  71.288  1.00  0.00    -0.330 C  
ENDBRANCH  33  37
ENDBRANCH  12  23
ENDBRANCH   3   4
ENDBRANCH   2   3
TORSDOF 8
ENDMDL
MODEL       19
REMARK 921   NORMALIZED FREE ENERGY PREDICTED BY IDOCK:   -5.95 KCAL/MOL
REMARK 922        TOTAL FREE ENERGY PREDICTED BY IDOCK:   -9.52 KCAL/MOL
REMARK 923 INTER-LIGAND FREE ENERGY PREDICTED BY IDOCK:   -8.66 KCAL/MOL
REMARK 924 INTRA-LIGAND FREE ENERGY PREDICTED BY IDOCK:   -0.86 KCAL/MOL
REMARK 927      BINDING AFFINITY PREDICTED BY RF-SCORE:    0.00 PKD
ROOT
HETATM    1  C   UNL     1     -13.533  10.475  71.521  1.00  0.00    -0.265 C  
HETATM    2  C   UNL     1     -12.048  10.696  71.285  1.00  0.00    -0.299 C  
ENDROOT
BRANCH   2   3
HETATM    3  O   UNL     1     -11.465   9.507  70.800  1.00  0.00    -0.270 OA 
BRANCH   3   4
HETATM    4  C   UNL     1     -10.132   9.259  70.763  1.00  0.00    -0.291 A  
HETATM    5  C   UNL     1      -9.671   8.204  71.623  1.00  0.00    -0.179 A  
HETATM    6  C   UNL     1      -8.276   8.031  71.829  1.00  0.00    -0.122 A  
HETATM    7  C   UNL     1      -7.128  10.476  69.159  1.00  0.00    -0.089 C  
HETATM    8  C   UNL     1      -7.349   8.849  71.121  1.00  0.00    -0.105 A  
HETATM    9  O   UNL     1      -8.037  10.988  68.287  1.00  0.00    -0.115 OA 
HETATM   10  O   UNL     1      -5.930  10.660  69.130  1.00  0.00    -0.041 OA 
HETATM   11  N   UNL     1      -5.970   8.583  71.174  1.00  0.00    -0.035 NA 
HETATM   12  C   UNL     1      -9.392  10.593  68.614  1.00  0.00    -0.177 C  
HETATM   13  C   UNL     1      -7.876   9.703  70.148  1.00  0.00    -0.185 A  
HETATM   14  H2  UNL     1      -5.822   7.615  70.890  1.00  0.00     0.000 HD 
HETATM   15  H1  UNL     1      -5.306   9.169  70.667  1.00  0.00     0.000 HD 
HETATM   16  C   UNL     1      -9.229   9.866  69.918  1.00  0.00    -0.245 A  
BRANCH   5  17
HETATM   17  O   UNL     1     -10.538   7.254  72.179  1.00  0.00    -0.204 OA 
BRANCH  17  18
HETATM   18  C   UNL     1     -10.701   6.068  71.373  1.00  0.00    -0.259 C  
HETATM   19  C   UNL     1     -11.503   6.228  70.098  1.00  0.00    -0.452 C  
ENDBRANCH  17  18
ENDBRANCH   5  17
BRANCH   6  20
HETATM   20  O   UNL     1      -7.675   7.019  72.552  1.00  0.00    -0.092 OA 
BRANCH  20  21
HETATM   21  C   UNL     1      -7.893   7.006  73.964  1.00  0.00    -0.108 C  
HETATM   22  C   UNL     1      -7.650   8.418  74.503  1.00  0.00    -0.275 C  
ENDBRANCH  20  21
ENDBRANCH   6  20
BRANCH  12  23
HETATM   23  C   UNL     1     -10.050   9.768  67.419  1.00  0.00    -0.208 C  
HETATM   24  C   UNL     1      -8.296   8.997  65.860  1.00  0.00    -0.125 C  
HETATM   25  C   UNL     1      -8.813   7.570  67.727  1.00  0.00    -0.132 C  
HETATM   26  N   UNL     1      -9.307   8.604  66.838  1.00  0.00    -0.159 NA 
HETATM   27  C   UNL     1      -9.016   9.491  64.619  1.00  0.00    -0.266 C  
HETATM   28  C   UNL     1     -10.035  10.551  64.946  1.00  0.00    -0.401 A  
HETATM   29  C   UNL     1     -10.496  11.339  63.880  1.00  0.00    -0.452 A  
HETATM   30  C   UNL     1     -11.424  12.310  64.150  1.00  0.00    -0.383 A  
HETATM   31  C   UNL     1     -11.935  12.497  65.412  1.00  0.00    -0.437 A  
HETATM   32  O   UNL     1     -12.830  13.531  65.418  1.00  0.00    -0.617 OA 
HETATM   33  C   UNL     1     -11.548  11.702  66.490  1.00  0.00    -0.087 A  
HETATM   34  C   UNL     1     -10.555  10.707  66.270  1.00  0.00    -0.229 A  
HETATM   35  O   UNL     1     -11.929  13.175  63.230  1.00  0.00    -0.545 OA 
HETATM   36  C   UNL     1     -12.694  14.041  64.081  1.00  0.00     0.117 C  
BRANCH  33  37
HETATM   37  O   UNL     1     -12.054  11.800  67.756  1.00  0.00    -0.595 OA 
HETATM   38  C   UNL     1     -11.906  13.042  68.440  1.00  0.00    -0.334 C  
ENDBRANCH  33  37
ENDBRANCH  12  23
ENDBRANCH   3   4
ENDBRANCH   2   3
TORSDOF 8
ENDMDL
MODEL       20
REMARK 921   NORMALIZED FREE ENERGY PREDICTED BY IDOCK:   -5.66 KCAL/MOL
REMARK 922        TOTAL FREE ENERGY PREDICTED BY IDOCK:   -9.10 KCAL/MOL
REMARK 923 INTER-LIGAND FREE ENERGY PREDICTED BY IDOCK:   -8.23 KCAL/MOL
REMARK 924 INTRA-LIGAND FREE ENERGY PREDICTED BY IDOCK:   -0.87 KCAL/MOL
REMARK 927      BINDING AFFINITY PREDICTED BY RF-SCORE:    0.00 PKD
ROOT
HETATM    1  C   UNL     1      -9.854  10.671  63.341  1.00  0.00    -0.376 C  
HETATM    2  C   UNL     1      -9.390   9.824  64.514  1.00  0.00    -0.235 C  
ENDROOT
BRANCH   2   3
HETATM    3  O   UNL     1     -10.046  10.246  65.690  1.00  0.00    -0.273 OA 
BRANCH   3   4
HETATM    4  C   UNL     1      -9.468  10.974  66.678  1.00  0.00    -0.184 A  
HETATM    5  C   UNL     1      -9.636  12.398  66.579  1.00  0.00    -0.240 A  
HETATM    6  C   UNL     1      -8.877  13.250  67.425  1.00  0.00    -0.204 A  
HETATM    7  C   UNL     1      -7.467  10.517  69.654  1.00  0.00    -0.141 C  
HETATM    8  C   UNL     1      -8.021  12.686  68.415  1.00  0.00    -0.134 A  
HETATM    9  O   UNL     1      -7.954   9.252  69.549  1.00  0.00    -0.087 OA 
HETATM   10  O   UNL     1      -6.653  10.902  70.466  1.00  0.00    -0.309 OA 
HETATM   11  N   UNL     1      -7.396  13.500  69.375  1.00  0.00    -0.316 NA 
HETATM   12  C   UNL     1      -8.898   9.118  68.458  1.00  0.00    -0.129 C  
HETATM   13  C   UNL     1      -8.080  11.299  68.583  1.00  0.00    -0.145 A  
HETATM   14  H2  UNL     1      -8.118  14.042  69.850  1.00  0.00     0.000 HD 
HETATM   15  H1  UNL     1      -6.784  13.096  70.083  1.00  0.00     0.000 HD 
HETATM   16  C   UNL     1      -8.831  10.457  67.784  1.00  0.00    -0.128 A  
BRANCH   5  17
HETATM   17  O   UNL     1     -10.610  12.986  65.762  1.00  0.00    -0.269 OA 
BRANCH  17  18
HETATM   18  C   UNL     1     -11.850  13.275  66.444  1.00  0.00    -0.396 C  
HETATM   19  C   UNL     1     -12.902  14.008  65.639  1.00  0.00    -0.442 C  
ENDBRANCH  17  18
ENDBRANCH   5  17
BRANCH   6  20
HETATM   20  O   UNL     1      -8.984  14.625  67.513  1.00  0.00    -0.176 OA 
BRANCH  20  21
HETATM   21  C   UNL     1      -8.405  15.394  66.457  1.00  0.00    -0.149 C  
HETATM   22  C   UNL     1      -9.491  16.295  65.864  1.00  0.00    -0.318 C  
ENDBRANCH  20  21
ENDBRANCH   6  20
BRANCH  12  23
HETATM   23  C   UNL     1     -10.329   8.662  68.993  1.00  0.00    -0.213 C  
HETATM   24  C   UNL     1     -10.767   9.682  71.200  1.00  0.00    -0.294 C  
HETATM   25  C   UNL     1     -11.399  10.952  69.257  1.00  0.00    -0.277 C  
HETATM   26  N   UNL     1     -11.151   9.627  69.792  1.00  0.00    -0.236 NA 
HETATM   27  C   UNL     1     -11.193   8.377  71.849  1.00  0.00    -0.379 C  
HETATM   28  C   UNL     1     -10.679   7.180  71.094  1.00  0.00    -0.252 A  
HETATM   29  C   UNL     1     -10.683   5.952  71.771  1.00  0.00    -0.299 A  
HETATM   30  C   UNL     1     -10.222   4.847  71.106  1.00  0.00    -0.191 A  
HETATM   31  C   UNL     1      -9.803   4.907  69.798  1.00  0.00    -0.221 A  
HETATM   32  O   UNL     1      -9.381   3.678  69.373  1.00  0.00    -0.149 OA 
HETATM   33  C   UNL     1      -9.834   6.094  69.068  1.00  0.00    -0.141 A  
HETATM   34  C   UNL     1     -10.265   7.279  69.727  1.00  0.00    -0.214 A  
HETATM   35  O   UNL     1     -10.126   3.602  71.646  1.00  0.00    -0.157 OA 
HETATM   36  C   UNL     1      -9.444   2.912  70.589  1.00  0.00    -0.147 C  
BRANCH  33  37
HETATM   37  O   UNL     1      -9.482   6.212  67.753  1.00  0.00    -0.117 OA 
HETATM   38  C   UNL     1     -10.434   5.816  66.768  1.00  0.00    -0.287 C  
ENDBRANCH  33  37
ENDBRANCH  12  23
ENDBRANCH   3   4
ENDBRANCH   2   3
TORSDOF 8
ENDMDL
MODEL       21
REMARK 921   NORMALIZED FREE ENERGY PREDICTED BY IDOCK:   -5.66 KCAL/MOL
REMARK 922        TOTAL FREE ENERGY PREDICTED BY IDOCK:   -9.09 KCAL/MOL
REMARK 923 INTER-LIGAND FREE ENERGY PREDICTED BY IDOCK:   -8.60 KCAL/MOL
REMARK 924 INTRA-LIGAND FREE ENERGY PREDICTED BY IDOCK:   -0.49 KCAL/MOL
REMARK 927      BINDING AFFINITY PREDICTED BY RF-SCORE:    0.00 PKD
ROOT
HETATM    1  C   UNL     1     -13.519  13.753  72.222  1.00  0.00    -0.638 C  
HETATM    2  C   UNL     1     -12.887  12.392  71.981  1.00  0.00    -0.158 C  
ENDROOT
BRANCH   2   3
HETATM    3  O   UNL     1     -12.634  12.226  70.604  1.00  0.00    -0.257 OA 
BRANCH   3   4
HETATM    4  C   UNL     1     -11.712  11.376  70.085  1.00  0.00    -0.328 A  
HETATM    5  C   UNL     1     -12.015   9.976  70.215  1.00  0.00    -0.187 A  
HETATM    6  C   UNL     1     -11.012   9.016  69.918  1.00  0.00    -0.193 A  
HETATM    7  C   UNL     1      -8.504  11.443  68.419  1.00  0.00    -0.155 C  
HETATM    8  C   UNL     1      -9.747   9.443  69.420  1.00  0.00    -0.177 A  
HETATM    9  O   UNL     1      -8.884  12.723  68.164  1.00  0.00    -0.186 OA 
HETATM   10  O   UNL     1      -7.434  10.948  68.137  1.00  0.00    -0.086 OA 
HETATM   11  N   UNL     1      -8.804   8.509  68.956  1.00  0.00    -0.144 NA 
HETATM   12  C   UNL     1     -10.221  13.003  68.647  1.00  0.00    -0.164 C  
HETATM   13  C   UNL     1      -9.612  10.803  69.124  1.00  0.00    -0.169 A  
HETATM   14  H2  UNL     1      -9.251   7.936  68.241  1.00  0.00     0.000 HD 
HETATM   15  H1  UNL     1      -7.899   8.815  68.599  1.00  0.00     0.000 HD 
HETATM   16  C   UNL     1     -10.587  11.748  69.384  1.00  0.00     0.033 A  
BRANCH   5  17
HETATM   17  O   UNL     1     -13.303   9.509  70.507  1.00  0.00     0.068 OA 
BRANCH  17  18
HETATM   18  C   UNL     1     -13.468   9.063  71.869  1.00  0.00    -0.425 C  
HETATM   19  C   UNL     1     -14.300   7.813  72.069  1.00  0.00    -0.472 C  
ENDBRANCH  17  18
ENDBRANCH   5  17
BRANCH   6  20
HETATM   20  O   UNL     1     -11.169   7.643  69.910  1.00  0.00    -0.204 OA 
BRANCH  20  21
HETATM   21  C   UNL     1     -10.802   6.936  71.096  1.00  0.00    -0.240 C  
HETATM   22  C   UNL     1     -10.225   5.578  70.690  1.00  0.00    -0.308 C  
ENDBRANCH  20  21
ENDBRANCH   6  20
BRANCH  12  23
HETATM   23  C   UNL     1     -11.184  13.431  67.450  1.00  0.00    -0.288 C  
HETATM   24  C   UNL     1     -10.208  12.729  65.292  1.00  0.00    -0.279 C  
HETATM   25  C   UNL     1     -11.601  11.138  66.440  1.00  0.00     0.445 C  
HETATM   26  N   UNL     1     -11.295  12.542  66.250  1.00  0.00    -0.319 NA 
HETATM   27  C   UNL     1     -10.397  14.082  64.633  1.00  0.00    -0.337 C  
HETATM   28  C   UNL     1     -10.550  15.185  65.647  1.00  0.00    -0.370 A  
HETATM   29  C   UNL     1     -10.363  16.499  65.191  1.00  0.00    -0.049 A  
HETATM   30  C   UNL     1     -10.499  17.520  66.093  1.00  0.00    -0.288 A  
HETATM   31  C   UNL     1     -10.850  17.293  67.403  1.00  0.00    -0.167 A  
HETATM   32  O   UNL     1     -10.906  18.471  68.094  1.00  0.00    -0.244 OA 
HETATM   33  C   UNL     1     -11.101  16.010  67.887  1.00  0.00    -0.307 A  
HETATM   34  C   UNL     1     -10.931  14.911  66.999  1.00  0.00    -0.327 A  
HETATM   35  O   UNL     1     -10.306  18.836  65.807  1.00  0.00    -0.562 OA 
HETATM   36  C   UNL     1     -10.411  19.405  67.120  1.00  0.00    -0.466 C  
BRANCH  33  37
HETATM   37  O   UNL     1     -11.503  15.720  69.160  1.00  0.00    -0.330 OA 
HETATM   38  C   UNL     1     -10.536  15.813  70.204  1.00  0.00    -0.324 C  
ENDBRANCH  33  37
ENDBRANCH  12  23
ENDBRANCH   3   4
ENDBRANCH   2   3
TORSDOF 8
ENDMDL
MODEL       22
REMARK 921   NORMALIZED FREE ENERGY PREDICTED BY IDOCK:   -5.65 KCAL/MOL
REMARK 922        TOTAL FREE ENERGY PREDICTED BY IDOCK:   -9.08 KCAL/MOL
REMARK 923 INTER-LIGAND FREE ENERGY PREDICTED BY IDOCK:   -7.85 KCAL/MOL
REMARK 924 INTRA-LIGAND FREE ENERGY PREDICTED BY IDOCK:   -1.23 KCAL/MOL
REMARK 927      BINDING AFFINITY PREDICTED BY RF-SCORE:    0.00 PKD
ROOT
HETATM    1  C   UNL     1      -5.972  14.123  70.310  1.00  0.00    -0.158 C  
HETATM    2  C   UNL     1      -5.870  15.288  69.339  1.00  0.00    -0.103 C  
ENDROOT
BRANCH   2   3
HETATM    3  O   UNL     1      -6.823  15.130  68.311  1.00  0.00    -0.103 OA 
BRANCH   3   4
HETATM    4  C   UNL     1      -8.151  15.374  68.445  1.00  0.00    -0.140 A  
HETATM    5  C   UNL     1      -8.538  16.757  68.387  1.00  0.00    -0.235 A  
HETATM    6  C   UNL     1      -9.861  17.127  68.750  1.00  0.00    -0.293 A  
HETATM    7  C   UNL     1     -11.256  13.602  68.989  1.00  0.00    -0.273 C  
HETATM    8  C   UNL     1     -10.810  16.120  69.089  1.00  0.00    -0.298 A  
HETATM    9  O   UNL     1     -10.508  12.557  68.545  1.00  0.00    -0.230 OA 
HETATM   10  O   UNL     1     -12.395  13.541  69.399  1.00  0.00    -0.262 OA 
HETATM   11  N   UNL     1     -12.164  16.444  69.281  1.00  0.00    -0.230 NA 
HETATM   12  C   UNL     1      -9.178  12.967  68.145  1.00  0.00    -0.212 C  
HETATM   13  C   UNL     1     -10.410  14.792  68.913  1.00  0.00    -0.243 A  
HETATM   14  H2  UNL     1     -12.497  16.927  68.446  1.00  0.00     0.000 HD 
HETATM   15  H1  UNL     1     -12.844  15.723  69.523  1.00  0.00     0.000 HD 
HETATM   16  C   UNL     1      -9.135  14.415  68.538  1.00  0.00    -0.193 A  
BRANCH   5  17
HETATM   17  O   UNL     1      -7.699  17.752  67.869  1.00  0.00    -0.215 OA 
BRANCH  17  18
HETATM   18  C   UNL     1      -7.476  17.649  66.447  1.00  0.00    -0.288 C  
HETATM   19  C   UNL     1      -6.906  18.876  65.767  1.00  0.00    -0.307 C  
ENDBRANCH  17  18
ENDBRANCH   5  17
BRANCH   6  20
HETATM   20  O   UNL     1     -10.410  18.392  68.666  1.00  0.00    -0.363 OA 
BRANCH  20  21
HETATM   21  C   UNL     1     -10.734  18.879  67.363  1.00  0.00    -0.444 C  
HETATM   22  C   UNL     1     -10.115  20.269  67.199  1.00  0.00    -0.556 C  
ENDBRANCH  20  21
ENDBRANCH   6  20
BRANCH  12  23
HETATM   23  C   UNL     1      -8.919  12.641  66.605  1.00  0.00    -0.164 C  
HETATM   24  C   UNL     1     -11.058  12.126  65.481  1.00  0.00    -0.316 C  
HETATM   25  C   UNL     1     -10.389  14.435  65.569  1.00  0.00    -0.362 C  
HETATM   26  N   UNL     1      -9.938  13.058  65.589  1.00  0.00    -0.261 NA 
HETATM   27  C   UNL     1     -10.544  10.855  64.830  1.00  0.00    -0.316 C  
HETATM   28  C   UNL     1      -9.329  10.313  65.535  1.00  0.00    -0.250 A  
HETATM   29  C   UNL     1      -8.984   8.979  65.273  1.00  0.00    -0.233 A  
HETATM   30  C   UNL     1      -7.882   8.462  65.901  1.00  0.00    -0.095 A  
HETATM   31  C   UNL     1      -7.096   9.222  66.734  1.00  0.00    -0.082 A  
HETATM   32  O   UNL     1      -6.071   8.472  67.241  1.00  0.00    -0.052 OA 
HETATM   33  C   UNL     1      -7.368  10.567  66.980  1.00  0.00    -0.099 A  
HETATM   34  C   UNL     1      -8.526  11.139  66.385  1.00  0.00    -0.167 A  
HETATM   35  O   UNL     1      -7.453   7.177  65.778  1.00  0.00    -0.076 OA 
HETATM   36  C   UNL     1      -6.402   7.160  66.755  1.00  0.00    -0.050 C  
BRANCH  33  37
HETATM   37  O   UNL     1      -6.600  11.391  67.754  1.00  0.00    -0.064 OA 
HETATM   38  C   UNL     1      -5.403  11.918  67.186  1.00  0.00    -0.118 C  
ENDBRANCH  33  37
ENDBRANCH  12  23
ENDBRANCH   3   4
ENDBRANCH   2   3
TORSDOF 8
ENDMDL
MODEL       23
REMARK 921   NORMALIZED FREE ENERGY PREDICTED BY IDOCK:   -5.64 KCAL/MOL
REMARK 922        TOTAL FREE ENERGY PREDICTED BY IDOCK:   -9.06 KCAL/MOL
REMARK 923 INTER-LIGAND FREE ENERGY PREDICTED BY IDOCK:   -7.66 KCAL/MOL
REMARK 924 INTRA-LIGAND FREE ENERGY PREDICTED BY IDOCK:   -1.40 KCAL/MOL
REMARK 927      BINDING AFFINITY PREDICTED BY RF-SCORE:    0.00 PKD
ROOT
HETATM    1  C   UNL     1      -5.790  13.898  70.089  1.00  0.00    -0.143 C  
HETATM    2  C   UNL     1      -5.165  14.668  68.937  1.00  0.00    -0.088 C  
ENDROOT
BRANCH   2   3
HETATM    3  O   UNL     1      -6.146  14.935  67.960  1.00  0.00    -0.129 OA 
BRANCH   3   4
HETATM    4  C   UNL     1      -7.195  15.779  68.129  1.00  0.00    -0.118 A  
HETATM    5  C   UNL     1      -6.904  17.176  67.959  1.00  0.00    -0.169 A  
HETATM    6  C   UNL     1      -7.871  18.142  68.343  1.00  0.00    -0.297 A  
HETATM    7  C   UNL     1     -10.710  15.699  68.976  1.00  0.00    -0.236 C  
HETATM    8  C   UNL     1      -9.146  17.718  68.817  1.00  0.00    -0.205 A  
HETATM    9  O   UNL     1     -10.569  14.400  68.600  1.00  0.00    -0.238 OA 
HETATM   10  O   UNL     1     -11.711  16.203  69.440  1.00  0.00    -0.304 OA 
HETATM   11  N   UNL     1     -10.176  18.648  69.038  1.00  0.00    -0.479 NA 
HETATM   12  C   UNL     1      -9.239  14.116  68.103  1.00  0.00    -0.194 C  
HETATM   13  C   UNL     1      -9.421  16.349  68.751  1.00  0.00    -0.247 A  
HETATM   14  H2  UNL     1     -10.316  19.177  68.178  1.00  0.00     0.000 HD 
HETATM   15  H1  UNL     1     -11.089  18.345  69.377  1.00  0.00     0.000 HD 
HETATM   16  C   UNL     1      -8.499  15.397  68.356  1.00  0.00    -0.160 A  
BRANCH   5  17
HETATM   17  O   UNL     1      -5.746  17.629  67.312  1.00  0.00    -0.126 OA 
BRANCH  17  18
HETATM   18  C   UNL     1      -5.862  17.686  65.875  1.00  0.00    -0.138 C  
HETATM   19  C   UNL     1      -5.666  19.046  65.240  1.00  0.00    -0.240 C  
ENDBRANCH  17  18
ENDBRANCH   5  17
BRANCH   6  20
HETATM   20  O   UNL     1      -7.779  19.509  68.165  1.00  0.00    -0.288 OA 
BRANCH  20  21
HETATM   21  C   UNL     1      -6.884  20.221  69.023  1.00  0.00    -0.148 C  
HETATM   22  C   UNL     1      -6.023  21.146  68.160  1.00  0.00    -0.373 C  
ENDBRANCH  20  21
ENDBRANCH   6  20
BRANCH  12  23
HETATM   23  C   UNL     1      -9.289  13.610  66.591  1.00  0.00    -0.254 C  
HETATM   24  C   UNL     1     -11.606  13.719  65.743  1.00  0.00    -0.331 C  
HETATM   25  C   UNL     1     -10.255  15.696  65.510  1.00  0.00    -0.385 C  
HETATM   26  N   UNL     1     -10.249  14.252  65.639  1.00  0.00    -0.330 NA 
HETATM   27  C   UNL     1     -11.594  12.306  65.189  1.00  0.00    -0.402 C  
HETATM   28  C   UNL     1     -10.525  11.461  65.829  1.00  0.00    -0.314 A  
HETATM   29  C   UNL     1     -10.642  10.070  65.684  1.00  0.00     0.099 A  
HETATM   30  C   UNL     1      -9.682   9.279  66.256  1.00  0.00    -0.271 A  
HETATM   31  C   UNL     1      -8.602   9.809  66.921  1.00  0.00    -0.124 A  
HETATM   32  O   UNL     1      -7.802   8.813  67.406  1.00  0.00    -0.096 OA 
HETATM   33  C   UNL     1      -8.414  11.186  67.041  1.00  0.00    -0.146 A  
HETATM   34  C   UNL     1      -9.407  12.050  66.501  1.00  0.00    -0.226 A  
HETATM   35  O   UNL     1      -9.687   7.918  66.235  1.00  0.00    -0.188 OA 
HETATM   36  C   UNL     1      -8.578   7.642  67.102  1.00  0.00    -0.121 C  
BRANCH  33  37
HETATM   37  O   UNL     1      -7.339  11.778  67.642  1.00  0.00    -0.103 OA 
HETATM   38  C   UNL     1      -6.082  11.717  66.973  1.00  0.00    -0.152 C  
ENDBRANCH  33  37
ENDBRANCH  12  23
ENDBRANCH   3   4
ENDBRANCH   2   3
TORSDOF 8
ENDMDL
MODEL       24
REMARK 921   NORMALIZED FREE ENERGY PREDICTED BY IDOCK:   -5.52 KCAL/MOL
REMARK 922        TOTAL FREE ENERGY PREDICTED BY IDOCK:   -8.89 KCAL/MOL
REMARK 923 INTER-LIGAND FREE ENERGY PREDICTED BY IDOCK:   -9.15 KCAL/MOL
REMARK 924 INTRA-LIGAND FREE ENERGY PREDICTED BY IDOCK:    0.25 KCAL/MOL
REMARK 927      BINDING AFFINITY PREDICTED BY RF-SCORE:    0.00 PKD
ROOT
HETATM    1  C   UNL     1     -10.614   9.480  70.788  1.00  0.00    -0.387 C  
HETATM    2  C   UNL     1     -11.293  10.702  70.191  1.00  0.00    -0.323 C  
ENDROOT
BRANCH   2   3
HETATM    3  O   UNL     1     -11.260  10.620  68.783  1.00  0.00    -0.244 OA 
BRANCH   3   4
HETATM    4  C   UNL     1     -10.144  10.767  68.027  1.00  0.00    -0.176 A  
HETATM    5  C   UNL     1      -9.821   9.657  67.172  1.00  0.00    -0.186 A  
HETATM    6  C   UNL     1      -8.556   9.620  66.526  1.00  0.00    -0.127 A  
HETATM    7  C   UNL     1      -7.492  13.152  67.431  1.00  0.00    -0.124 C  
HETATM    8  C   UNL     1      -7.656  10.715  66.666  1.00  0.00    -0.129 A  
HETATM    9  O   UNL     1      -8.397  14.000  67.988  1.00  0.00    -0.142 OA 
HETATM   10  O   UNL     1      -6.358  13.432  67.106  1.00  0.00    -0.238 OA 
HETATM   11  N   UNL     1      -6.479  10.781  65.902  1.00  0.00    -0.229 NA 
HETATM   12  C   UNL     1      -9.656  13.344  68.275  1.00  0.00    -0.220 C  
HETATM   13  C   UNL     1      -8.135  11.843  67.340  1.00  0.00    -0.165 A  
HETATM   14  H2  UNL     1      -6.734  10.703  64.918  1.00  0.00     0.000 HD 
HETATM   15  H1  UNL     1      -5.835  11.566  66.002  1.00  0.00     0.000 HD 
HETATM   16  C   UNL     1      -9.372  11.906  67.953  1.00  0.00    -0.187 A  
BRANCH   5  17
HETATM   17  O   UNL     1     -10.751   8.661  66.849  1.00  0.00    -0.252 OA 
BRANCH  17  18
HETATM   18  C   UNL     1     -10.570   7.431  67.583  1.00  0.00    -0.239 C  
HETATM   19  C   UNL     1     -10.810   6.150  66.813  1.00  0.00    -0.360 C  
ENDBRANCH  17  18
ENDBRANCH   5  17
BRANCH   6  20
HETATM   20  O   UNL     1      -8.130   8.674  65.614  1.00  0.00    -0.100 OA 
BRANCH  20  21
HETATM   21  C   UNL     1      -8.564   8.829  64.261  1.00  0.00    -0.068 C  
HETATM   22  C   UNL     1      -7.614   8.040  63.357  1.00  0.00    -0.130 C  
ENDBRANCH  20  21
ENDBRANCH   6  20
BRANCH  12  23
HETATM   23  C   UNL     1     -10.853  14.029  67.474  1.00  0.00    -0.270 C  
HETATM   24  C   UNL     1     -10.374  13.994  65.051  1.00  0.00    -0.409 C  
HETATM   25  C   UNL     1     -11.494  12.078  65.978  1.00  0.00    -0.338 C  
HETATM   26  N   UNL     1     -11.228  13.495  66.126  1.00  0.00    -0.293 NA 
HETATM   27  C   UNL     1     -10.692  15.464  64.848  1.00  0.00    -0.416 C  
HETATM   28  C   UNL     1     -10.615  16.239  66.137  1.00  0.00    -0.272 A  
HETATM   29  C   UNL     1     -10.523  17.635  66.034  1.00  0.00    -0.278 A  
HETATM   30  C   UNL     1     -10.453  18.364  67.192  1.00  0.00    -0.404 A  
HETATM   31  C   UNL     1     -10.513  17.771  68.430  1.00  0.00    -0.347 A  
HETATM   32  O   UNL     1     -10.410  18.711  69.417  1.00  0.00    -0.055 OA 
HETATM   33  C   UNL     1     -10.661  16.392  68.581  1.00  0.00    -0.305 A  
HETATM   34  C   UNL     1     -10.695  15.587  67.408  1.00  0.00    -0.301 A  
HETATM   35  O   UNL     1     -10.318  19.717  67.248  1.00  0.00    -0.392 OA 
HETATM   36  C   UNL     1     -10.132  19.900  68.659  1.00  0.00    -0.406 C  
BRANCH  33  37
HETATM   37  O   UNL     1     -10.779  15.745  69.778  1.00  0.00    -0.263 OA 
HETATM   38  C   UNL     1     -12.056  15.740  70.412  1.00  0.00    -0.370 C  
ENDBRANCH  33  37
ENDBRANCH  12  23
ENDBRANCH   3   4
ENDBRANCH   2   3
TORSDOF 8
ENDMDL
MODEL       25
REMARK 921   NORMALIZED FREE ENERGY PREDICTED BY IDOCK:   -5.52 KCAL/MOL
REMARK 922        TOTAL FREE ENERGY PREDICTED BY IDOCK:   -8.89 KCAL/MOL
REMARK 923 INTER-LIGAND FREE ENERGY PREDICTED BY IDOCK:   -7.98 KCAL/MOL
REMARK 924 INTRA-LIGAND FREE ENERGY PREDICTED BY IDOCK:   -0.91 KCAL/MOL
REMARK 927      BINDING AFFINITY PREDICTED BY RF-SCORE:    0.00 PKD
ROOT
HETATM    1  C   UNL     1      -9.604  10.848  63.286  1.00  0.00    -0.377 C  
HETATM    2  C   UNL     1      -9.786  10.011  64.541  1.00  0.00    -0.239 C  
ENDROOT
BRANCH   2   3
HETATM    3  O   UNL     1     -10.521  10.743  65.496  1.00  0.00    -0.252 OA 
BRANCH   3   4
HETATM    4  C   UNL     1      -9.972  11.474  66.499  1.00  0.00    -0.210 A  
HETATM    5  C   UNL     1     -10.331  12.866  66.523  1.00  0.00    -0.264 A  
HETATM    6  C   UNL     1      -9.629  13.752  67.382  1.00  0.00    -0.229 A  
HETATM    7  C   UNL     1      -7.713  11.089  69.296  1.00  0.00    -0.068 C  
HETATM    8  C   UNL     1      -8.636  13.243  68.267  1.00  0.00    -0.169 A  
HETATM    9  O   UNL     1      -8.037   9.780  69.124  1.00  0.00    -0.093 OA 
HETATM   10  O   UNL     1      -6.899  11.525  70.082  1.00  0.00    -0.062 OA 
HETATM   11  N   UNL     1      -8.054  14.067  69.246  1.00  0.00    -0.334 NA 
HETATM   12  C   UNL     1      -9.033   9.595  68.089  1.00  0.00    -0.123 C  
HETATM   13  C   UNL     1      -8.500  11.852  68.330  1.00  0.00    -0.155 A  
HETATM   14  H2  UNL     1      -8.803  14.471  69.807  1.00  0.00     0.000 HD 
HETATM   15  H1  UNL     1      -7.343  13.702  69.880  1.00  0.00     0.000 HD 
HETATM   16  C   UNL     1      -9.193  10.974  67.518  1.00  0.00    -0.149 A  
BRANCH   5  17
HETATM   17  O   UNL     1     -11.432  13.371  65.818  1.00  0.00    -0.310 OA 
BRANCH  17  18
HETATM   18  C   UNL     1     -11.123  13.793  64.473  1.00  0.00    -0.380 C  
HETATM   19  C   UNL     1     -12.144  13.445  63.410  1.00  0.00    -0.437 C  
ENDBRANCH  17  18
ENDBRANCH   5  17
BRANCH   6  20
HETATM   20  O   UNL     1      -9.908  15.090  67.583  1.00  0.00    -0.219 OA 
BRANCH  20  21
HETATM   21  C   UNL     1     -11.034  15.407  68.405  1.00  0.00    -0.284 C  
HETATM   22  C   UNL     1     -10.760  16.740  69.105  1.00  0.00    -0.329 C  
ENDBRANCH  20  21
ENDBRANCH   6  20
BRANCH  12  23
HETATM   23  C   UNL     1     -10.350   8.913  68.678  1.00  0.00    -0.204 C  
HETATM   24  C   UNL     1     -10.399   9.159  71.135  1.00  0.00    -0.317 C  
HETATM   25  C   UNL     1     -11.360  10.938  69.832  1.00  0.00    -0.305 C  
HETATM   26  N   UNL     1     -11.021   9.529  69.866  1.00  0.00    -0.236 NA 
HETATM   27  C   UNL     1     -10.703   7.695  71.393  1.00  0.00    -0.247 C  
HETATM   28  C   UNL     1     -10.327   6.828  70.221  1.00  0.00    -0.224 A  
HETATM   29  C   UNL     1     -10.212   5.450  70.460  1.00  0.00    -0.326 A  
HETATM   30  C   UNL     1      -9.872   4.639  69.410  1.00  0.00    -0.202 A  
HETATM   31  C   UNL     1      -9.687   5.132  68.140  1.00  0.00    -0.144 A  
HETATM   32  O   UNL     1      -9.345   4.125  67.281  1.00  0.00    -0.149 OA 
HETATM   33  C   UNL     1      -9.846   6.485  67.843  1.00  0.00    -0.123 A  
HETATM   34  C   UNL     1     -10.157   7.375  68.909  1.00  0.00    -0.188 A  
HETATM   35  O   UNL     1      -9.683   3.295  69.500  1.00  0.00    -0.116 OA 
HETATM   36  C   UNL     1      -9.195   3.013  68.180  1.00  0.00    -0.196 C  
BRANCH  33  37
HETATM   37  O   UNL     1      -9.728   7.031  66.596  1.00  0.00    -0.179 OA 
HETATM   38  C   UNL     1      -8.483   6.886  65.918  1.00  0.00    -0.144 C  
ENDBRANCH  33  37
ENDBRANCH  12  23
ENDBRANCH   3   4
ENDBRANCH   2   3
TORSDOF 8
ENDMDL
MODEL       26
REMARK 921   NORMALIZED FREE ENERGY PREDICTED BY IDOCK:   -5.50 KCAL/MOL
REMARK 922        TOTAL FREE ENERGY PREDICTED BY IDOCK:   -8.86 KCAL/MOL
REMARK 923 INTER-LIGAND FREE ENERGY PREDICTED BY IDOCK:   -8.21 KCAL/MOL
REMARK 924 INTRA-LIGAND FREE ENERGY PREDICTED BY IDOCK:   -0.64 KCAL/MOL
REMARK 927      BINDING AFFINITY PREDICTED BY RF-SCORE:    0.00 PKD
ROOT
HETATM    1  C   UNL     1     -12.611  12.091  63.491  1.00  0.00    -0.625 C  
HETATM    2  C   UNL     1     -11.384  12.730  64.121  1.00  0.00    -0.390 C  
ENDROOT
BRANCH   2   3
HETATM    3  O   UNL     1     -10.370  11.761  64.268  1.00  0.00    -0.270 OA 
BRANCH   3   4
HETATM    4  C   UNL     1     -10.177  11.008  65.380  1.00  0.00    -0.274 A  
HETATM    5  C   UNL     1      -9.717   9.666  65.150  1.00  0.00    -0.217 A  
HETATM    6  C   UNL     1      -9.713   8.736  66.224  1.00  0.00    -0.272 A  
HETATM    7  C   UNL     1     -10.499  11.235  68.975  1.00  0.00    -0.194 C  
HETATM    8  C   UNL     1     -10.085   9.163  67.531  1.00  0.00    -0.228 A  
HETATM    9  O   UNL     1     -10.472  12.565  68.696  1.00  0.00    -0.230 OA 
HETATM   10  O   UNL     1     -10.677  10.739  70.067  1.00  0.00    -0.220 OA 
HETATM   11  N   UNL     1      -9.923   8.312  68.639  1.00  0.00    -0.185 NA 
HETATM   12  C   UNL     1     -10.258  12.825  67.287  1.00  0.00    -0.232 C  
HETATM   13  C   UNL     1     -10.313  10.531  67.708  1.00  0.00    -0.248 A  
HETATM   14  H2  UNL     1      -8.949   8.011  68.668  1.00  0.00     0.000 HD 
HETATM   15  H1  UNL     1     -10.189   8.618  69.575  1.00  0.00     0.000 HD 
HETATM   16  C   UNL     1     -10.297  11.453  66.678  1.00  0.00    -0.272 A  
BRANCH   5  17
HETATM   17  O   UNL     1      -9.156   9.262  63.932  1.00  0.00    -0.146 OA 
BRANCH  17  18
HETATM   18  C   UNL     1      -7.797   9.707  63.738  1.00  0.00    -0.139 C  
HETATM   19  C   UNL     1      -6.992   8.966  62.690  1.00  0.00    -0.093 C  
ENDBRANCH  17  18
ENDBRANCH   5  17
BRANCH   6  20
HETATM   20  O   UNL     1      -9.225   7.444  66.187  1.00  0.00    -0.166 OA 
BRANCH  20  21
HETATM   21  C   UNL     1      -7.827   7.266  66.426  1.00  0.00    -0.106 C  
HETATM   22  C   UNL     1      -7.319   6.153  65.507  1.00  0.00    -0.080 C  
ENDBRANCH  20  21
ENDBRANCH   6  20
BRANCH  12  23
HETATM   23  C   UNL     1      -8.922  13.665  67.058  1.00  0.00    -0.236 C  
HETATM   24  C   UNL     1      -7.398  13.366  68.978  1.00  0.00     0.023 C  
HETATM   25  C   UNL     1      -7.235  11.769  67.186  1.00  0.00    -0.147 C  
HETATM   26  N   UNL     1      -7.620  13.117  67.556  1.00  0.00    -0.160 NA 
HETATM   27  C   UNL     1      -7.141  14.851  69.156  1.00  0.00    -0.148 C  
HETATM   28  C   UNL     1      -8.221  15.688  68.523  1.00  0.00    -0.153 A  
HETATM   29  C   UNL     1      -8.302  17.030  68.924  1.00  0.00    -0.196 A  
HETATM   30  C   UNL     1      -9.275  17.813  68.362  1.00  0.00    -0.285 A  
HETATM   31  C   UNL     1     -10.132  17.332  67.400  1.00  0.00    -0.307 A  
HETATM   32  O   UNL     1     -11.012  18.304  67.014  1.00  0.00    -0.249 OA 
HETATM   33  C   UNL     1     -10.052  16.022  66.931  1.00  0.00    -0.265 A  
HETATM   34  C   UNL     1      -9.085  15.156  67.514  1.00  0.00    -0.187 A  
HETATM   35  O   UNL     1      -9.502  19.116  68.683  1.00  0.00    -0.365 OA 
HETATM   36  C   UNL     1     -10.703  19.361  67.938  1.00  0.00    -0.310 C  
BRANCH  33  37
HETATM   37  O   UNL     1     -10.836  15.497  65.942  1.00  0.00    -0.326 OA 
HETATM   38  C   UNL     1     -10.929  16.212  64.713  1.00  0.00    -0.313 C  
ENDBRANCH  33  37
ENDBRANCH  12  23
ENDBRANCH   3   4
ENDBRANCH   2   3
TORSDOF 8
ENDMDL
MODEL       27
REMARK 921   NORMALIZED FREE ENERGY PREDICTED BY IDOCK:   -5.46 KCAL/MOL
REMARK 922        TOTAL FREE ENERGY PREDICTED BY IDOCK:   -8.80 KCAL/MOL
REMARK 923 INTER-LIGAND FREE ENERGY PREDICTED BY IDOCK:   -8.07 KCAL/MOL
REMARK 924 INTRA-LIGAND FREE ENERGY PREDICTED BY IDOCK:   -0.73 KCAL/MOL
REMARK 927      BINDING AFFINITY PREDICTED BY RF-SCORE:    0.00 PKD
ROOT
HETATM    1  C   UNL     1     -12.257  12.212  63.930  1.00  0.00    -0.587 C  
HETATM    2  C   UNL     1     -11.833  12.392  65.378  1.00  0.00    -0.406 C  
ENDROOT
BRANCH   2   3
HETATM    3  O   UNL     1     -10.510  12.879  65.426  1.00  0.00    -0.282 OA 
BRANCH   3   4
HETATM    4  C   UNL     1      -9.838  13.178  66.566  1.00  0.00    -0.265 A  
HETATM    5  C   UNL     1     -10.030  14.511  67.069  1.00  0.00    -0.255 A  
HETATM    6  C   UNL     1      -9.194  14.989  68.113  1.00  0.00    -0.183 A  
HETATM    7  C   UNL     1      -7.525  11.669  68.899  1.00  0.00    -0.092 C  
HETATM    8  C   UNL     1      -8.232  14.121  68.703  1.00  0.00    -0.116 A  
HETATM    9  O   UNL     1      -8.008  10.530  68.337  1.00  0.00    -0.107 OA 
HETATM   10  O   UNL     1      -6.633  11.738  69.718  1.00  0.00    -0.120 OA 
HETATM   11  N   UNL     1      -7.516  14.513  69.848  1.00  0.00    -0.393 NA 
HETATM   12  C   UNL     1      -9.061  10.796  67.379  1.00  0.00    -0.143 C  
HETATM   13  C   UNL     1      -8.257  12.783  68.300  1.00  0.00    -0.159 A  
HETATM   14  H2  UNL     1      -8.189  14.779  70.567  1.00  0.00     0.000 HD 
HETATM   15  H1  UNL     1      -6.827  13.891  70.271  1.00  0.00     0.000 HD 
HETATM   16  C   UNL     1      -9.081  12.295  67.303  1.00  0.00    -0.184 A  
BRANCH   5  17
HETATM   17  O   UNL     1     -11.093  15.325  66.655  1.00  0.00    -0.324 OA 
BRANCH  17  18
HETATM   18  C   UNL     1     -10.772  16.186  65.543  1.00  0.00    -0.342 C  
HETATM   19  C   UNL     1     -11.604  16.003  64.291  1.00  0.00    -0.139 C  
ENDBRANCH  17  18
ENDBRANCH   5  17
BRANCH   6  20
HETATM   20  O   UNL     1      -9.306  16.205  68.759  1.00  0.00    -0.207 OA 
BRANCH  20  21
HETATM   21  C   UNL     1      -8.527  17.290  68.251  1.00  0.00    -0.243 C  
HETATM   22  C   UNL     1      -9.417  18.533  68.184  1.00  0.00    -0.341 C  
ENDBRANCH  20  21
ENDBRANCH   6  20
BRANCH  12  23
HETATM   23  C   UNL     1     -10.422  10.088  67.815  1.00  0.00    -0.234 C  
HETATM   24  C   UNL     1     -10.570   9.991  70.279  1.00  0.00    -0.295 C  
HETATM   25  C   UNL     1     -11.417  11.969  69.203  1.00  0.00    -0.300 C  
HETATM   26  N   UNL     1     -11.125  10.557  69.052  1.00  0.00    -0.233 NA 
HETATM   27  C   UNL     1     -10.931   8.517  70.316  1.00  0.00    -0.245 C  
HETATM   28  C   UNL     1     -10.532   7.809  69.048  1.00  0.00    -0.215 A  
HETATM   29  C   UNL     1     -10.470   6.408  69.096  1.00  0.00    -0.274 A  
HETATM   30  C   UNL     1     -10.112   5.739  67.956  1.00  0.00    -0.161 A  
HETATM   31  C   UNL     1      -9.856   6.397  66.776  1.00  0.00    -0.162 A  
HETATM   32  O   UNL     1      -9.508   5.507  65.797  1.00  0.00    -0.141 OA 
HETATM   33  C   UNL     1      -9.959   7.783  66.667  1.00  0.00    -0.228 A  
HETATM   34  C   UNL     1     -10.288   8.527  67.834  1.00  0.00    -0.281 A  
HETATM   35  O   UNL     1      -9.968   4.389  67.863  1.00  0.00    -0.120 OA 
HETATM   36  C   UNL     1      -9.433   4.276  66.536  1.00  0.00    -0.185 C  
BRANCH  33  37
HETATM   37  O   UNL     1      -9.771   8.493  65.515  1.00  0.00     0.059 OA 
HETATM   38  C   UNL     1      -8.460   8.522  64.955  1.00  0.00    -0.164 C  
ENDBRANCH  33  37
ENDBRANCH  12  23
ENDBRANCH   3   4
ENDBRANCH   2   3
TORSDOF 8
ENDMDL
MODEL       28
REMARK 921   NORMALIZED FREE ENERGY PREDICTED BY IDOCK:   -5.45 KCAL/MOL
REMARK 922        TOTAL FREE ENERGY PREDICTED BY IDOCK:   -8.78 KCAL/MOL
REMARK 923 INTER-LIGAND FREE ENERGY PREDICTED BY IDOCK:   -8.86 KCAL/MOL
REMARK 924 INTRA-LIGAND FREE ENERGY PREDICTED BY IDOCK:    0.08 KCAL/MOL
REMARK 927      BINDING AFFINITY PREDICTED BY RF-SCORE:    0.00 PKD
ROOT
HETATM    1  C   UNL     1     -10.230  11.784  63.404  1.00  0.00    -0.482 C  
HETATM    2  C   UNL     1     -10.777  11.003  64.587  1.00  0.00    -0.248 C  
ENDROOT
BRANCH   2   3
HETATM    3  O   UNL     1      -9.965  11.229  65.718  1.00  0.00    -0.218 OA 
BRANCH   3   4
HETATM    4  C   UNL     1     -10.429  11.387  66.983  1.00  0.00    -0.236 A  
HETATM    5  C   UNL     1     -10.451  10.198  67.791  1.00  0.00    -0.232 A  
HETATM    6  C   UNL     1     -11.133  10.214  69.037  1.00  0.00    -0.205 A  
HETATM    7  C   UNL     1     -11.774  13.956  69.144  1.00  0.00    -0.338 C  
HETATM    8  C   UNL     1     -11.717  11.424  69.509  1.00  0.00    -0.348 A  
HETATM    9  O   UNL     1     -11.170  14.763  68.231  1.00  0.00    -0.262 OA 
HETATM   10  O   UNL     1     -12.461  14.320  70.074  1.00  0.00    -0.338 OA 
HETATM   11  N   UNL     1     -12.243  11.509  70.810  1.00  0.00    -0.381 NA 
HETATM   12  C   UNL     1     -10.437  14.010  67.234  1.00  0.00    -0.268 C  
HETATM   13  C   UNL     1     -11.467  12.579  68.762  1.00  0.00    -0.353 A  
HETATM   14  H2  UNL     1     -11.514  11.230  71.466  1.00  0.00     0.000 HD 
HETATM   15  H1  UNL     1     -12.661  12.376  71.148  1.00  0.00     0.000 HD 
HETATM   16  C   UNL     1     -10.784  12.586  67.560  1.00  0.00    -0.250 A  
BRANCH   5  17
HETATM   17  O   UNL     1      -9.721   9.050  67.458  1.00  0.00    -0.149 OA 
BRANCH  17  18
HETATM   18  C   UNL     1     -10.530   7.970  66.945  1.00  0.00    -0.317 C  
HETATM   19  C   UNL     1      -9.811   6.666  66.671  1.00  0.00    -0.208 C  
ENDBRANCH  17  18
ENDBRANCH   5  17
BRANCH   6  20
HETATM   20  O   UNL     1     -11.172   9.188  69.962  1.00  0.00    -0.231 OA 
BRANCH  20  21
HETATM   21  C   UNL     1     -10.030   9.023  70.804  1.00  0.00    -0.245 C  
HETATM   22  C   UNL     1     -10.510   8.573  72.186  1.00  0.00    -0.412 C  
ENDBRANCH  20  21
ENDBRANCH   6  20
BRANCH  12  23
HETATM   23  C   UNL     1      -8.888  14.386  67.258  1.00  0.00    -0.213 C  
HETATM   24  C   UNL     1      -8.027  14.267  69.570  1.00  0.00     0.321 C  
HETATM   25  C   UNL     1      -7.976  12.242  68.271  1.00  0.00    -0.163 C  
HETATM   26  N   UNL     1      -7.982  13.691  68.228  1.00  0.00    -0.142 NA 
HETATM   27  C   UNL     1      -7.356  15.627  69.515  1.00  0.00    -0.197 C  
HETATM   28  C   UNL     1      -7.934  16.495  68.429  1.00  0.00    -0.194 A  
HETATM   29  C   UNL     1      -7.671  17.871  68.508  1.00  0.00    -0.299 A  
HETATM   30  C   UNL     1      -8.184  18.683  67.531  1.00  0.00    -0.253 A  
HETATM   31  C   UNL     1      -8.903  18.183  66.472  1.00  0.00    -0.271 A  
HETATM   32  O   UNL     1      -9.311  19.195  65.649  1.00  0.00    -0.292 OA 
HETATM   33  C   UNL     1      -9.141  16.817  66.322  1.00  0.00    -0.285 A  
HETATM   34  C   UNL     1      -8.665  15.936  67.333  1.00  0.00    -0.197 A  
HETATM   35  O   UNL     1      -8.049  20.036  67.500  1.00  0.00    -0.297 OA 
HETATM   36  C   UNL     1      -8.902  20.356  66.391  1.00  0.00    -0.074 C  
BRANCH  33  37
HETATM   37  O   UNL     1      -9.801  16.249  65.269  1.00  0.00    -0.470 OA 
HETATM   38  C   UNL     1     -11.134  16.682  65.004  1.00  0.00    -0.115 C  
ENDBRANCH  33  37
ENDBRANCH  12  23
ENDBRANCH   3   4
ENDBRANCH   2   3
TORSDOF 8
ENDMDL
MODEL       29
REMARK 921   NORMALIZED FREE ENERGY PREDICTED BY IDOCK:   -5.40 KCAL/MOL
REMARK 922        TOTAL FREE ENERGY PREDICTED BY IDOCK:   -8.71 KCAL/MOL
REMARK 923 INTER-LIGAND FREE ENERGY PREDICTED BY IDOCK:   -7.33 KCAL/MOL
REMARK 924 INTRA-LIGAND FREE ENERGY PREDICTED BY IDOCK:   -1.38 KCAL/MOL
REMARK 927      BINDING AFFINITY PREDICTED BY RF-SCORE:    0.00 PKD
ROOT
HETATM    1  C   UNL     1      -5.478  11.553  67.758  1.00  0.00    -0.049 C  
HETATM    2  C   UNL     1      -6.126  11.135  69.067  1.00  0.00    -0.044 C  
ENDROOT
BRANCH   2   3
HETATM    3  O   UNL     1      -7.403  11.725  69.172  1.00  0.00    -0.090 OA 
BRANCH   3   4
HETATM    4  C   UNL     1      -8.397  11.581  68.260  1.00  0.00    -0.154 A  
HETATM    5  C   UNL     1      -9.144  10.355  68.342  1.00  0.00    -0.147 A  
HETATM    6  C   UNL     1     -10.038  10.012  67.294  1.00  0.00    -0.209 A  
HETATM    7  C   UNL     1      -9.872  13.337  65.464  1.00  0.00    -0.136 C  
HETATM    8  C   UNL     1     -10.247  10.919  66.215  1.00  0.00    -0.247 A  
HETATM    9  O   UNL     1      -9.251  14.393  66.054  1.00  0.00    -0.190 OA 
HETATM   10  O   UNL     1     -10.471  13.359  64.410  1.00  0.00    -0.426 OA 
HETATM   11  N   UNL     1     -11.252  10.683  65.261  1.00  0.00     0.391 NA 
HETATM   12  C   UNL     1      -8.610  14.025  67.300  1.00  0.00    -0.216 C  
HETATM   13  C   UNL     1      -9.644  12.176  66.323  1.00  0.00    -0.246 A  
HETATM   14  H2  UNL     1     -12.136  10.566  65.754  1.00  0.00     0.000 HD 
HETATM   15  H1  UNL     1     -11.401  11.333  64.489  1.00  0.00     0.000 HD 
HETATM   16  C   UNL     1      -8.790  12.535  67.348  1.00  0.00    -0.187 A  
BRANCH   5  17
HETATM   17  O   UNL     1      -9.119   9.534  69.477  1.00  0.00    -0.160 OA 
BRANCH  17  18
HETATM   18  C   UNL     1     -10.134   9.852  70.452  1.00  0.00    -0.195 C  
HETATM   19  C   UNL     1     -11.050   8.716  70.860  1.00  0.00    -0.310 C  
ENDBRANCH  17  18
ENDBRANCH   5  17
BRANCH   6  20
HETATM   20  O   UNL     1     -10.886   8.921  67.265  1.00  0.00    -0.216 OA 
BRANCH  20  21
HETATM   21  C   UNL     1     -10.330   7.674  66.844  1.00  0.00    -0.318 C  
HETATM   22  C   UNL     1     -10.889   6.569  67.744  1.00  0.00    -0.395 C  
ENDBRANCH  20  21
ENDBRANCH   6  20
BRANCH  12  23
HETATM   23  C   UNL     1      -9.216  14.853  68.521  1.00  0.00    -0.192 C  
HETATM   24  C   UNL     1     -11.311  15.964  67.828  1.00  0.00    -0.199 C  
HETATM   25  C   UNL     1     -11.485  13.721  68.679  1.00  0.00    -0.301 C  
HETATM   26  N   UNL     1     -10.703  14.942  68.676  1.00  0.00    -0.243 NA 
HETATM   27  C   UNL     1     -10.910  17.321  68.376  1.00  0.00    -0.273 C  
HETATM   28  C   UNL     1      -9.419  17.439  68.550  1.00  0.00    -0.297 A  
HETATM   29  C   UNL     1      -8.896  18.733  68.692  1.00  0.00    -0.360 A  
HETATM   30  C   UNL     1      -7.542  18.868  68.852  1.00  0.00    -0.302 A  
HETATM   31  C   UNL     1      -6.705  17.780  68.919  1.00  0.00    -0.237 A  
HETATM   32  O   UNL     1      -5.407  18.182  69.069  1.00  0.00    -0.184 OA 
HETATM   33  C   UNL     1      -7.187  16.473  68.839  1.00  0.00    -0.208 A  
HETATM   34  C   UNL     1      -8.581  16.282  68.629  1.00  0.00    -0.222 A  
HETATM   35  O   UNL     1      -6.890  20.057  68.958  1.00  0.00    -0.310 OA 
HETATM   36  C   UNL     1      -5.527  19.608  68.934  1.00  0.00    -0.203 C  
BRANCH  33  37
HETATM   37  O   UNL     1      -6.418  15.349  68.950  1.00  0.00    -0.103 OA 
HETATM   38  C   UNL     1      -6.100  14.884  70.259  1.00  0.00    -0.158 C  
ENDBRANCH  33  37
ENDBRANCH  12  23
ENDBRANCH   3   4
ENDBRANCH   2   3
TORSDOF 8
ENDMDL
MODEL       30
REMARK 921   NORMALIZED FREE ENERGY PREDICTED BY IDOCK:   -5.38 KCAL/MOL
REMARK 922        TOTAL FREE ENERGY PREDICTED BY IDOCK:   -8.69 KCAL/MOL
REMARK 923 INTER-LIGAND FREE ENERGY PREDICTED BY IDOCK:   -9.11 KCAL/MOL
REMARK 924 INTRA-LIGAND FREE ENERGY PREDICTED BY IDOCK:    0.42 KCAL/MOL
REMARK 927      BINDING AFFINITY PREDICTED BY RF-SCORE:    0.00 PKD
ROOT
HETATM    1  C   UNL     1     -11.167  15.166  64.716  1.00  0.00    -0.396 C  
HETATM    2  C   UNL     1     -10.639  16.441  65.352  1.00  0.00    -0.320 C  
ENDROOT
BRANCH   2   3
HETATM    3  O   UNL     1      -9.229  16.417  65.361  1.00  0.00    -0.326 OA 
BRANCH   3   4
HETATM    4  C   UNL     1      -8.459  16.687  66.445  1.00  0.00    -0.313 A  
HETATM    5  C   UNL     1      -7.806  17.968  66.440  1.00  0.00    -0.269 A  
HETATM    6  C   UNL     1      -6.802  18.242  67.407  1.00  0.00    -0.197 A  
HETATM    7  C   UNL     1      -7.375  15.145  69.531  1.00  0.00    -0.210 C  
HETATM    8  C   UNL     1      -6.510  17.281  68.417  1.00  0.00    -0.164 A  
HETATM    9  O   UNL     1      -8.461  14.363  69.292  1.00  0.00     0.007 OA 
HETATM   10  O   UNL     1      -6.577  15.002  70.433  1.00  0.00    -0.117 OA 
HETATM   11  N   UNL     1      -5.650  17.597  69.483  1.00  0.00    -0.201 NA 
HETATM   12  C   UNL     1      -9.198  14.793  68.121  1.00  0.00    -0.195 C  
HETATM   13  C   UNL     1      -7.337  16.155  68.475  1.00  0.00    -0.161 A  
HETATM   14  H2  UNL     1      -6.003  18.438  69.937  1.00  0.00     0.000 HD 
HETATM   15  H1  UNL     1      -5.441  16.908  70.206  1.00  0.00     0.000 HD 
HETATM   16  C   UNL     1      -8.335  15.884  67.557  1.00  0.00    -0.180 A  
BRANCH   5  17
HETATM   17  O   UNL     1      -8.203  19.011  65.594  1.00  0.00    -0.392 OA 
BRANCH  17  18
HETATM   18  C   UNL     1      -9.139  19.929  66.195  1.00  0.00    -0.322 C  
HETATM   19  C   UNL     1     -10.546  19.915  65.635  1.00  0.00    -0.431 C  
ENDBRANCH  17  18
ENDBRANCH   5  17
BRANCH   6  20
HETATM   20  O   UNL     1      -6.147  19.445  67.588  1.00  0.00    -0.200 OA 
BRANCH  20  21
HETATM   21  C   UNL     1      -6.725  20.371  68.511  1.00  0.00    -0.236 C  
HETATM   22  C   UNL     1      -5.591  21.090  69.246  1.00  0.00    -0.335 C  
ENDBRANCH  20  21
ENDBRANCH   6  20
BRANCH  12  23
HETATM   23  C   UNL     1     -10.693  15.196  68.502  1.00  0.00    -0.240 C  
HETATM   24  C   UNL     1     -10.694  16.613  70.526  1.00  0.00     0.258 C  
HETATM   25  C   UNL     1     -10.458  17.724  68.404  1.00  0.00    -0.347 C  
HETATM   26  N   UNL     1     -10.957  16.548  69.090  1.00  0.00    -0.316 NA 
HETATM   27  C   UNL     1     -11.767  15.807  71.233  1.00  0.00    -0.496 C  
HETATM   28  C   UNL     1     -11.888  14.416  70.668  1.00  0.00    -0.361 A  
HETATM   29  C   UNL     1     -12.564  13.468  71.452  1.00  0.00    -0.398 A  
HETATM   30  C   UNL     1     -12.689  12.196  70.961  1.00  0.00    -0.228 A  
HETATM   31  C   UNL     1     -12.213  11.844  69.721  1.00  0.00    -0.174 A  
HETATM   32  O   UNL     1     -12.451  10.521  69.474  1.00  0.00    -0.201 OA 
HETATM   33  C   UNL     1     -11.585  12.766  68.884  1.00  0.00    -0.316 A  
HETATM   34  C   UNL     1     -11.393  14.090  69.366  1.00  0.00    -0.317 A  
HETATM   35  O   UNL     1     -13.279  11.165  71.625  1.00  0.00    -0.418 OA 
HETATM   36  C   UNL     1     -12.977  10.079  70.737  1.00  0.00    -0.257 C  
BRANCH  33  37
HETATM   37  O   UNL     1     -11.136  12.496  67.622  1.00  0.00    -0.235 OA 
HETATM   38  C   UNL     1     -12.094  12.451  66.567  1.00  0.00    -0.105 C  
ENDBRANCH  33  37
ENDBRANCH  12  23
ENDBRANCH   3   4
ENDBRANCH   2   3
TORSDOF 8
ENDMDL
MODEL       31
REMARK 921   NORMALIZED FREE ENERGY PREDICTED BY IDOCK:   -5.35 KCAL/MOL
REMARK 922        TOTAL FREE ENERGY PREDICTED BY IDOCK:   -8.63 KCAL/MOL
REMARK 923 INTER-LIGAND FREE ENERGY PREDICTED BY IDOCK:   -7.52 KCAL/MOL
REMARK 924 INTRA-LIGAND FREE ENERGY PREDICTED BY IDOCK:   -1.11 KCAL/MOL
REMARK 927      BINDING AFFINITY PREDICTED BY RF-SCORE:    0.00 PKD
ROOT
HETATM    1  C   UNL     1      -6.015   9.207  71.355  1.00  0.00    -0.069 C  
HETATM    2  C   UNL     1      -6.489  10.241  70.347  1.00  0.00    -0.131 C  
ENDROOT
BRANCH   2   3
HETATM    3  O   UNL     1      -7.837   9.993  70.015  1.00  0.00    -0.166 OA 
BRANCH   3   4
HETATM    4  C   UNL     1      -8.250   9.302  68.923  1.00  0.00    -0.111 A  
HETATM    5  C   UNL     1      -8.822   8.009  69.185  1.00  0.00    -0.145 A  
HETATM    6  C   UNL     1      -9.062   7.122  68.102  1.00  0.00    -0.133 A  
HETATM    7  C   UNL     1      -8.357   9.612  65.322  1.00  0.00    -0.134 C  
HETATM    8  C   UNL     1      -8.812   7.549  66.767  1.00  0.00    -0.140 A  
HETATM    9  O   UNL     1      -8.203  10.927  65.628  1.00  0.00    -0.154 OA 
HETATM   10  O   UNL     1      -8.373   9.136  64.207  1.00  0.00    -0.155 OA 
HETATM   11  N   UNL     1      -9.204   6.758  65.673  1.00  0.00    -0.376 NA 
HETATM   12  C   UNL     1      -8.209  11.162  67.057  1.00  0.00    -0.146 C  
HETATM   13  C   UNL     1      -8.460   8.890  66.589  1.00  0.00    -0.122 A  
HETATM   14  H2  UNL     1     -10.201   6.563  65.763  1.00  0.00     0.000 HD 
HETATM   15  H1  UNL     1      -9.025   7.064  64.716  1.00  0.00     0.000 HD 
HETATM   16  C   UNL     1      -8.245   9.774  67.629  1.00  0.00    -0.114 A  
BRANCH   5  17
HETATM   17  O   UNL     1      -9.267   7.628  70.456  1.00  0.00    -0.158 OA 
BRANCH  17  18
HETATM   18  C   UNL     1     -10.625   8.024  70.745  1.00  0.00    -0.214 C  
HETATM   19  C   UNL     1     -11.624   6.903  70.938  1.00  0.00    -0.384 C  
ENDBRANCH  17  18
ENDBRANCH   5  17
BRANCH   6  20
HETATM   20  O   UNL     1      -9.681   5.888  68.177  1.00  0.00    -0.120 OA 
BRANCH  20  21
HETATM   21  C   UNL     1      -8.891   4.788  68.634  1.00  0.00    -0.099 C  
HETATM   22  C   UNL     1      -9.652   4.085  69.761  1.00  0.00    -0.280 C  
ENDBRANCH  20  21
ENDBRANCH   6  20
BRANCH  12  23
HETATM   23  C   UNL     1      -9.405  12.132  67.472  1.00  0.00    -0.181 C  
HETATM   24  C   UNL     1     -11.222  11.991  65.803  1.00  0.00    -0.334 C  
HETATM   25  C   UNL     1     -11.272  10.415  67.621  1.00  0.00    -0.213 C  
HETATM   26  N   UNL     1     -10.815  11.718  67.180  1.00  0.00    -0.244 NA 
HETATM   27  C   UNL     1     -11.353  13.494  65.646  1.00  0.00    -0.312 C  
HETATM   28  C   UNL     1     -10.112  14.217  66.100  1.00  0.00    -0.325 A  
HETATM   29  C   UNL     1      -9.959  15.545  65.674  1.00  0.00    -0.394 A  
HETATM   30  C   UNL     1      -8.840  16.226  66.075  1.00  0.00    -0.273 A  
HETATM   31  C   UNL     1      -7.901  15.659  66.905  1.00  0.00    -0.223 A  
HETATM   32  O   UNL     1      -6.881  16.537  67.143  1.00  0.00    -0.157 OA 
HETATM   33  C   UNL     1      -8.040  14.362  67.398  1.00  0.00    -0.199 A  
HETATM   34  C   UNL     1      -9.165  13.599  66.977  1.00  0.00    -0.254 A  
HETATM   35  O   UNL     1      -8.535  17.500  65.707  1.00  0.00    -0.530 OA 
HETATM   36  C   UNL     1      -7.218  17.622  66.262  1.00  0.00    -0.307 C  
BRANCH  33  37
HETATM   37  O   UNL     1      -7.174  13.760  68.266  1.00  0.00    -0.091 OA 
HETATM   38  C   UNL     1      -5.823  13.584  67.847  1.00  0.00    -0.133 C  
ENDBRANCH  33  37
ENDBRANCH  12  23
ENDBRANCH   3   4
ENDBRANCH   2   3
TORSDOF 8
ENDMDL
MODEL       32
REMARK 921   NORMALIZED FREE ENERGY PREDICTED BY IDOCK:   -5.22 KCAL/MOL
REMARK 922        TOTAL FREE ENERGY PREDICTED BY IDOCK:   -8.44 KCAL/MOL
REMARK 923 INTER-LIGAND FREE ENERGY PREDICTED BY IDOCK:   -7.75 KCAL/MOL
REMARK 924 INTRA-LIGAND FREE ENERGY PREDICTED BY IDOCK:   -0.70 KCAL/MOL
REMARK 927      BINDING AFFINITY PREDICTED BY RF-SCORE:    0.00 PKD
ROOT
HETATM    1  C   UNL     1     -10.485   5.239  66.397  1.00  0.00    -0.347 C  
HETATM    2  C   UNL     1     -10.682   6.681  66.835  1.00  0.00    -0.331 C  
ENDROOT
BRANCH   2   3
HETATM    3  O   UNL     1      -9.525   7.428  66.532  1.00  0.00    -0.180 OA 
BRANCH   3   4
HETATM    4  C   UNL     1      -9.120   8.532  67.210  1.00  0.00    -0.133 A  
HETATM    5  C   UNL     1      -9.272   9.780  66.513  1.00  0.00    -0.156 A  
HETATM    6  C   UNL     1      -8.664  10.951  67.039  1.00  0.00    -0.141 A  
HETATM    7  C   UNL     1      -7.634   9.454  70.375  1.00  0.00    -0.145 C  
HETATM    8  C   UNL     1      -7.982  10.894  68.288  1.00  0.00    -0.121 A  
HETATM    9  O   UNL     1      -8.095   8.225  70.726  1.00  0.00    -0.098 OA 
HETATM   10  O   UNL     1      -6.967  10.191  71.070  1.00  0.00    -0.320 OA 
HETATM   11  N   UNL     1      -7.525  12.069  68.912  1.00  0.00    -0.254 NA 
HETATM   12  C   UNL     1      -8.846   7.597  69.658  1.00  0.00    -0.140 C  
HETATM   13  C   UNL     1      -8.064   9.693  68.999  1.00  0.00    -0.103 A  
HETATM   14  H2  UNL     1      -8.317  12.704  69.010  1.00  0.00     0.000 HD 
HETATM   15  H1  UNL     1      -7.037  12.028  69.807  1.00  0.00     0.000 HD 
HETATM   16  C   UNL     1      -8.672   8.551  68.512  1.00  0.00    -0.139 A  
BRANCH   5  17
HETATM   17  O   UNL     1     -10.099   9.919  65.391  1.00  0.00    -0.313 OA 
BRANCH  17  18
HETATM   18  C   UNL     1      -9.382  10.041  64.145  1.00  0.00    -0.280 C  
HETATM   19  C   UNL     1      -9.824  11.158  63.223  1.00  0.00    -0.415 C  
ENDBRANCH  17  18
ENDBRANCH   5  17
BRANCH   6  20
HETATM   20  O   UNL     1      -8.787  12.233  66.539  1.00  0.00    -0.197 OA 
BRANCH  20  21
HETATM   21  C   UNL     1     -10.067  12.859  66.653  1.00  0.00    -0.245 C  
HETATM   22  C   UNL     1     -10.175  13.936  65.572  1.00  0.00    -0.348 C  
ENDBRANCH  20  21
ENDBRANCH   6  20
BRANCH  12  23
HETATM   23  C   UNL     1     -10.345   7.298  70.112  1.00  0.00    -0.212 C  
HETATM   24  C   UNL     1     -10.940   8.718  72.043  1.00  0.00    -0.368 C  
HETATM   25  C   UNL     1     -11.311   9.633  69.849  1.00  0.00    -0.159 C  
HETATM   26  N   UNL     1     -11.187   8.420  70.635  1.00  0.00    -0.258 NA 
HETATM   27  C   UNL     1     -11.496   7.570  72.866  1.00  0.00    -0.311 C  
HETATM   28  C   UNL     1     -10.976   6.238  72.394  1.00  0.00    -0.291 A  
HETATM   29  C   UNL     1     -11.112   5.154  73.275  1.00  0.00    -0.392 A  
HETATM   30  C   UNL     1     -10.649   3.931  72.869  1.00  0.00    -0.149 A  
HETATM   31  C   UNL     1     -10.103   3.736  71.623  1.00  0.00    -0.079 A  
HETATM   32  O   UNL     1      -9.709   2.436  71.471  1.00  0.00    -0.145 OA 
HETATM   33  C   UNL     1      -9.999   4.770  70.694  1.00  0.00    -0.230 A  
HETATM   34  C   UNL     1     -10.427   6.070  71.083  1.00  0.00    -0.284 A  
HETATM   35  O   UNL     1     -10.674   2.803  73.630  1.00  0.00    -0.149 OA 
HETATM   36  C   UNL     1      -9.931   1.908  72.790  1.00  0.00    -0.113 C  
BRANCH  33  37
HETATM   37  O   UNL     1      -9.515   4.633  69.423  1.00  0.00    -0.137 OA 
HETATM   38  C   UNL     1      -8.144   4.278  69.265  1.00  0.00    -0.063 C  
ENDBRANCH  33  37
ENDBRANCH  12  23
ENDBRANCH   3   4
ENDBRANCH   2   3
TORSDOF 8
ENDMDL
MODEL       33
REMARK 921   NORMALIZED FREE ENERGY PREDICTED BY IDOCK:   -5.22 KCAL/MOL
REMARK 922        TOTAL FREE ENERGY PREDICTED BY IDOCK:   -8.44 KCAL/MOL
REMARK 923 INTER-LIGAND FREE ENERGY PREDICTED BY IDOCK:   -7.49 KCAL/MOL
REMARK 924 INTRA-LIGAND FREE ENERGY PREDICTED BY IDOCK:   -0.95 KCAL/MOL
REMARK 927      BINDING AFFINITY PREDICTED BY RF-SCORE:    0.00 PKD
ROOT
HETATM    1  C   UNL     1     -12.850   6.849  71.753  1.00  0.00    -0.349 C  
HETATM    2  C   UNL     1     -11.940   6.769  70.539  1.00  0.00    -0.328 C  
ENDROOT
BRANCH   2   3
HETATM    3  O   UNL     1     -10.594   6.751  70.959  1.00  0.00    -0.217 OA 
BRANCH   3   4
HETATM    4  C   UNL     1      -9.529   6.596  70.132  1.00  0.00    -0.158 A  
HETATM    5  C   UNL     1      -9.172   5.237  69.826  1.00  0.00    -0.126 A  
HETATM    6  C   UNL     1      -7.942   4.971  69.168  1.00  0.00    -0.080 A  
HETATM    7  C   UNL     1      -7.084   8.580  68.356  1.00  0.00    -0.084 C  
HETATM    8  C   UNL     1      -7.115   6.052  68.747  1.00  0.00    -0.081 A  
HETATM    9  O   UNL     1      -8.017   9.549  68.552  1.00  0.00    -0.091 OA 
HETATM   10  O   UNL     1      -5.990   8.735  67.856  1.00  0.00    -0.048 OA 
HETATM   11  N   UNL     1      -5.985   5.822  67.944  1.00  0.00    -0.016 NA 
HETATM   12  C   UNL     1      -9.211   9.036  69.192  1.00  0.00    -0.144 C  
HETATM   13  C   UNL     1      -7.638   7.340  68.894  1.00  0.00    -0.103 A  
HETATM   14  H2  UNL     1      -6.283   5.308  67.115  1.00  0.00     0.000 HD 
HETATM   15  H1  UNL     1      -5.393   6.597  67.642  1.00  0.00     0.000 HD 
HETATM   16  C   UNL     1      -8.844   7.616  69.510  1.00  0.00    -0.139 A  
BRANCH   5  17
HETATM   17  O   UNL     1     -10.045   4.163  70.043  1.00  0.00    -0.159 OA 
BRANCH  17  18
HETATM   18  C   UNL     1      -9.639   3.285  71.114  1.00  0.00    -0.160 C  
HETATM   19  C   UNL     1      -9.471   3.924  72.477  1.00  0.00    -0.173 C  
ENDBRANCH  17  18
ENDBRANCH   5  17
BRANCH   6  20
HETATM   20  O   UNL     1      -7.497   3.738  68.731  1.00  0.00    -0.054 OA 
BRANCH  20  21
HETATM   21  C   UNL     1      -8.215   3.128  67.656  1.00  0.00    -0.080 C  
HETATM   22  C   UNL     1      -8.392   1.642  67.977  1.00  0.00    -0.075 C  
ENDBRANCH  20  21
ENDBRANCH   6  20
BRANCH  12  23
HETATM   23  C   UNL     1     -10.492   9.248  68.265  1.00  0.00    -0.215 C  
HETATM   24  C   UNL     1      -9.796   9.479  65.906  1.00  0.00    -0.290 C  
HETATM   25  C   UNL     1     -10.197   7.251  66.722  1.00  0.00    -0.235 C  
HETATM   26  N   UNL     1     -10.502   8.659  66.888  1.00  0.00    -0.287 NA 
HETATM   27  C   UNL     1     -10.623  10.727  65.662  1.00  0.00    -0.199 C  
HETATM   28  C   UNL     1     -10.973  11.430  66.947  1.00  0.00    -0.355 A  
HETATM   29  C   UNL     1     -11.404  12.761  66.846  1.00  0.00    -0.371 A  
HETATM   30  C   UNL     1     -11.730  13.423  68.001  1.00  0.00    -0.356 A  
HETATM   31  C   UNL     1     -11.684  12.809  69.230  1.00  0.00    -0.319 A  
HETATM   32  O   UNL     1     -12.042  13.684  70.216  1.00  0.00    -0.327 OA 
HETATM   33  C   UNL     1     -11.316  11.471  69.372  1.00  0.00    -0.289 A  
HETATM   34  C   UNL     1     -10.928  10.753  68.207  1.00  0.00    -0.307 A  
HETATM   35  O   UNL     1     -12.121  14.725  68.063  1.00  0.00    -0.272 OA 
HETATM   36  C   UNL     1     -12.160  14.916  69.484  1.00  0.00    -0.279 C  
BRANCH  33  37
HETATM   37  O   UNL     1     -11.300  10.787  70.554  1.00  0.00    -0.307 OA 
HETATM   38  C   UNL     1     -12.551  10.467  71.158  1.00  0.00    -0.410 C  
ENDBRANCH  33  37
ENDBRANCH  12  23
ENDBRANCH   3   4
ENDBRANCH   2   3
TORSDOF 8
ENDMDL
MODEL       34
REMARK 921   NORMALIZED FREE ENERGY PREDICTED BY IDOCK:   -5.16 KCAL/MOL
REMARK 922        TOTAL FREE ENERGY PREDICTED BY IDOCK:   -8.36 KCAL/MOL
REMARK 923 INTER-LIGAND FREE ENERGY PREDICTED BY IDOCK:   -7.38 KCAL/MOL
REMARK 924 INTRA-LIGAND FREE ENERGY PREDICTED BY IDOCK:   -0.98 KCAL/MOL
REMARK 927      BINDING AFFINITY PREDICTED BY RF-SCORE:    0.00 PKD
ROOT
HETATM    1  C   UNL     1      -6.159  11.478  70.109  1.00  0.00    -0.156 C  
HETATM    2  C   UNL     1      -6.558  11.327  68.651  1.00  0.00    -0.064 C  
ENDROOT
BRANCH   2   3
HETATM    3  O   UNL     1      -7.424  10.223  68.509  1.00  0.00    -0.080 OA 
BRANCH   3   4
HETATM    4  C   UNL     1      -8.760  10.254  68.746  1.00  0.00    -0.144 A  
HETATM    5  C   UNL     1      -9.556  10.889  67.732  1.00  0.00    -0.164 A  
HETATM    6  C   UNL     1     -10.922  11.178  67.996  1.00  0.00    -0.252 A  
HETATM    7  C   UNL     1     -11.154   9.257  71.265  1.00  0.00    -0.357 C  
HETATM    8  C   UNL     1     -11.507  10.765  69.228  1.00  0.00    -0.298 A  
HETATM    9  O   UNL     1     -10.128   8.446  71.637  1.00  0.00    -0.199 OA 
HETATM   10  O   UNL     1     -12.211   9.381  71.846  1.00  0.00    -0.365 OA 
HETATM   11  N   UNL     1     -12.891  10.882  69.442  1.00  0.00    -0.442 NA 
HETATM   12  C   UNL     1      -8.997   8.546  70.738  1.00  0.00    -0.165 C  
HETATM   13  C   UNL     1     -10.719   9.969  70.065  1.00  0.00    -0.348 A  
HETATM   14  H2  UNL     1     -13.371  10.399  68.683  1.00  0.00     0.000 HD 
HETATM   15  H1  UNL     1     -13.310  10.587  70.323  1.00  0.00     0.000 HD 
HETATM   16  C   UNL     1      -9.397   9.658  69.812  1.00  0.00    -0.238 A  
BRANCH   5  17
HETATM   17  O   UNL     1      -9.075  11.129  66.438  1.00  0.00    -0.175 OA 
BRANCH  17  18
HETATM   18  C   UNL     1      -9.515  10.163  65.461  1.00  0.00    -0.230 C  
HETATM   19  C   UNL     1      -9.991  10.720  64.135  1.00  0.00    -0.405 C  
ENDBRANCH  17  18
ENDBRANCH   5  17
BRANCH   6  20
HETATM   20  O   UNL     1     -11.836  11.702  67.103  1.00  0.00    -0.608 OA 
BRANCH  20  21
HETATM   21  C   UNL     1     -11.830  13.119  66.918  1.00  0.00    -0.386 C  
HETATM   22  C   UNL     1     -12.363  13.425  65.517  1.00  0.00    -0.528 C  
ENDBRANCH  20  21
ENDBRANCH   6  20
BRANCH  12  23
HETATM   23  C   UNL     1      -8.678   7.138  70.061  1.00  0.00    -0.141 C  
HETATM   24  C   UNL     1     -10.707   5.729  70.051  1.00  0.00    -0.330 C  
HETATM   25  C   UNL     1     -10.385   7.207  68.181  1.00  0.00    -0.196 C  
HETATM   26  N   UNL     1      -9.737   6.464  69.243  1.00  0.00    -0.136 NA 
HETATM   27  C   UNL     1     -10.007   4.511  70.625  1.00  0.00    -0.273 C  
HETATM   28  C   UNL     1      -8.732   4.880  71.337  1.00  0.00    -0.141 A  
HETATM   29  C   UNL     1      -8.193   3.924  72.211  1.00  0.00    -0.092 A  
HETATM   30  C   UNL     1      -7.033   4.234  72.870  1.00  0.00    -0.062 A  
HETATM   31  C   UNL     1      -6.375   5.423  72.666  1.00  0.00    -0.051 A  
HETATM   32  O   UNL     1      -5.256   5.493  73.449  1.00  0.00    -0.020 OA 
HETATM   33  C   UNL     1      -6.843   6.380  71.765  1.00  0.00    -0.064 A  
HETATM   34  C   UNL     1      -8.067   6.123  71.087  1.00  0.00    -0.121 A  
HETATM   35  O   UNL     1      -6.418   3.427  73.777  1.00  0.00    -0.027 OA 
HETATM   36  C   UNL     1      -5.387   4.305  74.249  1.00  0.00    -0.008 C  
BRANCH  33  37
HETATM   37  O   UNL     1      -6.212   7.557  71.477  1.00  0.00    -0.036 OA 
HETATM   38  C   UNL     1      -6.036   8.497  72.534  1.00  0.00    -0.073 C  
ENDBRANCH  33  37
ENDBRANCH  12  23
ENDBRANCH   3   4
ENDBRANCH   2   3
TORSDOF 8
ENDMDL
MODEL       35
REMARK 921   NORMALIZED FREE ENERGY PREDICTED BY IDOCK:   -5.14 KCAL/MOL
REMARK 922        TOTAL FREE ENERGY PREDICTED BY IDOCK:   -8.33 KCAL/MOL
REMARK 923 INTER-LIGAND FREE ENERGY PREDICTED BY IDOCK:   -8.09 KCAL/MOL
REMARK 924 INTRA-LIGAND FREE ENERGY PREDICTED BY IDOCK:   -0.24 KCAL/MOL
REMARK 927      BINDING AFFINITY PREDICTED BY RF-SCORE:    0.00 PKD
ROOT
HETATM    1  C   UNL     1      -6.644  16.448  69.380  1.00  0.00    -0.210 C  
HETATM    2  C   UNL     1      -7.359  15.116  69.535  1.00  0.00    -0.210 C  
ENDROOT
BRANCH   2   3
HETATM    3  O   UNL     1      -8.423  15.041  68.612  1.00  0.00    -0.152 OA 
BRANCH   3   4
HETATM    4  C   UNL     1      -9.676  14.613  68.912  1.00  0.00    -0.196 A  
HETATM    5  C   UNL     1     -10.553  15.604  69.473  1.00  0.00    -0.266 A  
HETATM    6  C   UNL     1     -11.795  15.198  70.032  1.00  0.00    -0.325 A  
HETATM    7  C   UNL     1     -11.675  11.602  68.816  1.00  0.00    -0.330 C  
HETATM    8  C   UNL     1     -12.192  13.832  69.959  1.00  0.00    -0.342 A  
HETATM    9  O   UNL     1     -10.717  11.230  67.926  1.00  0.00    -0.186 OA 
HETATM   10  O   UNL     1     -12.580  10.905  69.222  1.00  0.00    -0.356 OA 
HETATM   11  N   UNL     1     -13.485  13.438  70.346  1.00  0.00     0.547 NA 
HETATM   12  C   UNL     1      -9.769  12.293  67.666  1.00  0.00    -0.194 C  
HETATM   13  C   UNL     1     -11.378  12.977  69.210  1.00  0.00    -0.310 A  
HETATM   14  H2  UNL     1     -14.158  13.994  69.819  1.00  0.00     0.000 HD 
HETATM   15  H1  UNL     1     -13.769  12.459  70.293  1.00  0.00     0.000 HD 
HETATM   16  C   UNL     1     -10.179  13.361  68.639  1.00  0.00    -0.187 A  
BRANCH   5  17
HETATM   17  O   UNL     1     -10.292  16.977  69.386  1.00  0.00    -0.299 OA 
BRANCH  17  18
HETATM   18  C   UNL     1     -10.669  17.566  68.124  1.00  0.00    -0.329 C  
HETATM   19  C   UNL     1     -10.264  19.009  67.909  1.00  0.00    -0.479 C  
ENDBRANCH  17  18
ENDBRANCH   5  17
BRANCH   6  20
HETATM   20  O   UNL     1     -12.779  16.030  70.529  1.00  0.00    -0.341 OA 
BRANCH  20  21
HETATM   21  C   UNL     1     -13.185  15.825  71.884  1.00  0.00    -0.398 C  
HETATM   22  C   UNL     1     -12.052  16.289  72.803  1.00  0.00    -0.637 C  
ENDBRANCH  20  21
ENDBRANCH   6  20
BRANCH  12  23
HETATM   23  C   UNL     1      -9.773  12.699  66.124  1.00  0.00    -0.251 C  
HETATM   24  C   UNL     1     -12.027  12.365  65.170  1.00  0.00    -0.400 C  
HETATM   25  C   UNL     1     -11.568  14.495  66.192  1.00  0.00    -0.365 C  
HETATM   26  N   UNL     1     -10.997  13.333  65.539  1.00  0.00    -0.280 NA 
HETATM   27  C   UNL     1     -11.530  11.594  63.962  1.00  0.00    -0.404 C  
HETATM   28  C   UNL     1     -10.160  11.013  64.191  1.00  0.00    -0.403 A  
HETATM   29  C   UNL     1      -9.749   9.992  63.320  1.00  0.00     0.041 A  
HETATM   30  C   UNL     1      -8.506   9.447  63.506  1.00  0.00    -0.201 A  
HETATM   31  C   UNL     1      -7.651   9.899  64.483  1.00  0.00    -0.139 A  
HETATM   32  O   UNL     1      -6.486   9.185  64.468  1.00  0.00    -0.074 OA 
HETATM   33  C   UNL     1      -7.995  10.948  65.335  1.00  0.00     0.046 A  
HETATM   34  C   UNL     1      -9.292  11.520  65.209  1.00  0.00    -0.155 A  
HETATM   35  O   UNL     1      -7.991   8.425  62.770  1.00  0.00    -0.143 OA 
HETATM   36  C   UNL     1      -6.780   8.168  63.495  1.00  0.00    -0.076 C  
BRANCH  33  37
HETATM   37  O   UNL     1      -7.175  11.480  66.290  1.00  0.00    -0.013 OA 
HETATM   38  C   UNL     1      -6.832  10.663  67.407  1.00  0.00    -0.077 C  
ENDBRANCH  33  37
ENDBRANCH  12  23
ENDBRANCH   3   4
ENDBRANCH   2   3
TORSDOF 8
ENDMDL
MODEL       36
REMARK 921   NORMALIZED FREE ENERGY PREDICTED BY IDOCK:   -5.03 KCAL/MOL
REMARK 922        TOTAL FREE ENERGY PREDICTED BY IDOCK:   -8.17 KCAL/MOL
REMARK 923 INTER-LIGAND FREE ENERGY PREDICTED BY IDOCK:   -7.11 KCAL/MOL
REMARK 924 INTRA-LIGAND FREE ENERGY PREDICTED BY IDOCK:   -1.06 KCAL/MOL
REMARK 927      BINDING AFFINITY PREDICTED BY RF-SCORE:    0.00 PKD
ROOT
HETATM    1  C   UNL     1     -12.209  11.936  70.507  1.00  0.00    -0.426 C  
HETATM    2  C   UNL     1     -11.552  10.940  69.565  1.00  0.00    -0.313 C  
ENDROOT
BRANCH   2   3
HETATM    3  O   UNL     1     -10.362  11.493  69.048  1.00  0.00    -0.194 OA 
BRANCH   3   4
HETATM    4  C   UNL     1     -10.258  12.114  67.846  1.00  0.00    -0.198 A  
HETATM    5  C   UNL     1      -9.924  13.511  67.895  1.00  0.00    -0.245 A  
HETATM    6  C   UNL     1     -10.024  14.294  66.714  1.00  0.00    -0.265 A  
HETATM    7  C   UNL     1     -10.615  11.406  64.318  1.00  0.00    -0.355 C  
HETATM    8  C   UNL     1     -10.375  13.673  65.481  1.00  0.00    -0.309 A  
HETATM    9  O   UNL     1     -10.458  10.130  64.759  1.00  0.00    -0.117 OA 
HETATM   10  O   UNL     1     -10.856  11.742  63.178  1.00  0.00    -0.323 OA 
HETATM   11  N   UNL     1     -10.311  14.388  64.272  1.00  0.00    -0.463 NA 
HETATM   12  C   UNL     1     -10.198  10.071  66.183  1.00  0.00    -0.213 C  
HETATM   13  C   UNL     1     -10.475  12.279  65.482  1.00  0.00    -0.296 A  
HETATM   14  H2  UNL     1      -9.371  14.771  64.179  1.00  0.00     0.000 HD 
HETATM   15  H1  UNL     1     -10.562  13.944  63.389  1.00  0.00     0.000 HD 
HETATM   16  C   UNL     1     -10.357  11.499  66.617  1.00  0.00    -0.262 A  
BRANCH   5  17
HETATM   17  O   UNL     1      -9.384  14.115  69.038  1.00  0.00    -0.072 OA 
BRANCH  17  18
HETATM   18  C   UNL     1      -7.941  14.138  69.061  1.00  0.00     0.012 C  
HETATM   19  C   UNL     1      -7.297  15.462  69.416  1.00  0.00    -0.213 C  
ENDBRANCH  17  18
ENDBRANCH   5  17
BRANCH   6  20
HETATM   20  O   UNL     1      -9.660  15.619  66.577  1.00  0.00    -0.237 OA 
BRANCH  20  21
HETATM   21  C   UNL     1     -10.630  16.604  66.939  1.00  0.00    -0.229 C  
HETATM   22  C   UNL     1     -10.122  17.351  68.175  1.00  0.00    -0.328 C  
ENDBRANCH  20  21
ENDBRANCH   6  20
BRANCH  12  23
HETATM   23  C   UNL     1      -8.785   9.392  66.478  1.00  0.00    -0.134 C  
HETATM   24  C   UNL     1      -7.196   9.930  64.665  1.00  0.00    -0.137 C  
HETATM   25  C   UNL     1      -7.339  11.481  66.498  1.00  0.00    -0.012 C  
HETATM   26  N   UNL     1      -7.533  10.108  66.076  1.00  0.00    -0.112 NA 
HETATM   27  C   UNL     1      -6.749   8.493  64.471  1.00  0.00    -0.066 C  
HETATM   28  C   UNL     1      -7.755   7.513  65.016  1.00  0.00    -0.116 A  
HETATM   29  C   UNL     1      -7.647   6.183  64.582  1.00  0.00    -0.093 A  
HETATM   30  C   UNL     1      -8.548   5.272  65.064  1.00  0.00    -0.150 A  
HETATM   31  C   UNL     1      -9.514   5.617  65.980  1.00  0.00    -0.110 A  
HETATM   32  O   UNL     1     -10.290   4.535  66.289  1.00  0.00    -0.261 OA 
HETATM   33  C   UNL     1      -9.623   6.914  66.482  1.00  0.00    -0.143 A  
HETATM   34  C   UNL     1      -8.737   7.907  65.981  1.00  0.00    -0.182 A  
HETATM   35  O   UNL     1      -8.593   3.962  64.701  1.00  0.00    -0.107 OA 
HETATM   36  C   UNL     1      -9.798   3.551  65.364  1.00  0.00    -0.036 C  
BRANCH  33  37
HETATM   37  O   UNL     1     -10.524   7.311  67.430  1.00  0.00    -0.229 OA 
HETATM   38  C   UNL     1     -10.247   6.989  68.791  1.00  0.00    -0.176 C  
ENDBRANCH  33  37
ENDBRANCH  12  23
ENDBRANCH   3   4
ENDBRANCH   2   3
TORSDOF 8
ENDMDL
MODEL       37
REMARK 921   NORMALIZED FREE ENERGY PREDICTED BY IDOCK:   -5.03 KCAL/MOL
REMARK 922        TOTAL FREE ENERGY PREDICTED BY IDOCK:   -8.16 KCAL/MOL
REMARK 923 INTER-LIGAND FREE ENERGY PREDICTED BY IDOCK:   -7.18 KCAL/MOL
REMARK 924 INTRA-LIGAND FREE ENERGY PREDICTED BY IDOCK:   -0.98 KCAL/MOL
REMARK 927      BINDING AFFINITY PREDICTED BY RF-SCORE:    0.00 PKD
ROOT
HETATM    1  C   UNL     1     -10.291  12.044  63.210  1.00  0.00    -0.398 C  
HETATM    2  C   UNL     1     -10.789  11.103  64.294  1.00  0.00    -0.284 C  
ENDROOT
BRANCH   2   3
HETATM    3  O   UNL     1      -9.765  10.198  64.640  1.00  0.00    -0.297 OA 
BRANCH   3   4
HETATM    4  C   UNL     1      -9.632   9.610  65.856  1.00  0.00    -0.257 A  
HETATM    5  C   UNL     1      -9.146   8.257  65.843  1.00  0.00    -0.149 A  
HETATM    6  C   UNL     1      -9.197   7.487  67.035  1.00  0.00    -0.138 A  
HETATM    7  C   UNL     1     -10.174  10.328  69.358  1.00  0.00    -0.235 C  
HETATM    8  C   UNL     1      -9.652   8.084  68.245  1.00  0.00    -0.146 A  
HETATM    9  O   UNL     1     -10.144  11.607  68.898  1.00  0.00    -0.181 OA 
HETATM   10  O   UNL     1     -10.413   9.986  70.496  1.00  0.00    -0.286 OA 
HETATM   11  N   UNL     1      -9.549   7.399  69.469  1.00  0.00    -0.156 NA 
HETATM   12  C   UNL     1      -9.847  11.672  67.482  1.00  0.00    -0.188 C  
HETATM   13  C   UNL     1      -9.904   9.459  68.215  1.00  0.00    -0.180 A  
HETATM   14  H2  UNL     1      -8.576   7.123  69.596  1.00  0.00     0.000 HD 
HETATM   15  H1  UNL     1      -9.875   7.827  70.335  1.00  0.00     0.000 HD 
HETATM   16  C   UNL     1      -9.836  10.229  67.069  1.00  0.00    -0.238 A  
BRANCH   5  17
HETATM   17  O   UNL     1      -8.507   7.699  64.729  1.00  0.00    -0.080 OA 
BRANCH  17  18
HETATM   18  C   UNL     1      -7.090   7.967  64.670  1.00  0.00    -0.076 C  
HETATM   19  C   UNL     1      -6.635   8.941  63.604  1.00  0.00    -0.089 C  
ENDBRANCH  17  18
ENDBRANCH   5  17
BRANCH   6  20
HETATM   20  O   UNL     1      -8.694   6.211  67.208  1.00  0.00    -0.110 OA 
BRANCH  20  21
HETATM   21  C   UNL     1      -9.564   5.120  66.901  1.00  0.00    -0.148 C  
HETATM   22  C   UNL     1      -8.973   4.350  65.717  1.00  0.00    -0.129 C  
ENDBRANCH  20  21
ENDBRANCH   6  20
BRANCH  12  23
HETATM   23  C   UNL     1      -8.509  12.497  67.216  1.00  0.00    -0.185 C  
HETATM   24  C   UNL     1      -7.007  12.320  69.169  1.00  0.00    -0.041 C  
HETATM   25  C   UNL     1      -6.824  10.614  67.483  1.00  0.00    -0.078 C  
HETATM   26  N   UNL     1      -7.213  11.983  67.763  1.00  0.00    -0.099 NA 
HETATM   27  C   UNL     1      -6.752  13.814  69.257  1.00  0.00    -0.101 C  
HETATM   28  C   UNL     1      -7.825  14.608  68.559  1.00  0.00    -0.133 A  
HETATM   29  C   UNL     1      -7.911  15.973  68.874  1.00  0.00    -0.202 A  
HETATM   30  C   UNL     1      -8.877  16.719  68.253  1.00  0.00    -0.228 A  
HETATM   31  C   UNL     1      -9.722  16.178  67.313  1.00  0.00    -0.233 A  
HETATM   32  O   UNL     1     -10.597  17.123  66.855  1.00  0.00    -0.297 OA 
HETATM   33  C   UNL     1      -9.636  14.841  66.927  1.00  0.00    -0.241 A  
HETATM   34  C   UNL     1      -8.677  14.014  67.575  1.00  0.00    -0.201 A  
HETATM   35  O   UNL     1      -9.106  18.039  68.488  1.00  0.00    -0.283 OA 
HETATM   36  C   UNL     1     -10.299  18.237  67.715  1.00  0.00    -0.401 C  
BRANCH  33  37
HETATM   37  O   UNL     1     -10.408  14.254  65.965  1.00  0.00    -0.289 OA 
HETATM   38  C   UNL     1     -11.812  14.168  66.194  1.00  0.00    -0.407 C  
ENDBRANCH  33  37
ENDBRANCH  12  23
ENDBRANCH   3   4
ENDBRANCH   2   3
TORSDOF 8
ENDMDL
MODEL       38
REMARK 921   NORMALIZED FREE ENERGY PREDICTED BY IDOCK:   -5.00 KCAL/MOL
REMARK 922        TOTAL FREE ENERGY PREDICTED BY IDOCK:   -8.12 KCAL/MOL
REMARK 923 INTER-LIGAND FREE ENERGY PREDICTED BY IDOCK:   -8.02 KCAL/MOL
REMARK 924 INTRA-LIGAND FREE ENERGY PREDICTED BY IDOCK:   -0.09 KCAL/MOL
REMARK 927      BINDING AFFINITY PREDICTED BY RF-SCORE:    0.00 PKD
ROOT
HETATM    1  C   UNL     1      -8.852  10.521  63.943  1.00  0.00    -0.203 C  
HETATM    2  C   UNL     1      -9.963  11.421  63.428  1.00  0.00    -0.402 C  
ENDROOT
BRANCH   2   3
HETATM    3  O   UNL     1     -10.641  12.005  64.519  1.00  0.00    -0.280 OA 
BRANCH   3   4
HETATM    4  C   UNL     1     -10.111  12.941  65.346  1.00  0.00    -0.251 A  
HETATM    5  C   UNL     1     -10.282  14.307  64.930  1.00  0.00    -0.329 A  
HETATM    6  C   UNL     1      -9.566  15.334  65.600  1.00  0.00    -0.278 A  
HETATM    7  C   UNL     1      -8.238  13.176  68.430  1.00  0.00    -0.130 C  
HETATM    8  C   UNL     1      -8.750  15.013  66.723  1.00  0.00    -0.260 A  
HETATM    9  O   UNL     1      -8.713  11.912  68.585  1.00  0.00    -0.131 OA 
HETATM   10  O   UNL     1      -7.463  13.743  69.171  1.00  0.00    -0.059 OA 
HETATM   11  N   UNL     1      -8.172  16.027  67.506  1.00  0.00    -0.147 NA 
HETATM   12  C   UNL     1      -9.608  11.528  67.512  1.00  0.00    -0.172 C  
HETATM   13  C   UNL     1      -8.808  13.696  67.189  1.00  0.00    -0.237 A  
HETATM   14  H2  UNL     1      -8.917  16.649  67.820  1.00  0.00     0.000 HD 
HETATM   15  H1  UNL     1      -7.589  15.797  68.310  1.00  0.00     0.000 HD 
HETATM   16  C   UNL     1      -9.520  12.689  66.564  1.00  0.00    -0.247 A  
BRANCH   5  17
HETATM   17  O   UNL     1     -11.224  14.687  63.965  1.00  0.00     0.033 OA 
BRANCH  17  18
HETATM   18  C   UNL     1     -12.519  15.018  64.509  1.00  0.00    -0.146 C  
HETATM   19  C   UNL     1     -13.225  13.918  65.274  1.00  0.00    -0.012 C  
ENDBRANCH  17  18
ENDBRANCH   5  17
BRANCH   6  20
HETATM   20  O   UNL     1      -9.684  16.693  65.379  1.00  0.00    -0.501 OA 
BRANCH  20  21
HETATM   21  C   UNL     1     -10.690  17.389  66.118  1.00  0.00    -0.100 C  
HETATM   22  C   UNL     1     -10.178  18.800  66.417  1.00  0.00    -0.464 C  
ENDBRANCH  20  21
ENDBRANCH   6  20
BRANCH  12  23
HETATM   23  C   UNL     1     -11.058  11.180  68.075  1.00  0.00    -0.276 C  
HETATM   24  C   UNL     1     -11.452  12.384  70.195  1.00  0.00     0.065 C  
HETATM   25  C   UNL     1     -12.025  13.528  68.158  1.00  0.00    -0.341 C  
HETATM   26  N   UNL     1     -11.837  12.238  68.794  1.00  0.00    -0.317 NA 
HETATM   27  C   UNL     1     -11.935  11.154  70.941  1.00  0.00    -0.362 C  
HETATM   28  C   UNL     1     -11.475   9.880  70.281  1.00  0.00    -0.349 A  
HETATM   29  C   UNL     1     -11.535   8.709  71.051  1.00  0.00    -0.324 A  
HETATM   30  C   UNL     1     -11.123   7.537  70.474  1.00  0.00    -0.259 A  
HETATM   31  C   UNL     1     -10.701   7.477  69.167  1.00  0.00    -0.151 A  
HETATM   32  O   UNL     1     -10.335   6.201  68.839  1.00  0.00    -0.170 OA 
HETATM   33  C   UNL     1     -10.679   8.605  68.348  1.00  0.00    -0.046 A  
HETATM   34  C   UNL     1     -11.056   9.855  68.913  1.00  0.00    -0.181 A  
HETATM   35  O   UNL     1     -11.083   6.334  71.109  1.00  0.00    -0.273 OA 
HETATM   36  C   UNL     1     -10.433   5.535  70.110  1.00  0.00    -0.300 C  
BRANCH  33  37
HETATM   37  O   UNL     1     -10.321   8.606  67.029  1.00  0.00    -0.270 OA 
HETATM   38  C   UNL     1      -9.004   8.176  66.693  1.00  0.00    -0.152 C  
ENDBRANCH  33  37
ENDBRANCH  12  23
ENDBRANCH   3   4
ENDBRANCH   2   3
TORSDOF 8
ENDMDL
MODEL       39
REMARK 921   NORMALIZED FREE ENERGY PREDICTED BY IDOCK:   -4.92 KCAL/MOL
REMARK 922        TOTAL FREE ENERGY PREDICTED BY IDOCK:   -8.01 KCAL/MOL
REMARK 923 INTER-LIGAND FREE ENERGY PREDICTED BY IDOCK:   -6.56 KCAL/MOL
REMARK 924 INTRA-LIGAND FREE ENERGY PREDICTED BY IDOCK:   -1.45 KCAL/MOL
REMARK 927      BINDING AFFINITY PREDICTED BY RF-SCORE:    0.00 PKD
ROOT
HETATM    1  C   UNL     1      -8.784   4.262  67.548  1.00  0.00    -0.114 C  
HETATM    2  C   UNL     1      -7.608   4.624  68.439  1.00  0.00    -0.069 C  
ENDROOT
BRANCH   2   3
HETATM    3  O   UNL     1      -7.961   5.707  69.270  1.00  0.00    -0.093 OA 
BRANCH   3   4
HETATM    4  C   UNL     1      -8.861   5.642  70.284  1.00  0.00    -0.139 A  
HETATM    5  C   UNL     1      -8.402   4.993  71.482  1.00  0.00    -0.119 A  
HETATM    6  C   UNL     1      -9.336   4.668  72.501  1.00  0.00    -0.131 A  
HETATM    7  C   UNL     1     -12.278   6.565  71.024  1.00  0.00    -0.177 C  
HETATM    8  C   UNL     1     -10.699   5.059  72.363  1.00  0.00    -0.200 A  
HETATM    9  O   UNL     1     -12.073   7.399  69.971  1.00  0.00     0.140 OA 
HETATM   10  O   UNL     1     -13.323   6.410  71.619  1.00  0.00     0.028 OA 
HETATM   11  N   UNL     1     -11.603   4.906  73.428  1.00  0.00    -0.459 NA 
HETATM   12  C   UNL     1     -10.713   7.332  69.476  1.00  0.00    -0.232 C  
HETATM   13  C   UNL     1     -11.015   5.871  71.269  1.00  0.00    -0.325 A  
HETATM   14  H2  UNL     1     -11.216   5.381  74.244  1.00  0.00     0.000 HD 
HETATM   15  H1  UNL     1     -12.579   5.186  73.329  1.00  0.00     0.000 HD 
HETATM   16  C   UNL     1     -10.113   6.216  70.280  1.00  0.00    -0.237 A  
BRANCH   5  17
HETATM   17  O   UNL     1      -7.044   4.772  71.744  1.00  0.00    -0.056 OA 
BRANCH  17  18
HETATM   18  C   UNL     1      -6.335   5.947  72.191  1.00  0.00    -0.049 C  
HETATM   19  C   UNL     1      -6.059   6.039  73.677  1.00  0.00    -0.063 C  
ENDBRANCH  17  18
ENDBRANCH   5  17
BRANCH   6  20
HETATM   20  O   UNL     1      -9.044   4.126  73.738  1.00  0.00    -0.095 OA 
BRANCH  20  21
HETATM   21  C   UNL     1      -8.816   2.717  73.796  1.00  0.00    -0.074 C  
HETATM   22  C   UNL     1      -7.427   2.477  74.393  1.00  0.00    -0.042 C  
ENDBRANCH  20  21
ENDBRANCH   6  20
BRANCH  12  23
HETATM   23  C   UNL     1      -9.995   8.752  69.584  1.00  0.00    -0.191 C  
HETATM   24  C   UNL     1     -11.431  10.330  70.828  1.00  0.00    -0.351 C  
HETATM   25  C   UNL     1      -9.923   8.966  72.115  1.00  0.00    -0.204 C  
HETATM   26  N   UNL     1     -10.182   9.572  70.823  1.00  0.00    -0.293 NA 
HETATM   27  C   UNL     1     -11.307  11.438  69.799  1.00  0.00    -0.332 C  
HETATM   28  C   UNL     1     -10.886  10.909  68.453  1.00  0.00    -0.266 A  
HETATM   29  C   UNL     1     -11.090  11.750  67.348  1.00  0.00    -0.338 A  
HETATM   30  C   UNL     1     -10.715  11.293  66.112  1.00  0.00    -0.250 A  
HETATM   31  C   UNL     1     -10.115  10.068  65.940  1.00  0.00    -0.249 A  
HETATM   32  O   UNL     1      -9.852   9.845  64.617  1.00  0.00    -0.285 OA 
HETATM   33  C   UNL     1      -9.842   9.223  67.015  1.00  0.00    -0.198 A  
HETATM   34  C   UNL     1     -10.251   9.634  68.314  1.00  0.00    -0.216 A  
HETATM   35  O   UNL     1     -10.889  11.976  64.949  1.00  0.00    -0.282 OA 
HETATM   36  C   UNL     1     -10.484  10.980  63.999  1.00  0.00    -0.366 C  
BRANCH  33  37
HETATM   37  O   UNL     1      -9.204   8.019  66.920  1.00  0.00    -0.139 OA 
HETATM   38  C   UNL     1      -7.799   8.024  66.678  1.00  0.00    -0.098 C  
ENDBRANCH  33  37
ENDBRANCH  12  23
ENDBRANCH   3   4
ENDBRANCH   2   3
TORSDOF 8
ENDMDL
MODEL       40
REMARK 921   NORMALIZED FREE ENERGY PREDICTED BY IDOCK:   -4.92 KCAL/MOL
REMARK 922        TOTAL FREE ENERGY PREDICTED BY IDOCK:   -8.00 KCAL/MOL
REMARK 923 INTER-LIGAND FREE ENERGY PREDICTED BY IDOCK:   -6.89 KCAL/MOL
REMARK 924 INTRA-LIGAND FREE ENERGY PREDICTED BY IDOCK:   -1.11 KCAL/MOL
REMARK 927      BINDING AFFINITY PREDICTED BY RF-SCORE:    0.00 PKD
ROOT
HETATM    1  C   UNL     1      -5.136  12.422  67.867  1.00  0.00    -0.078 C  
HETATM    2  C   UNL     1      -5.549  11.502  69.005  1.00  0.00    -0.050 C  
ENDROOT
BRANCH   2   3
HETATM    3  O   UNL     1      -6.945  11.573  69.186  1.00  0.00    -0.104 OA 
BRANCH   3   4
HETATM    4  C   UNL     1      -7.863  11.065  68.325  1.00  0.00    -0.121 A  
HETATM    5  C   UNL     1      -8.186   9.676  68.508  1.00  0.00    -0.105 A  
HETATM    6  C   UNL     1      -8.949   9.002  67.518  1.00  0.00    -0.122 A  
HETATM    7  C   UNL     1      -9.871  12.082  65.495  1.00  0.00    -0.229 C  
HETATM    8  C   UNL     1      -9.454   9.724  66.399  1.00  0.00    -0.184 A  
HETATM    9  O   UNL     1      -9.601  13.316  65.997  1.00  0.00    -0.249 OA 
HETATM   10  O   UNL     1     -10.468  11.846  64.467  1.00  0.00    -0.265 OA 
HETATM   11  N   UNL     1     -10.353   9.123  65.501  1.00  0.00     0.063 NA 
HETATM   12  C   UNL     1      -8.851  13.251  67.235  1.00  0.00    -0.216 C  
HETATM   13  C   UNL     1      -9.273  11.111  66.409  1.00  0.00    -0.199 A  
HETATM   14  H2  UNL     1     -11.146   8.769  66.035  1.00  0.00     0.000 HD 
HETATM   15  H1  UNL     1     -10.714   9.641  64.699  1.00  0.00     0.000 HD 
HETATM   16  C   UNL     1      -8.554  11.786  67.377  1.00  0.00    -0.160 A  
BRANCH   5  17
HETATM   17  O   UNL     1      -7.882   8.982  69.686  1.00  0.00    -0.081 OA 
BRANCH  17  18
HETATM   18  C   UNL     1      -8.824   9.205  70.757  1.00  0.00    -0.239 C  
HETATM   19  C   UNL     1     -10.228   8.683  70.533  1.00  0.00    -0.229 C  
ENDBRANCH  17  18
ENDBRANCH   5  17
BRANCH   6  20
HETATM   20  O   UNL     1      -9.412   7.702  67.586  1.00  0.00    -0.140 OA 
BRANCH  20  21
HETATM   21  C   UNL     1      -8.509   6.666  67.194  1.00  0.00    -0.113 C  
HETATM   22  C   UNL     1      -9.331   5.450  66.757  1.00  0.00    -0.136 C  
ENDBRANCH  20  21
ENDBRANCH   6  20
BRANCH  12  23
HETATM   23  C   UNL     1      -9.661  13.929  68.430  1.00  0.00    -0.226 C  
HETATM   24  C   UNL     1     -12.004  14.314  67.748  1.00  0.00    -0.349 C  
HETATM   25  C   UNL     1     -11.478  12.177  68.720  1.00  0.00    -0.307 C  
HETATM   26  N   UNL     1     -11.103  13.574  68.628  1.00  0.00    -0.258 NA 
HETATM   27  C   UNL     1     -12.025  15.759  68.211  1.00  0.00     0.032 C  
HETATM   28  C   UNL     1     -10.637  16.331  68.330  1.00  0.00    -0.301 A  
HETATM   29  C   UNL     1     -10.528  17.728  68.387  1.00  0.00    -0.351 A  
HETATM   30  C   UNL     1      -9.276  18.274  68.497  1.00  0.00    -0.318 A  
HETATM   31  C   UNL     1      -8.148  17.494  68.593  1.00  0.00    -0.263 A  
HETATM   32  O   UNL     1      -7.031  18.277  68.680  1.00  0.00    -0.243 OA 
HETATM   33  C   UNL     1      -8.213  16.101  68.598  1.00  0.00    -0.202 A  
HETATM   34  C   UNL     1      -9.486  15.487  68.443  1.00  0.00    -0.196 A  
HETATM   35  O   UNL     1      -9.013  19.609  68.519  1.00  0.00    -0.348 OA 
HETATM   36  C   UNL     1      -7.579  19.591  68.475  1.00  0.00    -0.343 C  
BRANCH  33  37
HETATM   37  O   UNL     1      -7.138  15.270  68.743  1.00  0.00    -0.108 OA 
HETATM   38  C   UNL     1      -6.533  15.178  70.030  1.00  0.00    -0.156 C  
ENDBRANCH  33  37
ENDBRANCH  12  23
ENDBRANCH   3   4
ENDBRANCH   2   3
TORSDOF 8
ENDMDL
MODEL       41
REMARK 921   NORMALIZED FREE ENERGY PREDICTED BY IDOCK:   -4.91 KCAL/MOL
REMARK 922        TOTAL FREE ENERGY PREDICTED BY IDOCK:   -8.00 KCAL/MOL
REMARK 923 INTER-LIGAND FREE ENERGY PREDICTED BY IDOCK:   -9.04 KCAL/MOL
REMARK 924 INTRA-LIGAND FREE ENERGY PREDICTED BY IDOCK:    1.04 KCAL/MOL
REMARK 927      BINDING AFFINITY PREDICTED BY RF-SCORE:    0.00 PKD
ROOT
HETATM    1  C   UNL     1     -11.879  13.157  64.270  1.00  0.00    -0.462 C  
HETATM    2  C   UNL     1     -11.518  14.539  64.789  1.00  0.00    -0.408 C  
ENDROOT
BRANCH   2   3
HETATM    3  O   UNL     1     -10.116  14.655  64.887  1.00  0.00    -0.367 OA 
BRANCH   3   4
HETATM    4  C   UNL     1      -9.450  15.063  65.997  1.00  0.00    -0.302 A  
HETATM    5  C   UNL     1      -9.284  16.484  66.135  1.00  0.00    -0.303 A  
HETATM    6  C   UNL     1      -8.406  16.990  67.130  1.00  0.00    -0.191 A  
HETATM    7  C   UNL     1      -7.793  13.686  68.901  1.00  0.00     0.035 C  
HETATM    8  C   UNL     1      -7.763  16.092  68.030  1.00  0.00    -0.137 A  
HETATM    9  O   UNL     1      -8.547  12.603  68.573  1.00  0.00    -0.146 OA 
HETATM   10  O   UNL     1      -6.965  13.737  69.785  1.00  0.00     0.022 OA 
HETATM   11  N   UNL     1      -7.031  16.576  69.128  1.00  0.00    -0.216 NA 
HETATM   12  C   UNL     1      -9.427  12.868  67.454  1.00  0.00    -0.198 C  
HETATM   13  C   UNL     1      -8.145  14.749  67.962  1.00  0.00    -0.140 A  
HETATM   14  H2  UNL     1      -7.639  17.189  69.670  1.00  0.00     0.000 HD 
HETATM   15  H1  UNL     1      -6.571  15.933  69.773  1.00  0.00     0.000 HD 
HETATM   16  C   UNL     1      -9.017  14.244  67.016  1.00  0.00    -0.251 A  
BRANCH   5  17
HETATM   17  O   UNL     1     -10.047  17.405  65.406  1.00  0.00    -0.562 OA 
BRANCH  17  18
HETATM   18  C   UNL     1     -10.648  18.438  66.215  1.00  0.00    -0.311 C  
HETATM   19  C   UNL     1     -10.597  19.844  65.654  1.00  0.00    -0.431 C  
ENDBRANCH  17  18
ENDBRANCH   5  17
BRANCH   6  20
HETATM   20  O   UNL     1      -8.204  18.320  67.445  1.00  0.00    -0.233 OA 
BRANCH  20  21
HETATM   21  C   UNL     1      -7.214  19.026  66.694  1.00  0.00    -0.215 C  
HETATM   22  C   UNL     1      -7.109  20.448  67.250  1.00  0.00    -0.343 C  
ENDBRANCH  20  21
ENDBRANCH   6  20
BRANCH  12  23
HETATM   23  C   UNL     1     -10.955  12.681  67.870  1.00  0.00    -0.230 C  
HETATM   24  C   UNL     1     -11.438  13.989  69.909  1.00  0.00    -0.206 C  
HETATM   25  C   UNL     1     -11.685  15.114  67.797  1.00  0.00    -0.232 C  
HETATM   26  N   UNL     1     -11.692  13.835  68.479  1.00  0.00    -0.335 NA 
HETATM   27  C   UNL     1     -12.116  12.838  70.629  1.00  0.00    -0.316 C  
HETATM   28  C   UNL     1     -11.721  11.504  70.052  1.00  0.00    -0.414 A  
HETATM   29  C   UNL     1     -11.975  10.371  70.839  1.00  0.00    -0.478 A  
HETATM   30  C   UNL     1     -11.628   9.145  70.336  1.00  0.00    -0.146 A  
HETATM   31  C   UNL     1     -11.083   9.001  69.081  1.00  0.00     0.098 A  
HETATM   32  O   UNL     1     -10.816   7.685  68.824  1.00  0.00    -0.127 OA 
HETATM   33  C   UNL     1     -10.865  10.093  68.242  1.00  0.00    -0.252 A  
HETATM   34  C   UNL     1     -11.171  11.392  68.735  1.00  0.00    -0.308 A  
HETATM   35  O   UNL     1     -11.773   7.967  70.999  1.00  0.00    -0.283 OA 
HETATM   36  C   UNL     1     -11.108   7.075  70.093  1.00  0.00    -0.285 C  
BRANCH  33  37
HETATM   37  O   UNL     1     -10.378  10.014  66.968  1.00  0.00    -0.223 OA 
HETATM   38  C   UNL     1      -9.105   9.403  66.776  1.00  0.00    -0.140 C  
ENDBRANCH  33  37
ENDBRANCH  12  23
ENDBRANCH   3   4
ENDBRANCH   2   3
TORSDOF 8
ENDMDL
MODEL       42
REMARK 921   NORMALIZED FREE ENERGY PREDICTED BY IDOCK:   -4.88 KCAL/MOL
REMARK 922        TOTAL FREE ENERGY PREDICTED BY IDOCK:   -7.95 KCAL/MOL
REMARK 923 INTER-LIGAND FREE ENERGY PREDICTED BY IDOCK:   -8.27 KCAL/MOL
REMARK 924 INTRA-LIGAND FREE ENERGY PREDICTED BY IDOCK:    0.32 KCAL/MOL
REMARK 927      BINDING AFFINITY PREDICTED BY RF-SCORE:    0.00 PKD
ROOT
HETATM    1  C   UNL     1      -9.669   5.040  65.963  1.00  0.00    -0.194 C  
HETATM    2  C   UNL     1     -10.725   6.005  66.477  1.00  0.00    -0.161 C  
ENDROOT
BRANCH   2   3
HETATM    3  O   UNL     1     -10.105   7.190  66.922  1.00  0.00    -0.207 OA 
BRANCH   3   4
HETATM    4  C   UNL     1     -10.238   7.710  68.169  1.00  0.00    -0.196 A  
HETATM    5  C   UNL     1      -9.750   6.886  69.241  1.00  0.00    -0.156 A  
HETATM    6  C   UNL     1     -10.055   7.235  70.583  1.00  0.00    -0.194 A  
HETATM    7  C   UNL     1     -11.544  10.647  69.825  1.00  0.00    -0.309 C  
HETATM    8  C   UNL     1     -10.771   8.436  70.857  1.00  0.00    -0.222 A  
HETATM    9  O   UNL     1     -11.424  11.164  68.574  1.00  0.00    -0.252 OA 
HETATM   10  O   UNL     1     -12.025  11.208  70.786  1.00  0.00    -0.339 OA 
HETATM   11  N   UNL     1     -10.934   8.891  72.177  1.00  0.00    -0.342 NA 
HETATM   12  C   UNL     1     -10.823  10.225  67.649  1.00  0.00    -0.307 C  
HETATM   13  C   UNL     1     -11.022   9.283  69.773  1.00  0.00    -0.213 A  
HETATM   14  H2  UNL     1     -10.010   8.967  72.603  1.00  0.00     0.000 HD 
HETATM   15  H1  UNL     1     -11.446   9.751  72.373  1.00  0.00     0.000 HD 
HETATM   16  C   UNL     1     -10.709   8.970  68.464  1.00  0.00    -0.140 A  
BRANCH   5  17
HETATM   17  O   UNL     1      -8.876   5.812  69.026  1.00  0.00    -0.111 OA 
BRANCH  17  18
HETATM   18  C   UNL     1      -7.485   6.191  68.971  1.00  0.00    -0.087 C  
HETATM   19  C   UNL     1      -6.600   5.654  70.076  1.00  0.00    -0.043 C  
ENDBRANCH  17  18
ENDBRANCH   5  17
BRANCH   6  20
HETATM   20  O   UNL     1      -9.593   6.601  71.720  1.00  0.00    -0.159 OA 
BRANCH  20  21
HETATM   21  C   UNL     1     -10.100   5.293  71.991  1.00  0.00    -0.194 C  
HETATM   22  C   UNL     1     -11.018   5.375  73.212  1.00  0.00    -0.358 C  
ENDBRANCH  20  21
ENDBRANCH   6  20
BRANCH  12  23
HETATM   23  C   UNL     1      -9.466  10.807  67.046  1.00  0.00    -0.164 C  
HETATM   24  C   UNL     1      -7.997  11.585  68.873  1.00  0.00    -0.057 C  
HETATM   25  C   UNL     1      -7.821   9.274  68.228  1.00  0.00    -0.098 C  
HETATM   26  N   UNL     1      -8.188  10.610  67.802  1.00  0.00    -0.111 NA 
HETATM   27  C   UNL     1      -7.717  12.931  68.232  1.00  0.00    -0.137 C  
HETATM   28  C   UNL     1      -8.764  13.298  67.214  1.00  0.00    -0.214 A  
HETATM   29  C   UNL     1      -8.829  14.645  66.826  1.00  0.00    -0.269 A  
HETATM   30  C   UNL     1      -9.772  15.005  65.901  1.00  0.00    -0.342 A  
HETATM   31  C   UNL     1     -10.613  14.084  65.322  1.00  0.00    -0.363 A  
HETATM   32  O   UNL     1     -11.464  14.697  64.445  1.00  0.00    -0.342 OA 
HETATM   33  C   UNL     1     -10.547  12.727  65.635  1.00  0.00    -0.275 A  
HETATM   34  C   UNL     1      -9.612  12.309  66.622  1.00  0.00    -0.227 A  
HETATM   35  O   UNL     1      -9.981  16.276  65.463  1.00  0.00    -0.491 OA 
HETATM   36  C   UNL     1     -11.158  16.085  64.664  1.00  0.00    -0.332 C  
BRANCH  33  37
HETATM   37  O   UNL     1     -11.315  11.754  65.059  1.00  0.00    -0.295 OA 
HETATM   38  C   UNL     1     -11.010  11.365  63.722  1.00  0.00    -0.370 C  
ENDBRANCH  33  37
ENDBRANCH  12  23
ENDBRANCH   3   4
ENDBRANCH   2   3
TORSDOF 8
ENDMDL
MODEL       43
REMARK 921   NORMALIZED FREE ENERGY PREDICTED BY IDOCK:   -4.86 KCAL/MOL
REMARK 922        TOTAL FREE ENERGY PREDICTED BY IDOCK:   -7.92 KCAL/MOL
REMARK 923 INTER-LIGAND FREE ENERGY PREDICTED BY IDOCK:   -7.24 KCAL/MOL
REMARK 924 INTRA-LIGAND FREE ENERGY PREDICTED BY IDOCK:   -0.68 KCAL/MOL
REMARK 927      BINDING AFFINITY PREDICTED BY RF-SCORE:    0.00 PKD
ROOT
HETATM    1  C   UNL     1      -5.252  12.497  70.467  1.00  0.00    -0.129 C  
HETATM    2  C   UNL     1      -6.538  12.338  69.674  1.00  0.00    -0.020 C  
ENDROOT
BRANCH   2   3
HETATM    3  O   UNL     1      -6.416  11.246  68.790  1.00  0.00    -0.051 OA 
BRANCH   3   4
HETATM    4  C   UNL     1      -7.459  10.596  68.215  1.00  0.00    -0.091 A  
HETATM    5  C   UNL     1      -7.803   9.330  68.802  1.00  0.00    -0.088 A  
HETATM    6  C   UNL     1      -8.718   8.476  68.131  1.00  0.00    -0.142 A  
HETATM    7  C   UNL     1      -9.797  10.976  65.482  1.00  0.00    -0.243 C  
HETATM    8  C   UNL     1      -9.344   8.913  66.928  1.00  0.00    -0.168 A  
HETATM    9  O   UNL     1      -9.417  12.276  65.598  1.00  0.00    -0.186 OA 
HETATM   10  O   UNL     1     -10.536  10.521  64.636  1.00  0.00    -0.311 OA 
HETATM   11  N   UNL     1     -10.377   8.163  66.341  1.00  0.00    -0.431 NA 
HETATM   12  C   UNL     1      -8.509  12.485  66.707  1.00  0.00    -0.070 C  
HETATM   13  C   UNL     1      -9.114  10.238  66.543  1.00  0.00    -0.169 A  
HETATM   14  H2  UNL     1     -11.103   8.018  67.043  1.00  0.00     0.000 HD 
HETATM   15  H1  UNL     1     -10.826   8.477  65.480  1.00  0.00     0.000 HD 
HETATM   16  C   UNL     1      -8.247  11.091  67.199  1.00  0.00    -0.133 A  
BRANCH   5  17
HETATM   17  O   UNL     1      -7.366   8.949  70.077  1.00  0.00    -0.049 OA 
BRANCH  17  18
HETATM   18  C   UNL     1      -6.009   8.458  70.109  1.00  0.00    -0.027 C  
HETATM   19  C   UNL     1      -5.235   8.710  71.386  1.00  0.00    -0.034 C  
ENDBRANCH  17  18
ENDBRANCH   5  17
BRANCH   6  20
HETATM   20  O   UNL     1      -9.213   7.275  68.601  1.00  0.00    -0.137 OA 
BRANCH  20  21
HETATM   21  C   UNL     1     -10.037   7.320  69.767  1.00  0.00    -0.194 C  
HETATM   22  C   UNL     1     -11.222   6.374  69.557  1.00  0.00    -0.477 C  
ENDBRANCH  20  21
ENDBRANCH   6  20
BRANCH  12  23
HETATM   23  C   UNL     1      -9.124  13.507  67.765  1.00  0.00    -0.207 C  
HETATM   24  C   UNL     1     -11.561  13.717  67.415  1.00  0.00    -0.362 C  
HETATM   25  C   UNL     1     -10.806  11.961  68.876  1.00  0.00    -0.221 C  
HETATM   26  N   UNL     1     -10.498  13.258  68.307  1.00  0.00    -0.245 NA 
HETATM   27  C   UNL     1     -11.549  15.235  67.420  1.00  0.00    -0.196 C  
HETATM   28  C   UNL     1     -10.181  15.787  67.121  1.00  0.00    -0.279 A  
HETATM   29  C   UNL     1     -10.110  17.135  66.736  1.00  0.00    -0.303 A  
HETATM   30  C   UNL     1      -8.876  17.662  66.460  1.00  0.00    -0.263 A  
HETATM   31  C   UNL     1      -7.723  16.925  66.588  1.00  0.00    -0.263 A  
HETATM   32  O   UNL     1      -6.634  17.675  66.242  1.00  0.00    -0.214 OA 
HETATM   33  C   UNL     1      -7.741  15.599  67.021  1.00  0.00    -0.222 A  
HETATM   34  C   UNL     1      -9.001  14.993  67.281  1.00  0.00    -0.212 A  
HETATM   35  O   UNL     1      -8.657  18.936  66.035  1.00  0.00    -0.467 OA 
HETATM   36  C   UNL     1      -7.252  18.876  65.751  1.00  0.00    -0.211 C  
BRANCH  33  37
HETATM   37  O   UNL     1      -6.630  14.828  67.220  1.00  0.00    -0.298 OA 
HETATM   38  C   UNL     1      -5.644  15.300  68.135  1.00  0.00    -0.127 C  
ENDBRANCH  33  37
ENDBRANCH  12  23
ENDBRANCH   3   4
ENDBRANCH   2   3
TORSDOF 8
ENDMDL
MODEL       44
REMARK 921   NORMALIZED FREE ENERGY PREDICTED BY IDOCK:   -4.72 KCAL/MOL
REMARK 922        TOTAL FREE ENERGY PREDICTED BY IDOCK:   -7.72 KCAL/MOL
REMARK 923 INTER-LIGAND FREE ENERGY PREDICTED BY IDOCK:   -7.73 KCAL/MOL
REMARK 924 INTRA-LIGAND FREE ENERGY PREDICTED BY IDOCK:    0.02 KCAL/MOL
REMARK 927      BINDING AFFINITY PREDICTED BY RF-SCORE:    0.00 PKD
ROOT
HETATM    1  C   UNL     1     -12.674  10.784  71.091  1.00  0.00    -0.532 C  
HETATM    2  C   UNL     1     -12.439  10.738  69.590  1.00  0.00    -0.097 C  
ENDROOT
BRANCH   2   3
HETATM    3  O   UNL     1     -11.176  11.290  69.292  1.00  0.00    -0.232 OA 
BRANCH   3   4
HETATM    4  C   UNL     1     -10.777  11.684  68.057  1.00  0.00    -0.208 A  
HETATM    5  C   UNL     1     -10.554  13.095  67.897  1.00  0.00    -0.234 A  
HETATM    6  C   UNL     1     -10.367  13.628  66.593  1.00  0.00    -0.275 A  
HETATM    7  C   UNL     1     -10.089  10.297  64.789  1.00  0.00    -0.266 C  
HETATM    8  C   UNL     1     -10.321  12.752  65.470  1.00  0.00    -0.284 A  
HETATM    9  O   UNL     1      -9.986   9.151  65.514  1.00  0.00    -0.159 OA 
HETATM   10  O   UNL     1     -10.022  10.385  63.582  1.00  0.00    -0.294 OA 
HETATM   11  N   UNL     1      -9.964  13.233  64.198  1.00  0.00    -0.760 NA 
HETATM   12  C   UNL     1     -10.132   9.389  66.936  1.00  0.00    -0.248 C  
HETATM   13  C   UNL     1     -10.334  11.380  65.739  1.00  0.00    -0.304 A  
HETATM   14  H2  UNL     1      -9.060  13.698  64.276  1.00  0.00     0.000 HD 
HETATM   15  H1  UNL     1      -9.931  12.606  63.394  1.00  0.00     0.000 HD 
HETATM   16  C   UNL     1     -10.491  10.845  67.003  1.00  0.00    -0.291 A  
BRANCH   5  17
HETATM   17  O   UNL     1     -10.392  13.959  68.987  1.00  0.00    -0.200 OA 
BRANCH  17  18
HETATM   18  C   UNL     1     -11.588  14.685  69.342  1.00  0.00    -0.305 C  
HETATM   19  C   UNL     1     -12.101  14.483  70.752  1.00  0.00    -0.398 C  
ENDBRANCH  17  18
ENDBRANCH   5  17
BRANCH   6  20
HETATM   20  O   UNL     1     -10.058  14.938  66.281  1.00  0.00    -0.259 OA 
BRANCH  20  21
HETATM   21  C   UNL     1      -8.764  15.412  66.657  1.00  0.00    -0.296 C  
HETATM   22  C   UNL     1      -8.663  16.891  66.277  1.00  0.00    -0.321 C  
ENDBRANCH  20  21
ENDBRANCH   6  20
BRANCH  12  23
HETATM   23  C   UNL     1      -8.820   8.944  67.727  1.00  0.00    -0.135 C  
HETATM   24  C   UNL     1      -9.341   8.648  70.123  1.00  0.00    -0.164 C  
HETATM   25  C   UNL     1      -9.663   6.746  68.684  1.00  0.00    -0.131 C  
HETATM   26  N   UNL     1      -8.949   7.993  68.877  1.00  0.00    -0.141 NA 
HETATM   27  C   UNL     1      -8.166   9.479  70.602  1.00  0.00    -0.155 C  
HETATM   28  C   UNL     1      -7.657  10.404  69.528  1.00  0.00    -0.158 A  
HETATM   29  C   UNL     1      -6.838  11.466  69.939  1.00  0.00     0.038 A  
HETATM   30  C   UNL     1      -6.361  12.321  68.982  1.00  0.00    -0.088 A  
HETATM   31  C   UNL     1      -6.628  12.140  67.645  1.00  0.00    -0.116 A  
HETATM   32  O   UNL     1      -6.050  13.132  66.903  1.00  0.00    -0.060 OA 
HETATM   33  C   UNL     1      -7.391  11.068  67.185  1.00  0.00    -0.116 A  
HETATM   34  C   UNL     1      -7.945  10.175  68.145  1.00  0.00    -0.104 A  
HETATM   35  O   UNL     1      -5.594  13.416  69.234  1.00  0.00    -0.075 OA 
HETATM   36  C   UNL     1      -5.541  14.003  67.926  1.00  0.00    -0.094 C  
BRANCH  33  37
HETATM   37  O   UNL     1      -7.651  10.801  65.871  1.00  0.00    -0.149 OA 
HETATM   38  C   UNL     1      -6.602  10.243  65.082  1.00  0.00    -0.121 C  
ENDBRANCH  33  37
ENDBRANCH  12  23
ENDBRANCH   3   4
ENDBRANCH   2   3
TORSDOF 8
ENDMDL
MODEL       45
REMARK 921   NORMALIZED FREE ENERGY PREDICTED BY IDOCK:   -4.72 KCAL/MOL
REMARK 922        TOTAL FREE ENERGY PREDICTED BY IDOCK:   -7.71 KCAL/MOL
REMARK 923 INTER-LIGAND FREE ENERGY PREDICTED BY IDOCK:   -7.49 KCAL/MOL
REMARK 924 INTRA-LIGAND FREE ENERGY PREDICTED BY IDOCK:   -0.22 KCAL/MOL
REMARK 927      BINDING AFFINITY PREDICTED BY RF-SCORE:    0.00 PKD
ROOT
HETATM    1  C   UNL     1     -10.842   8.732  71.757  1.00  0.00    -0.416 C  
HETATM    2  C   UNL     1      -9.663   9.383  71.054  1.00  0.00    -0.223 C  
ENDROOT
BRANCH   2   3
HETATM    3  O   UNL     1      -9.913   9.440  69.667  1.00  0.00    -0.177 OA 
BRANCH   3   4
HETATM    4  C   UNL     1      -8.970   9.281  68.705  1.00  0.00    -0.132 A  
HETATM    5  C   UNL     1      -8.685   7.922  68.333  1.00  0.00    -0.131 A  
HETATM    6  C   UNL     1      -7.557   7.645  67.514  1.00  0.00    -0.109 A  
HETATM    7  C   UNL     1      -6.738  11.253  66.654  1.00  0.00    -0.132 C  
HETATM    8  C   UNL     1      -6.771   8.718  67.006  1.00  0.00    -0.066 A  
HETATM    9  O   UNL     1      -7.617  12.235  66.988  1.00  0.00    -0.143 OA 
HETATM   10  O   UNL     1      -5.716  11.397  66.018  1.00  0.00    -0.173 OA 
HETATM   11  N   UNL     1      -5.761   8.483  66.057  1.00  0.00    -0.042 NA 
HETATM   12  C   UNL     1      -8.728  11.732  67.771  1.00  0.00    -0.155 C  
HETATM   13  C   UNL     1      -7.243  10.013  67.241  1.00  0.00    -0.086 A  
HETATM   14  H2  UNL     1      -6.176   7.990  65.267  1.00  0.00     0.000 HD 
HETATM   15  H1  UNL     1      -5.198   9.252  65.692  1.00  0.00     0.000 HD 
HETATM   16  C   UNL     1      -8.352  10.300  68.015  1.00  0.00    -0.114 A  
BRANCH   5  17
HETATM   17  O   UNL     1      -9.544   6.861  68.645  1.00  0.00    -0.134 OA 
BRANCH  17  18
HETATM   18  C   UNL     1      -9.087   6.040  69.740  1.00  0.00    -0.140 C  
HETATM   19  C   UNL     1     -10.013   4.923  70.173  1.00  0.00    -0.325 C  
ENDBRANCH  17  18
ENDBRANCH   5  17
BRANCH   6  20
HETATM   20  O   UNL     1      -7.199   6.413  67.003  1.00  0.00    -0.071 OA 
BRANCH  20  21
HETATM   21  C   UNL     1      -8.019   5.874  65.964  1.00  0.00    -0.108 C  
HETATM   22  C   UNL     1      -7.106   5.292  64.882  1.00  0.00    -0.058 C  
ENDBRANCH  20  21
ENDBRANCH   6  20
BRANCH  12  23
HETATM   23  C   UNL     1     -10.114  11.985  67.024  1.00  0.00    -0.203 C  
HETATM   24  C   UNL     1      -9.904  11.395  64.635  1.00  0.00    -0.259 C  
HETATM   25  C   UNL     1     -10.527   9.635  66.152  1.00  0.00    -0.041 C  
HETATM   26  N   UNL     1     -10.525  11.065  65.916  1.00  0.00    -0.254 NA 
HETATM   27  C   UNL     1     -10.520  12.691  64.140  1.00  0.00    -0.438 C  
HETATM   28  C   UNL     1     -10.453  13.778  65.180  1.00  0.00    -0.399 A  
HETATM   29  C   UNL     1     -10.643  15.095  64.736  1.00  0.00    -0.305 A  
HETATM   30  C   UNL     1     -10.588  16.102  65.662  1.00  0.00    -0.363 A  
HETATM   31  C   UNL     1     -10.397  15.852  67.000  1.00  0.00    -0.297 A  
HETATM   32  O   UNL     1     -10.370  17.021  67.708  1.00  0.00    -0.309 OA 
HETATM   33  C   UNL     1     -10.260  14.555  67.495  1.00  0.00    -0.232 A  
HETATM   34  C   UNL     1     -10.267  13.477  66.567  1.00  0.00    -0.283 A  
HETATM   35  O   UNL     1     -10.710  17.427  65.374  1.00  0.00    -0.595 OA 
HETATM   36  C   UNL     1     -10.410  17.999  66.655  1.00  0.00    -0.371 C  
BRANCH  33  37
HETATM   37  O   UNL     1     -10.120  14.233  68.815  1.00  0.00    -0.232 OA 
HETATM   38  C   UNL     1      -9.064  14.853  69.546  1.00  0.00     0.026 C  
ENDBRANCH  33  37
ENDBRANCH  12  23
ENDBRANCH   3   4
ENDBRANCH   2   3
TORSDOF 8
ENDMDL
MODEL       46
REMARK 921   NORMALIZED FREE ENERGY PREDICTED BY IDOCK:   -4.68 KCAL/MOL
REMARK 922        TOTAL FREE ENERGY PREDICTED BY IDOCK:   -7.65 KCAL/MOL
REMARK 923 INTER-LIGAND FREE ENERGY PREDICTED BY IDOCK:   -7.75 KCAL/MOL
REMARK 924 INTRA-LIGAND FREE ENERGY PREDICTED BY IDOCK:    0.10 KCAL/MOL
REMARK 927      BINDING AFFINITY PREDICTED BY RF-SCORE:    0.00 PKD
ROOT
HETATM    1  C   UNL     1     -10.115   5.349  66.499  1.00  0.00    -0.250 C  
HETATM    2  C   UNL     1     -11.025   6.514  66.852  1.00  0.00    -0.338 C  
ENDROOT
BRANCH   2   3
HETATM    3  O   UNL     1     -10.301   7.721  66.768  1.00  0.00    -0.301 OA 
BRANCH   3   4
HETATM    4  C   UNL     1     -10.519   8.808  67.551  1.00  0.00    -0.271 A  
HETATM    5  C   UNL     1     -10.364   8.597  68.964  1.00  0.00    -0.213 A  
HETATM    6  C   UNL     1     -10.796   9.602  69.871  1.00  0.00    -0.256 A  
HETATM    7  C   UNL     1     -11.474  12.284  67.268  1.00  0.00    -0.357 C  
HETATM    8  C   UNL     1     -11.302  10.836  69.371  1.00  0.00    -0.285 A  
HETATM    9  O   UNL     1     -11.070  12.087  65.985  1.00  0.00    -0.296 OA 
HETATM   10  O   UNL     1     -11.977  13.295  67.710  1.00  0.00    -0.349 OA 
HETATM   11  N   UNL     1     -11.571  11.907  70.240  1.00  0.00    -0.531 NA 
HETATM   12  C   UNL     1     -10.527  10.760  65.781  1.00  0.00    -0.188 C  
HETATM   13  C   UNL     1     -11.220  11.039  67.990  1.00  0.00    -0.372 A  
HETATM   14  H2  UNL     1     -10.725  12.103  70.775  1.00  0.00     0.000 HD 
HETATM   15  H1  UNL     1     -11.933  12.791  69.883  1.00  0.00     0.000 HD 
HETATM   16  C   UNL     1     -10.779  10.082  67.096  1.00  0.00    -0.279 A  
BRANCH   5  17
HETATM   17  O   UNL     1      -9.690   7.487  69.490  1.00  0.00    -0.163 OA 
BRANCH  17  18
HETATM   18  C   UNL     1      -8.317   7.751  69.848  1.00  0.00    -0.130 C  
HETATM   19  C   UNL     1      -7.394   6.551  69.893  1.00  0.00    -0.086 C  
ENDBRANCH  17  18
ENDBRANCH   5  17
BRANCH   6  20
HETATM   20  O   UNL     1     -10.640   9.588  71.243  1.00  0.00    -0.332 OA 
BRANCH  20  21
HETATM   21  C   UNL     1     -11.572   8.812  71.999  1.00  0.00    -0.366 C  
HETATM   22  C   UNL     1     -10.791   7.768  72.802  1.00  0.00    -0.438 C  
ENDBRANCH  20  21
ENDBRANCH   6  20
BRANCH  12  23
HETATM   23  C   UNL     1      -9.008  10.831  65.298  1.00  0.00    -0.194 C  
HETATM   24  C   UNL     1      -8.306   8.640  64.400  1.00  0.00    -0.139 C  
HETATM   25  C   UNL     1      -9.336  10.179  62.865  1.00  0.00    -0.292 C  
HETATM   26  N   UNL     1      -8.586  10.041  64.098  1.00  0.00    -0.172 NA 
HETATM   27  C   UNL     1      -7.024   8.587  65.211  1.00  0.00    -0.078 C  
HETATM   28  C   UNL     1      -7.078   9.499  66.408  1.00  0.00    -0.088 A  
HETATM   29  C   UNL     1      -6.135   9.275  67.422  1.00  0.00    -0.050 A  
HETATM   30  C   UNL     1      -6.162  10.093  68.520  1.00  0.00    -0.044 A  
HETATM   31  C   UNL     1      -7.050  11.136  68.630  1.00  0.00    -0.090 A  
HETATM   32  O   UNL     1      -6.880  11.786  69.820  1.00  0.00    -0.054 OA 
HETATM   33  C   UNL     1      -7.968  11.431  67.623  1.00  0.00    -0.123 A  
HETATM   34  C   UNL     1      -8.008  10.585  66.480  1.00  0.00    -0.132 A  
HETATM   35  O   UNL     1      -5.340   9.969  69.598  1.00  0.00    -0.037 OA 
HETATM   36  C   UNL     1      -5.915  10.947  70.476  1.00  0.00    -0.121 C  
BRANCH  33  37
HETATM   37  O   UNL     1      -8.841  12.482  67.645  1.00  0.00    -0.161 OA 
HETATM   38  C   UNL     1      -8.345  13.771  67.294  1.00  0.00    -0.174 C  
ENDBRANCH  33  37
ENDBRANCH  12  23
ENDBRANCH   3   4
ENDBRANCH   2   3
TORSDOF 8
ENDMDL
MODEL       47
REMARK 921   NORMALIZED FREE ENERGY PREDICTED BY IDOCK:   -4.66 KCAL/MOL
REMARK 922        TOTAL FREE ENERGY PREDICTED BY IDOCK:   -7.62 KCAL/MOL
REMARK 923 INTER-LIGAND FREE ENERGY PREDICTED BY IDOCK:   -6.55 KCAL/MOL
REMARK 924 INTRA-LIGAND FREE ENERGY PREDICTED BY IDOCK:   -1.07 KCAL/MOL
REMARK 927      BINDING AFFINITY PREDICTED BY RF-SCORE:    0.00 PKD
ROOT
HETATM    1  C   UNL     1      -5.702  11.999  68.855  1.00  0.00    -0.051 C  
HETATM    2  C   UNL     1      -6.633  11.077  69.626  1.00  0.00    -0.132 C  
ENDROOT
BRANCH   2   3
HETATM    3  O   UNL     1      -7.592  10.532  68.747  1.00  0.00    -0.087 OA 
BRANCH   3   4
HETATM    4  C   UNL     1      -8.911  10.391  69.034  1.00  0.00    -0.172 A  
HETATM    5  C   UNL     1      -9.740  11.523  68.721  1.00  0.00    -0.126 A  
HETATM    6  C   UNL     1     -11.077  11.561  69.197  1.00  0.00    -0.259 A  
HETATM    7  C   UNL     1     -11.196   7.984  70.468  1.00  0.00    -0.250 C  
HETATM    8  C   UNL     1     -11.607  10.447  69.909  1.00  0.00    -0.284 A  
HETATM    9  O   UNL     1     -10.180   7.133  70.163  1.00  0.00    -0.191 OA 
HETATM   10  O   UNL     1     -12.214   7.695  71.059  1.00  0.00    -0.301 OA 
HETATM   11  N   UNL     1     -12.973  10.386  70.237  1.00  0.00    -0.513 NA 
HETATM   12  C   UNL     1      -9.098   7.800  69.469  1.00  0.00    -0.146 C  
HETATM   13  C   UNL     1     -10.803   9.305  69.983  1.00  0.00    -0.264 A  
HETATM   14  H2  UNL     1     -13.511  10.502  69.379  1.00  0.00     0.000 HD 
HETATM   15  H1  UNL     1     -13.352   9.588  70.746  1.00  0.00     0.000 HD 
HETATM   16  C   UNL     1      -9.508   9.243  69.504  1.00  0.00    -0.178 A  
BRANCH   5  17
HETATM   17  O   UNL     1      -9.323  12.545  67.858  1.00  0.00    -0.186 OA 
BRANCH  17  18
HETATM   18  C   UNL     1      -9.400  12.199  66.459  1.00  0.00    -0.228 C  
HETATM   19  C   UNL     1     -10.581  12.758  65.694  1.00  0.00    -0.297 C  
ENDBRANCH  17  18
ENDBRANCH   5  17
BRANCH   6  20
HETATM   20  O   UNL     1     -12.021  12.530  68.913  1.00  0.00    -0.299 OA 
BRANCH  20  21
HETATM   21  C   UNL     1     -11.933  13.759  69.635  1.00  0.00    -0.342 C  
HETATM   22  C   UNL     1     -11.759  14.899  68.628  1.00  0.00    -0.358 C  
ENDBRANCH  20  21
ENDBRANCH   6  20
BRANCH  12  23
HETATM   23  C   UNL     1      -8.866   7.162  68.025  1.00  0.00    -0.129 C  
HETATM   24  C   UNL     1     -11.014   6.363  67.102  1.00  0.00    -0.399 C  
HETATM   25  C   UNL     1     -10.419   8.656  66.680  1.00  0.00    -0.169 C  
HETATM   26  N   UNL     1      -9.923   7.327  66.976  1.00  0.00    -0.204 NA 
HETATM   27  C   UNL     1     -10.475   4.997  66.718  1.00  0.00    -0.273 C  
HETATM   28  C   UNL     1      -9.225   4.651  67.484  1.00  0.00    -0.148 A  
HETATM   29  C   UNL     1      -8.843   3.301  67.499  1.00  0.00    -0.156 A  
HETATM   30  C   UNL     1      -7.709   2.959  68.187  1.00  0.00    -0.056 A  
HETATM   31  C   UNL     1      -6.928   3.899  68.816  1.00  0.00    -0.047 A  
HETATM   32  O   UNL     1      -5.867   3.302  69.438  1.00  0.00    -0.021 OA 
HETATM   33  C   UNL     1      -7.238   5.258  68.781  1.00  0.00    -0.065 A  
HETATM   34  C   UNL     1      -8.429   5.659  68.114  1.00  0.00    -0.098 A  
HETATM   35  O   UNL     1      -7.241   1.689  68.325  1.00  0.00    -0.042 OA 
HETATM   36  C   UNL     1      -6.167   1.908  69.250  1.00  0.00    -0.025 C  
BRANCH  33  37
HETATM   37  O   UNL     1      -6.479   6.247  69.339  1.00  0.00    -0.039 OA 
HETATM   38  C   UNL     1      -5.290   6.642  68.659  1.00  0.00    -0.016 C  
ENDBRANCH  33  37
ENDBRANCH  12  23
ENDBRANCH   3   4
ENDBRANCH   2   3
TORSDOF 8
ENDMDL
MODEL       48
REMARK 921   NORMALIZED FREE ENERGY PREDICTED BY IDOCK:   -4.56 KCAL/MOL
REMARK 922        TOTAL FREE ENERGY PREDICTED BY IDOCK:   -7.48 KCAL/MOL
REMARK 923 INTER-LIGAND FREE ENERGY PREDICTED BY IDOCK:   -6.18 KCAL/MOL
REMARK 924 INTRA-LIGAND FREE ENERGY PREDICTED BY IDOCK:   -1.30 KCAL/MOL
REMARK 927      BINDING AFFINITY PREDICTED BY RF-SCORE:    0.00 PKD
ROOT
HETATM    1  C   UNL     1      -8.088   5.581  65.908  1.00  0.00    -0.110 C  
HETATM    2  C   UNL     1      -6.871   5.794  66.793  1.00  0.00    -0.063 C  
ENDROOT
BRANCH   2   3
HETATM    3  O   UNL     1      -7.200   6.676  67.843  1.00  0.00    -0.085 OA 
BRANCH   3   4
HETATM    4  C   UNL     1      -7.942   6.342  68.929  1.00  0.00    -0.110 A  
HETATM    5  C   UNL     1      -7.233   5.676  69.986  1.00  0.00    -0.068 A  
HETATM    6  C   UNL     1      -7.963   5.082  71.050  1.00  0.00    -0.093 A  
HETATM    7  C   UNL     1     -11.351   6.527  70.120  1.00  0.00    -0.402 C  
HETATM    8  C   UNL     1      -9.380   5.221  71.100  1.00  0.00    -0.151 A  
HETATM    9  O   UNL     1     -11.427   7.485  69.159  1.00  0.00     0.248 OA 
HETATM   10  O   UNL     1     -12.272   6.120  70.797  1.00  0.00     0.040 OA 
HETATM   11  N   UNL     1     -10.105   4.796  72.227  1.00  0.00    -0.181 NA 
HETATM   12  C   UNL     1     -10.148   7.724  68.523  1.00  0.00    -0.199 C  
HETATM   13  C   UNL     1      -9.966   6.062  70.149  1.00  0.00    -0.228 A  
HETATM   14  H2  UNL     1      -9.711   5.253  73.049  1.00  0.00     0.000 HD 
HETATM   15  H1  UNL     1     -11.120   4.896  72.263  1.00  0.00     0.000 HD 
HETATM   16  C   UNL     1      -9.267   6.668  69.122  1.00  0.00    -0.136 A  
BRANCH   5  17
HETATM   17  O   UNL     1      -5.835   5.690  70.080  1.00  0.00    -0.021 OA 
BRANCH  17  18
HETATM   18  C   UNL     1      -5.289   6.959  70.498  1.00  0.00    -0.023 C  
HETATM   19  C   UNL     1      -5.140   7.166  71.991  1.00  0.00    -0.032 C  
ENDBRANCH  17  18
ENDBRANCH   5  17
BRANCH   6  20
HETATM   20  O   UNL     1      -7.431   4.486  72.176  1.00  0.00    -0.075 OA 
BRANCH  20  21
HETATM   21  C   UNL     1      -6.747   3.244  71.996  1.00  0.00    -0.019 C  
HETATM   22  C   UNL     1      -7.787   2.120  71.973  1.00  0.00    -0.045 C  
ENDBRANCH  20  21
ENDBRANCH   6  20
BRANCH  12  23
HETATM   23  C   UNL     1      -9.683   9.236  68.726  1.00  0.00    -0.157 C  
HETATM   24  C   UNL     1     -11.166  10.363  70.349  1.00  0.00    -0.321 C  
HETATM   25  C   UNL     1      -9.261   9.187  71.231  1.00  0.00    -0.191 C  
HETATM   26  N   UNL     1      -9.819   9.867  70.078  1.00  0.00    -0.251 NA 
HETATM   27  C   UNL     1     -11.399  11.578  69.470  1.00  0.00    -0.342 C  
HETATM   28  C   UNL     1     -11.104  11.289  68.022  1.00  0.00    -0.325 A  
HETATM   29  C   UNL     1     -11.620  12.189  67.076  1.00  0.00    -0.406 A  
HETATM   30  C   UNL     1     -11.365  11.949  65.752  1.00  0.00    -0.299 A  
HETATM   31  C   UNL     1     -10.594  10.889  65.339  1.00  0.00    -0.173 A  
HETATM   32  O   UNL     1     -10.503  10.865  63.975  1.00  0.00    -0.364 OA 
HETATM   33  C   UNL     1     -10.014  10.002  66.246  1.00  0.00    -0.245 A  
HETATM   34  C   UNL     1     -10.284  10.184  67.631  1.00  0.00    -0.246 A  
HETATM   35  O   UNL     1     -11.835  12.707  64.724  1.00  0.00    -0.342 OA 
HETATM   36  C   UNL     1     -11.412  11.915  63.604  1.00  0.00    -0.461 C  
BRANCH  33  37
HETATM   37  O   UNL     1      -9.196   8.962  65.906  1.00  0.00    -0.202 OA 
HETATM   38  C   UNL     1      -7.853   9.262  65.533  1.00  0.00    -0.099 C  
ENDBRANCH  33  37
ENDBRANCH  12  23
ENDBRANCH   3   4
ENDBRANCH   2   3
TORSDOF 8
ENDMDL
MODEL       49
REMARK 921   NORMALIZED FREE ENERGY PREDICTED BY IDOCK:   -4.55 KCAL/MOL
REMARK 922        TOTAL FREE ENERGY PREDICTED BY IDOCK:   -7.46 KCAL/MOL
REMARK 923 INTER-LIGAND FREE ENERGY PREDICTED BY IDOCK:   -6.61 KCAL/MOL
REMARK 924 INTRA-LIGAND FREE ENERGY PREDICTED BY IDOCK:   -0.85 KCAL/MOL
REMARK 927      BINDING AFFINITY PREDICTED BY RF-SCORE:    0.00 PKD
ROOT
HETATM    1  C   UNL     1      -5.963  12.802  69.452  1.00  0.00    -0.104 C  
HETATM    2  C   UNL     1      -5.722  13.861  68.390  1.00  0.00    -0.103 C  
ENDROOT
BRANCH   2   3
HETATM    3  O   UNL     1      -6.763  13.822  67.439  1.00  0.00    -0.220 OA 
BRANCH   3   4
HETATM    4  C   UNL     1      -8.083  13.931  67.735  1.00  0.00    -0.172 A  
HETATM    5  C   UNL     1      -8.512  15.224  68.196  1.00  0.00    -0.151 A  
HETATM    6  C   UNL     1      -9.812  15.370  68.749  1.00  0.00    -0.211 A  
HETATM    7  C   UNL     1     -11.084  11.916  67.811  1.00  0.00    -0.239 C  
HETATM    8  C   UNL     1     -10.703  14.259  68.768  1.00  0.00    -0.254 A  
HETATM    9  O   UNL     1     -10.345  11.136  66.979  1.00  0.00    -0.206 OA 
HETATM   10  O   UNL     1     -12.186  11.653  68.244  1.00  0.00    -0.525 OA 
HETATM   11  N   UNL     1     -12.047  14.421  69.148  1.00  0.00    -0.470 NA 
HETATM   12  C   UNL     1      -9.062  11.731  66.666  1.00  0.00    -0.194 C  
HETATM   13  C   UNL     1     -10.281  13.100  68.109  1.00  0.00    -0.239 A  
HETATM   14  H2  UNL     1     -12.457  15.148  68.562  1.00  0.00     0.000 HD 
HETATM   15  H1  UNL     1     -12.685  13.625  69.161  1.00  0.00     0.000 HD 
HETATM   16  C   UNL     1      -9.029  12.949  67.544  1.00  0.00    -0.193 A  
BRANCH   5  17
HETATM   17  O   UNL     1      -7.744  16.381  68.012  1.00  0.00    -0.148 OA 
BRANCH  17  18
HETATM   18  C   UNL     1      -7.703  16.846  66.647  1.00  0.00    -0.263 C  
HETATM   19  C   UNL     1      -6.645  17.880  66.322  1.00  0.00    -0.288 C  
ENDBRANCH  17  18
ENDBRANCH   5  17
BRANCH   6  20
HETATM   20  O   UNL     1     -10.401  16.552  69.154  1.00  0.00    -0.276 OA 
BRANCH  20  21
HETATM   21  C   UNL     1     -10.771  17.482  68.134  1.00  0.00    -0.329 C  
HETATM   22  C   UNL     1     -10.242  18.863  68.525  1.00  0.00    -0.407 C  
ENDBRANCH  20  21
ENDBRANCH   6  20
BRANCH  12  23
HETATM   23  C   UNL     1      -8.916  11.982  65.098  1.00  0.00     0.475 C  
HETATM   24  C   UNL     1     -11.094  11.643  63.983  1.00  0.00    -0.384 C  
HETATM   25  C   UNL     1     -10.624  13.844  64.834  1.00  0.00    -0.419 C  
HETATM   26  N   UNL     1     -10.054  12.602  64.348  1.00  0.00    -0.293 NA 
HETATM   27  C   UNL     1     -10.532  10.738  62.903  1.00  0.00     0.272 C  
HETATM   28  C   UNL     1      -9.216  10.129  63.308  1.00  0.00    -0.320 A  
HETATM   29  C   UNL     1      -8.781   9.012  62.578  1.00  0.00    -0.193 A  
HETATM   30  C   UNL     1      -7.586   8.440  62.925  1.00  0.00    -0.119 A  
HETATM   31  C   UNL     1      -6.797   8.953  63.928  1.00  0.00    -0.087 A  
HETATM   32  O   UNL     1      -5.670   8.197  64.085  1.00  0.00    -0.054 OA 
HETATM   33  C   UNL     1      -7.162  10.094  64.642  1.00  0.00    -0.124 A  
HETATM   34  C   UNL     1      -8.415  10.701  64.347  1.00  0.00    -0.070 A  
HETATM   35  O   UNL     1      -7.059   7.331  62.339  1.00  0.00    -0.070 OA 
HETATM   36  C   UNL     1      -5.928   7.101  63.191  1.00  0.00    -0.041 C  
BRANCH  33  37
HETATM   37  O   UNL     1      -6.402  10.685  65.611  1.00  0.00    -0.128 OA 
HETATM   38  C   UNL     1      -6.127   9.938  66.793  1.00  0.00    -0.060 C  
ENDBRANCH  33  37
ENDBRANCH  12  23
ENDBRANCH   3   4
ENDBRANCH   2   3
TORSDOF 8
ENDMDL
MODEL       50
REMARK 921   NORMALIZED FREE ENERGY PREDICTED BY IDOCK:   -4.50 KCAL/MOL
REMARK 922        TOTAL FREE ENERGY PREDICTED BY IDOCK:   -7.39 KCAL/MOL
REMARK 923 INTER-LIGAND FREE ENERGY PREDICTED BY IDOCK:   -7.52 KCAL/MOL
REMARK 924 INTRA-LIGAND FREE ENERGY PREDICTED BY IDOCK:    0.13 KCAL/MOL
REMARK 927      BINDING AFFINITY PREDICTED BY RF-SCORE:    0.00 PKD
ROOT
HETATM    1  C   UNL     1     -14.035   7.312  71.688  1.00  0.00    -0.488 C  
HETATM    2  C   UNL     1     -13.353   8.668  71.612  1.00  0.00    -0.350 C  
ENDROOT
BRANCH   2   3
HETATM    3  O   UNL     1     -11.965   8.489  71.432  1.00  0.00    -0.284 OA 
BRANCH   3   4
HETATM    4  C   UNL     1     -11.360   8.298  70.233  1.00  0.00    -0.129 A  
HETATM    5  C   UNL     1     -10.955   9.493  69.544  1.00  0.00    -0.195 A  
HETATM    6  C   UNL     1     -10.533   9.407  68.190  1.00  0.00    -0.220 A  
HETATM    7  C   UNL     1     -10.403   5.616  68.005  1.00  0.00    -0.202 C  
HETATM    8  C   UNL     1     -10.438   8.135  67.556  1.00  0.00    -0.256 A  
HETATM    9  O   UNL     1     -10.533   4.887  69.145  1.00  0.00    -0.126 OA 
HETATM   10  O   UNL     1     -10.163   5.176  66.900  1.00  0.00    -0.199 OA 
HETATM   11  N   UNL     1      -9.859   8.008  66.282  1.00  0.00    -0.450 NA 
HETATM   12  C   UNL     1     -10.840   5.716  70.292  1.00  0.00    -0.266 C  
HETATM   13  C   UNL     1     -10.646   7.011  68.362  1.00  0.00    -0.240 A  
HETATM   14  H2  UNL     1      -8.926   8.418  66.314  1.00  0.00     0.000 HD 
HETATM   15  H1  UNL     1      -9.791   7.096  65.828  1.00  0.00     0.000 HD 
HETATM   16  C   UNL     1     -11.034   7.076  69.688  1.00  0.00    -0.268 A  
BRANCH   5  17
HETATM   17  O   UNL     1     -10.843  10.731  70.188  1.00  0.00    -0.234 OA 
BRANCH  17  18
HETATM   18  C   UNL     1     -11.971  11.606  69.976  1.00  0.00    -0.351 C  
HETATM   19  C   UNL     1     -12.561  12.250  71.213  1.00  0.00    -0.336 C  
ENDBRANCH  17  18
ENDBRANCH   5  17
BRANCH   6  20
HETATM   20  O   UNL     1     -10.035  10.442  67.421  1.00  0.00    -0.176 OA 
BRANCH  20  21
HETATM   21  C   UNL     1     -10.983  11.245  66.715  1.00  0.00    -0.281 C  
HETATM   22  C   UNL     1     -10.473  11.448  65.286  1.00  0.00    -0.340 C  
ENDBRANCH  20  21
ENDBRANCH   6  20
BRANCH  12  23
HETATM   23  C   UNL     1      -9.708   5.589  71.408  1.00  0.00    -0.158 C  
HETATM   24  C   UNL     1     -10.534   6.496  73.553  1.00  0.00    -0.297 C  
HETATM   25  C   UNL     1     -10.975   4.175  73.097  1.00  0.00    -0.186 C  
HETATM   26  N   UNL     1     -10.107   5.304  72.824  1.00  0.00    -0.164 NA 
HETATM   27  C   UNL     1      -9.309   7.356  73.796  1.00  0.00    -0.316 C  
HETATM   28  C   UNL     1      -8.549   7.625  72.524  1.00  0.00    -0.164 A  
HETATM   29  C   UNL     1      -7.630   8.685  72.543  1.00  0.00    -0.005 A  
HETATM   30  C   UNL     1      -6.925   8.949  71.399  1.00  0.00    -0.087 A  
HETATM   31  C   UNL     1      -7.065   8.184  70.265  1.00  0.00    -0.047 A  
HETATM   32  O   UNL     1      -6.264   8.661  69.265  1.00  0.00    -0.041 OA 
HETATM   33  C   UNL     1      -7.924   7.087  70.217  1.00  0.00    -0.117 A  
HETATM   34  C   UNL     1      -8.710   6.797  71.367  1.00  0.00    -0.131 A  
HETATM   35  O   UNL     1      -6.035   9.968  71.256  1.00  0.00    -0.218 OA 
HETATM   36  C   UNL     1      -5.748   9.866  69.854  1.00  0.00    -0.042 C  
BRANCH  33  37
HETATM   37  O   UNL     1      -8.071   6.256  69.142  1.00  0.00    -0.107 OA 
HETATM   38  C   UNL     1      -7.008   5.355  68.844  1.00  0.00    -0.056 C  
ENDBRANCH  33  37
ENDBRANCH  12  23
ENDBRANCH   3   4
ENDBRANCH   2   3
TORSDOF 8
ENDMDL
MODEL       51
REMARK 921   NORMALIZED FREE ENERGY PREDICTED BY IDOCK:   -4.50 KCAL/MOL
REMARK 922        TOTAL FREE ENERGY PREDICTED BY IDOCK:   -7.39 KCAL/MOL
REMARK 923 INTER-LIGAND FREE ENERGY PREDICTED BY IDOCK:   -7.69 KCAL/MOL
REMARK 924 INTRA-LIGAND FREE ENERGY PREDICTED BY IDOCK:    0.29 KCAL/MOL
REMARK 927      BINDING AFFINITY PREDICTED BY RF-SCORE:    0.00 PKD
ROOT
HETATM    1  C   UNL     1      -8.902  15.341  66.404  1.00  0.00    -0.311 C  
HETATM    2  C   UNL     1      -7.936  14.619  67.329  1.00  0.00    -0.197 C  
ENDROOT
BRANCH   2   3
HETATM    3  O   UNL     1      -8.547  13.452  67.833  1.00  0.00    -0.161 OA 
BRANCH   3   4
HETATM    4  C   UNL     1      -8.224  12.188  67.458  1.00  0.00    -0.167 A  
HETATM    5  C   UNL     1      -7.329  11.488  68.339  1.00  0.00    -0.097 A  
HETATM    6  C   UNL     1      -6.752  10.261  67.915  1.00  0.00    -0.066 A  
HETATM    7  C   UNL     1      -8.855   9.843  64.779  1.00  0.00    -0.202 C  
HETATM    8  C   UNL     1      -7.126   9.698  66.661  1.00  0.00    -0.086 A  
HETATM    9  O   UNL     1      -9.915  10.668  64.572  1.00  0.00    -0.296 OA 
HETATM   10  O   UNL     1      -8.538   8.900  64.086  1.00  0.00    -0.179 OA 
HETATM   11  N   UNL     1      -6.706   8.407  66.298  1.00  0.00    -0.064 NA 
HETATM   12  C   UNL     1     -10.002  11.710  65.574  1.00  0.00    -0.242 C  
HETATM   13  C   UNL     1      -8.159  10.336  65.966  1.00  0.00    -0.139 A  
HETATM   14  H2  UNL     1      -6.991   7.762  67.035  1.00  0.00     0.000 HD 
HETATM   15  H1  UNL     1      -6.974   8.004  65.401  1.00  0.00     0.000 HD 
HETATM   16  C   UNL     1      -8.748  11.517  66.376  1.00  0.00    -0.179 A  
BRANCH   5  17
HETATM   17  O   UNL     1      -7.092  11.904  69.655  1.00  0.00     0.039 OA 
BRANCH  17  18
HETATM   18  C   UNL     1      -5.838  12.596  69.834  1.00  0.00    -0.133 C  
HETATM   19  C   UNL     1      -5.918  13.977  70.450  1.00  0.00    -0.165 C  
ENDBRANCH  17  18
ENDBRANCH   5  17
BRANCH   6  20
HETATM   20  O   UNL     1      -5.948   9.430  68.671  1.00  0.00    -0.043 OA 
BRANCH  20  21
HETATM   21  C   UNL     1      -6.586   8.646  69.682  1.00  0.00    -0.039 C  
HETATM   22  C   UNL     1      -5.723   8.693  70.945  1.00  0.00    -0.033 C  
ENDBRANCH  20  21
ENDBRANCH   6  20
BRANCH  12  23
HETATM   23  C   UNL     1     -11.378  11.619  66.375  1.00  0.00    -0.245 C  
HETATM   24  C   UNL     1     -11.853  13.777  67.480  1.00  0.00    -0.387 C  
HETATM   25  C   UNL     1     -12.632  13.503  65.220  1.00  0.00    -0.468 C  
HETATM   26  N   UNL     1     -12.261  12.827  66.447  1.00  0.00    -0.518 NA 
HETATM   27  C   UNL     1     -12.153  13.153  68.830  1.00  0.00    -0.232 C  
HETATM   28  C   UNL     1     -11.556  11.776  68.958  1.00  0.00    -0.372 A  
HETATM   29  C   UNL     1     -11.441  11.251  70.254  1.00  0.00    -0.286 A  
HETATM   30  C   UNL     1     -10.903   9.999  70.397  1.00  0.00    -0.318 A  
HETATM   31  C   UNL     1     -10.519   9.244  69.315  1.00  0.00    -0.218 A  
HETATM   32  O   UNL     1     -10.004   8.046  69.726  1.00  0.00    -0.185 OA 
HETATM   33  C   UNL     1     -10.666   9.702  68.006  1.00  0.00    -0.232 A  
HETATM   34  C   UNL     1     -11.181  11.013  67.806  1.00  0.00    -0.374 A  
HETATM   35  O   UNL     1     -10.691   9.380  71.590  1.00  0.00    -0.356 OA 
HETATM   36  C   UNL     1      -9.976   8.215  71.154  1.00  0.00    -0.180 C  
BRANCH  33  37
HETATM   37  O   UNL     1     -10.354   8.983  66.887  1.00  0.00    -0.256 OA 
HETATM   38  C   UNL     1     -10.651   7.589  66.883  1.00  0.00    -0.297 C  
ENDBRANCH  33  37
ENDBRANCH  12  23
ENDBRANCH   3   4
ENDBRANCH   2   3
TORSDOF 8
ENDMDL
MODEL       52
REMARK 921   NORMALIZED FREE ENERGY PREDICTED BY IDOCK:   -4.27 KCAL/MOL
REMARK 922        TOTAL FREE ENERGY PREDICTED BY IDOCK:   -7.06 KCAL/MOL
REMARK 923 INTER-LIGAND FREE ENERGY PREDICTED BY IDOCK:   -7.32 KCAL/MOL
REMARK 924 INTRA-LIGAND FREE ENERGY PREDICTED BY IDOCK:    0.26 KCAL/MOL
REMARK 927      BINDING AFFINITY PREDICTED BY RF-SCORE:    0.00 PKD
ROOT
HETATM    1  C   UNL     1      -9.092   9.958  62.347  1.00  0.00    -0.308 C  
HETATM    2  C   UNL     1      -9.346  11.125  63.287  1.00  0.00    -0.297 C  
ENDROOT
BRANCH   2   3
HETATM    3  O   UNL     1      -9.500  10.644  64.604  1.00  0.00    -0.215 OA 
BRANCH   3   4
HETATM    4  C   UNL     1      -9.252  11.368  65.725  1.00  0.00    -0.208 A  
HETATM    5  C   UNL     1     -10.396  12.003  66.320  1.00  0.00    -0.221 A  
HETATM    6  C   UNL     1     -10.203  12.965  67.347  1.00  0.00    -0.230 A  
HETATM    7  C   UNL     1      -6.486  12.353  67.835  1.00  0.00    -0.095 C  
HETATM    8  C   UNL     1      -8.890  13.231  67.831  1.00  0.00    -0.192 A  
HETATM    9  O   UNL     1      -5.900  11.288  67.228  1.00  0.00    -0.054 OA 
HETATM   10  O   UNL     1      -5.950  13.117  68.609  1.00  0.00    -0.069 OA 
HETATM   11  N   UNL     1      -8.690  14.045  68.960  1.00  0.00    -0.372 NA 
HETATM   12  C   UNL     1      -6.812  10.591  66.344  1.00  0.00    -0.119 C  
HETATM   13  C   UNL     1      -7.861  12.417  67.346  1.00  0.00    -0.174 A  
HETATM   14  H2  UNL     1      -9.241  13.663  69.728  1.00  0.00     0.000 HD 
HETATM   15  H1  UNL     1      -7.750  14.235  69.306  1.00  0.00     0.000 HD 
HETATM   16  C   UNL     1      -8.036  11.460  66.364  1.00  0.00    -0.088 A  
BRANCH   5  17
HETATM   17  O   UNL     1     -11.710  11.626  66.015  1.00  0.00    -0.382 OA 
BRANCH  17  18
HETATM   18  C   UNL     1     -12.361  12.491  65.061  1.00  0.00    -0.453 C  
HETATM   19  C   UNL     1     -12.640  11.896  63.697  1.00  0.00    -0.555 C  
ENDBRANCH  17  18
ENDBRANCH   5  17
BRANCH   6  20
HETATM   20  O   UNL     1     -11.194  13.596  68.075  1.00  0.00    -0.247 OA 
BRANCH  20  21
HETATM   21  C   UNL     1     -11.792  12.858  69.141  1.00  0.00    -0.303 C  
HETATM   22  C   UNL     1     -12.149  13.835  70.264  1.00  0.00    -0.425 C  
ENDBRANCH  20  21
ENDBRANCH   6  20
BRANCH  12  23
HETATM   23  C   UNL     1      -7.009   9.077  66.804  1.00  0.00    -0.081 C  
HETATM   24  C   UNL     1      -8.281   7.834  65.090  1.00  0.00    -0.132 C  
HETATM   25  C   UNL     1      -5.890   7.918  64.840  1.00  0.00    -0.044 C  
HETATM   26  N   UNL     1      -6.999   7.993  65.771  1.00  0.00    -0.059 NA 
HETATM   27  C   UNL     1      -9.264   7.240  66.082  1.00  0.00    -0.136 C  
HETATM   28  C   UNL     1      -9.315   8.028  67.364  1.00  0.00    -0.173 A  
HETATM   29  C   UNL     1     -10.422   7.813  68.199  1.00  0.00    -0.230 A  
HETATM   30  C   UNL     1     -10.492   8.517  69.372  1.00  0.00    -0.218 A  
HETATM   31  C   UNL     1      -9.497   9.383  69.762  1.00  0.00    -0.202 A  
HETATM   32  O   UNL     1      -9.811   9.966  70.957  1.00  0.00    -0.007 OA 
HETATM   33  C   UNL     1      -8.353   9.586  68.991  1.00  0.00    -0.126 A  
HETATM   34  C   UNL     1      -8.253   8.910  67.743  1.00  0.00    -0.110 A  
HETATM   35  O   UNL     1     -11.522   8.446  70.257  1.00  0.00    -0.198 OA 
HETATM   36  C   UNL     1     -11.150   9.486  71.173  1.00  0.00    -0.379 C  
BRANCH  33  37
HETATM   37  O   UNL     1      -7.306  10.390  69.344  1.00  0.00    -0.094 OA 
HETATM   38  C   UNL     1      -6.477   9.971  70.425  1.00  0.00    -0.125 C  
ENDBRANCH  33  37
ENDBRANCH  12  23
ENDBRANCH   3   4
ENDBRANCH   2   3
TORSDOF 8
ENDMDL
MODEL       53
REMARK 921   NORMALIZED FREE ENERGY PREDICTED BY IDOCK:   -4.17 KCAL/MOL
REMARK 922        TOTAL FREE ENERGY PREDICTED BY IDOCK:   -6.90 KCAL/MOL
REMARK 923 INTER-LIGAND FREE ENERGY PREDICTED BY IDOCK:   -7.22 KCAL/MOL
REMARK 924 INTRA-LIGAND FREE ENERGY PREDICTED BY IDOCK:    0.32 KCAL/MOL
REMARK 927      BINDING AFFINITY PREDICTED BY RF-SCORE:    0.00 PKD
ROOT
HETATM    1  C   UNL     1     -10.685   6.567  68.200  1.00  0.00    -0.347 C  
HETATM    2  C   UNL     1     -11.001   7.759  67.312  1.00  0.00     0.005 C  
ENDROOT
BRANCH   2   3
HETATM    3  O   UNL     1     -10.223   8.866  67.712  1.00  0.00    -0.201 OA 
BRANCH   3   4
HETATM    4  C   UNL     1     -10.700  10.124  67.884  1.00  0.00    -0.269 A  
HETATM    5  C   UNL     1     -10.832  10.558  69.248  1.00  0.00    -0.243 A  
HETATM    6  C   UNL     1     -11.537  11.758  69.533  1.00  0.00    -0.332 A  
HETATM    7  C   UNL     1     -11.885  12.931  65.937  1.00  0.00    -0.424 C  
HETATM    8  C   UNL     1     -12.036  12.557  68.464  1.00  0.00    -0.219 A  
HETATM    9  O   UNL     1     -11.201  12.287  64.955  1.00  0.00    -0.305 OA 
HETATM   10  O   UNL     1     -12.562  13.928  65.798  1.00  0.00    -0.491 OA 
HETATM   11  N   UNL     1     -12.581  13.829  68.711  1.00  0.00    -0.143 NA 
HETATM   12  C   UNL     1     -10.508  11.115  65.450  1.00  0.00    -0.259 C  
HETATM   13  C   UNL     1     -11.679  12.172  67.168  1.00  0.00    -0.372 A  
HETATM   14  H2  UNL     1     -11.890  14.377  69.223  1.00  0.00     0.000 HD 
HETATM   15  H1  UNL     1     -12.937  14.402  67.946  1.00  0.00     0.000 HD 
HETATM   16  C   UNL     1     -10.972  11.021  66.874  1.00  0.00    -0.311 A  
BRANCH   5  17
HETATM   17  O   UNL     1     -10.188   9.910  70.309  1.00  0.00    -0.267 OA 
BRANCH  17  18
HETATM   18  C   UNL     1      -8.747   9.961  70.239  1.00  0.00    -0.027 C  
HETATM   19  C   UNL     1      -8.011   8.698  70.632  1.00  0.00    -0.113 C  
ENDBRANCH  17  18
ENDBRANCH   5  17
BRANCH   6  20
HETATM   20  O   UNL     1     -11.677  12.351  70.773  1.00  0.00     0.023 OA 
BRANCH  20  21
HETATM   21  C   UNL     1     -12.834  12.003  71.537  1.00  0.00    -0.297 C  
HETATM   22  C   UNL     1     -13.329  13.258  72.259  1.00  0.00    -0.630 C  
ENDBRANCH  20  21
ENDBRANCH   6  20
BRANCH  12  23
HETATM   23  C   UNL     1      -8.935  11.242  65.223  1.00  0.00    -0.068 C  
HETATM   24  C   UNL     1      -7.832   9.094  65.741  1.00  0.00    -0.098 C  
HETATM   25  C   UNL     1      -8.635   9.404  63.495  1.00  0.00    -0.206 C  
HETATM   26  N   UNL     1      -8.174  10.061  64.702  1.00  0.00    -0.156 NA 
HETATM   27  C   UNL     1      -6.769   9.718  66.627  1.00  0.00    -0.079 C  
HETATM   28  C   UNL     1      -7.184  11.075  67.130  1.00  0.00    -0.112 A  
HETATM   29  C   UNL     1      -6.478  11.590  68.228  1.00  0.00    -0.054 A  
HETATM   30  C   UNL     1      -6.835  12.823  68.704  1.00  0.00    -0.099 A  
HETATM   31  C   UNL     1      -7.824  13.573  68.115  1.00  0.00    -0.144 A  
HETATM   32  O   UNL     1      -7.995  14.753  68.784  1.00  0.00    -0.138 OA 
HETATM   33  C   UNL     1      -8.514  13.127  66.988  1.00  0.00    -0.132 A  
HETATM   34  C   UNL     1      -8.210  11.834  66.480  1.00  0.00    -0.066 A  
HETATM   35  O   UNL     1      -6.271  13.428  69.785  1.00  0.00    -0.121 OA 
HETATM   36  C   UNL     1      -7.125  14.574  69.915  1.00  0.00    -0.012 C  
BRANCH  33  37
HETATM   37  O   UNL     1      -9.470  13.843  66.323  1.00  0.00    -0.273 OA 
HETATM   38  C   UNL     1      -9.166  15.187  65.960  1.00  0.00    -0.238 C  
ENDBRANCH  33  37
ENDBRANCH  12  23
ENDBRANCH   3   4
ENDBRANCH   2   3
TORSDOF 8
ENDMDL
MODEL       54
REMARK 921   NORMALIZED FREE ENERGY PREDICTED BY IDOCK:   -4.13 KCAL/MOL
REMARK 922        TOTAL FREE ENERGY PREDICTED BY IDOCK:   -6.85 KCAL/MOL
REMARK 923 INTER-LIGAND FREE ENERGY PREDICTED BY IDOCK:   -7.21 KCAL/MOL
REMARK 924 INTRA-LIGAND FREE ENERGY PREDICTED BY IDOCK:    0.36 KCAL/MOL
REMARK 927      BINDING AFFINITY PREDICTED BY RF-SCORE:    0.00 PKD
ROOT
HETATM    1  C   UNL     1     -11.331   6.234  71.023  1.00  0.00    -0.378 C  
HETATM    2  C   UNL     1     -11.399   6.935  69.676  1.00  0.00    -0.203 C  
ENDROOT
BRANCH   2   3
HETATM    3  O   UNL     1     -10.595   8.094  69.706  1.00  0.00    -0.229 OA 
BRANCH   3   4
HETATM    4  C   UNL     1     -10.624   9.078  68.773  1.00  0.00    -0.169 A  
HETATM    5  C   UNL     1     -11.186  10.329  69.205  1.00  0.00    -0.215 A  
HETATM    6  C   UNL     1     -11.473  11.334  68.243  1.00  0.00    -0.308 A  
HETATM    7  C   UNL     1      -9.753   9.642  65.309  1.00  0.00    -0.260 C  
HETATM    8  C   UNL     1     -11.129  11.125  66.876  1.00  0.00    -0.247 A  
HETATM    9  O   UNL     1      -8.979   8.547  65.530  1.00  0.00    -0.186 OA 
HETATM   10  O   UNL     1      -9.899  10.209  64.247  1.00  0.00    -0.315 OA 
HETATM   11  N   UNL     1     -11.242  12.166  65.939  1.00  0.00    -0.326 NA 
HETATM   12  C   UNL     1      -9.038   8.104  66.908  1.00  0.00    -0.154 C  
HETATM   13  C   UNL     1     -10.395   9.972  66.579  1.00  0.00    -0.268 A  
HETATM   14  H2  UNL     1     -10.707  12.963  66.284  1.00  0.00     0.000 HD 
HETATM   15  H1  UNL     1     -10.996  12.017  64.961  1.00  0.00     0.000 HD 
HETATM   16  C   UNL     1     -10.086   8.996  67.508  1.00  0.00    -0.285 A  
BRANCH   5  17
HETATM   17  O   UNL     1     -11.353  10.651  70.558  1.00  0.00    -0.314 OA 
BRANCH  17  18
HETATM   18  C   UNL     1     -12.723  10.594  71.009  1.00  0.00    -0.415 C  
HETATM   19  C   UNL     1     -13.059   9.495  71.994  1.00  0.00    -0.528 C  
ENDBRANCH  17  18
ENDBRANCH   5  17
BRANCH   6  20
HETATM   20  O   UNL     1     -11.930  12.611  68.504  1.00  0.00    -0.305 OA 
BRANCH  20  21
HETATM   21  C   UNL     1     -11.001  13.533  69.078  1.00  0.00    -0.225 C  
HETATM   22  C   UNL     1     -11.730  14.347  70.150  1.00  0.00    -0.361 C  
ENDBRANCH  20  21
ENDBRANCH   6  20
BRANCH  12  23
HETATM   23  C   UNL     1      -7.595   8.148  67.585  1.00  0.00    -0.098 C  
HETATM   24  C   UNL     1      -7.728   7.314  69.907  1.00  0.00    -0.103 C  
HETATM   25  C   UNL     1      -7.358   5.688  68.172  1.00  0.00    -0.073 C  
HETATM   26  N   UNL     1      -7.213   7.077  68.560  1.00  0.00    -0.088 NA 
HETATM   27  C   UNL     1      -6.967   8.487  70.496  1.00  0.00    -0.040 C  
HETATM   28  C   UNL     1      -6.988   9.685  69.585  1.00  0.00    -0.071 A  
HETATM   29  C   UNL     1      -6.650  10.923  70.154  1.00  0.00    -0.122 A  
HETATM   30  C   UNL     1      -6.660  12.029  69.347  1.00  0.00    -0.100 A  
HETATM   31  C   UNL     1      -6.948  11.948  68.005  1.00  0.00    -0.078 A  
HETATM   32  O   UNL     1      -6.903  13.187  67.430  1.00  0.00    -0.163 OA 
HETATM   33  C   UNL     1      -7.233  10.732  67.384  1.00  0.00    -0.093 A  
HETATM   34  C   UNL     1      -7.277   9.560  68.189  1.00  0.00    -0.080 A  
HETATM   35  O   UNL     1      -6.398  13.296  69.766  1.00  0.00    -0.122 OA 
HETATM   36  C   UNL     1      -6.713  14.033  68.576  1.00  0.00    -0.099 C  
BRANCH  33  37
HETATM   37  O   UNL     1      -7.475  10.574  66.049  1.00  0.00    -0.128 OA 
HETATM   38  C   UNL     1      -6.358  10.562  65.164  1.00  0.00    -0.064 C  
ENDBRANCH  33  37
ENDBRANCH  12  23
ENDBRANCH   3   4
ENDBRANCH   2   3
TORSDOF 8
ENDMDL
MODEL       55
REMARK 921   NORMALIZED FREE ENERGY PREDICTED BY IDOCK:   -4.13 KCAL/MOL
REMARK 922        TOTAL FREE ENERGY PREDICTED BY IDOCK:   -6.85 KCAL/MOL
REMARK 923 INTER-LIGAND FREE ENERGY PREDICTED BY IDOCK:   -7.94 KCAL/MOL
REMARK 924 INTRA-LIGAND FREE ENERGY PREDICTED BY IDOCK:    1.09 KCAL/MOL
REMARK 927      BINDING AFFINITY PREDICTED BY RF-SCORE:    0.00 PKD
ROOT
HETATM    1  C   UNL     1      -6.934  16.028  67.396  1.00  0.00    -0.223 C  
HETATM    2  C   UNL     1      -6.646  14.696  68.070  1.00  0.00    -0.146 C  
ENDROOT
BRANCH   2   3
HETATM    3  O   UNL     1      -7.861  14.042  68.360  1.00  0.00    -0.130 OA 
BRANCH   3   4
HETATM    4  C   UNL     1      -8.486  13.169  67.530  1.00  0.00    -0.198 A  
HETATM    5  C   UNL     1      -8.469  11.794  67.947  1.00  0.00    -0.154 A  
HETATM    6  C   UNL     1      -8.886  10.784  67.039  1.00  0.00    -0.135 A  
HETATM    7  C   UNL     1     -10.258  13.123  64.379  1.00  0.00    -0.297 C  
HETATM    8  C   UNL     1      -9.390  11.150  65.757  1.00  0.00    -0.214 A  
HETATM    9  O   UNL     1     -10.385  14.448  64.656  1.00  0.00    -0.397 OA 
HETATM   10  O   UNL     1     -10.621  12.569  63.363  1.00  0.00    -0.415 OA 
HETATM   11  N   UNL     1      -9.969  10.188  64.912  1.00  0.00    -0.329 NA 
HETATM   12  C   UNL     1      -9.829  14.792  65.949  1.00  0.00    -0.334 C  
HETATM   13  C   UNL     1      -9.571  12.515  65.516  1.00  0.00    -0.056 A  
HETATM   14  H2  UNL     1     -10.715   9.720  65.426  1.00  0.00     0.000 HD 
HETATM   15  H1  UNL     1     -10.331  10.449  63.994  1.00  0.00     0.000 HD 
HETATM   16  C   UNL     1      -9.193  13.509  66.399  1.00  0.00    -0.136 A  
BRANCH   5  17
HETATM   17  O   UNL     1      -8.171  11.409  69.261  1.00  0.00     0.032 OA 
BRANCH  17  18
HETATM   18  C   UNL     1      -6.813  10.957  69.445  1.00  0.00    -0.114 C  
HETATM   19  C   UNL     1      -6.631   9.701  70.272  1.00  0.00    -0.091 C  
ENDBRANCH  17  18
ENDBRANCH   5  17
BRANCH   6  20
HETATM   20  O   UNL     1      -9.008   9.436  67.313  1.00  0.00    -0.129 OA 
BRANCH  20  21
HETATM   21  C   UNL     1     -10.227   9.000  67.918  1.00  0.00    -0.221 C  
HETATM   22  C   UNL     1      -9.880   8.164  69.153  1.00  0.00    -0.182 C  
ENDBRANCH  20  21
ENDBRANCH   6  20
BRANCH  12  23
HETATM   23  C   UNL     1     -10.948  15.404  66.906  1.00  0.00    -0.294 C  
HETATM   24  C   UNL     1      -9.897  16.844  68.617  1.00  0.00    -0.270 C  
HETATM   25  C   UNL     1     -10.487  17.873  66.524  1.00  0.00    -0.313 C  
HETATM   26  N   UNL     1     -10.769  16.790  67.446  1.00  0.00    -0.288 NA 
HETATM   27  C   UNL     1     -10.638  16.206  69.778  1.00  0.00    -0.312 C  
HETATM   28  C   UNL     1     -11.155  14.835  69.429  1.00  0.00    -0.302 A  
HETATM   29  C   UNL     1     -11.524  14.004  70.498  1.00  0.00    -0.059 A  
HETATM   30  C   UNL     1     -12.000  12.753  70.207  1.00  0.00    -0.280 A  
HETATM   31  C   UNL     1     -12.160  12.317  68.914  1.00  0.00    -0.126 A  
HETATM   32  O   UNL     1     -12.635  11.035  68.895  1.00  0.00    -0.366 OA 
HETATM   33  C   UNL     1     -11.859  13.128  67.820  1.00  0.00    -0.348 A  
HETATM   34  C   UNL     1     -11.322  14.422  68.069  1.00  0.00    -0.316 A  
HETATM   35  O   UNL     1     -12.354  11.825  71.137  1.00  0.00    -0.324 OA 
HETATM   36  C   UNL     1     -12.601  10.692  70.291  1.00  0.00    -0.260 C  
BRANCH  33  37
HETATM   37  O   UNL     1     -12.044  12.777  66.512  1.00  0.00    -0.468 OA 
HETATM   38  C   UNL     1     -13.152  13.344  65.818  1.00  0.00     0.253 C  
ENDBRANCH  33  37
ENDBRANCH  12  23
ENDBRANCH   3   4
ENDBRANCH   2   3
TORSDOF 8
ENDMDL
MODEL       56
REMARK 921   NORMALIZED FREE ENERGY PREDICTED BY IDOCK:   -4.11 KCAL/MOL
REMARK 922        TOTAL FREE ENERGY PREDICTED BY IDOCK:   -6.82 KCAL/MOL
REMARK 923 INTER-LIGAND FREE ENERGY PREDICTED BY IDOCK:   -6.15 KCAL/MOL
REMARK 924 INTRA-LIGAND FREE ENERGY PREDICTED BY IDOCK:   -0.67 KCAL/MOL
REMARK 927      BINDING AFFINITY PREDICTED BY RF-SCORE:    0.00 PKD
ROOT
HETATM    1  C   UNL     1      -8.534   5.603  63.997  1.00  0.00    -0.008 C  
HETATM    2  C   UNL     1      -7.414   6.631  64.028  1.00  0.00    -0.093 C  
ENDROOT
BRANCH   2   3
HETATM    3  O   UNL     1      -7.321   7.189  65.319  1.00  0.00    -0.073 OA 
BRANCH   3   4
HETATM    4  C   UNL     1      -7.802   6.609  66.448  1.00  0.00    -0.104 A  
HETATM    5  C   UNL     1      -6.898   5.717  67.121  1.00  0.00    -0.064 A  
HETATM    6  C   UNL     1      -7.385   4.889  68.168  1.00  0.00    -0.070 A  
HETATM    7  C   UNL     1     -10.815   6.499  68.444  1.00  0.00    -0.289 C  
HETATM    8  C   UNL     1      -8.740   5.008  68.592  1.00  0.00    -0.093 A  
HETATM    9  O   UNL     1     -11.065   7.655  67.774  1.00  0.00    -0.007 OA 
HETATM   10  O   UNL     1     -11.569   5.943  69.214  1.00  0.00    -0.075 OA 
HETATM   11  N   UNL     1      -9.199   4.329  69.734  1.00  0.00    -0.121 NA 
HETATM   12  C   UNL     1      -9.963   8.040  66.916  1.00  0.00    -0.268 C  
HETATM   13  C   UNL     1      -9.489   6.046  68.028  1.00  0.00    -0.113 A  
HETATM   14  H2  UNL     1      -8.597   4.583  70.517  1.00  0.00     0.000 HD 
HETATM   15  H1  UNL     1     -10.169   4.414  70.038  1.00  0.00     0.000 HD 
HETATM   16  C   UNL     1      -9.022   6.876  67.027  1.00  0.00    -0.124 A  
BRANCH   5  17
HETATM   17  O   UNL     1      -5.519   5.713  66.872  1.00  0.00    -0.011 OA 
BRANCH  17  18
HETATM   18  C   UNL     1      -5.138   4.960  65.701  1.00  0.00    -0.008 C  
HETATM   19  C   UNL     1      -5.275   3.455  65.799  1.00  0.00    -0.009 C  
ENDBRANCH  17  18
ENDBRANCH   5  17
BRANCH   6  20
HETATM   20  O   UNL     1      -6.633   4.048  68.964  1.00  0.00    -0.039 OA 
BRANCH  20  21
HETATM   21  C   UNL     1      -5.799   4.656  69.953  1.00  0.00    -0.017 C  
HETATM   22  C   UNL     1      -5.861   3.808  71.225  1.00  0.00    -0.013 C  
ENDBRANCH  20  21
ENDBRANCH   6  20
BRANCH  12  23
HETATM   23  C   UNL     1      -9.383   9.465  67.338  1.00  0.00    -0.126 C  
HETATM   24  C   UNL     1     -10.396  10.191  69.470  1.00  0.00    -0.240 C  
HETATM   25  C   UNL     1      -8.408   8.841  69.600  1.00  0.00    -0.126 C  
HETATM   26  N   UNL     1      -9.174   9.768  68.790  1.00  0.00    -0.139 NA 
HETATM   27  C   UNL     1     -10.755  11.575  68.964  1.00  0.00    -0.233 C  
HETATM   28  C   UNL     1     -10.812  11.626  67.460  1.00  0.00    -0.287 A  
HETATM   29  C   UNL     1     -11.479  12.719  66.885  1.00  0.00    -0.396 A  
HETATM   30  C   UNL     1     -11.544  12.790  65.519  1.00  0.00    -0.362 A  
HETATM   31  C   UNL     1     -10.944  11.852  64.712  1.00  0.00    -0.312 A  
HETATM   32  O   UNL     1     -11.165  12.142  63.395  1.00  0.00    -0.427 OA 
HETATM   33  C   UNL     1     -10.223  10.780  65.238  1.00  0.00    -0.285 A  
HETATM   34  C   UNL     1     -10.163  10.639  66.652  1.00  0.00    -0.284 A  
HETATM   35  O   UNL     1     -12.191  13.764  64.825  1.00  0.00    -0.382 OA 
HETATM   36  C   UNL     1     -12.076  13.250  63.490  1.00  0.00    -0.482 C  
BRANCH  33  37
HETATM   37  O   UNL     1      -9.561   9.844  64.494  1.00  0.00    -0.299 OA 
HETATM   38  C   UNL     1      -8.292  10.199  63.951  1.00  0.00    -0.172 C  
ENDBRANCH  33  37
ENDBRANCH  12  23
ENDBRANCH   3   4
ENDBRANCH   2   3
TORSDOF 8
ENDMDL
MODEL       57
REMARK 921   NORMALIZED FREE ENERGY PREDICTED BY IDOCK:   -4.10 KCAL/MOL
REMARK 922        TOTAL FREE ENERGY PREDICTED BY IDOCK:   -6.80 KCAL/MOL
REMARK 923 INTER-LIGAND FREE ENERGY PREDICTED BY IDOCK:   -6.64 KCAL/MOL
REMARK 924 INTRA-LIGAND FREE ENERGY PREDICTED BY IDOCK:   -0.15 KCAL/MOL
REMARK 927      BINDING AFFINITY PREDICTED BY RF-SCORE:    0.00 PKD
ROOT
HETATM    1  C   UNL     1      -5.232  11.389  70.964  1.00  0.00    -0.116 C  
HETATM    2  C   UNL     1      -6.352  11.530  69.947  1.00  0.00    -0.136 C  
ENDROOT
BRANCH   2   3
HETATM    3  O   UNL     1      -6.908  10.262  69.677  1.00  0.00    -0.066 OA 
BRANCH   3   4
HETATM    4  C   UNL     1      -8.214   9.939  69.851  1.00  0.00    -0.184 A  
HETATM    5  C   UNL     1      -9.100  10.336  68.791  1.00  0.00    -0.159 A  
HETATM    6  C   UNL     1     -10.504  10.253  68.988  1.00  0.00    -0.217 A  
HETATM    7  C   UNL     1     -10.379   8.352  72.274  1.00  0.00    -0.333 C  
HETATM    8  C   UNL     1     -11.018   9.704  70.198  1.00  0.00    -0.275 A  
HETATM    9  O   UNL     1      -9.194   7.843  72.706  1.00  0.00    -0.174 OA 
HETATM   10  O   UNL     1     -11.458   8.193  72.803  1.00  0.00    -0.408 OA 
HETATM   11  N   UNL     1     -12.393   9.451  70.346  1.00  0.00    -0.466 NA 
HETATM   12  C   UNL     1      -8.088   8.237  71.858  1.00  0.00    -0.141 C  
HETATM   13  C   UNL     1     -10.090   9.149  71.084  1.00  0.00    -0.384 A  
HETATM   14  H2  UNL     1     -12.691   8.855  69.574  1.00  0.00     0.000 HD 
HETATM   15  H1  UNL     1     -12.761   9.058  71.212  1.00  0.00     0.000 HD 
HETATM   16  C   UNL     1      -8.722   9.199  70.896  1.00  0.00    -0.277 A  
BRANCH   5  17
HETATM   17  O   UNL     1      -8.637  10.690  67.517  1.00  0.00    -0.122 OA 
BRANCH  17  18
HETATM   18  C   UNL     1      -8.377   9.563  66.654  1.00  0.00    -0.116 C  
HETATM   19  C   UNL     1      -9.375   9.329  65.539  1.00  0.00    -0.303 C  
ENDBRANCH  17  18
ENDBRANCH   5  17
BRANCH   6  20
HETATM   20  O   UNL     1     -11.480  10.512  68.045  1.00  0.00    -0.383 OA 
BRANCH  20  21
HETATM   21  C   UNL     1     -11.875  11.875  67.871  1.00  0.00    -0.238 C  
HETATM   22  C   UNL     1     -11.568  12.285  66.429  1.00  0.00    -0.445 C  
ENDBRANCH  20  21
ENDBRANCH   6  20
BRANCH  12  23
HETATM   23  C   UNL     1      -7.375   6.961  71.221  1.00  0.00    -0.081 C  
HETATM   24  C   UNL     1      -5.260   7.633  70.135  1.00  0.00    -0.023 C  
HETATM   25  C   UNL     1      -5.167   7.075  72.473  1.00  0.00    -0.037 C  
HETATM   26  N   UNL     1      -5.879   6.882  71.225  1.00  0.00    -0.035 NA 
HETATM   27  C   UNL     1      -5.556   6.900  68.839  1.00  0.00    -0.018 C  
HETATM   28  C   UNL     1      -7.027   6.627  68.672  1.00  0.00    -0.080 A  
HETATM   29  C   UNL     1      -7.469   6.297  67.381  1.00  0.00    -0.085 A  
HETATM   30  C   UNL     1      -8.803   6.043  67.202  1.00  0.00    -0.108 A  
HETATM   31  C   UNL     1      -9.695   6.062  68.248  1.00  0.00    -0.124 A  
HETATM   32  O   UNL     1     -10.959   5.788  67.805  1.00  0.00    -0.236 OA 
HETATM   33  C   UNL     1      -9.292   6.329  69.556  1.00  0.00    -0.142 A  
HETATM   34  C   UNL     1      -7.923   6.641  69.788  1.00  0.00    -0.120 A  
HETATM   35  O   UNL     1      -9.382   5.754  66.005  1.00  0.00    -0.161 OA 
HETATM   36  C   UNL     1     -10.767   5.754  66.380  1.00  0.00    -0.125 C  
BRANCH  33  37
HETATM   37  O   UNL     1     -10.115   6.312  70.646  1.00  0.00    -0.183 OA 
HETATM   38  C   UNL     1     -10.425   5.049  71.230  1.00  0.00    -0.143 C  
ENDBRANCH  33  37
ENDBRANCH  12  23
ENDBRANCH   3   4
ENDBRANCH   2   3
TORSDOF 8
ENDMDL
MODEL       58
REMARK 921   NORMALIZED FREE ENERGY PREDICTED BY IDOCK:   -4.08 KCAL/MOL
REMARK 922        TOTAL FREE ENERGY PREDICTED BY IDOCK:   -6.77 KCAL/MOL
REMARK 923 INTER-LIGAND FREE ENERGY PREDICTED BY IDOCK:   -6.11 KCAL/MOL
REMARK 924 INTRA-LIGAND FREE ENERGY PREDICTED BY IDOCK:   -0.65 KCAL/MOL
REMARK 927      BINDING AFFINITY PREDICTED BY RF-SCORE:    0.00 PKD
ROOT
HETATM    1  C   UNL     1      -5.158  11.689  70.266  1.00  0.00    -0.086 C  
HETATM    2  C   UNL     1      -6.235  10.618  70.325  1.00  0.00    -0.139 C  
ENDROOT
BRANCH   2   3
HETATM    3  O   UNL     1      -7.014  10.666  69.150  1.00  0.00    -0.067 OA 
BRANCH   3   4
HETATM    4  C   UNL     1      -8.362  10.812  69.123  1.00  0.00    -0.105 A  
HETATM    5  C   UNL     1      -8.859  11.835  68.244  1.00  0.00    -0.172 A  
HETATM    6  C   UNL     1     -10.224  12.220  68.323  1.00  0.00    -0.220 A  
HETATM    7  C   UNL     1     -11.333   9.440  70.662  1.00  0.00    -0.292 C  
HETATM    8  C   UNL     1     -11.102  11.536  69.212  1.00  0.00    -0.246 A  
HETATM    9  O   UNL     1     -10.481   8.416  70.933  1.00  0.00    -0.190 OA 
HETATM   10  O   UNL     1     -12.483   9.529  71.036  1.00  0.00    -0.304 OA 
HETATM   11  N   UNL     1     -12.486  11.779  69.183  1.00  0.00    -0.077 NA 
HETATM   12  C   UNL     1      -9.171   8.626  70.352  1.00  0.00    -0.170 C  
HETATM   13  C   UNL     1     -10.586  10.417  69.872  1.00  0.00    -0.299 A  
HETATM   14  H2  UNL     1     -12.816  11.626  68.230  1.00  0.00     0.000 HD 
HETATM   15  H1  UNL     1     -13.116  11.288  69.819  1.00  0.00     0.000 HD 
HETATM   16  C   UNL     1      -9.267  10.014  69.788  1.00  0.00    -0.227 A  
BRANCH   5  17
HETATM   17  O   UNL     1      -8.080  12.391  67.221  1.00  0.00    -0.169 OA 
BRANCH  17  18
HETATM   18  C   UNL     1      -7.790  13.793  67.402  1.00  0.00    -0.153 C  
HETATM   19  C   UNL     1      -6.363  14.140  67.773  1.00  0.00    -0.169 C  
ENDBRANCH  17  18
ENDBRANCH   5  17
BRANCH   6  20
HETATM   20  O   UNL     1     -10.870  13.119  67.497  1.00  0.00    -0.248 OA 
BRANCH  20  21
HETATM   21  C   UNL     1     -11.196  12.676  66.178  1.00  0.00    -0.309 C  
HETATM   22  C   UNL     1     -12.402  13.478  65.684  1.00  0.00    -0.522 C  
ENDBRANCH  20  21
ENDBRANCH   6  20
BRANCH  12  23
HETATM   23  C   UNL     1      -8.809   7.464  69.321  1.00  0.00    -0.136 C  
HETATM   24  C   UNL     1     -10.876   6.545  68.329  1.00  0.00    -0.288 C  
HETATM   25  C   UNL     1      -9.879   8.441  67.234  1.00  0.00    -0.203 C  
HETATM   26  N   UNL     1      -9.645   7.295  68.090  1.00  0.00    -0.139 NA 
HETATM   27  C   UNL     1     -10.497   5.099  68.589  1.00  0.00    -0.095 C  
HETATM   28  C   UNL     1      -9.455   4.976  69.669  1.00  0.00    -0.207 A  
HETATM   29  C   UNL     1      -9.291   3.711  70.253  1.00  0.00    -0.241 A  
HETATM   30  C   UNL     1      -8.348   3.572  71.237  1.00  0.00    -0.067 A  
HETATM   31  C   UNL     1      -7.545   4.617  71.628  1.00  0.00    -0.082 A  
HETATM   32  O   UNL     1      -6.701   4.223  72.629  1.00  0.00    -0.045 OA 
HETATM   33  C   UNL     1      -7.634   5.877  71.037  1.00  0.00    -0.096 A  
HETATM   34  C   UNL     1      -8.627   6.083  70.039  1.00  0.00    -0.131 A  
HETATM   35  O   UNL     1      -8.107   2.421  71.921  1.00  0.00    -0.051 OA 
HETATM   36  C   UNL     1      -7.176   2.894  72.905  1.00  0.00    -0.040 C  
BRANCH  33  37
HETATM   37  O   UNL     1      -6.833   6.941  71.342  1.00  0.00    -0.059 OA 
HETATM   38  C   UNL     1      -6.902   7.473  72.663  1.00  0.00    -0.065 C  
ENDBRANCH  33  37
ENDBRANCH  12  23
ENDBRANCH   3   4
ENDBRANCH   2   3
TORSDOF 8
ENDMDL
MODEL       59
REMARK 921   NORMALIZED FREE ENERGY PREDICTED BY IDOCK:   -4.07 KCAL/MOL
REMARK 922        TOTAL FREE ENERGY PREDICTED BY IDOCK:   -6.76 KCAL/MOL
REMARK 923 INTER-LIGAND FREE ENERGY PREDICTED BY IDOCK:   -6.23 KCAL/MOL
REMARK 924 INTRA-LIGAND FREE ENERGY PREDICTED BY IDOCK:   -0.52 KCAL/MOL
REMARK 927      BINDING AFFINITY PREDICTED BY RF-SCORE:    0.00 PKD
ROOT
HETATM    1  C   UNL     1     -11.322   8.267  71.295  1.00  0.00    -0.308 C  
HETATM    2  C   UNL     1     -10.445   8.245  70.054  1.00  0.00    -0.231 C  
ENDROOT
BRANCH   2   3
HETATM    3  O   UNL     1     -11.149   8.803  68.967  1.00  0.00    -0.001 OA 
BRANCH   3   4
HETATM    4  C   UNL     1     -10.619   9.665  68.063  1.00  0.00    -0.243 A  
HETATM    5  C   UNL     1     -10.692  11.057  68.414  1.00  0.00    -0.203 A  
HETATM    6  C   UNL     1     -10.380  12.039  67.437  1.00  0.00    -0.207 A  
HETATM    7  C   UNL     1      -9.019   9.646  64.821  1.00  0.00    -0.225 C  
HETATM    8  C   UNL     1      -9.923  11.637  66.149  1.00  0.00    -0.221 A  
HETATM    9  O   UNL     1      -8.803   8.346  65.153  1.00  0.00    -0.143 OA 
HETATM   10  O   UNL     1      -8.741  10.166  63.761  1.00  0.00    -0.176 OA 
HETATM   11  N   UNL     1      -9.445  12.585  65.228  1.00  0.00    -0.449 NA 
HETATM   12  C   UNL     1      -9.270   8.038  66.490  1.00  0.00    -0.188 C  
HETATM   13  C   UNL     1      -9.679  10.273  65.963  1.00  0.00    -0.274 A  
HETATM   14  H2  UNL     1      -8.701  13.118  65.677  1.00  0.00     0.000 HD 
HETATM   15  H1  UNL     1      -9.117  12.297  64.305  1.00  0.00     0.000 HD 
HETATM   16  C   UNL     1      -9.953   9.306  66.912  1.00  0.00    -0.298 A  
BRANCH   5  17
HETATM   17  O   UNL     1     -10.942  11.490  69.722  1.00  0.00    -0.141 OA 
BRANCH  17  18
HETATM   18  C   UNL     1     -12.344  11.554  70.060  1.00  0.00    -0.213 C  
HETATM   19  C   UNL     1     -12.675  11.626  71.536  1.00  0.00    -0.423 C  
ENDBRANCH  17  18
ENDBRANCH   5  17
BRANCH   6  20
HETATM   20  O   UNL     1     -10.320  13.405  67.639  1.00  0.00    -0.233 OA 
BRANCH  20  21
HETATM   21  C   UNL     1     -11.558  14.093  67.828  1.00  0.00    -0.347 C  
HETATM   22  C   UNL     1     -12.280  14.165  66.480  1.00  0.00    -0.463 C  
ENDBRANCH  20  21
ENDBRANCH   6  20
BRANCH  12  23
HETATM   23  C   UNL     1      -8.070   7.536  67.413  1.00  0.00    -0.116 C  
HETATM   24  C   UNL     1      -5.925   8.416  66.559  1.00  0.00    -0.049 C  
HETATM   25  C   UNL     1      -7.139   9.795  68.112  1.00  0.00    -0.078 C  
HETATM   26  N   UNL     1      -6.901   8.443  67.646  1.00  0.00    -0.066 NA 
HETATM   27  C   UNL     1      -5.225   7.070  66.596  1.00  0.00    -0.022 C  
HETATM   28  C   UNL     1      -6.204   5.926  66.604  1.00  0.00    -0.033 A  
HETATM   29  C   UNL     1      -5.703   4.659  66.270  1.00  0.00    -0.022 A  
HETATM   30  C   UNL     1      -6.574   3.601  66.270  1.00  0.00    -0.037 A  
HETATM   31  C   UNL     1      -7.894   3.744  66.626  1.00  0.00    -0.088 A  
HETATM   32  O   UNL     1      -8.548   2.548  66.533  1.00  0.00    -0.100 OA 
HETATM   33  C   UNL     1      -8.422   4.974  67.019  1.00  0.00    -0.106 A  
HETATM   34  C   UNL     1      -7.568   6.112  66.994  1.00  0.00    -0.095 A  
HETATM   35  O   UNL     1      -6.243   2.327  65.927  1.00  0.00    -0.023 OA 
HETATM   36  C   UNL     1      -7.538   1.709  65.945  1.00  0.00    -0.065 C  
BRANCH  33  37
HETATM   37  O   UNL     1      -9.708   5.175  67.434  1.00  0.00    -0.135 OA 
HETATM   38  C   UNL     1     -10.739   5.152  66.450  1.00  0.00    -0.210 C  
ENDBRANCH  33  37
ENDBRANCH  12  23
ENDBRANCH   3   4
ENDBRANCH   2   3
TORSDOF 8
ENDMDL
MODEL       60
REMARK 921   NORMALIZED FREE ENERGY PREDICTED BY IDOCK:   -4.07 KCAL/MOL
REMARK 922        TOTAL FREE ENERGY PREDICTED BY IDOCK:   -6.75 KCAL/MOL
REMARK 923 INTER-LIGAND FREE ENERGY PREDICTED BY IDOCK:   -5.98 KCAL/MOL
REMARK 924 INTRA-LIGAND FREE ENERGY PREDICTED BY IDOCK:   -0.78 KCAL/MOL
REMARK 927      BINDING AFFINITY PREDICTED BY RF-SCORE:    0.00 PKD
ROOT
HETATM    1  C   UNL     1     -12.015  11.275  69.127  1.00  0.00    -0.405 C  
HETATM    2  C   UNL     1     -11.941  11.598  67.643  1.00  0.00    -0.012 C  
ENDROOT
BRANCH   2   3
HETATM    3  O   UNL     1     -10.595  11.788  67.267  1.00  0.00    -0.211 OA 
BRANCH   3   4
HETATM    4  C   UNL     1      -9.551  11.063  67.742  1.00  0.00    -0.170 A  
HETATM    5  C   UNL     1      -9.447   9.721  67.239  1.00  0.00    -0.153 A  
HETATM    6  C   UNL     1      -8.536   8.817  67.849  1.00  0.00    -0.130 A  
HETATM    7  C   UNL     1      -6.779  11.371  70.043  1.00  0.00     0.043 C  
HETATM    8  C   UNL     1      -7.681   9.270  68.894  1.00  0.00    -0.079 A  
HETATM    9  O   UNL     1      -7.027  12.695  69.856  1.00  0.00     0.234 OA 
HETATM   10  O   UNL     1      -5.968  10.899  70.811  1.00  0.00    -0.263 OA 
HETATM   11  N   UNL     1      -6.656   8.448  69.392  1.00  0.00    -0.041 NA 
HETATM   12  C   UNL     1      -8.072  12.923  68.880  1.00  0.00     0.212 C  
HETATM   13  C   UNL     1      -7.699  10.640  69.175  1.00  0.00    -0.138 A  
HETATM   14  H2  UNL     1      -6.073   8.157  68.608  1.00  0.00     0.000 HD 
HETATM   15  H1  UNL     1      -6.043   8.773  70.141  1.00  0.00     0.000 HD 
HETATM   16  C   UNL     1      -8.562  11.538  68.574  1.00  0.00    -0.140 A  
BRANCH   5  17
HETATM   17  O   UNL     1     -10.121   9.294  66.088  1.00  0.00    -0.288 OA 
BRANCH  17  18
HETATM   18  C   UNL     1      -9.597   9.847  64.863  1.00  0.00    -0.288 C  
HETATM   19  C   UNL     1      -8.490   9.060  64.192  1.00  0.00    -0.183 C  
ENDBRANCH  17  18
ENDBRANCH   5  17
BRANCH   6  20
HETATM   20  O   UNL     1      -8.258   7.529  67.432  1.00  0.00    -0.114 OA 
BRANCH  20  21
HETATM   21  C   UNL     1      -9.217   6.518  67.749  1.00  0.00    -0.113 C  
HETATM   22  C   UNL     1      -9.611   5.805  66.454  1.00  0.00    -0.175 C  
ENDBRANCH  20  21
ENDBRANCH   6  20
BRANCH  12  23
HETATM   23  C   UNL     1      -7.526  13.772  67.645  1.00  0.00    -0.178 C  
HETATM   24  C   UNL     1      -5.177  14.424  68.045  1.00  0.00    -0.102 C  
HETATM   25  C   UNL     1      -5.564  12.297  66.990  1.00  0.00    -0.027 C  
HETATM   26  N   UNL     1      -6.093  13.624  67.235  1.00  0.00    -0.256 NA 
HETATM   27  C   UNL     1      -5.400  15.884  67.694  1.00  0.00    -0.135 C  
HETATM   28  C   UNL     1      -6.851  16.272  67.800  1.00  0.00    -0.155 A  
HETATM   29  C   UNL     1      -7.139  17.644  67.864  1.00  0.00    -0.190 A  
HETATM   30  C   UNL     1      -8.451  18.024  67.959  1.00  0.00    -0.261 A  
HETATM   31  C   UNL     1      -9.477  17.108  67.951  1.00  0.00    -0.257 A  
HETATM   32  O   UNL     1     -10.683  17.739  68.069  1.00  0.00    -0.382 OA 
HETATM   33  C   UNL     1      -9.241  15.739  67.832  1.00  0.00    -0.191 A  
HETATM   34  C   UNL     1      -7.892  15.291  67.773  1.00  0.00    -0.161 A  
HETATM   35  O   UNL     1      -8.878  19.310  68.072  1.00  0.00    -0.298 OA 
HETATM   36  C   UNL     1     -10.279  19.100  68.301  1.00  0.00    -0.401 C  
BRANCH  33  37
HETATM   37  O   UNL     1     -10.214  14.782  67.765  1.00  0.00    -0.230 OA 
HETATM   38  C   UNL     1     -11.220  14.921  66.765  1.00  0.00    -0.338 C  
ENDBRANCH  33  37
ENDBRANCH  12  23
ENDBRANCH   3   4
ENDBRANCH   2   3
TORSDOF 8
ENDMDL
MODEL       61
REMARK 921   NORMALIZED FREE ENERGY PREDICTED BY IDOCK:   -4.00 KCAL/MOL
REMARK 922        TOTAL FREE ENERGY PREDICTED BY IDOCK:   -6.65 KCAL/MOL
REMARK 923 INTER-LIGAND FREE ENERGY PREDICTED BY IDOCK:   -6.43 KCAL/MOL
REMARK 924 INTRA-LIGAND FREE ENERGY PREDICTED BY IDOCK:   -0.21 KCAL/MOL
REMARK 927      BINDING AFFINITY PREDICTED BY RF-SCORE:    0.00 PKD
ROOT
HETATM    1  C   UNL     1      -5.194  12.336  71.107  1.00  0.00    -0.130 C  
HETATM    2  C   UNL     1      -6.170  13.163  70.286  1.00  0.00    -0.004 C  
ENDROOT
BRANCH   2   3
HETATM    3  O   UNL     1      -6.655  12.391  69.210  1.00  0.00    -0.102 OA 
BRANCH   3   4
HETATM    4  C   UNL     1      -7.804  12.644  68.534  1.00  0.00    -0.104 A  
HETATM    5  C   UNL     1      -7.766  13.773  67.644  1.00  0.00    -0.179 A  
HETATM    6  C   UNL     1      -8.976  14.255  67.078  1.00  0.00    -0.236 A  
HETATM    7  C   UNL     1     -11.179  11.383  68.232  1.00  0.00    -0.263 C  
HETATM    8  C   UNL     1     -10.199  13.569  67.331  1.00  0.00    -0.237 A  
HETATM    9  O   UNL     1     -10.604  10.277  68.774  1.00  0.00    -0.187 OA 
HETATM   10  O   UNL     1     -12.359  11.530  67.994  1.00  0.00    -0.445 OA 
HETATM   11  N   UNL     1     -11.375  13.920  66.647  1.00  0.00    -0.320 NA 
HETATM   12  C   UNL     1      -9.174  10.432  68.947  1.00  0.00    -0.177 C  
HETATM   13  C   UNL     1     -10.112  12.362  68.031  1.00  0.00    -0.214 A  
HETATM   14  H2  UNL     1     -11.186  13.873  65.646  1.00  0.00     0.000 HD 
HETATM   15  H1  UNL     1     -12.251  13.428  66.828  1.00  0.00     0.000 HD 
HETATM   16  C   UNL     1      -8.939  11.866  68.569  1.00  0.00    -0.115 A  
BRANCH   5  17
HETATM   17  O   UNL     1      -6.565  14.350  67.212  1.00  0.00    -0.283 OA 
BRANCH  17  18
HETATM   18  C   UNL     1      -6.209  15.558  67.917  1.00  0.00    -0.150 C  
HETATM   19  C   UNL     1      -5.890  16.765  67.060  1.00  0.00    -0.206 C  
ENDBRANCH  17  18
ENDBRANCH   5  17
BRANCH   6  20
HETATM   20  O   UNL     1      -9.098  15.267  66.145  1.00  0.00    -0.307 OA 
BRANCH  20  21
HETATM   21  C   UNL     1      -9.428  16.568  66.634  1.00  0.00    -0.258 C  
HETATM   22  C   UNL     1     -10.413  17.215  65.656  1.00  0.00    -0.208 C  
ENDBRANCH  20  21
ENDBRANCH   6  20
BRANCH  12  23
HETATM   23  C   UNL     1      -8.374   9.336  68.109  1.00  0.00    -0.120 C  
HETATM   24  C   UNL     1      -9.547   8.879  65.984  1.00  0.00    -0.250 C  
HETATM   25  C   UNL     1      -7.955  10.683  65.996  1.00  0.00    -0.159 C  
HETATM   26  N   UNL     1      -8.352   9.433  66.615  1.00  0.00    -0.118 NA 
HETATM   27  C   UNL     1      -9.503   7.371  66.149  1.00  0.00    -0.076 C  
HETATM   28  C   UNL     1      -9.294   6.968  67.584  1.00  0.00    -0.128 A  
HETATM   29  C   UNL     1      -9.598   5.641  67.923  1.00  0.00    -0.133 A  
HETATM   30  C   UNL     1      -9.415   5.249  69.222  1.00  0.00    -0.134 A  
HETATM   31  C   UNL     1      -8.910   6.100  70.176  1.00  0.00    -0.144 A  
HETATM   32  O   UNL     1      -8.837   5.473  71.388  1.00  0.00    -0.133 OA 
HETATM   33  C   UNL     1      -8.541   7.410  69.873  1.00  0.00    -0.140 A  
HETATM   34  C   UNL     1      -8.751   7.879  68.546  1.00  0.00    -0.131 A  
HETATM   35  O   UNL     1      -9.707   4.011  69.706  1.00  0.00    -0.204 OA 
HETATM   36  C   UNL     1      -9.485   4.221  71.108  1.00  0.00    -0.163 C  
BRANCH  33  37
HETATM   37  O   UNL     1      -7.985   8.290  70.758  1.00  0.00    -0.090 OA 
HETATM   38  C   UNL     1      -8.715   8.598  71.943  1.00  0.00    -0.185 C  
ENDBRANCH  33  37
ENDBRANCH  12  23
ENDBRANCH   3   4
ENDBRANCH   2   3
TORSDOF 8
ENDMDL
MODEL       62
REMARK 921   NORMALIZED FREE ENERGY PREDICTED BY IDOCK:   -3.95 KCAL/MOL
REMARK 922        TOTAL FREE ENERGY PREDICTED BY IDOCK:   -6.58 KCAL/MOL
REMARK 923 INTER-LIGAND FREE ENERGY PREDICTED BY IDOCK:   -6.91 KCAL/MOL
REMARK 924 INTRA-LIGAND FREE ENERGY PREDICTED BY IDOCK:    0.33 KCAL/MOL
REMARK 927      BINDING AFFINITY PREDICTED BY RF-SCORE:    0.00 PKD
ROOT
HETATM    1  C   UNL     1      -7.621  13.853  67.442  1.00  0.00    -0.160 C  
HETATM    2  C   UNL     1      -7.177  13.039  68.646  1.00  0.00    -0.101 C  
ENDROOT
BRANCH   2   3
HETATM    3  O   UNL     1      -8.089  11.986  68.867  1.00  0.00    -0.041 OA 
BRANCH   3   4
HETATM    4  C   UNL     1      -7.934  10.721  68.402  1.00  0.00    -0.124 A  
HETATM    5  C   UNL     1      -7.219   9.824  69.269  1.00  0.00    -0.072 A  
HETATM    6  C   UNL     1      -6.805   8.559  68.774  1.00  0.00    -0.062 A  
HETATM    7  C   UNL     1      -8.721   8.716  65.498  1.00  0.00    -0.186 C  
HETATM    8  C   UNL     1      -7.170   8.160  67.456  1.00  0.00    -0.091 A  
HETATM    9  O   UNL     1      -9.629   9.709  65.302  1.00  0.00    -0.274 OA 
HETATM   10  O   UNL     1      -8.502   7.792  64.744  1.00  0.00    -0.094 OA 
HETATM   11  N   UNL     1      -6.924   6.851  67.007  1.00  0.00    -0.068 NA 
HETATM   12  C   UNL     1      -9.628  10.672  66.385  1.00  0.00    -0.190 C  
HETATM   13  C   UNL     1      -8.044   9.001  66.761  1.00  0.00    -0.111 A  
HETATM   14  H2  UNL     1      -7.354   6.202  67.666  1.00  0.00     0.000 HD 
HETATM   15  H1  UNL     1      -7.187   6.565  66.063  1.00  0.00     0.000 HD 
HETATM   16  C   UNL     1      -8.476  10.225  67.237  1.00  0.00    -0.125 A  
BRANCH   5  17
HETATM   17  O   UNL     1      -7.014  10.094  70.628  1.00  0.00    -0.298 OA 
BRANCH  17  18
HETATM   18  C   UNL     1      -5.666  10.496  70.948  1.00  0.00    -0.077 C  
HETATM   19  C   UNL     1      -5.127  10.028  72.284  1.00  0.00    -0.026 C  
ENDBRANCH  17  18
ENDBRANCH   5  17
BRANCH   6  20
HETATM   20  O   UNL     1      -6.189   7.557  69.499  1.00  0.00    -0.030 OA 
BRANCH  20  21
HETATM   21  C   UNL     1      -7.002   6.820  70.415  1.00  0.00    -0.063 C  
HETATM   22  C   UNL     1      -6.197   6.590  71.696  1.00  0.00    -0.042 C  
ENDBRANCH  20  21
ENDBRANCH   6  20
BRANCH  12  23
HETATM   23  C   UNL     1     -11.055  10.735  67.095  1.00  0.00    -0.227 C  
HETATM   24  C   UNL     1     -11.232  12.793  68.450  1.00  0.00    -0.278 C  
HETATM   25  C   UNL     1     -11.876  12.940  66.136  1.00  0.00    -0.429 C  
HETATM   26  N   UNL     1     -11.719  12.064  67.281  1.00  0.00    -0.548 NA 
HETATM   27  C   UNL     1     -11.734  12.074  69.689  1.00  0.00    -0.405 C  
HETATM   28  C   UNL     1     -11.394  10.607  69.663  1.00  0.00    -0.360 A  
HETATM   29  C   UNL     1     -11.468   9.916  70.883  1.00  0.00    -0.456 A  
HETATM   30  C   UNL     1     -11.166   8.581  70.887  1.00  0.00    -0.266 A  
HETATM   31  C   UNL     1     -10.838   7.905  69.735  1.00  0.00    -0.202 A  
HETATM   32  O   UNL     1     -10.570   6.593  70.010  1.00  0.00    -0.201 OA 
HETATM   33  C   UNL     1     -10.807   8.537  68.493  1.00  0.00     0.071 A  
HETATM   34  C   UNL     1     -11.072   9.934  68.442  1.00  0.00    -0.193 A  
HETATM   35  O   UNL     1     -11.152   7.794  71.996  1.00  0.00    -0.245 OA 
HETATM   36  C   UNL     1     -10.619   6.580  71.447  1.00  0.00    -0.228 C  
BRANCH  33  37
HETATM   37  O   UNL     1     -10.541   7.915  67.306  1.00  0.00    -0.297 OA 
HETATM   38  C   UNL     1     -10.943   6.555  67.160  1.00  0.00    -0.408 C  
ENDBRANCH  33  37
ENDBRANCH  12  23
ENDBRANCH   3   4
ENDBRANCH   2   3
TORSDOF 8
ENDMDL
MODEL       63
REMARK 921   NORMALIZED FREE ENERGY PREDICTED BY IDOCK:   -3.85 KCAL/MOL
REMARK 922        TOTAL FREE ENERGY PREDICTED BY IDOCK:   -6.44 KCAL/MOL
REMARK 923 INTER-LIGAND FREE ENERGY PREDICTED BY IDOCK:   -6.58 KCAL/MOL
REMARK 924 INTRA-LIGAND FREE ENERGY PREDICTED BY IDOCK:    0.14 KCAL/MOL
REMARK 927      BINDING AFFINITY PREDICTED BY RF-SCORE:    0.00 PKD
ROOT
HETATM    1  C   UNL     1     -10.686   5.900  67.307  1.00  0.00    -0.380 C  
HETATM    2  C   UNL     1     -11.082   7.167  68.048  1.00  0.00     0.027 C  
ENDROOT
BRANCH   2   3
HETATM    3  O   UNL     1     -10.002   8.074  68.042  1.00  0.00    -0.165 OA 
BRANCH   3   4
HETATM    4  C   UNL     1      -9.851   9.089  67.154  1.00  0.00    -0.203 A  
HETATM    5  C   UNL     1     -10.210  10.395  67.635  1.00  0.00    -0.201 A  
HETATM    6  C   UNL     1     -10.310  11.473  66.716  1.00  0.00    -0.226 A  
HETATM    7  C   UNL     1      -8.827   9.650  63.732  1.00  0.00    -0.231 C  
HETATM    8  C   UNL     1      -9.976  11.269  65.346  1.00  0.00    -0.250 A  
HETATM    9  O   UNL     1      -8.246   8.434  63.914  1.00  0.00    -0.155 OA 
HETATM   10  O   UNL     1      -8.857  10.278  62.695  1.00  0.00    -0.183 OA 
HETATM   11  N   UNL     1      -9.899  12.354  64.456  1.00  0.00    -0.503 NA 
HETATM   12  C   UNL     1      -8.406   7.949  65.269  1.00  0.00    -0.133 C  
HETATM   13  C   UNL     1      -9.434  10.026  65.007  1.00  0.00    -0.339 A  
HETATM   14  H2  UNL     1      -9.249  13.037  64.843  1.00  0.00     0.000 HD 
HETATM   15  H1  UNL     1      -9.659  12.208  63.475  1.00  0.00     0.000 HD 
HETATM   16  C   UNL     1      -9.307   8.974  65.894  1.00  0.00    -0.306 A  
BRANCH   5  17
HETATM   17  O   UNL     1     -10.351  10.682  68.999  1.00  0.00    -0.196 OA 
BRANCH  17  18
HETATM   18  C   UNL     1     -11.713  10.619  69.473  1.00  0.00    -0.284 C  
HETATM   19  C   UNL     1     -12.099  11.627  70.535  1.00  0.00    -0.458 C  
ENDBRANCH  17  18
ENDBRANCH   5  17
BRANCH   6  20
HETATM   20  O   UNL     1     -10.559  12.796  67.029  1.00  0.00    -0.239 OA 
BRANCH  20  21
HETATM   21  C   UNL     1     -11.926  13.187  67.173  1.00  0.00    -0.341 C  
HETATM   22  C   UNL     1     -12.228  14.274  66.138  1.00  0.00    -0.430 C  
ENDBRANCH  20  21
ENDBRANCH   6  20
BRANCH  12  23
HETATM   23  C   UNL     1      -6.990   7.728  65.968  1.00  0.00    -0.061 C  
HETATM   24  C   UNL     1      -7.264   6.388  68.025  1.00  0.00    -0.087 C  
HETATM   25  C   UNL     1      -6.940   5.187  65.965  1.00  0.00    -0.067 C  
HETATM   26  N   UNL     1      -6.716   6.434  66.671  1.00  0.00    -0.058 NA 
HETATM   27  C   UNL     1      -6.449   7.332  68.889  1.00  0.00    -0.040 C  
HETATM   28  C   UNL     1      -6.355   8.708  68.284  1.00  0.00    -0.055 A  
HETATM   29  C   UNL     1      -5.957   9.751  69.135  1.00  0.00    -0.034 A  
HETATM   30  C   UNL     1      -5.863  11.012  68.609  1.00  0.00    -0.043 A  
HETATM   31  C   UNL     1      -6.105  11.267  67.280  1.00  0.00    -0.076 A  
HETATM   32  O   UNL     1      -5.956  12.599  67.013  1.00  0.00    -0.301 OA 
HETATM   33  C   UNL     1      -6.448  10.253  66.386  1.00  0.00    -0.087 A  
HETATM   34  C   UNL     1      -6.600   8.932  66.892  1.00  0.00    -0.061 A  
HETATM   35  O   UNL     1      -5.533  12.124  69.320  1.00  0.00    -0.062 OA 
HETATM   36  C   UNL     1      -5.752  13.139  68.330  1.00  0.00    -0.088 C  
BRANCH  33  37
HETATM   37  O   UNL     1      -6.651  10.429  65.046  1.00  0.00    -0.125 OA 
HETATM   38  C   UNL     1      -5.505  10.585  64.212  1.00  0.00    -0.135 C  
ENDBRANCH  33  37
ENDBRANCH  12  23
ENDBRANCH   3   4
ENDBRANCH   2   3
TORSDOF 8
ENDMDL
MODEL       64
REMARK 921   NORMALIZED FREE ENERGY PREDICTED BY IDOCK:   -3.83 KCAL/MOL
REMARK 922        TOTAL FREE ENERGY PREDICTED BY IDOCK:   -6.40 KCAL/MOL
REMARK 923 INTER-LIGAND FREE ENERGY PREDICTED BY IDOCK:   -5.16 KCAL/MOL
REMARK 924 INTRA-LIGAND FREE ENERGY PREDICTED BY IDOCK:   -1.24 KCAL/MOL
REMARK 927      BINDING AFFINITY PREDICTED BY RF-SCORE:    0.00 PKD
ROOT
HETATM    1  C   UNL     1      -8.671   9.373  70.493  1.00  0.00    -0.276 C  
HETATM    2  C   UNL     1      -7.843   8.565  69.507  1.00  0.00    -0.097 C  
ENDROOT
BRANCH   2   3
HETATM    3  O   UNL     1      -7.082   9.438  68.702  1.00  0.00    -0.068 OA 
BRANCH   3   4
HETATM    4  C   UNL     1      -7.604  10.378  67.875  1.00  0.00    -0.088 A  
HETATM    5  C   UNL     1      -7.103  11.713  68.056  1.00  0.00    -0.080 A  
HETATM    6  C   UNL     1      -7.753  12.796  67.406  1.00  0.00    -0.165 A  
HETATM    7  C   UNL     1     -10.037  10.692  65.218  1.00  0.00    -0.297 C  
HETATM    8  C   UNL     1      -8.840  12.541  66.521  1.00  0.00    -0.087 A  
HETATM    9  O   UNL     1      -9.843   9.348  65.149  1.00  0.00    -0.182 OA 
HETATM   10  O   UNL     1     -10.842  11.330  64.574  1.00  0.00    -0.329 OA 
HETATM   11  N   UNL     1      -9.384  13.571  65.735  1.00  0.00    -0.485 NA 
HETATM   12  C   UNL     1      -8.818   8.895  66.066  1.00  0.00    -0.172 C  
HETATM   13  C   UNL     1      -9.124  11.201  66.239  1.00  0.00    -0.207 A  
HETATM   14  H2  UNL     1      -8.628  13.994  65.197  1.00  0.00     0.000 HD 
HETATM   15  H1  UNL     1     -10.162  13.388  65.101  1.00  0.00     0.000 HD 
HETATM   16  C   UNL     1      -8.485  10.135  66.844  1.00  0.00    -0.126 A  
BRANCH   5  17
HETATM   17  O   UNL     1      -5.920  11.984  68.755  1.00  0.00    -0.053 OA 
BRANCH  17  18
HETATM   18  C   UNL     1      -6.110  12.190  70.170  1.00  0.00    -0.121 C  
HETATM   19  C   UNL     1      -5.285  11.317  71.092  1.00  0.00    -0.096 C  
ENDBRANCH  17  18
ENDBRANCH   5  17
BRANCH   6  20
HETATM   20  O   UNL     1      -7.347  14.116  67.409  1.00  0.00    -0.180 OA 
BRANCH  20  21
HETATM   21  C   UNL     1      -7.869  14.958  68.439  1.00  0.00    -0.121 C  
HETATM   22  C   UNL     1      -6.693  15.592  69.186  1.00  0.00    -0.149 C  
ENDBRANCH  20  21
ENDBRANCH   6  20
BRANCH  12  23
HETATM   23  C   UNL     1      -7.613   8.203  65.283  1.00  0.00    -0.095 C  
HETATM   24  C   UNL     1      -7.520   9.050  62.964  1.00  0.00    -0.101 C  
HETATM   25  C   UNL     1      -6.313  10.289  64.637  1.00  0.00    -0.108 C  
HETATM   26  N   UNL     1      -6.855   8.997  64.263  1.00  0.00    -0.082 NA 
HETATM   27  C   UNL     1      -7.433   7.670  62.339  1.00  0.00    -0.098 C  
HETATM   28  C   UNL     1      -7.935   6.599  63.270  1.00  0.00    -0.076 A  
HETATM   29  C   UNL     1      -8.250   5.357  62.698  1.00  0.00    -0.109 A  
HETATM   30  C   UNL     1      -8.708   4.364  63.523  1.00  0.00    -0.129 A  
HETATM   31  C   UNL     1      -8.824   4.542  64.882  1.00  0.00    -0.148 A  
HETATM   32  O   UNL     1      -9.313   3.411  65.473  1.00  0.00    -0.153 OA 
HETATM   33  C   UNL     1      -8.470   5.741  65.501  1.00  0.00    -0.150 A  
HETATM   34  C   UNL     1      -8.028   6.817  64.681  1.00  0.00    -0.117 A  
HETATM   35  O   UNL     1      -9.092   3.127  63.107  1.00  0.00    -0.092 OA 
HETATM   36  C   UNL     1      -9.621   2.595  64.330  1.00  0.00    -0.134 C  
BRANCH  33  37
HETATM   37  O   UNL     1      -8.510   5.966  66.848  1.00  0.00    -0.109 OA 
HETATM   38  C   UNL     1      -7.492   5.381  67.655  1.00  0.00    -0.084 C  
ENDBRANCH  33  37
ENDBRANCH  12  23
ENDBRANCH   3   4
ENDBRANCH   2   3
TORSDOF 8
ENDMDL
MODEL       65
REMARK 921   NORMALIZED FREE ENERGY PREDICTED BY IDOCK:   -3.77 KCAL/MOL
REMARK 922        TOTAL FREE ENERGY PREDICTED BY IDOCK:   -6.31 KCAL/MOL
REMARK 923 INTER-LIGAND FREE ENERGY PREDICTED BY IDOCK:   -6.46 KCAL/MOL
REMARK 924 INTRA-LIGAND FREE ENERGY PREDICTED BY IDOCK:    0.15 KCAL/MOL
REMARK 927      BINDING AFFINITY PREDICTED BY RF-SCORE:    0.00 PKD
ROOT
HETATM    1  C   UNL     1      -5.526   5.203  66.696  1.00  0.00    -0.013 C  
HETATM    2  C   UNL     1      -6.708   6.004  66.177  1.00  0.00    -0.060 C  
ENDROOT
BRANCH   2   3
HETATM    3  O   UNL     1      -7.635   6.207  67.221  1.00  0.00    -0.090 OA 
BRANCH   3   4
HETATM    4  C   UNL     1      -7.839   7.391  67.853  1.00  0.00    -0.118 A  
HETATM    5  C   UNL     1      -8.859   8.230  67.287  1.00  0.00    -0.130 A  
HETATM    6  C   UNL     1      -8.982   9.574  67.730  1.00  0.00    -0.122 A  
HETATM    7  C   UNL     1      -6.558   9.302  70.642  1.00  0.00    -0.079 C  
HETATM    8  C   UNL     1      -8.149  10.051  68.783  1.00  0.00    -0.106 A  
HETATM    9  O   UNL     1      -6.095   8.079  71.014  1.00  0.00    -0.034 OA 
HETATM   10  O   UNL     1      -6.335  10.351  71.208  1.00  0.00    -0.330 OA 
HETATM   11  N   UNL     1      -8.367  11.316  69.356  1.00  0.00    -0.359 NA 
HETATM   12  C   UNL     1      -6.529   7.033  70.110  1.00  0.00    -0.039 C  
HETATM   13  C   UNL     1      -7.334   9.110  69.419  1.00  0.00    -0.076 A  
HETATM   14  H2  UNL     1      -9.336  11.358  69.672  1.00  0.00     0.000 HD 
HETATM   15  H1  UNL     1      -7.772  11.657  70.110  1.00  0.00     0.000 HD 
HETATM   16  C   UNL     1      -7.221   7.792  69.016  1.00  0.00    -0.080 A  
BRANCH   5  17
HETATM   17  O   UNL     1      -9.825   7.744  66.396  1.00  0.00    -0.207 OA 
BRANCH  17  18
HETATM   18  C   UNL     1     -10.860   6.960  67.026  1.00  0.00    -0.366 C  
HETATM   19  C   UNL     1     -10.878   5.482  66.696  1.00  0.00    -0.257 C  
ENDBRANCH  17  18
ENDBRANCH   5  17
BRANCH   6  20
HETATM   20  O   UNL     1      -9.957  10.476  67.351  1.00  0.00    -0.170 OA 
BRANCH  20  21
HETATM   21  C   UNL     1      -9.798  11.115  66.082  1.00  0.00    -0.225 C  
HETATM   22  C   UNL     1     -10.995  12.041  65.856  1.00  0.00    -0.342 C  
ENDBRANCH  20  21
ENDBRANCH   6  20
BRANCH  12  23
HETATM   23  C   UNL     1      -7.401   5.940  70.878  1.00  0.00    -0.086 C  
HETATM   24  C   UNL     1      -8.132   4.185  69.300  1.00  0.00    -0.059 C  
HETATM   25  C   UNL     1      -5.997   3.885  70.368  1.00  0.00    -0.018 C  
HETATM   26  N   UNL     1      -7.304   4.504  70.461  1.00  0.00    -0.048 NA 
HETATM   27  C   UNL     1      -9.584   4.233  69.738  1.00  0.00    -0.279 C  
HETATM   28  C   UNL     1      -9.922   5.529  70.425  1.00  0.00    -0.279 A  
HETATM   29  C   UNL     1     -11.283   5.850  70.545  1.00  0.00    -0.293 A  
HETATM   30  C   UNL     1     -11.617   7.023  71.168  1.00  0.00    -0.312 A  
HETATM   31  C   UNL     1     -10.666   7.858  71.706  1.00  0.00    -0.232 A  
HETATM   32  O   UNL     1     -11.255   8.962  72.257  1.00  0.00    -0.340 OA 
HETATM   33  C   UNL     1      -9.306   7.553  71.661  1.00  0.00    -0.145 A  
HETATM   34  C   UNL     1      -8.905   6.366  70.987  1.00  0.00    -0.139 A  
HETATM   35  O   UNL     1     -12.887   7.485  71.318  1.00  0.00    -0.334 OA 
HETATM   36  C   UNL     1     -12.627   8.786  71.866  1.00  0.00    -0.371 C  
BRANCH  33  37
HETATM   37  O   UNL     1      -8.317   8.310  72.221  1.00  0.00    -0.143 OA 
HETATM   38  C   UNL     1      -8.156   8.260  73.636  1.00  0.00    -0.185 C  
ENDBRANCH  33  37
ENDBRANCH  12  23
ENDBRANCH   3   4
ENDBRANCH   2   3
TORSDOF 8
ENDMDL
MODEL       66
REMARK 921   NORMALIZED FREE ENERGY PREDICTED BY IDOCK:   -3.73 KCAL/MOL
REMARK 922        TOTAL FREE ENERGY PREDICTED BY IDOCK:   -6.26 KCAL/MOL
REMARK 923 INTER-LIGAND FREE ENERGY PREDICTED BY IDOCK:   -7.11 KCAL/MOL
REMARK 924 INTRA-LIGAND FREE ENERGY PREDICTED BY IDOCK:    0.85 KCAL/MOL
REMARK 927      BINDING AFFINITY PREDICTED BY RF-SCORE:    0.00 PKD
ROOT
HETATM    1  C   UNL     1     -12.454  11.422  71.037  1.00  0.00    -0.486 C  
HETATM    2  C   UNL     1     -11.901  10.830  69.751  1.00  0.00    -0.335 C  
ENDROOT
BRANCH   2   3
HETATM    3  O   UNL     1     -11.836   9.426  69.868  1.00  0.00     0.027 OA 
BRANCH   3   4
HETATM    4  C   UNL     1     -11.043   8.759  70.744  1.00  0.00    -0.260 A  
HETATM    5  C   UNL     1     -11.638   7.612  71.373  1.00  0.00    -0.274 A  
HETATM    6  C   UNL     1     -10.977   6.996  72.469  1.00  0.00    -0.264 A  
HETATM    7  C   UNL     1      -7.726   8.937  72.172  1.00  0.00     0.183 C  
HETATM    8  C   UNL     1      -9.698   7.469  72.881  1.00  0.00    -0.207 A  
HETATM    9  O   UNL     1      -7.511   9.716  71.078  1.00  0.00    -0.327 OA 
HETATM   10  O   UNL     1      -6.931   8.723  73.062  1.00  0.00    -0.318 OA 
HETATM   11  N   UNL     1      -8.949   6.771  73.843  1.00  0.00    -0.148 NA 
HETATM   12  C   UNL     1      -8.673   9.781  70.216  1.00  0.00    -0.129 C  
HETATM   13  C   UNL     1      -9.099   8.448  72.082  1.00  0.00    -0.309 A  
HETATM   14  H2  UNL     1      -8.845   5.807  73.527  1.00  0.00     0.000 HD 
HETATM   15  H1  UNL     1      -8.032   7.109  74.138  1.00  0.00     0.000 HD 
HETATM   16  C   UNL     1      -9.719   9.041  70.997  1.00  0.00    -0.348 A  
BRANCH   5  17
HETATM   17  O   UNL     1     -12.792   6.994  70.873  1.00  0.00    -0.306 OA 
BRANCH  17  18
HETATM   18  C   UNL     1     -14.016   7.462  71.479  1.00  0.00    -0.396 C  
HETATM   19  C   UNL     1     -13.887   8.631  72.433  1.00  0.00    -0.418 C  
ENDBRANCH  17  18
ENDBRANCH   5  17
BRANCH   6  20
HETATM   20  O   UNL     1     -11.371   5.844  73.121  1.00  0.00    -0.223 OA 
BRANCH  20  21
HETATM   21  C   UNL     1     -10.867   4.604  72.620  1.00  0.00    -0.148 C  
HETATM   22  C   UNL     1     -10.986   3.553  73.726  1.00  0.00    -0.308 C  
ENDBRANCH  20  21
ENDBRANCH   6  20
BRANCH  12  23
HETATM   23  C   UNL     1      -8.338   9.214  68.763  1.00  0.00    -0.121 C  
HETATM   24  C   UNL     1     -10.131   9.837  67.182  1.00  0.00    -0.211 C  
HETATM   25  C   UNL     1      -8.330  11.405  67.477  1.00  0.00    -0.137 C  
HETATM   26  N   UNL     1      -8.731  10.014  67.559  1.00  0.00    -0.125 NA 
HETATM   27  C   UNL     1     -10.289   8.434  66.626  1.00  0.00    -0.298 C  
HETATM   28  C   UNL     1      -9.745   7.392  67.567  1.00  0.00    -0.186 A  
HETATM   29  C   UNL     1     -10.152   6.067  67.352  1.00  0.00    -0.196 A  
HETATM   30  C   UNL     1      -9.670   5.099  68.193  1.00  0.00    -0.144 A  
HETATM   31  C   UNL     1      -8.779   5.387  69.199  1.00  0.00    -0.101 A  
HETATM   32  O   UNL     1      -8.465   4.256  69.899  1.00  0.00    -0.061 OA 
HETATM   33  C   UNL     1      -8.304   6.681  69.415  1.00  0.00    -0.128 A  
HETATM   34  C   UNL     1      -8.807   7.728  68.594  1.00  0.00    -0.131 A  
HETATM   35  O   UNL     1     -10.009   3.783  68.133  1.00  0.00    -0.014 OA 
HETATM   36  C   UNL     1      -9.362   3.295  69.317  1.00  0.00    -0.163 C  
BRANCH  33  37
HETATM   37  O   UNL     1      -7.380   7.026  70.361  1.00  0.00    -0.079 OA 
HETATM   38  C   UNL     1      -6.025   6.641  70.144  1.00  0.00    -0.023 C  
ENDBRANCH  33  37
ENDBRANCH  12  23
ENDBRANCH   3   4
ENDBRANCH   2   3
TORSDOF 8
ENDMDL
MODEL       67
REMARK 921   NORMALIZED FREE ENERGY PREDICTED BY IDOCK:   -3.64 KCAL/MOL
REMARK 922        TOTAL FREE ENERGY PREDICTED BY IDOCK:   -6.13 KCAL/MOL
REMARK 923 INTER-LIGAND FREE ENERGY PREDICTED BY IDOCK:   -6.53 KCAL/MOL
REMARK 924 INTRA-LIGAND FREE ENERGY PREDICTED BY IDOCK:    0.40 KCAL/MOL
REMARK 927      BINDING AFFINITY PREDICTED BY RF-SCORE:    0.00 PKD
ROOT
HETATM    1  C   UNL     1      -5.587  12.924  70.327  1.00  0.00    -0.148 C  
HETATM    2  C   UNL     1      -6.120  11.503  70.236  1.00  0.00    -0.140 C  
ENDROOT
BRANCH   2   3
HETATM    3  O   UNL     1      -6.870  11.356  69.050  1.00  0.00    -0.084 OA 
BRANCH   3   4
HETATM    4  C   UNL     1      -8.191  11.049  69.005  1.00  0.00    -0.098 A  
HETATM    5  C   UNL     1      -9.036  12.031  68.382  1.00  0.00    -0.158 A  
HETATM    6  C   UNL     1     -10.447  11.910  68.496  1.00  0.00    -0.224 A  
HETATM    7  C   UNL     1     -10.470   8.441  70.042  1.00  0.00    -0.224 C  
HETATM    8  C   UNL     1     -11.010  10.780  69.156  1.00  0.00    -0.244 A  
HETATM    9  O   UNL     1      -9.316   7.724  70.091  1.00  0.00    -0.154 OA 
HETATM   10  O   UNL     1     -11.567   8.050  70.381  1.00  0.00    -0.203 OA 
HETATM   11  N   UNL     1     -12.396  10.549  69.131  1.00  0.00    -0.749 NA 
HETATM   12  C   UNL     1      -8.176   8.490  69.632  1.00  0.00    -0.115 C  
HETATM   13  C   UNL     1     -10.124   9.770  69.545  1.00  0.00    -0.233 A  
HETATM   14  H2  UNL     1     -12.697  10.532  68.157  1.00  0.00     0.000 HD 
HETATM   15  H1  UNL     1     -12.799   9.740  69.603  1.00  0.00     0.000 HD 
HETATM   16  C   UNL     1      -8.750   9.861  69.419  1.00  0.00    -0.186 A  
BRANCH   5  17
HETATM   17  O   UNL     1      -8.530  13.044  67.557  1.00  0.00    -0.167 OA 
BRANCH  17  18
HETATM   18  C   UNL     1      -8.100  14.221  68.272  1.00  0.00    -0.143 C  
HETATM   19  C   UNL     1      -7.022  15.052  67.609  1.00  0.00    -0.205 C  
ENDBRANCH  17  18
ENDBRANCH   5  17
BRANCH   6  20
HETATM   20  O   UNL     1     -11.390  12.716  67.888  1.00  0.00    -0.250 OA 
BRANCH  20  21
HETATM   21  C   UNL     1     -11.546  12.585  66.474  1.00  0.00    -0.388 C  
HETATM   22  C   UNL     1     -11.749  13.980  65.879  1.00  0.00    -0.373 C  
ENDBRANCH  20  21
ENDBRANCH   6  20
BRANCH  12  23
HETATM   23  C   UNL     1      -7.496   7.800  68.365  1.00  0.00    -0.104 C  
HETATM   24  C   UNL     1      -5.128   8.485  68.203  1.00  0.00    -0.034 C  
HETATM   25  C   UNL     1      -5.626   6.555  69.550  1.00  0.00    -0.014 C  
HETATM   26  N   UNL     1      -6.059   7.385  68.444  1.00  0.00    -0.030 NA 
HETATM   27  C   UNL     1      -5.213   8.853  66.733  1.00  0.00    -0.039 C  
HETATM   28  C   UNL     1      -6.632   9.111  66.300  1.00  0.00    -0.066 A  
HETATM   29  C   UNL     1      -6.812   9.805  65.093  1.00  0.00    -0.109 A  
HETATM   30  C   UNL     1      -8.093  10.051  64.676  1.00  0.00    -0.155 A  
HETATM   31  C   UNL     1      -9.187   9.605  65.379  1.00  0.00    -0.238 A  
HETATM   32  O   UNL     1     -10.343   9.991  64.762  1.00  0.00    -0.132 OA 
HETATM   33  C   UNL     1      -9.056   8.864  66.553  1.00  0.00    -0.166 A  
HETATM   34  C   UNL     1      -7.746   8.618  67.051  1.00  0.00    -0.095 A  
HETATM   35  O   UNL     1      -8.421  10.747  63.554  1.00  0.00    -0.127 OA 
HETATM   36  C   UNL     1      -9.844  10.835  63.710  1.00  0.00    -0.339 C  
BRANCH  33  37
HETATM   37  O   UNL     1     -10.097   8.347  67.271  1.00  0.00    -0.205 OA 
HETATM   38  C   UNL     1     -10.709   7.152  66.794  1.00  0.00    -0.189 C  
ENDBRANCH  33  37
ENDBRANCH  12  23
ENDBRANCH   3   4
ENDBRANCH   2   3
TORSDOF 8
ENDMDL
MODEL       68
REMARK 921   NORMALIZED FREE ENERGY PREDICTED BY IDOCK:   -3.63 KCAL/MOL
REMARK 922        TOTAL FREE ENERGY PREDICTED BY IDOCK:   -6.11 KCAL/MOL
REMARK 923 INTER-LIGAND FREE ENERGY PREDICTED BY IDOCK:   -5.32 KCAL/MOL
REMARK 924 INTRA-LIGAND FREE ENERGY PREDICTED BY IDOCK:   -0.79 KCAL/MOL
REMARK 927      BINDING AFFINITY PREDICTED BY RF-SCORE:    0.00 PKD
ROOT
HETATM    1  C   UNL     1     -10.206  10.787  64.608  1.00  0.00    -0.419 C  
HETATM    2  C   UNL     1      -9.267   9.743  64.028  1.00  0.00    -0.215 C  
ENDROOT
BRANCH   2   3
HETATM    3  O   UNL     1      -8.488   9.182  65.061  1.00  0.00    -0.151 OA 
BRANCH   3   4
HETATM    4  C   UNL     1      -8.986   8.476  66.108  1.00  0.00    -0.179 A  
HETATM    5  C   UNL     1      -9.133   7.063  65.891  1.00  0.00    -0.009 A  
HETATM    6  C   UNL     1      -9.858   6.285  66.832  1.00  0.00    -0.156 A  
HETATM    7  C   UNL     1     -10.202   8.992  69.474  1.00  0.00    -0.203 C  
HETATM    8  C   UNL     1     -10.362   6.894  68.017  1.00  0.00    -0.192 A  
HETATM    9  O   UNL     1      -9.501  10.149  69.339  1.00  0.00    -0.204 OA 
HETATM   10  O   UNL     1     -10.893   8.683  70.421  1.00  0.00    -0.221 OA 
HETATM   11  N   UNL     1     -10.928   6.116  69.041  1.00  0.00    -0.347 NA 
HETATM   12  C   UNL     1      -8.794  10.217  68.077  1.00  0.00    -0.125 C  
HETATM   13  C   UNL     1      -9.992   8.223  68.250  1.00  0.00    -0.217 A  
HETATM   14  H2  UNL     1     -10.249   5.406  69.312  1.00  0.00     0.000 HD 
HETATM   15  H1  UNL     1     -11.289   6.553  69.890  1.00  0.00     0.000 HD 
HETATM   16  C   UNL     1      -9.265   8.987  67.356  1.00  0.00    -0.158 A  
BRANCH   5  17
HETATM   17  O   UNL     1      -8.485   6.391  64.846  1.00  0.00    -0.101 OA 
BRANCH  17  18
HETATM   18  C   UNL     1      -7.094   6.106  65.107  1.00  0.00    -0.064 C  
HETATM   19  C   UNL     1      -6.502   4.926  64.365  1.00  0.00    -0.038 C  
ENDBRANCH  17  18
ENDBRANCH   5  17
BRANCH   6  20
HETATM   20  O   UNL     1     -10.015   4.912  66.812  1.00  0.00    -0.180 OA 
BRANCH  20  21
HETATM   21  C   UNL     1      -8.999   4.130  67.443  1.00  0.00    -0.125 C  
HETATM   22  C   UNL     1      -8.720   2.905  66.568  1.00  0.00    -0.134 C  
ENDBRANCH  20  21
ENDBRANCH   6  20
BRANCH  12  23
HETATM   23  C   UNL     1      -7.221  10.344  68.309  1.00  0.00    -0.083 C  
HETATM   24  C   UNL     1      -6.608   9.353  70.487  1.00  0.00    -0.084 C  
HETATM   25  C   UNL     1      -6.662   7.881  68.585  1.00  0.00    -0.058 C  
HETATM   26  N   UNL     1      -6.499   9.250  69.034  1.00  0.00    -0.046 NA 
HETATM   27  C   UNL     1      -5.785  10.548  70.932  1.00  0.00    -0.077 C  
HETATM   28  C   UNL     1      -6.152  11.796  70.174  1.00  0.00    -0.147 A  
HETATM   29  C   UNL     1      -5.743  13.019  70.728  1.00  0.00    -0.160 A  
HETATM   30  C   UNL     1      -6.064  14.170  70.057  1.00  0.00    -0.149 A  
HETATM   31  C   UNL     1      -6.728  14.151  68.854  1.00  0.00    -0.103 A  
HETATM   32  O   UNL     1      -6.937  15.424  68.401  1.00  0.00    -0.105 OA 
HETATM   33  C   UNL     1      -7.105  12.957  68.239  1.00  0.00    -0.102 A  
HETATM   34  C   UNL     1      -6.832  11.736  68.916  1.00  0.00    -0.102 A  
HETATM   35  O   UNL     1      -5.773  15.426  70.492  1.00  0.00    -0.140 OA 
HETATM   36  C   UNL     1      -6.472  16.208  69.513  1.00  0.00    -0.199 C  
BRANCH  33  37
HETATM   37  O   UNL     1      -7.719  12.865  67.022  1.00  0.00    -0.097 OA 
HETATM   38  C   UNL     1      -9.039  13.390  66.898  1.00  0.00    -0.231 C  
ENDBRANCH  33  37
ENDBRANCH  12  23
ENDBRANCH   3   4
ENDBRANCH   2   3
TORSDOF 8
ENDMDL
MODEL       69
REMARK 921   NORMALIZED FREE ENERGY PREDICTED BY IDOCK:   -3.60 KCAL/MOL
REMARK 922        TOTAL FREE ENERGY PREDICTED BY IDOCK:   -6.07 KCAL/MOL
REMARK 923 INTER-LIGAND FREE ENERGY PREDICTED BY IDOCK:   -6.32 KCAL/MOL
REMARK 924 INTRA-LIGAND FREE ENERGY PREDICTED BY IDOCK:    0.25 KCAL/MOL
REMARK 927      BINDING AFFINITY PREDICTED BY RF-SCORE:    0.00 PKD
ROOT
HETATM    1  C   UNL     1      -8.262   9.265  63.502  1.00  0.00    -0.173 C  
HETATM    2  C   UNL     1      -9.170   9.669  64.651  1.00  0.00    -0.234 C  
ENDROOT
BRANCH   2   3
HETATM    3  O   UNL     1      -9.640   8.513  65.310  1.00  0.00     0.179 OA 
BRANCH   3   4
HETATM    4  C   UNL     1      -9.574   8.307  66.649  1.00  0.00    -0.233 A  
HETATM    5  C   UNL     1      -9.047   7.033  67.056  1.00  0.00    -0.137 A  
HETATM    6  C   UNL     1      -9.157   6.635  68.416  1.00  0.00    -0.124 A  
HETATM    7  C   UNL     1     -10.380   9.973  69.756  1.00  0.00    -0.255 C  
HETATM    8  C   UNL     1      -9.713   7.532  69.373  1.00  0.00    -0.164 A  
HETATM    9  O   UNL     1     -10.357  11.066  68.947  1.00  0.00    -0.192 OA 
HETATM   10  O   UNL     1     -10.686   9.960  70.929  1.00  0.00    -0.311 OA 
HETATM   11  N   UNL     1      -9.674   7.233  70.746  1.00  0.00    -0.172 NA 
HETATM   12  C   UNL     1      -9.964  10.736  67.593  1.00  0.00    -0.173 C  
HETATM   13  C   UNL     1     -10.004   8.826  68.931  1.00  0.00    -0.200 A  
HETATM   14  H2  UNL     1      -8.704   7.053  71.004  1.00  0.00     0.000 HD 
HETATM   15  H1  UNL     1     -10.072   7.875  71.431  1.00  0.00     0.000 HD 
HETATM   16  C   UNL     1      -9.880   9.237  67.617  1.00  0.00    -0.221 A  
BRANCH   5  17
HETATM   17  O   UNL     1      -8.315   6.210  66.191  1.00  0.00    -0.117 OA 
BRANCH  17  18
HETATM   18  C   UNL     1      -9.135   5.407  65.315  1.00  0.00    -0.051 C  
HETATM   19  C   UNL     1     -10.140   4.495  65.987  1.00  0.00    -0.282 C  
ENDBRANCH  17  18
ENDBRANCH   5  17
BRANCH   6  20
HETATM   20  O   UNL     1      -8.629   5.490  68.979  1.00  0.00    -0.103 OA 
BRANCH  20  21
HETATM   21  C   UNL     1      -7.217   5.461  69.199  1.00  0.00    -0.058 C  
HETATM   22  C   UNL     1      -6.956   4.853  70.579  1.00  0.00    -0.044 C  
ENDBRANCH  20  21
ENDBRANCH   6  20
BRANCH  12  23
HETATM   23  C   UNL     1      -8.636  11.515  67.176  1.00  0.00    -0.155 C  
HETATM   24  C   UNL     1      -7.103  11.657  69.108  1.00  0.00    -0.090 C  
HETATM   25  C   UNL     1      -6.934   9.706  67.710  1.00  0.00    -0.079 C  
HETATM   26  N   UNL     1      -7.328  11.100  67.776  1.00  0.00    -0.090 NA 
HETATM   27  C   UNL     1      -6.858  13.147  68.953  1.00  0.00    -0.103 C  
HETATM   28  C   UNL     1      -7.947  13.816  68.157  1.00  0.00    -0.150 A  
HETATM   29  C   UNL     1      -8.038  15.213  68.252  1.00  0.00    -0.138 A  
HETATM   30  C   UNL     1      -9.020  15.845  67.537  1.00  0.00    -0.194 A  
HETATM   31  C   UNL     1      -9.876  15.158  66.709  1.00  0.00    -0.241 A  
HETATM   32  O   UNL     1     -10.765  16.015  66.123  1.00  0.00    -0.305 OA 
HETATM   33  C   UNL     1      -9.786  13.777  66.539  1.00  0.00    -0.290 A  
HETATM   34  C   UNL     1      -8.810  13.068  67.293  1.00  0.00    -0.208 A  
HETATM   35  O   UNL     1      -9.256  17.185  67.564  1.00  0.00    -0.230 OA 
HETATM   36  C   UNL     1     -10.462  17.252  66.789  1.00  0.00    -0.261 C  
BRANCH  33  37
HETATM   37  O   UNL     1     -10.569  13.042  65.695  1.00  0.00    -0.274 OA 
HETATM   38  C   UNL     1     -11.961  12.947  65.987  1.00  0.00    -0.446 C  
ENDBRANCH  33  37
ENDBRANCH  12  23
ENDBRANCH   3   4
ENDBRANCH   2   3
TORSDOF 8
ENDMDL
MODEL       70
REMARK 921   NORMALIZED FREE ENERGY PREDICTED BY IDOCK:   -3.59 KCAL/MOL
REMARK 922        TOTAL FREE ENERGY PREDICTED BY IDOCK:   -6.05 KCAL/MOL
REMARK 923 INTER-LIGAND FREE ENERGY PREDICTED BY IDOCK:   -6.08 KCAL/MOL
REMARK 924 INTRA-LIGAND FREE ENERGY PREDICTED BY IDOCK:    0.02 KCAL/MOL
REMARK 927      BINDING AFFINITY PREDICTED BY RF-SCORE:    0.00 PKD
ROOT
HETATM    1  C   UNL     1      -8.008   5.813  64.684  1.00  0.00    -0.122 C  
HETATM    2  C   UNL     1      -7.366   6.884  65.550  1.00  0.00    -0.079 C  
ENDROOT
BRANCH   2   3
HETATM    3  O   UNL     1      -8.215   7.186  66.635  1.00  0.00    -0.107 OA 
BRANCH   3   4
HETATM    4  C   UNL     1      -7.994   8.176  67.537  1.00  0.00    -0.122 A  
HETATM    5  C   UNL     1      -8.851   9.324  67.420  1.00  0.00    -0.117 A  
HETATM    6  C   UNL     1      -8.546  10.499  68.158  1.00  0.00    -0.123 A  
HETATM    7  C   UNL     1      -5.793   8.981  70.290  1.00  0.00    -0.034 C  
HETATM    8  C   UNL     1      -7.445  10.502  69.062  1.00  0.00    -0.112 A  
HETATM    9  O   UNL     1      -5.599   7.636  70.271  1.00  0.00    -0.023 OA 
HETATM   10  O   UNL     1      -5.213   9.775  70.999  1.00  0.00    -0.041 OA 
HETATM   11  N   UNL     1      -7.229  11.588  69.928  1.00  0.00    -0.349 NA 
HETATM   12  C   UNL     1      -6.438   6.976  69.292  1.00  0.00    -0.043 C  
HETATM   13  C   UNL     1      -6.797   9.280  69.272  1.00  0.00    -0.049 A  
HETATM   14  H2  UNL     1      -8.082  11.741  70.465  1.00  0.00     0.000 HD 
HETATM   15  H1  UNL     1      -6.441  11.589  70.576  1.00  0.00     0.000 HD 
HETATM   16  C   UNL     1      -7.098   8.122  68.580  1.00  0.00    -0.072 A  
BRANCH   5  17
HETATM   17  O   UNL     1     -10.051   9.297  66.699  1.00  0.00    -0.242 OA 
BRANCH  17  18
HETATM   18  C   UNL     1      -9.908   9.660  65.309  1.00  0.00    -0.199 C  
HETATM   19  C   UNL     1     -10.397  11.039  64.922  1.00  0.00    -0.378 C  
ENDBRANCH  17  18
ENDBRANCH   5  17
BRANCH   6  20
HETATM   20  O   UNL     1      -9.310  11.648  68.221  1.00  0.00    -0.181 OA 
BRANCH  20  21
HETATM   21  C   UNL     1     -10.573  11.557  68.883  1.00  0.00    -0.204 C  
HETATM   22  C   UNL     1     -11.605  12.335  68.064  1.00  0.00    -0.408 C  
ENDBRANCH  20  21
ENDBRANCH   6  20
BRANCH  12  23
HETATM   23  C   UNL     1      -7.409   5.920  69.990  1.00  0.00    -0.074 C  
HETATM   24  C   UNL     1      -8.417   4.446  68.284  1.00  0.00    -0.093 C  
HETATM   25  C   UNL     1      -6.295   3.778  69.201  1.00  0.00    -0.029 C  
HETATM   26  N   UNL     1      -7.510   4.537  69.425  1.00  0.00    -0.055 NA 
HETATM   27  C   UNL     1      -9.833   4.621  68.800  1.00  0.00    -0.201 C  
HETATM   28  C   UNL     1      -9.978   5.867  69.632  1.00  0.00    -0.234 A  
HETATM   29  C   UNL     1     -11.282   6.335  69.855  1.00  0.00    -0.498 A  
HETATM   30  C   UNL     1     -11.441   7.466  70.610  1.00  0.00    -0.282 A  
HETATM   31  C   UNL     1     -10.373   8.118  71.179  1.00  0.00    -0.198 A  
HETATM   32  O   UNL     1     -10.796   9.220  71.869  1.00  0.00    -0.351 OA 
HETATM   33  C   UNL     1      -9.065   7.658  71.032  1.00  0.00    -0.147 A  
HETATM   34  C   UNL     1      -8.843   6.510  70.221  1.00  0.00    -0.151 A  
HETATM   35  O   UNL     1     -12.637   8.059  70.873  1.00  0.00    -0.137 OA 
HETATM   36  C   UNL     1     -12.194   9.253  71.535  1.00  0.00    -0.362 C  
BRANCH  33  37
HETATM   37  O   UNL     1      -7.967   8.227  71.612  1.00  0.00    -0.106 OA 
HETATM   38  C   UNL     1      -7.790   8.058  73.016  1.00  0.00    -0.149 C  
ENDBRANCH  33  37
ENDBRANCH  12  23
ENDBRANCH   3   4
ENDBRANCH   2   3
TORSDOF 8
ENDMDL
MODEL       71
REMARK 921   NORMALIZED FREE ENERGY PREDICTED BY IDOCK:   -3.51 KCAL/MOL
REMARK 922        TOTAL FREE ENERGY PREDICTED BY IDOCK:   -5.94 KCAL/MOL
REMARK 923 INTER-LIGAND FREE ENERGY PREDICTED BY IDOCK:   -6.27 KCAL/MOL
REMARK 924 INTRA-LIGAND FREE ENERGY PREDICTED BY IDOCK:    0.34 KCAL/MOL
REMARK 927      BINDING AFFINITY PREDICTED BY RF-SCORE:    0.00 PKD
ROOT
HETATM    1  C   UNL     1     -10.224   4.638  71.047  1.00  0.00    -0.207 C  
HETATM    2  C   UNL     1     -10.916   5.724  70.239  1.00  0.00    -0.276 C  
ENDROOT
BRANCH   2   3
HETATM    3  O   UNL     1      -9.963   6.413  69.461  1.00  0.00    -0.157 OA 
BRANCH   3   4
HETATM    4  C   UNL     1     -10.142   7.653  68.939  1.00  0.00    -0.197 A  
HETATM    5  C   UNL     1     -10.631   8.647  69.854  1.00  0.00    -0.224 A  
HETATM    6  C   UNL     1     -11.070   9.901  69.351  1.00  0.00    -0.199 A  
HETATM    7  C   UNL     1      -9.834   9.410  65.794  1.00  0.00    -0.275 C  
HETATM    8  C   UNL     1     -10.947  10.190  67.962  1.00  0.00    -0.270 A  
HETATM    9  O   UNL     1      -9.031   8.350  65.506  1.00  0.00    -0.171 OA 
HETATM   10  O   UNL     1     -10.148  10.294  65.027  1.00  0.00    -0.323 OA 
HETATM   11  N   UNL     1     -11.211  11.479  67.469  1.00  0.00    -0.280 NA 
HETATM   12  C   UNL     1      -8.870   7.463  66.639  1.00  0.00    -0.143 C  
HETATM   13  C   UNL     1     -10.267   9.251  67.180  1.00  0.00    -0.324 A  
HETATM   14  H2  UNL     1     -10.630  12.141  67.984  1.00  0.00     0.000 HD 
HETATM   15  H1  UNL     1     -11.122  11.686  66.474  1.00  0.00     0.000 HD 
HETATM   16  C   UNL     1      -9.812   8.036  67.658  1.00  0.00    -0.214 A  
BRANCH   5  17
HETATM   17  O   UNL     1     -10.582   8.480  71.244  1.00  0.00    -0.211 OA 
BRANCH  17  18
HETATM   18  C   UNL     1      -9.305   8.812  71.829  1.00  0.00    -0.280 C  
HETATM   19  C   UNL     1      -8.834   7.922  72.960  1.00  0.00    -0.277 C  
ENDBRANCH  17  18
ENDBRANCH   5  17
BRANCH   6  20
HETATM   20  O   UNL     1     -11.484  10.985  70.102  1.00  0.00    -0.293 OA 
BRANCH  20  21
HETATM   21  C   UNL     1     -12.878  11.081  70.397  1.00  0.00    -0.145 C  
HETATM   22  C   UNL     1     -13.089  10.695  71.863  1.00  0.00    -0.563 C  
ENDBRANCH  20  21
ENDBRANCH   6  20
BRANCH  12  23
HETATM   23  C   UNL     1      -7.338   7.357  67.069  1.00  0.00    -0.097 C  
HETATM   24  C   UNL     1      -7.083   5.695  68.879  1.00  0.00    -0.069 C  
HETATM   25  C   UNL     1      -6.971   4.884  66.616  1.00  0.00    -0.067 C  
HETATM   26  N   UNL     1      -6.787   6.028  67.487  1.00  0.00    -0.061 NA 
HETATM   27  C   UNL     1      -6.255   6.610  69.762  1.00  0.00    -0.041 C  
HETATM   28  C   UNL     1      -6.441   8.060  69.399  1.00  0.00    -0.035 A  
HETATM   29  C   UNL     1      -6.036   9.010  70.350  1.00  0.00    -0.037 A  
HETATM   30  C   UNL     1      -6.193  10.336  70.044  1.00  0.00    -0.088 A  
HETATM   31  C   UNL     1      -6.691  10.749  68.831  1.00  0.00    -0.064 A  
HETATM   32  O   UNL     1      -6.759  12.113  68.781  1.00  0.00    -0.076 OA 
HETATM   33  C   UNL     1      -7.054   9.842  67.835  1.00  0.00    -0.086 A  
HETATM   34  C   UNL     1      -6.949   8.453  68.120  1.00  0.00    -0.081 A  
HETATM   35  O   UNL     1      -5.887  11.364  70.880  1.00  0.00    -0.329 OA 
HETATM   36  C   UNL     1      -6.400  12.472  70.126  1.00  0.00     0.063 C  
BRANCH  33  37
HETATM   37  O   UNL     1      -7.505  10.186  66.592  1.00  0.00    -0.101 OA 
HETATM   38  C   UNL     1      -6.552  10.659  65.643  1.00  0.00    -0.079 C  
ENDBRANCH  33  37
ENDBRANCH  12  23
ENDBRANCH   3   4
ENDBRANCH   2   3
TORSDOF 8
ENDMDL
MODEL       72
REMARK 921   NORMALIZED FREE ENERGY PREDICTED BY IDOCK:   -3.51 KCAL/MOL
REMARK 922        TOTAL FREE ENERGY PREDICTED BY IDOCK:   -5.93 KCAL/MOL
REMARK 923 INTER-LIGAND FREE ENERGY PREDICTED BY IDOCK:   -6.19 KCAL/MOL
REMARK 924 INTRA-LIGAND FREE ENERGY PREDICTED BY IDOCK:    0.26 KCAL/MOL
REMARK 927      BINDING AFFINITY PREDICTED BY RF-SCORE:    0.00 PKD
ROOT
HETATM    1  C   UNL     1      -8.687   3.717  71.940  1.00  0.00    -0.121 C  
HETATM    2  C   UNL     1      -7.719   4.373  70.970  1.00  0.00    -0.067 C  
ENDROOT
BRANCH   2   3
HETATM    3  O   UNL     1      -8.152   5.685  70.684  1.00  0.00    -0.111 OA 
BRANCH   3   4
HETATM    4  C   UNL     1      -8.153   6.246  69.449  1.00  0.00    -0.113 A  
HETATM    5  C   UNL     1      -9.253   5.878  68.600  1.00  0.00    -0.118 A  
HETATM    6  C   UNL     1      -9.217   6.224  67.222  1.00  0.00    -0.118 A  
HETATM    7  C   UNL     1      -6.156   8.466  67.410  1.00  0.00    -0.052 C  
HETATM    8  C   UNL     1      -8.133   6.997  66.715  1.00  0.00    -0.109 A  
HETATM    9  O   UNL     1      -5.657   8.814  68.625  1.00  0.00    -0.040 OA 
HETATM   10  O   UNL     1      -5.765   8.870  66.336  1.00  0.00    -0.051 OA 
HETATM   11  N   UNL     1      -8.160   7.497  65.402  1.00  0.00    -0.127 NA 
HETATM   12  C   UNL     1      -6.336   8.136  69.710  1.00  0.00    -0.036 C  
HETATM   13  C   UNL     1      -7.218   7.491  67.649  1.00  0.00    -0.090 A  
HETATM   14  H2  UNL     1      -9.018   8.036  65.285  1.00  0.00     0.000 HD 
HETATM   15  H1  UNL     1      -7.384   8.051  65.038  1.00  0.00     0.000 HD 
HETATM   16  C   UNL     1      -7.252   7.184  68.997  1.00  0.00    -0.086 A  
BRANCH   5  17
HETATM   17  O   UNL     1     -10.426   5.296  69.098  1.00  0.00    -0.219 OA 
BRANCH  17  18
HETATM   18  C   UNL     1     -11.374   6.247  69.626  1.00  0.00    -0.422 C  
HETATM   19  C   UNL     1     -11.564   6.242  71.128  1.00  0.00    -0.339 C  
ENDBRANCH  17  18
ENDBRANCH   5  17
BRANCH   6  20
HETATM   20  O   UNL     1     -10.225   6.020  66.300  1.00  0.00    -0.105 OA 
BRANCH  20  21
HETATM   21  C   UNL     1     -10.486   4.672  65.904  1.00  0.00    -0.268 C  
HETATM   22  C   UNL     1      -9.523   4.307  64.772  1.00  0.00    -0.167 C  
ENDBRANCH  20  21
ENDBRANCH   6  20
BRANCH  12  23
HETATM   23  C   UNL     1      -7.026   9.182  70.696  1.00  0.00    -0.090 C  
HETATM   24  C   UNL     1      -8.269   7.983  72.462  1.00  0.00    -0.146 C  
HETATM   25  C   UNL     1      -5.944   8.446  72.874  1.00  0.00    -0.073 C  
HETATM   26  N   UNL     1      -7.135   8.851  72.153  1.00  0.00    -0.314 NA 
HETATM   27  C   UNL     1      -9.539   8.795  72.283  1.00  0.00    -0.270 C  
HETATM   28  C   UNL     1      -9.594   9.462  70.934  1.00  0.00    -0.301 A  
HETATM   29  C   UNL     1     -10.847   9.925  70.506  1.00  0.00    -0.391 A  
HETATM   30  C   UNL     1     -10.925  10.537  69.282  1.00  0.00    -0.244 A  
HETATM   31  C   UNL     1      -9.814  10.740  68.498  1.00  0.00    -0.177 A  
HETATM   32  O   UNL     1     -10.160  11.355  67.328  1.00  0.00    -0.188 OA 
HETATM   33  C   UNL     1      -8.540  10.346  68.908  1.00  0.00    -0.149 A  
HETATM   34  C   UNL     1      -8.413   9.669  70.152  1.00  0.00    -0.231 A  
HETATM   35  O   UNL     1     -12.074  10.997  68.718  1.00  0.00    -0.518 OA 
HETATM   36  C   UNL     1     -11.595  11.365  67.417  1.00  0.00    -0.184 C  
BRANCH  33  37
HETATM   37  O   UNL     1      -7.391  10.564  68.202  1.00  0.00    -0.086 OA 
HETATM   38  C   UNL     1      -6.906  11.901  68.110  1.00  0.00    -0.071 C  
ENDBRANCH  33  37
ENDBRANCH  12  23
ENDBRANCH   3   4
ENDBRANCH   2   3
TORSDOF 8
ENDMDL
MODEL       73
REMARK 921   NORMALIZED FREE ENERGY PREDICTED BY IDOCK:   -3.40 KCAL/MOL
REMARK 922        TOTAL FREE ENERGY PREDICTED BY IDOCK:   -5.78 KCAL/MOL
REMARK 923 INTER-LIGAND FREE ENERGY PREDICTED BY IDOCK:   -7.15 KCAL/MOL
REMARK 924 INTRA-LIGAND FREE ENERGY PREDICTED BY IDOCK:    1.37 KCAL/MOL
REMARK 927      BINDING AFFINITY PREDICTED BY RF-SCORE:    0.00 PKD
ROOT
HETATM    1  C   UNL     1     -13.230   7.529  71.899  1.00  0.00    -0.291 C  
HETATM    2  C   UNL     1     -12.205   8.605  71.579  1.00  0.00    -0.318 C  
ENDROOT
BRANCH   2   3
HETATM    3  O   UNL     1     -11.178   8.580  72.546  1.00  0.00    -0.357 OA 
BRANCH   3   4
HETATM    4  C   UNL     1      -9.926   8.101  72.331  1.00  0.00    -0.275 A  
HETATM    5  C   UNL     1      -9.610   6.868  72.997  1.00  0.00    -0.155 A  
HETATM    6  C   UNL     1      -8.264   6.415  73.023  1.00  0.00    -0.116 A  
HETATM    7  C   UNL     1      -6.890   8.967  70.568  1.00  0.00    -0.061 C  
HETATM    8  C   UNL     1      -7.258   7.143  72.325  1.00  0.00    -0.072 A  
HETATM    9  O   UNL     1      -7.752   9.756  69.873  1.00  0.00    -0.120 OA 
HETATM   10  O   UNL     1      -5.686   8.931  70.429  1.00  0.00    -0.029 OA 
HETATM   11  N   UNL     1      -5.958   6.625  72.190  1.00  0.00    -0.038 NA 
HETATM   12  C   UNL     1      -9.125   9.572  70.296  1.00  0.00    -0.253 C  
HETATM   13  C   UNL     1      -7.688   8.210  71.530  1.00  0.00    -0.102 A  
HETATM   14  H2  UNL     1      -6.027   5.697  71.773  1.00  0.00     0.000 HD 
HETATM   15  H1  UNL     1      -5.238   7.146  71.690  1.00  0.00     0.000 HD 
HETATM   16  C   UNL     1      -8.998   8.648  71.473  1.00  0.00    -0.302 A  
BRANCH   5  17
HETATM   17  O   UNL     1     -10.596   6.022  73.522  1.00  0.00    -0.242 OA 
BRANCH  17  18
HETATM   18  C   UNL     1     -10.922   4.903  72.671  1.00  0.00    -0.186 C  
HETATM   19  C   UNL     1     -10.695   5.102  71.187  1.00  0.00    -0.141 C  
ENDBRANCH  17  18
ENDBRANCH   5  17
BRANCH   6  20
HETATM   20  O   UNL     1      -7.813   5.217  73.543  1.00  0.00    -0.104 OA 
BRANCH  20  21
HETATM   21  C   UNL     1      -8.227   4.020  72.882  1.00  0.00    -0.092 C  
HETATM   22  C   UNL     1      -7.034   3.462  72.103  1.00  0.00    -0.034 C  
ENDBRANCH  20  21
ENDBRANCH   6  20
BRANCH  12  23
HETATM   23  C   UNL     1     -10.032   9.061  69.088  1.00  0.00    -0.185 C  
HETATM   24  C   UNL     1      -8.601   8.241  67.249  1.00  0.00    -0.124 C  
HETATM   25  C   UNL     1      -9.205   6.662  68.960  1.00  0.00    -0.131 C  
HETATM   26  N   UNL     1      -9.575   7.887  68.278  1.00  0.00    -0.153 NA 
HETATM   27  C   UNL     1      -9.325   9.032  66.175  1.00  0.00    -0.294 C  
HETATM   28  C   UNL     1     -10.093  10.191  66.754  1.00  0.00    -0.277 A  
HETATM   29  C   UNL     1     -10.493  11.197  65.861  1.00  0.00    -0.310 A  
HETATM   30  C   UNL     1     -11.195  12.262  66.362  1.00  0.00    -0.324 A  
HETATM   31  C   UNL     1     -11.545  12.344  67.688  1.00  0.00    -0.357 A  
HETATM   32  O   UNL     1     -12.226  13.504  67.933  1.00  0.00    -0.305 OA 
HETATM   33  C   UNL     1     -11.218  11.341  68.600  1.00  0.00    -0.250 A  
HETATM   34  C   UNL     1     -10.453  10.235  68.138  1.00  0.00    -0.224 A  
HETATM   35  O   UNL     1     -11.610  13.329  65.627  1.00  0.00    -0.317 OA 
HETATM   36  C   UNL     1     -12.119  14.177  66.667  1.00  0.00    -0.451 C  
BRANCH  33  37
HETATM   37  O   UNL     1     -11.580  11.335  69.918  1.00  0.00    -0.289 OA 
HETATM   38  C   UNL     1     -12.971  11.296  70.229  1.00  0.00     0.131 C  
ENDBRANCH  33  37
ENDBRANCH  12  23
ENDBRANCH   3   4
ENDBRANCH   2   3
TORSDOF 8
ENDMDL
MODEL       74
REMARK 921   NORMALIZED FREE ENERGY PREDICTED BY IDOCK:   -3.39 KCAL/MOL
REMARK 922        TOTAL FREE ENERGY PREDICTED BY IDOCK:   -5.75 KCAL/MOL
REMARK 923 INTER-LIGAND FREE ENERGY PREDICTED BY IDOCK:   -6.19 KCAL/MOL
REMARK 924 INTRA-LIGAND FREE ENERGY PREDICTED BY IDOCK:    0.44 KCAL/MOL
REMARK 927      BINDING AFFINITY PREDICTED BY RF-SCORE:    0.00 PKD
ROOT
HETATM    1  C   UNL     1     -11.285   4.422  73.262  1.00  0.00    -0.364 C  
HETATM    2  C   UNL     1     -11.776   5.774  72.771  1.00  0.00    -0.162 C  
ENDROOT
BRANCH   2   3
HETATM    3  O   UNL     1     -10.700   6.490  72.206  1.00  0.00    -0.211 OA 
BRANCH   3   4
HETATM    4  C   UNL     1     -10.547   6.735  70.880  1.00  0.00    -0.220 A  
HETATM    5  C   UNL     1     -10.784   8.092  70.468  1.00  0.00    -0.229 A  
HETATM    6  C   UNL     1     -10.880   8.393  69.083  1.00  0.00    -0.023 A  
HETATM    7  C   UNL     1      -9.741   4.999  67.812  1.00  0.00    -0.153 C  
HETATM    8  C   UNL     1     -10.661   7.368  68.118  1.00  0.00    -0.162 A  
HETATM    9  O   UNL     1      -9.230   4.095  68.690  1.00  0.00    -0.123 OA 
HETATM   10  O   UNL     1      -9.805   4.867  66.609  1.00  0.00    -0.162 OA 
HETATM   11  N   UNL     1     -10.577   7.674  66.749  1.00  0.00    -0.478 NA 
HETATM   12  C   UNL     1      -9.322   4.551  70.061  1.00  0.00    -0.153 C  
HETATM   13  C   UNL     1     -10.227   6.129  68.601  1.00  0.00    -0.220 A  
HETATM   14  H2  UNL     1      -9.857   8.386  66.626  1.00  0.00     0.000 HD 
HETATM   15  H1  UNL     1     -10.420   6.940  66.059  1.00  0.00     0.000 HD 
HETATM   16  C   UNL     1     -10.106   5.826  69.945  1.00  0.00    -0.273 A  
BRANCH   5  17
HETATM   17  O   UNL     1     -10.806   9.160  71.373  1.00  0.00    -0.294 OA 
BRANCH  17  18
HETATM   18  C   UNL     1     -12.090   9.812  71.480  1.00  0.00    -0.409 C  
HETATM   19  C   UNL     1     -13.169   9.050  72.220  1.00  0.00    -0.519 C  
ENDBRANCH  17  18
ENDBRANCH   5  17
BRANCH   6  20
HETATM   20  O   UNL     1     -11.017   9.650  68.526  1.00  0.00    -0.193 OA 
BRANCH  20  21
HETATM   21  C   UNL     1      -9.877  10.510  68.564  1.00  0.00    -0.168 C  
HETATM   22  C   UNL     1     -10.359  11.956  68.431  1.00  0.00    -0.216 C  
ENDBRANCH  20  21
ENDBRANCH   6  20
BRANCH  12  23
HETATM   23  C   UNL     1      -7.876   4.665  70.724  1.00  0.00    -0.072 C  
HETATM   24  C   UNL     1      -8.062   4.513  73.183  1.00  0.00    -0.096 C  
HETATM   25  C   UNL     1      -7.836   2.449  71.967  1.00  0.00    -0.052 C  
HETATM   26  N   UNL     1      -7.576   3.875  71.961  1.00  0.00    -0.064 NA 
HETATM   27  C   UNL     1      -7.204   5.738  73.441  1.00  0.00    -0.087 C  
HETATM   28  C   UNL     1      -7.133   6.638  72.236  1.00  0.00    -0.073 A  
HETATM   29  C   UNL     1      -6.693   7.953  72.450  1.00  0.00    -0.071 A  
HETATM   30  C   UNL     1      -6.618   8.792  71.370  1.00  0.00    -0.078 A  
HETATM   31  C   UNL     1      -6.919   8.369  70.097  1.00  0.00    -0.042 A  
HETATM   32  O   UNL     1      -6.778   9.395  69.205  1.00  0.00    -0.049 OA 
HETATM   33  C   UNL     1      -7.307   7.056  69.829  1.00  0.00    -0.088 A  
HETATM   34  C   UNL     1      -7.441   6.157  70.923  1.00  0.00    -0.095 A  
HETATM   35  O   UNL     1      -6.251  10.101  71.430  1.00  0.00    -0.316 OA 
HETATM   36  C   UNL     1      -6.512  10.506  70.078  1.00  0.00    -0.135 C  
BRANCH  33  37
HETATM   37  O   UNL     1      -7.569   6.558  68.584  1.00  0.00    -0.093 OA 
HETATM   38  C   UNL     1      -6.465   6.313  67.716  1.00  0.00    -0.049 C  
ENDBRANCH  33  37
ENDBRANCH  12  23
ENDBRANCH   3   4
ENDBRANCH   2   3
TORSDOF 8
ENDMDL
MODEL       75
REMARK 921   NORMALIZED FREE ENERGY PREDICTED BY IDOCK:   -3.37 KCAL/MOL
REMARK 922        TOTAL FREE ENERGY PREDICTED BY IDOCK:   -5.72 KCAL/MOL
REMARK 923 INTER-LIGAND FREE ENERGY PREDICTED BY IDOCK:   -6.10 KCAL/MOL
REMARK 924 INTRA-LIGAND FREE ENERGY PREDICTED BY IDOCK:    0.38 KCAL/MOL
REMARK 927      BINDING AFFINITY PREDICTED BY RF-SCORE:    0.00 PKD
ROOT
HETATM    1  C   UNL     1     -10.869   1.580  72.623  1.00  0.00    -0.215 C  
HETATM    2  C   UNL     1     -10.510   2.741  73.536  1.00  0.00    -0.149 C  
ENDROOT
BRANCH   2   3
HETATM    3  O   UNL     1      -9.614   3.604  72.873  1.00  0.00    -0.119 OA 
BRANCH   3   4
HETATM    4  C   UNL     1      -9.944   4.407  71.830  1.00  0.00    -0.186 A  
HETATM    5  C   UNL     1     -10.705   5.579  72.164  1.00  0.00    -0.231 A  
HETATM    6  C   UNL     1     -11.294   6.348  71.125  1.00  0.00    -0.319 A  
HETATM    7  C   UNL     1      -9.577   4.578  68.237  1.00  0.00    -0.143 C  
HETATM    8  C   UNL     1     -11.059   5.998  69.764  1.00  0.00    -0.406 A  
HETATM    9  O   UNL     1      -8.573   3.698  68.495  1.00  0.00    -0.084 OA 
HETATM   10  O   UNL     1      -9.948   4.934  67.139  1.00  0.00    -0.177 OA 
HETATM   11  N   UNL     1     -11.484   6.839  68.722  1.00  0.00    -0.567 NA 
HETATM   12  C   UNL     1      -8.394   3.473  69.915  1.00  0.00    -0.052 C  
HETATM   13  C   UNL     1     -10.137   4.974  69.527  1.00  0.00    -0.301 A  
HETATM   14  H2  UNL     1     -11.094   7.767  68.883  1.00  0.00     0.000 HD 
HETATM   15  H1  UNL     1     -11.315   6.588  67.747  1.00  0.00     0.000 HD 
HETATM   16  C   UNL     1      -9.536   4.232  70.526  1.00  0.00    -0.267 A  
BRANCH   5  17
HETATM   17  O   UNL     1     -10.793   6.071  73.473  1.00  0.00    -0.261 OA 
BRANCH  17  18
HETATM   18  C   UNL     1      -9.556   6.617  73.977  1.00  0.00    -0.233 C  
HETATM   19  C   UNL     1      -9.301   8.081  73.684  1.00  0.00    -0.218 C  
ENDBRANCH  17  18
ENDBRANCH   5  17
BRANCH   6  20
HETATM   20  O   UNL     1     -11.977   7.540  71.275  1.00  0.00    -0.290 OA 
BRANCH  20  21
HETATM   21  C   UNL     1     -13.331   7.464  71.726  1.00  0.00    -0.312 C  
HETATM   22  C   UNL     1     -13.754   8.852  72.214  1.00  0.00    -0.527 C  
ENDBRANCH  20  21
ENDBRANCH   6  20
BRANCH  12  23
HETATM   23  C   UNL     1      -6.929   3.897  70.381  1.00  0.00    -0.034 C  
HETATM   24  C   UNL     1      -6.677   3.524  72.810  1.00  0.00    -0.033 C  
HETATM   25  C   UNL     1      -6.167   1.677  71.354  1.00  0.00    -0.018 C  
HETATM   26  N   UNL     1      -6.257   3.119  71.470  1.00  0.00    -0.014 NA 
HETATM   27  C   UNL     1      -6.105   4.902  73.081  1.00  0.00    -0.030 C  
HETATM   28  C   UNL     1      -6.443   5.877  71.984  1.00  0.00    -0.050 A  
HETATM   29  C   UNL     1      -6.298   7.241  72.279  1.00  0.00    -0.047 A  
HETATM   30  C   UNL     1      -6.598   8.149  71.298  1.00  0.00    -0.045 A  
HETATM   31  C   UNL     1      -6.991   7.758  70.040  1.00  0.00    -0.050 A  
HETATM   32  O   UNL     1      -7.241   8.849  69.256  1.00  0.00    -0.063 OA 
HETATM   33  C   UNL     1      -7.094   6.413  69.685  1.00  0.00    -0.073 A  
HETATM   34  C   UNL     1      -6.834   5.432  70.681  1.00  0.00    -0.048 A  
HETATM   35  O   UNL     1      -6.547   9.500  71.452  1.00  0.00    -0.266 OA 
HETATM   36  C   UNL     1      -7.110   9.924  70.202  1.00  0.00    -0.145 C  
BRANCH  33  37
HETATM   37  O   UNL     1      -7.427   5.958  68.440  1.00  0.00    -0.082 OA 
HETATM   38  C   UNL     1      -6.474   6.118  67.393  1.00  0.00    -0.046 C  
ENDBRANCH  33  37
ENDBRANCH  12  23
ENDBRANCH   3   4
ENDBRANCH   2   3
TORSDOF 8
ENDMDL
MODEL       76
REMARK 921   NORMALIZED FREE ENERGY PREDICTED BY IDOCK:   -3.34 KCAL/MOL
REMARK 922        TOTAL FREE ENERGY PREDICTED BY IDOCK:   -5.69 KCAL/MOL
REMARK 923 INTER-LIGAND FREE ENERGY PREDICTED BY IDOCK:   -5.97 KCAL/MOL
REMARK 924 INTRA-LIGAND FREE ENERGY PREDICTED BY IDOCK:    0.28 KCAL/MOL
REMARK 927      BINDING AFFINITY PREDICTED BY RF-SCORE:    0.00 PKD
ROOT
HETATM    1  C   UNL     1      -8.453   2.006  69.728  1.00  0.00    -0.085 C  
HETATM    2  C   UNL     1      -9.326   2.930  68.894  1.00  0.00    -0.158 C  
ENDROOT
BRANCH   2   3
HETATM    3  O   UNL     1      -9.708   4.045  69.669  1.00  0.00    -0.206 OA 
BRANCH   3   4
HETATM    4  C   UNL     1      -9.033   5.221  69.715  1.00  0.00    -0.111 A  
HETATM    5  C   UNL     1      -9.531   6.258  68.853  1.00  0.00    -0.127 A  
HETATM    6  C   UNL     1      -8.758   7.433  68.658  1.00  0.00    -0.128 A  
HETATM    7  C   UNL     1      -6.176   6.717  71.350  1.00  0.00    -0.041 C  
HETATM    8  C   UNL     1      -7.541   7.608  69.377  1.00  0.00    -0.095 A  
HETATM    9  O   UNL     1      -6.382   5.690  72.216  1.00  0.00    -0.045 OA 
HETATM   10  O   UNL     1      -5.260   7.511  71.390  1.00  0.00    -0.027 OA 
HETATM   11  N   UNL     1      -6.850   8.831  69.334  1.00  0.00    -0.048 NA 
HETATM   12  C   UNL     1      -7.558   4.916  71.877  1.00  0.00    -0.097 C  
HETATM   13  C   UNL     1      -7.240   6.651  70.351  1.00  0.00    -0.080 A  
HETATM   14  H2  UNL     1      -7.494   9.570  69.615  1.00  0.00     0.000 HD 
HETATM   15  H1  UNL     1      -5.978   8.957  69.850  1.00  0.00     0.000 HD 
HETATM   16  C   UNL     1      -7.994   5.513  70.571  1.00  0.00    -0.103 A  
BRANCH   5  17
HETATM   17  O   UNL     1     -10.811   6.214  68.286  1.00  0.00    -0.267 OA 
BRANCH  17  18
HETATM   18  C   UNL     1     -10.812   6.222  66.842  1.00  0.00    -0.354 C  
HETATM   19  C   UNL     1     -10.549   4.893  66.165  1.00  0.00    -0.322 C  
ENDBRANCH  17  18
ENDBRANCH   5  17
BRANCH   6  20
HETATM   20  O   UNL     1      -9.133   8.549  67.934  1.00  0.00    -0.139 OA 
BRANCH  20  21
HETATM   21  C   UNL     1     -10.078   9.433  68.540  1.00  0.00    -0.187 C  
HETATM   22  C   UNL     1     -10.884  10.111  67.430  1.00  0.00    -0.323 C  
ENDBRANCH  20  21
ENDBRANCH   6  20
BRANCH  12  23
HETATM   23  C   UNL     1      -8.624   4.945  73.063  1.00  0.00    -0.110 C  
HETATM   24  C   UNL     1     -10.188   3.046  72.836  1.00  0.00    -0.155 C  
HETATM   25  C   UNL     1      -8.158   2.658  74.068  1.00  0.00    -0.063 C  
HETATM   26  N   UNL     1      -9.120   3.650  73.630  1.00  0.00    -0.094 NA 
HETATM   27  C   UNL     1     -11.432   3.899  73.004  1.00  0.00     0.019 C  
HETATM   28  C   UNL     1     -11.162   5.351  72.711  1.00  0.00    -0.358 A  
HETATM   29  C   UNL     1     -12.276   6.169  72.471  1.00  0.00    -0.045 A  
HETATM   30  C   UNL     1     -12.058   7.494  72.203  1.00  0.00    -0.269 A  
HETATM   31  C   UNL     1     -10.795   8.039  72.205  1.00  0.00    -0.305 A  
HETATM   32  O   UNL     1     -10.848   9.370  71.897  1.00  0.00    -0.310 OA 
HETATM   33  C   UNL     1      -9.664   7.277  72.493  1.00  0.00    -0.154 A  
HETATM   34  C   UNL     1      -9.834   5.886  72.736  1.00  0.00    -0.181 A  
HETATM   35  O   UNL     1     -13.034   8.396  71.910  1.00  0.00    -0.329 OA 
HETATM   36  C   UNL     1     -12.236   9.538  71.564  1.00  0.00    -0.386 C  
BRANCH  33  37
HETATM   37  O   UNL     1      -8.390   7.765  72.563  1.00  0.00    -0.110 OA 
HETATM   38  C   UNL     1      -7.959   8.335  73.796  1.00  0.00    -0.180 C  
ENDBRANCH  33  37
ENDBRANCH  12  23
ENDBRANCH   3   4
ENDBRANCH   2   3
TORSDOF 8
ENDMDL
MODEL       77
REMARK 921   NORMALIZED FREE ENERGY PREDICTED BY IDOCK:   -3.34 KCAL/MOL
REMARK 922        TOTAL FREE ENERGY PREDICTED BY IDOCK:   -5.69 KCAL/MOL
REMARK 923 INTER-LIGAND FREE ENERGY PREDICTED BY IDOCK:   -6.99 KCAL/MOL
REMARK 924 INTRA-LIGAND FREE ENERGY PREDICTED BY IDOCK:    1.30 KCAL/MOL
REMARK 927      BINDING AFFINITY PREDICTED BY RF-SCORE:    0.00 PKD
ROOT
HETATM    1  C   UNL     1      -6.578   9.477  70.914  1.00  0.00    -0.090 C  
HETATM    2  C   UNL     1      -6.499  10.686  69.996  1.00  0.00    -0.138 C  
ENDROOT
BRANCH   2   3
HETATM    3  O   UNL     1      -7.495  10.591  69.002  1.00  0.00    -0.092 OA 
BRANCH   3   4
HETATM    4  C   UNL     1      -8.296  11.613  68.611  1.00  0.00    -0.100 A  
HETATM    5  C   UNL     1      -7.699  12.563  67.713  1.00  0.00    -0.142 A  
HETATM    6  C   UNL     1      -8.374  13.782  67.437  1.00  0.00    -0.193 A  
HETATM    7  C   UNL     1     -11.644  12.873  69.142  1.00  0.00    -0.322 C  
HETATM    8  C   UNL     1      -9.667  14.016  67.987  1.00  0.00    -0.221 A  
HETATM    9  O   UNL     1     -11.847  11.594  69.558  1.00  0.00    -0.302 OA 
HETATM   10  O   UNL     1     -12.454  13.774  69.187  1.00  0.00    -0.216 OA 
HETATM   11  N   UNL     1     -10.426  15.130  67.592  1.00  0.00    -0.249 NA 
HETATM   12  C   UNL     1     -10.669  10.769  69.386  1.00  0.00    -0.233 C  
HETATM   13  C   UNL     1     -10.262  12.953  68.674  1.00  0.00    -0.170 A  
HETATM   14  H2  UNL     1     -10.511  15.113  66.576  1.00  0.00     0.000 HD 
HETATM   15  H1  UNL     1     -11.352  15.297  67.986  1.00  0.00     0.000 HD 
HETATM   16  C   UNL     1      -9.629  11.751  68.930  1.00  0.00     0.030 A  
BRANCH   5  17
HETATM   17  O   UNL     1      -6.527  12.286  66.996  1.00  0.00    -0.144 OA 
BRANCH  17  18
HETATM   18  C   UNL     1      -6.592  11.077  66.212  1.00  0.00    -0.105 C  
HETATM   19  C   UNL     1      -5.429  10.821  65.276  1.00  0.00    -0.124 C  
ENDBRANCH  17  18
ENDBRANCH   5  17
BRANCH   6  20
HETATM   20  O   UNL     1      -7.977  14.752  66.537  1.00  0.00     0.174 OA 
BRANCH  20  21
HETATM   21  C   UNL     1      -7.209  15.843  67.049  1.00  0.00    -0.197 C  
HETATM   22  C   UNL     1      -7.563  17.099  66.250  1.00  0.00    -0.352 C  
ENDBRANCH  20  21
ENDBRANCH   6  20
BRANCH  12  23
HETATM   23  C   UNL     1     -10.967   9.545  68.408  1.00  0.00    -0.069 C  
HETATM   24  C   UNL     1      -9.244   7.798  68.696  1.00  0.00    -0.138 C  
HETATM   25  C   UNL     1     -11.167   7.696  70.139  1.00  0.00    -0.180 C  
HETATM   26  N   UNL     1     -10.652   8.153  68.863  1.00  0.00    -0.184 NA 
HETATM   27  C   UNL     1      -8.975   7.653  67.210  1.00  0.00    -0.134 C  
HETATM   28  C   UNL     1      -9.423   8.866  66.437  1.00  0.00    -0.283 A  
HETATM   29  C   UNL     1      -8.909   9.019  65.140  1.00  0.00    -0.224 A  
HETATM   30  C   UNL     1      -9.302  10.112  64.415  1.00  0.00    -0.293 A  
HETATM   31  C   UNL     1     -10.206  11.024  64.906  1.00  0.00    -0.311 A  
HETATM   32  O   UNL     1     -10.419  12.023  63.997  1.00  0.00    -0.307 OA 
HETATM   33  C   UNL     1     -10.785  10.883  66.166  1.00  0.00    -0.159 A  
HETATM   34  C   UNL     1     -10.377   9.786  66.975  1.00  0.00    -0.305 A  
HETATM   35  O   UNL     1      -8.855  10.414  63.166  1.00  0.00    -0.176 OA 
HETATM   36  C   UNL     1      -9.450  11.707  62.984  1.00  0.00    -0.236 C  
BRANCH  33  37
HETATM   37  O   UNL     1     -11.727  11.722  66.692  1.00  0.00    -0.548 OA 
HETATM   38  C   UNL     1     -12.382  12.628  65.808  1.00  0.00    -0.253 C  
ENDBRANCH  33  37
ENDBRANCH  12  23
ENDBRANCH   3   4
ENDBRANCH   2   3
TORSDOF 8
ENDMDL
MODEL       78
REMARK 921   NORMALIZED FREE ENERGY PREDICTED BY IDOCK:   -3.28 KCAL/MOL
REMARK 922        TOTAL FREE ENERGY PREDICTED BY IDOCK:   -5.60 KCAL/MOL
REMARK 923 INTER-LIGAND FREE ENERGY PREDICTED BY IDOCK:   -5.38 KCAL/MOL
REMARK 924 INTRA-LIGAND FREE ENERGY PREDICTED BY IDOCK:   -0.22 KCAL/MOL
REMARK 927      BINDING AFFINITY PREDICTED BY RF-SCORE:    0.00 PKD
ROOT
HETATM    1  C   UNL     1      -5.126  15.000  69.409  1.00  0.00    -0.088 C  
HETATM    2  C   UNL     1      -6.216  13.941  69.406  1.00  0.00    -0.106 C  
ENDROOT
BRANCH   2   3
HETATM    3  O   UNL     1      -6.968  14.042  68.217  1.00  0.00    -0.085 OA 
BRANCH   3   4
HETATM    4  C   UNL     1      -8.304  14.273  68.167  1.00  0.00    -0.162 A  
HETATM    5  C   UNL     1      -8.702  15.476  67.487  1.00  0.00    -0.172 A  
HETATM    6  C   UNL     1     -10.047  15.921  67.586  1.00  0.00    -0.242 A  
HETATM    7  C   UNL     1     -11.417  12.814  69.288  1.00  0.00    -0.289 C  
HETATM    8  C   UNL     1     -11.004  15.133  68.288  1.00  0.00    -0.276 A  
HETATM    9  O   UNL     1     -10.634  11.706  69.386  1.00  0.00    -0.112 OA 
HETATM   10  O   UNL     1     -12.578  12.899  69.628  1.00  0.00     0.050 OA 
HETATM   11  N   UNL     1     -12.370  15.460  68.253  1.00  0.00    -0.346 NA 
HETATM   12  C   UNL     1      -9.287  11.944  68.910  1.00  0.00     0.132 C  
HETATM   13  C   UNL     1     -10.581  13.877  68.736  1.00  0.00    -0.258 A  
HETATM   14  H2  UNL     1     -12.658  15.516  67.277  1.00  0.00     0.000 HD 
HETATM   15  H1  UNL     1     -13.055  14.896  68.756  1.00  0.00     0.000 HD 
HETATM   16  C   UNL     1      -9.282  13.418  68.626  1.00  0.00     0.001 A  
BRANCH   5  17
HETATM   17  O   UNL     1      -7.844  16.170  66.624  1.00  0.00    -0.240 OA 
BRANCH  17  18
HETATM   18  C   UNL     1      -6.949  17.081  67.297  1.00  0.00    -0.165 C  
HETATM   19  C   UNL     1      -7.308  17.442  68.723  1.00  0.00    -0.257 C  
ENDBRANCH  17  18
ENDBRANCH   5  17
BRANCH   6  20
HETATM   20  O   UNL     1     -10.603  17.000  66.927  1.00  0.00    -0.295 OA 
BRANCH  20  21
HETATM   21  C   UNL     1     -10.620  18.250  67.620  1.00  0.00    -0.405 C  
HETATM   22  C   UNL     1      -9.594  19.178  66.965  1.00  0.00    -0.378 C  
ENDBRANCH  20  21
ENDBRANCH   6  20
BRANCH  12  23
HETATM   23  C   UNL     1      -8.936  10.984  67.686  1.00  0.00    -0.142 C  
HETATM   24  C   UNL     1     -11.014  10.210  66.599  1.00  0.00     0.077 C  
HETATM   25  C   UNL     1     -10.074  12.285  65.824  1.00  0.00    -0.252 C  
HETATM   26  N   UNL     1      -9.801  11.013  66.464  1.00  0.00    -0.197 NA 
HETATM   27  C   UNL     1     -10.607   8.748  66.596  1.00  0.00    -0.141 C  
HETATM   28  C   UNL     1      -9.535   8.461  67.614  1.00  0.00    -0.176 A  
HETATM   29  C   UNL     1      -9.336   7.118  67.967  1.00  0.00    -0.129 A  
HETATM   30  C   UNL     1      -8.366   6.830  68.890  1.00  0.00    -0.121 A  
HETATM   31  C   UNL     1      -7.569   7.807  69.437  1.00  0.00    -0.101 A  
HETATM   32  O   UNL     1      -6.694   7.263  70.336  1.00  0.00    -0.049 OA 
HETATM   33  C   UNL     1      -7.692   9.148  69.075  1.00  0.00    -0.078 A  
HETATM   34  C   UNL     1      -8.714   9.504  68.151  1.00  0.00    -0.120 A  
HETATM   35  O   UNL     1      -8.091   5.583  69.360  1.00  0.00    -0.092 OA 
HETATM   36  C   UNL     1      -7.141   5.898  70.388  1.00  0.00    -0.070 C  
BRANCH  33  37
HETATM   37  O   UNL     1      -6.900  10.159  69.539  1.00  0.00    -0.059 OA 
HETATM   38  C   UNL     1      -5.490  10.033  69.372  1.00  0.00    -0.038 C  
ENDBRANCH  33  37
ENDBRANCH  12  23
ENDBRANCH   3   4
ENDBRANCH   2   3
TORSDOF 8
ENDMDL
MODEL       79
REMARK 921   NORMALIZED FREE ENERGY PREDICTED BY IDOCK:   -3.26 KCAL/MOL
REMARK 922        TOTAL FREE ENERGY PREDICTED BY IDOCK:   -5.56 KCAL/MOL
REMARK 923 INTER-LIGAND FREE ENERGY PREDICTED BY IDOCK:   -6.14 KCAL/MOL
REMARK 924 INTRA-LIGAND FREE ENERGY PREDICTED BY IDOCK:    0.58 KCAL/MOL
REMARK 927      BINDING AFFINITY PREDICTED BY RF-SCORE:    0.00 PKD
ROOT
HETATM    1  C   UNL     1      -9.157   8.779  71.306  1.00  0.00    -0.300 C  
HETATM    2  C   UNL     1      -7.774   9.103  70.767  1.00  0.00    -0.141 C  
ENDROOT
BRANCH   2   3
HETATM    3  O   UNL     1      -7.808   9.117  69.357  1.00  0.00    -0.089 OA 
BRANCH   3   4
HETATM    4  C   UNL     1      -8.138  10.195  68.602  1.00  0.00    -0.109 A  
HETATM    5  C   UNL     1      -7.039  11.022  68.186  1.00  0.00    -0.074 A  
HETATM    6  C   UNL     1      -7.302  12.289  67.600  1.00  0.00    -0.127 A  
HETATM    7  C   UNL     1     -11.055  11.835  67.233  1.00  0.00    -0.287 C  
HETATM    8  C   UNL     1      -8.647  12.691  67.357  1.00  0.00    -0.189 A  
HETATM    9  O   UNL     1     -11.605  10.612  67.457  1.00  0.00    -0.482 OA 
HETATM   10  O   UNL     1     -11.643  12.819  66.838  1.00  0.00    -0.327 OA 
HETATM   11  N   UNL     1      -8.928  13.857  66.623  1.00  0.00    -0.420 NA 
HETATM   12  C   UNL     1     -10.632   9.656  67.947  1.00  0.00    -0.255 C  
HETATM   13  C   UNL     1      -9.643  11.739  67.596  1.00  0.00    -0.184 A  
HETATM   14  H2  UNL     1      -8.449  13.790  65.726  1.00  0.00     0.000 HD 
HETATM   15  H1  UNL     1      -9.891  14.144  66.449  1.00  0.00     0.000 HD 
HETATM   16  C   UNL     1      -9.402  10.493  68.144  1.00  0.00    -0.150 A  
BRANCH   5  17
HETATM   17  O   UNL     1      -5.710  10.581  68.223  1.00  0.00    -0.041 OA 
BRANCH  17  18
HETATM   18  C   UNL     1      -5.423   9.510  67.299  1.00  0.00    -0.036 C  
HETATM   19  C   UNL     1      -5.149   8.152  67.912  1.00  0.00    -0.033 C  
ENDBRANCH  17  18
ENDBRANCH   5  17
BRANCH   6  20
HETATM   20  O   UNL     1      -6.366  13.158  67.073  1.00  0.00    -0.169 OA 
BRANCH  20  21
HETATM   21  C   UNL     1      -5.566  13.896  67.999  1.00  0.00    -0.125 C  
HETATM   22  C   UNL     1      -5.898  15.382  67.846  1.00  0.00    -0.162 C  
ENDBRANCH  20  21
ENDBRANCH   6  20
BRANCH  12  23
HETATM   23  C   UNL     1     -10.497   8.418  66.952  1.00  0.00    -0.289 C  
HETATM   24  C   UNL     1      -9.073   6.673  67.967  1.00  0.00    -0.114 C  
HETATM   25  C   UNL     1     -11.427   6.596  68.460  1.00  0.00     0.126 C  
HETATM   26  N   UNL     1     -10.416   7.033  67.517  1.00  0.00    -0.220 NA 
HETATM   27  C   UNL     1      -8.200   6.505  66.738  1.00  0.00    -0.110 C  
HETATM   28  C   UNL     1      -8.269   7.705  65.831  1.00  0.00    -0.133 A  
HETATM   29  C   UNL     1      -7.252   7.837  64.873  1.00  0.00    -0.066 A  
HETATM   30  C   UNL     1      -7.292   8.919  64.035  1.00  0.00    -0.101 A  
HETATM   31  C   UNL     1      -8.312   9.840  64.083  1.00  0.00    -0.168 A  
HETATM   32  O   UNL     1      -8.112  10.825  63.156  1.00  0.00    -0.090 OA 
HETATM   33  C   UNL     1      -9.372   9.719  64.981  1.00  0.00    -0.263 A  
HETATM   34  C   UNL     1      -9.354   8.635  65.901  1.00  0.00    -0.262 A  
HETATM   35  O   UNL     1      -6.356   9.201  63.089  1.00  0.00    -0.090 OA 
HETATM   36  C   UNL     1      -6.807  10.492  62.654  1.00  0.00    -0.097 C  
BRANCH  33  37
HETATM   37  O   UNL     1     -10.441  10.568  65.046  1.00  0.00    -0.286 OA 
HETATM   38  C   UNL     1     -10.879  11.185  63.838  1.00  0.00    -0.274 C  
ENDBRANCH  33  37
ENDBRANCH  12  23
ENDBRANCH   3   4
ENDBRANCH   2   3
TORSDOF 8
ENDMDL
MODEL       80
REMARK 921   NORMALIZED FREE ENERGY PREDICTED BY IDOCK:   -3.24 KCAL/MOL
REMARK 922        TOTAL FREE ENERGY PREDICTED BY IDOCK:   -5.54 KCAL/MOL
REMARK 923 INTER-LIGAND FREE ENERGY PREDICTED BY IDOCK:   -5.71 KCAL/MOL
REMARK 924 INTRA-LIGAND FREE ENERGY PREDICTED BY IDOCK:    0.16 KCAL/MOL
REMARK 927      BINDING AFFINITY PREDICTED BY RF-SCORE:    0.00 PKD
ROOT
HETATM    1  C   UNL     1      -8.223   1.473  69.131  1.00  0.00    -0.062 C  
HETATM    2  C   UNL     1      -9.220   2.472  69.696  1.00  0.00    -0.125 C  
ENDROOT
BRANCH   2   3
HETATM    3  O   UNL     1      -8.534   3.614  70.158  1.00  0.00    -0.058 OA 
BRANCH   3   4
HETATM    4  C   UNL     1      -9.083   4.584  70.932  1.00  0.00    -0.131 A  
HETATM    5  C   UNL     1      -8.398   4.857  72.166  1.00  0.00    -0.123 A  
HETATM    6  C   UNL     1      -9.021   5.679  73.142  1.00  0.00    -0.121 A  
HETATM    7  C   UNL     1     -11.913   6.835  70.968  1.00  0.00    -0.379 C  
HETATM    8  C   UNL     1     -10.277   6.288  72.858  1.00  0.00    -0.190 A  
HETATM    9  O   UNL     1     -11.901   6.556  69.637  1.00  0.00    -0.310 OA 
HETATM   10  O   UNL     1     -12.740   7.505  71.548  1.00  0.00    -0.335 OA 
HETATM   11  N   UNL     1     -10.828   7.240  73.733  1.00  0.00    -0.528 NA 
HETATM   12  C   UNL     1     -10.785   5.710  69.266  1.00  0.00    -0.280 C  
HETATM   13  C   UNL     1     -10.769   6.142  71.558  1.00  0.00    -0.303 A  
HETATM   14  H2  UNL     1     -10.140   7.980  73.872  1.00  0.00     0.000 HD 
HETATM   15  H1  UNL     1     -11.728   7.677  73.529  1.00  0.00     0.000 HD 
HETATM   16  C   UNL     1     -10.164   5.365  70.588  1.00  0.00    -0.323 A  
BRANCH   5  17
HETATM   17  O   UNL     1      -7.081   4.443  72.402  1.00  0.00    -0.057 OA 
BRANCH  17  18
HETATM   18  C   UNL     1      -6.979   3.206  73.138  1.00  0.00    -0.039 C  
HETATM   19  C   UNL     1      -6.292   3.282  74.486  1.00  0.00    -0.022 C  
ENDBRANCH  17  18
ENDBRANCH   5  17
BRANCH   6  20
HETATM   20  O   UNL     1      -8.462   6.102  74.333  1.00  0.00    -0.118 OA 
BRANCH  20  21
HETATM   21  C   UNL     1      -7.753   7.343  74.317  1.00  0.00    -0.137 C  
HETATM   22  C   UNL     1      -6.253   7.041  74.355  1.00  0.00    -0.078 C  
ENDBRANCH  20  21
ENDBRANCH   6  20
BRANCH  12  23
HETATM   23  C   UNL     1      -9.842   6.440  68.206  1.00  0.00    -0.128 C  
HETATM   24  C   UNL     1      -8.359   4.789  67.121  1.00  0.00    -0.106 C  
HETATM   25  C   UNL     1     -10.518   5.152  66.123  1.00  0.00    -0.250 C  
HETATM   26  N   UNL     1      -9.469   5.723  66.945  1.00  0.00    -0.128 NA 
HETATM   27  C   UNL     1      -7.097   5.603  67.342  1.00  0.00    -0.074 C  
HETATM   28  C   UNL     1      -7.265   6.611  68.448  1.00  0.00    -0.085 A  
HETATM   29  C   UNL     1      -6.093   7.159  68.992  1.00  0.00    -0.023 A  
HETATM   30  C   UNL     1      -6.218   8.079  69.998  1.00  0.00    -0.032 A  
HETATM   31  C   UNL     1      -7.446   8.502  70.450  1.00  0.00    -0.069 A  
HETATM   32  O   UNL     1      -7.298   9.409  71.462  1.00  0.00    -0.334 OA 
HETATM   33  C   UNL     1      -8.637   8.028  69.901  1.00  0.00    -0.135 A  
HETATM   34  C   UNL     1      -8.561   7.039  68.881  1.00  0.00    -0.128 A  
HETATM   35  O   UNL     1      -5.175   8.661  70.649  1.00  0.00    -0.022 OA 
HETATM   36  C   UNL     1      -5.876   9.377  71.676  1.00  0.00    -0.054 C  
BRANCH  33  37
HETATM   37  O   UNL     1      -9.886   8.444  70.266  1.00  0.00    -0.178 OA 
HETATM   38  C   UNL     1     -10.342   9.702  69.774  1.00  0.00    -0.241 C  
ENDBRANCH  33  37
ENDBRANCH  12  23
ENDBRANCH   3   4
ENDBRANCH   2   3
TORSDOF 8
ENDMDL
MODEL       81
REMARK 921   NORMALIZED FREE ENERGY PREDICTED BY IDOCK:   -3.22 KCAL/MOL
REMARK 922        TOTAL FREE ENERGY PREDICTED BY IDOCK:   -5.52 KCAL/MOL
REMARK 923 INTER-LIGAND FREE ENERGY PREDICTED BY IDOCK:   -4.84 KCAL/MOL
REMARK 924 INTRA-LIGAND FREE ENERGY PREDICTED BY IDOCK:   -0.68 KCAL/MOL
REMARK 927      BINDING AFFINITY PREDICTED BY RF-SCORE:    0.00 PKD
ROOT
HETATM    1  C   UNL     1      -9.244   5.691  67.156  1.00  0.00    -0.114 C  
HETATM    2  C   UNL     1      -9.499   7.133  67.564  1.00  0.00    -0.124 C  
ENDROOT
BRANCH   2   3
HETATM    3  O   UNL     1      -8.329   7.895  67.364  1.00  0.00    -0.121 OA 
BRANCH   3   4
HETATM    4  C   UNL     1      -7.982   8.983  68.096  1.00  0.00    -0.101 A  
HETATM    5  C   UNL     1      -8.435  10.247  67.583  1.00  0.00    -0.118 A  
HETATM    6  C   UNL     1      -7.927  11.450  68.144  1.00  0.00    -0.133 A  
HETATM    7  C   UNL     1      -6.129   9.844  71.079  1.00  0.00    -0.055 C  
HETATM    8  C   UNL     1      -7.039  11.392  69.256  1.00  0.00    -0.100 A  
HETATM    9  O   UNL     1      -6.335   8.528  71.350  1.00  0.00    -0.041 OA 
HETATM   10  O   UNL     1      -5.469  10.614  71.744  1.00  0.00    -0.302 OA 
HETATM   11  N   UNL     1      -6.662  12.563  69.936  1.00  0.00    -0.350 NA 
HETATM   12  C   UNL     1      -7.156   7.885  70.344  1.00  0.00    -0.046 C  
HETATM   13  C   UNL     1      -6.819  10.134  69.825  1.00  0.00    -0.105 A  
HETATM   14  H2  UNL     1      -7.510  13.047  70.230  1.00  0.00     0.000 HD 
HETATM   15  H1  UNL     1      -6.026  12.522  70.733  1.00  0.00     0.000 HD 
HETATM   16  C   UNL     1      -7.326   8.956  69.307  1.00  0.00    -0.070 A  
BRANCH   5  17
HETATM   17  O   UNL     1      -9.454  10.350  66.628  1.00  0.00    -0.159 OA 
BRANCH  17  18
HETATM   18  C   UNL     1      -9.030  10.937  65.379  1.00  0.00    -0.193 C  
HETATM   19  C   UNL     1      -9.913  10.669  64.179  1.00  0.00    -0.406 C  
ENDBRANCH  17  18
ENDBRANCH   5  17
BRANCH   6  20
HETATM   20  O   UNL     1      -8.323  12.734  67.823  1.00  0.00    -0.151 OA 
BRANCH  20  21
HETATM   21  C   UNL     1      -9.611  13.152  68.277  1.00  0.00    -0.218 C  
HETATM   22  C   UNL     1     -10.168  14.168  67.277  1.00  0.00    -0.256 C  
ENDBRANCH  20  21
ENDBRANCH   6  20
BRANCH  12  23
HETATM   23  C   UNL     1      -8.494   7.301  70.987  1.00  0.00    -0.127 C  
HETATM   24  C   UNL     1      -8.957   8.426  73.136  1.00  0.00    -0.151 C  
HETATM   25  C   UNL     1      -9.830   9.457  71.145  1.00  0.00    -0.216 C  
HETATM   26  N   UNL     1      -9.394   8.217  71.758  1.00  0.00    -0.181 NA 
HETATM   27  C   UNL     1      -9.186   7.134  73.898  1.00  0.00    -0.270 C  
HETATM   28  C   UNL     1      -8.561   5.953  73.202  1.00  0.00    -0.119 A  
HETATM   29  C   UNL     1      -8.381   4.789  73.964  1.00  0.00    -0.104 A  
HETATM   30  C   UNL     1      -7.815   3.701  73.355  1.00  0.00    -0.075 A  
HETATM   31  C   UNL     1      -7.466   3.710  72.025  1.00  0.00    -0.057 A  
HETATM   32  O   UNL     1      -6.913   2.513  71.666  1.00  0.00    -0.029 OA 
HETATM   33  C   UNL     1      -7.678   4.826  71.215  1.00  0.00    -0.083 A  
HETATM   34  C   UNL     1      -8.224   5.996  71.812  1.00  0.00    -0.118 A  
HETATM   35  O   UNL     1      -7.540   2.522  73.976  1.00  0.00    -0.044 OA 
HETATM   36  C   UNL     1      -6.825   1.841  72.934  1.00  0.00    -0.022 C  
BRANCH  33  37
HETATM   37  O   UNL     1      -7.403   4.884  69.878  1.00  0.00    -0.053 OA 
HETATM   38  C   UNL     1      -6.053   4.689  69.464  1.00  0.00    -0.022 C  
ENDBRANCH  33  37
ENDBRANCH  12  23
ENDBRANCH   3   4
ENDBRANCH   2   3
TORSDOF 8
ENDMDL
MODEL       82
REMARK 921   NORMALIZED FREE ENERGY PREDICTED BY IDOCK:   -3.12 KCAL/MOL
REMARK 922        TOTAL FREE ENERGY PREDICTED BY IDOCK:   -5.37 KCAL/MOL
REMARK 923 INTER-LIGAND FREE ENERGY PREDICTED BY IDOCK:   -4.05 KCAL/MOL
REMARK 924 INTRA-LIGAND FREE ENERGY PREDICTED BY IDOCK:   -1.32 KCAL/MOL
REMARK 927      BINDING AFFINITY PREDICTED BY RF-SCORE:    0.00 PKD
ROOT
HETATM    1  C   UNL     1      -9.554  10.005  64.915  1.00  0.00    -0.375 C  
HETATM    2  C   UNL     1      -8.568   9.243  64.045  1.00  0.00    -0.186 C  
ENDROOT
BRANCH   2   3
HETATM    3  O   UNL     1      -7.757   8.423  64.856  1.00  0.00    -0.094 OA 
BRANCH   3   4
HETATM    4  C   UNL     1      -8.175   7.285  65.465  1.00  0.00    -0.139 A  
HETATM    5  C   UNL     1      -8.172   6.104  64.646  1.00  0.00    -0.094 A  
HETATM    6  C   UNL     1      -8.809   4.925  65.118  1.00  0.00    -0.153 A  
HETATM    7  C   UNL     1      -9.432   6.149  68.660  1.00  0.00    -0.124 C  
HETATM    8  C   UNL     1      -9.372   4.901  66.427  1.00  0.00    -0.145 A  
HETATM    9  O   UNL     1      -8.858   7.309  69.076  1.00  0.00    -0.132 OA 
HETATM   10  O   UNL     1     -10.083   5.390  69.345  1.00  0.00    -0.191 OA 
HETATM   11  N   UNL     1      -9.850   3.701  66.981  1.00  0.00    -0.339 NA 
HETATM   12  C   UNL     1      -8.164   7.992  68.003  1.00  0.00    -0.129 C  
HETATM   13  C   UNL     1      -9.144   6.020  67.233  1.00  0.00    -0.111 A  
HETATM   14  H2  UNL     1      -9.099   3.012  66.945  1.00  0.00     0.000 HD 
HETATM   15  H1  UNL     1     -10.253   3.683  67.918  1.00  0.00     0.000 HD 
HETATM   16  C   UNL     1      -8.505   7.165  66.797  1.00  0.00    -0.121 A  
BRANCH   5  17
HETATM   17  O   UNL     1      -7.460   6.026  63.442  1.00  0.00    -0.063 OA 
BRANCH  17  18
HETATM   18  C   UNL     1      -6.075   5.652  63.605  1.00  0.00    -0.025 C  
HETATM   19  C   UNL     1      -5.707   4.244  63.186  1.00  0.00    -0.013 C  
ENDBRANCH  17  18
ENDBRANCH   5  17
BRANCH   6  20
HETATM   20  O   UNL     1      -8.820   3.694  64.493  1.00  0.00    -0.113 OA 
BRANCH  20  21
HETATM   21  C   UNL     1      -9.493   3.604  63.236  1.00  0.00    -0.118 C  
HETATM   22  C   UNL     1     -11.001   3.667  63.491  1.00  0.00    -0.092 C  
ENDBRANCH  20  21
ENDBRANCH   6  20
BRANCH  12  23
HETATM   23  C   UNL     1      -6.613   8.155  68.338  1.00  0.00    -0.059 C  
HETATM   24  C   UNL     1      -6.053   6.882  70.379  1.00  0.00    -0.024 C  
HETATM   25  C   UNL     1      -5.938   5.706  68.283  1.00  0.00    -0.017 C  
HETATM   26  N   UNL     1      -5.870   6.999  68.935  1.00  0.00    -0.018 NA 
HETATM   27  C   UNL     1      -5.317   8.034  71.037  1.00  0.00    -0.029 C  
HETATM   28  C   UNL     1      -5.713   9.363  70.449  1.00  0.00    -0.038 A  
HETATM   29  C   UNL     1      -5.396  10.508  71.196  1.00  0.00    -0.091 A  
HETATM   30  C   UNL     1      -5.744  11.729  70.683  1.00  0.00    -0.123 A  
HETATM   31  C   UNL     1      -6.348  11.857  69.455  1.00  0.00    -0.115 A  
HETATM   32  O   UNL     1      -6.602  13.172  69.181  1.00  0.00    -0.102 OA 
HETATM   33  C   UNL     1      -6.632  10.752  68.654  1.00  0.00    -0.056 A  
HETATM   34  C   UNL     1      -6.328   9.458  69.160  1.00  0.00    -0.042 A  
HETATM   35  O   UNL     1      -5.541  12.919  71.311  1.00  0.00    -0.321 OA 
HETATM   36  C   UNL     1      -6.233  13.804  70.419  1.00  0.00    -0.078 C  
BRANCH  33  37
HETATM   37  O   UNL     1      -7.182  10.813  67.404  1.00  0.00    -0.088 OA 
HETATM   38  C   UNL     1      -6.340  11.203  66.322  1.00  0.00    -0.090 C  
ENDBRANCH  33  37
ENDBRANCH  12  23
ENDBRANCH   3   4
ENDBRANCH   2   3
TORSDOF 8
ENDMDL
MODEL       83
REMARK 921   NORMALIZED FREE ENERGY PREDICTED BY IDOCK:   -3.10 KCAL/MOL
REMARK 922        TOTAL FREE ENERGY PREDICTED BY IDOCK:   -5.33 KCAL/MOL
REMARK 923 INTER-LIGAND FREE ENERGY PREDICTED BY IDOCK:   -5.88 KCAL/MOL
REMARK 924 INTRA-LIGAND FREE ENERGY PREDICTED BY IDOCK:    0.56 KCAL/MOL
REMARK 927      BINDING AFFINITY PREDICTED BY RF-SCORE:    0.00 PKD
ROOT
HETATM    1  C   UNL     1     -12.499  10.837  70.953  1.00  0.00    -0.500 C  
HETATM    2  C   UNL     1     -11.425  10.842  69.878  1.00  0.00    -0.321 C  
ENDROOT
BRANCH   2   3
HETATM    3  O   UNL     1     -10.419   9.911  70.212  1.00  0.00    -0.262 OA 
BRANCH   3   4
HETATM    4  C   UNL     1      -9.746   9.147  69.315  1.00  0.00    -0.164 A  
HETATM    5  C   UNL     1      -8.412   9.581  69.005  1.00  0.00    -0.128 A  
HETATM    6  C   UNL     1      -7.721   8.990  67.913  1.00  0.00    -0.097 A  
HETATM    7  C   UNL     1     -10.228   6.212  67.257  1.00  0.00    -0.191 C  
HETATM    8  C   UNL     1      -8.324   7.921  67.190  1.00  0.00    -0.117 A  
HETATM    9  O   UNL     1     -11.231   5.993  68.149  1.00  0.00    -0.263 OA 
HETATM   10  O   UNL     1      -9.989   5.543  66.275  1.00  0.00    -0.163 OA 
HETATM   11  N   UNL     1      -7.596   7.206  66.223  1.00  0.00    -0.089 NA 
HETATM   12  C   UNL     1     -11.255   6.989  69.201  1.00  0.00    -0.030 C  
HETATM   13  C   UNL     1      -9.530   7.421  67.691  1.00  0.00    -0.156 A  
HETATM   14  H2  UNL     1      -6.746   6.853  66.662  1.00  0.00     0.000 HD 
HETATM   15  H1  UNL     1      -8.028   6.441  65.705  1.00  0.00     0.000 HD 
HETATM   16  C   UNL     1     -10.203   7.969  68.766  1.00  0.00    -0.220 A  
BRANCH   5  17
HETATM   17  O   UNL     1      -7.708  10.484  69.812  1.00  0.00    -0.149 OA 
BRANCH  17  18
HETATM   18  C   UNL     1      -6.845   9.854  70.782  1.00  0.00    -0.024 C  
HETATM   19  C   UNL     1      -5.519  10.536  71.042  1.00  0.00    -0.093 C  
ENDBRANCH  17  18
ENDBRANCH   5  17
BRANCH   6  20
HETATM   20  O   UNL     1      -6.413   9.233  67.543  1.00  0.00    -0.062 OA 
BRANCH  20  21
HETATM   21  C   UNL     1      -6.202   9.990  66.349  1.00  0.00    -0.068 C  
HETATM   22  C   UNL     1      -5.900  11.438  66.742  1.00  0.00    -0.135 C  
ENDBRANCH  20  21
ENDBRANCH   6  20
BRANCH  12  23
HETATM   23  C   UNL     1     -11.050   6.315  70.632  1.00  0.00    -0.327 C  
HETATM   24  C   UNL     1     -11.216   8.030  72.402  1.00  0.00    -0.369 C  
HETATM   25  C   UNL     1     -13.260   6.973  71.698  1.00  0.00    -0.307 C  
HETATM   26  N   UNL     1     -11.820   6.842  71.803  1.00  0.00    -0.313 NA 
HETATM   27  C   UNL     1      -9.939   7.601  73.101  1.00  0.00    -0.363 C  
HETATM   28  C   UNL     1      -9.035   6.818  72.187  1.00  0.00    -0.135 A  
HETATM   29  C   UNL     1      -7.694   6.684  72.580  1.00  0.00    -0.098 A  
HETATM   30  C   UNL     1      -6.851   5.975  71.767  1.00  0.00    -0.068 A  
HETATM   31  C   UNL     1      -7.291   5.366  70.615  1.00  0.00    -0.071 A  
HETATM   32  O   UNL     1      -6.257   4.736  69.981  1.00  0.00    -0.024 OA 
HETATM   33  C   UNL     1      -8.625   5.424  70.214  1.00  0.00    -0.124 A  
HETATM   34  C   UNL     1      -9.532   6.185  71.003  1.00  0.00    -0.187 A  
HETATM   35  O   UNL     1      -5.522   5.799  71.996  1.00  0.00    -0.020 OA 
HETATM   36  C   UNL     1      -5.132   5.150  70.776  1.00  0.00    -0.004 C  
BRANCH  33  37
HETATM   37  O   UNL     1      -9.138   4.800  69.112  1.00  0.00    -0.099 OA 
HETATM   38  C   UNL     1      -9.055   3.378  69.050  1.00  0.00    -0.143 C  
ENDBRANCH  33  37
ENDBRANCH  12  23
ENDBRANCH   3   4
ENDBRANCH   2   3
TORSDOF 8
ENDMDL
MODEL       84
REMARK 921   NORMALIZED FREE ENERGY PREDICTED BY IDOCK:   -3.09 KCAL/MOL
REMARK 922        TOTAL FREE ENERGY PREDICTED BY IDOCK:   -5.32 KCAL/MOL
REMARK 923 INTER-LIGAND FREE ENERGY PREDICTED BY IDOCK:   -7.20 KCAL/MOL
REMARK 924 INTRA-LIGAND FREE ENERGY PREDICTED BY IDOCK:    1.88 KCAL/MOL
REMARK 927      BINDING AFFINITY PREDICTED BY RF-SCORE:    0.00 PKD
ROOT
HETATM    1  C   UNL     1     -12.121  14.431  72.312  1.00  0.00    -0.133 C  
HETATM    2  C   UNL     1     -11.648  15.259  71.129  1.00  0.00    -0.370 C  
ENDROOT
BRANCH   2   3
HETATM    3  O   UNL     1     -11.062  14.413  70.164  1.00  0.00    -0.159 OA 
BRANCH   3   4
HETATM    4  C   UNL     1     -10.567  14.829  68.971  1.00  0.00    -0.248 A  
HETATM    5  C   UNL     1      -9.250  15.403  69.012  1.00  0.00    -0.235 A  
HETATM    6  C   UNL     1      -8.747  16.076  67.866  1.00  0.00    -0.165 A  
HETATM    7  C   UNL     1     -11.526  15.045  65.492  1.00  0.00    -0.265 C  
HETATM    8  C   UNL     1      -9.516  16.106  66.668  1.00  0.00    -0.247 A  
HETATM    9  O   UNL     1     -12.427  14.106  65.886  1.00  0.00    -0.471 OA 
HETATM   10  O   UNL     1     -11.463  15.556  64.394  1.00  0.00    -0.374 OA 
HETATM   11  N   UNL     1      -8.970  16.610  65.475  1.00  0.00    -0.246 NA 
HETATM   12  C   UNL     1     -12.244  13.719  67.270  1.00  0.00    -0.278 C  
HETATM   13  C   UNL     1     -10.688  15.343  66.651  1.00  0.00    -0.309 A  
HETATM   14  H2  UNL     1      -8.103  16.108  65.285  1.00  0.00     0.000 HD 
HETATM   15  H1  UNL     1      -9.521  16.631  64.617  1.00  0.00     0.000 HD 
HETATM   16  C   UNL     1     -11.179  14.662  67.749  1.00  0.00    -0.320 A  
BRANCH   5  17
HETATM   17  O   UNL     1      -8.384  15.224  70.099  1.00  0.00     0.133 OA 
BRANCH  17  18
HETATM   18  C   UNL     1      -7.386  14.203  69.890  1.00  0.00     0.348 C  
HETATM   19  C   UNL     1      -6.159  14.273  70.775  1.00  0.00    -0.174 C  
ENDBRANCH  17  18
ENDBRANCH   5  17
BRANCH   6  20
HETATM   20  O   UNL     1      -7.478  16.602  67.717  1.00  0.00    -0.148 OA 
BRANCH  20  21
HETATM   21  C   UNL     1      -7.162  17.772  68.475  1.00  0.00    -0.259 C  
HETATM   22  C   UNL     1      -6.757  18.882  67.503  1.00  0.00    -0.208 C  
ENDBRANCH  20  21
ENDBRANCH   6  20
BRANCH  12  23
HETATM   23  C   UNL     1     -11.919  12.162  67.390  1.00  0.00    -0.098 C  
HETATM   24  C   UNL     1     -10.232  11.786  69.154  1.00  0.00     0.076 C  
HETATM   25  C   UNL     1     -12.542  11.816  69.828  1.00  0.00     0.157 C  
HETATM   26  N   UNL     1     -11.617  11.581  68.737  1.00  0.00    -0.287 NA 
HETATM   27  C   UNL     1      -9.350  10.907  68.287  1.00  0.00    -0.168 C  
HETATM   28  C   UNL     1      -9.612  11.121  66.820  1.00  0.00    -0.215 A  
HETATM   29  C   UNL     1      -8.635  10.660  65.925  1.00  0.00    -0.177 A  
HETATM   30  C   UNL     1      -8.850  10.841  64.585  1.00  0.00    -0.143 A  
HETATM   31  C   UNL     1     -10.002  11.416  64.104  1.00  0.00    -0.290 A  
HETATM   32  O   UNL     1      -9.966  11.493  62.739  1.00  0.00    -0.275 OA 
HETATM   33  C   UNL     1     -11.025  11.839  64.952  1.00  0.00    -0.300 A  
HETATM   34  C   UNL     1     -10.831  11.711  66.356  1.00  0.00    -0.333 A  
HETATM   35  O   UNL     1      -7.975  10.486  63.606  1.00  0.00    -0.126 OA 
HETATM   36  C   UNL     1      -8.627  11.050  62.458  1.00  0.00    -0.258 C  
BRANCH  33  37
HETATM   37  O   UNL     1     -12.214  12.369  64.538  1.00  0.00    -0.417 OA 
HETATM   38  C   UNL     1     -12.891  11.731  63.458  1.00  0.00    -0.220 C  
ENDBRANCH  33  37
ENDBRANCH  12  23
ENDBRANCH   3   4
ENDBRANCH   2   3
TORSDOF 8
ENDMDL
MODEL       85
REMARK 921   NORMALIZED FREE ENERGY PREDICTED BY IDOCK:   -3.08 KCAL/MOL
REMARK 922        TOTAL FREE ENERGY PREDICTED BY IDOCK:   -5.30 KCAL/MOL
REMARK 923 INTER-LIGAND FREE ENERGY PREDICTED BY IDOCK:   -5.28 KCAL/MOL
REMARK 924 INTRA-LIGAND FREE ENERGY PREDICTED BY IDOCK:   -0.02 KCAL/MOL
REMARK 927      BINDING AFFINITY PREDICTED BY RF-SCORE:    0.00 PKD
ROOT
HETATM    1  C   UNL     1      -7.426   8.584  65.750  1.00  0.00    -0.081 C  
HETATM    2  C   UNL     1      -6.687   7.615  66.658  1.00  0.00    -0.062 C  
ENDROOT
BRANCH   2   3
HETATM    3  O   UNL     1      -7.507   7.276  67.755  1.00  0.00    -0.096 OA 
BRANCH   3   4
HETATM    4  C   UNL     1      -7.129   6.478  68.784  1.00  0.00    -0.082 A  
HETATM    5  C   UNL     1      -6.839   7.152  70.020  1.00  0.00    -0.056 A  
HETATM    6  C   UNL     1      -6.215   6.436  71.076  1.00  0.00    -0.043 A  
HETATM    7  C   UNL     1      -6.512   2.989  69.507  1.00  0.00    -0.029 C  
HETATM    8  C   UNL     1      -5.957   5.042  70.930  1.00  0.00    -0.018 A  
HETATM    9  O   UNL     1      -7.270   2.827  68.390  1.00  0.00    -0.048 OA 
HETATM   10  O   UNL     1      -5.959   2.106  70.128  1.00  0.00    -0.021 OA 
HETATM   11  N   UNL     1      -5.502   4.277  72.018  1.00  0.00    -0.003 NA 
HETATM   12  C   UNL     1      -7.770   4.087  67.880  1.00  0.00    -0.067 C  
HETATM   13  C   UNL     1      -6.463   4.423  69.783  1.00  0.00    -0.032 A  
HETATM   14  H2  UNL     1      -6.159   4.401  72.789  1.00  0.00     0.000 HD 
HETATM   15  H1  UNL     1      -5.318   3.280  71.914  1.00  0.00     0.000 HD 
HETATM   16  C   UNL     1      -7.094   5.101  68.757  1.00  0.00    -0.057 A  
BRANCH   5  17
HETATM   17  O   UNL     1      -7.257   8.465  70.277  1.00  0.00    -0.042 OA 
BRANCH  17  18
HETATM   18  C   UNL     1      -8.651   8.576  70.633  1.00  0.00    -0.148 C  
HETATM   19  C   UNL     1      -9.436   9.667  69.935  1.00  0.00    -0.260 C  
ENDBRANCH  17  18
ENDBRANCH   5  17
BRANCH   6  20
HETATM   20  O   UNL     1      -5.950   6.913  72.345  1.00  0.00    -0.041 OA 
BRANCH  20  21
HETATM   21  C   UNL     1      -7.001   6.823  73.309  1.00  0.00    -0.075 C  
HETATM   22  C   UNL     1      -7.090   8.159  74.051  1.00  0.00    -0.185 C  
ENDBRANCH  20  21
ENDBRANCH   6  20
BRANCH  12  23
HETATM   23  C   UNL     1      -9.364   4.108  67.870  1.00  0.00    -0.164 C  
HETATM   24  C   UNL     1     -10.173   6.055  66.583  1.00  0.00    -0.189 C  
HETATM   25  C   UNL     1      -9.743   4.029  65.359  1.00  0.00    -0.196 C  
HETATM   26  N   UNL     1     -10.080   4.598  66.649  1.00  0.00    -0.235 NA 
HETATM   27  C   UNL     1     -11.147   6.508  67.655  1.00  0.00    -0.380 C  
HETATM   28  C   UNL     1     -10.790   5.951  69.008  1.00  0.00    -0.383 A  
HETATM   29  C   UNL     1     -11.372   6.573  70.124  1.00  0.00    -0.463 A  
HETATM   30  C   UNL     1     -11.065   6.085  71.367  1.00  0.00    -0.274 A  
HETATM   31  C   UNL     1     -10.248   4.993  71.539  1.00  0.00    -0.204 A  
HETATM   32  O   UNL     1     -10.091   4.717  72.869  1.00  0.00    -0.157 OA 
HETATM   33  C   UNL     1      -9.693   4.310  70.458  1.00  0.00    -0.212 A  
HETATM   34  C   UNL     1      -9.947   4.803  69.148  1.00  0.00    -0.233 A  
HETATM   35  O   UNL     1     -11.517   6.610  72.538  1.00  0.00    -0.265 OA 
HETATM   36  C   UNL     1     -10.764   5.832  73.479  1.00  0.00    -0.269 C  
BRANCH  33  37
HETATM   37  O   UNL     1      -8.917   3.189  70.556  1.00  0.00    -0.081 OA 
HETATM   38  C   UNL     1      -9.540   1.981  70.985  1.00  0.00    -0.126 C  
ENDBRANCH  33  37
ENDBRANCH  12  23
ENDBRANCH   3   4
ENDBRANCH   2   3
TORSDOF 8
ENDMDL
MODEL       86
REMARK 921   NORMALIZED FREE ENERGY PREDICTED BY IDOCK:   -3.05 KCAL/MOL
REMARK 922        TOTAL FREE ENERGY PREDICTED BY IDOCK:   -5.27 KCAL/MOL
REMARK 923 INTER-LIGAND FREE ENERGY PREDICTED BY IDOCK:   -5.34 KCAL/MOL
REMARK 924 INTRA-LIGAND FREE ENERGY PREDICTED BY IDOCK:    0.07 KCAL/MOL
REMARK 927      BINDING AFFINITY PREDICTED BY RF-SCORE:    0.00 PKD
ROOT
HETATM    1  C   UNL     1     -10.199  11.686  65.167  1.00  0.00    -0.319 C  
HETATM    2  C   UNL     1      -9.832  10.269  64.757  1.00  0.00    -0.334 C  
ENDROOT
BRANCH   2   3
HETATM    3  O   UNL     1      -9.084   9.659  65.786  1.00  0.00    -0.160 OA 
BRANCH   3   4
HETATM    4  C   UNL     1      -9.615   8.911  66.786  1.00  0.00    -0.202 A  
HETATM    5  C   UNL     1      -9.622   7.491  66.563  1.00  0.00    -0.173 A  
HETATM    6  C   UNL     1     -10.363   6.652  67.438  1.00  0.00    -0.220 A  
HETATM    7  C   UNL     1     -11.170   9.314  70.025  1.00  0.00    -0.168 C  
HETATM    8  C   UNL     1     -11.021   7.214  68.570  1.00  0.00    -0.027 A  
HETATM    9  O   UNL     1     -10.560  10.526  69.949  1.00  0.00    -0.259 OA 
HETATM   10  O   UNL     1     -11.916   8.945  70.907  1.00  0.00    -0.282 OA 
HETATM   11  N   UNL     1     -11.611   6.388  69.542  1.00  0.00    -0.616 NA 
HETATM   12  C   UNL     1      -9.748  10.656  68.756  1.00  0.00    -0.189 C  
HETATM   13  C   UNL     1     -10.786   8.568  68.829  1.00  0.00    -0.089 A  
HETATM   14  H2  UNL     1     -10.903   5.737  69.878  1.00  0.00     0.000 HD 
HETATM   15  H1  UNL     1     -12.082   6.791  70.353  1.00  0.00     0.000 HD 
HETATM   16  C   UNL     1     -10.048   9.393  68.001  1.00  0.00    -0.230 A  
BRANCH   5  17
HETATM   17  O   UNL     1      -8.829   6.878  65.585  1.00  0.00    -0.121 OA 
BRANCH  17  18
HETATM   18  C   UNL     1      -7.430   6.797  65.933  1.00  0.00    -0.081 C  
HETATM   19  C   UNL     1      -6.458   7.412  64.948  1.00  0.00    -0.037 C  
ENDBRANCH  17  18
ENDBRANCH   5  17
BRANCH   6  20
HETATM   20  O   UNL     1     -10.402   5.271  67.411  1.00  0.00    -0.200 OA 
BRANCH  20  21
HETATM   21  C   UNL     1      -9.333   4.575  68.056  1.00  0.00    -0.140 C  
HETATM   22  C   UNL     1      -9.386   3.107  67.627  1.00  0.00    -0.247 C  
ENDBRANCH  20  21
ENDBRANCH   6  20
BRANCH  12  23
HETATM   23  C   UNL     1      -8.220  10.914  69.129  1.00  0.00    -0.084 C  
HETATM   24  C   UNL     1      -6.942  11.495  67.096  1.00  0.00    -0.138 C  
HETATM   25  C   UNL     1      -8.004  13.299  68.282  1.00  0.00    -0.144 C  
HETATM   26  N   UNL     1      -7.453  11.962  68.383  1.00  0.00    -0.096 NA 
HETATM   27  C   UNL     1      -5.828  10.502  67.371  1.00  0.00    -0.045 C  
HETATM   28  C   UNL     1      -6.264   9.415  68.317  1.00  0.00    -0.053 A  
HETATM   29  C   UNL     1      -5.473   8.257  68.363  1.00  0.00    -0.033 A  
HETATM   30  C   UNL     1      -5.847   7.254  69.217  1.00  0.00    -0.026 A  
HETATM   31  C   UNL     1      -6.938   7.372  70.046  1.00  0.00    -0.060 A  
HETATM   32  O   UNL     1      -7.103   6.234  70.785  1.00  0.00    -0.065 OA 
HETATM   33  C   UNL     1      -7.720   8.526  70.075  1.00  0.00    -0.086 A  
HETATM   34  C   UNL     1      -7.397   9.580  69.176  1.00  0.00    -0.072 A  
HETATM   35  O   UNL     1      -5.205   6.061  69.338  1.00  0.00    -0.004 OA 
HETATM   36  C   UNL     1      -6.105   5.369  70.215  1.00  0.00    -0.022 C  
BRANCH  33  37
HETATM   37  O   UNL     1      -8.783   8.728  70.909  1.00  0.00    -0.157 OA 
HETATM   38  C   UNL     1      -8.568   8.590  72.311  1.00  0.00    -0.165 C  
ENDBRANCH  33  37
ENDBRANCH  12  23
ENDBRANCH   3   4
ENDBRANCH   2   3
TORSDOF 8
ENDMDL
MODEL       87
REMARK 921   NORMALIZED FREE ENERGY PREDICTED BY IDOCK:   -3.04 KCAL/MOL
REMARK 922        TOTAL FREE ENERGY PREDICTED BY IDOCK:   -5.24 KCAL/MOL
REMARK 923 INTER-LIGAND FREE ENERGY PREDICTED BY IDOCK:   -5.95 KCAL/MOL
REMARK 924 INTRA-LIGAND FREE ENERGY PREDICTED BY IDOCK:    0.71 KCAL/MOL
REMARK 927      BINDING AFFINITY PREDICTED BY RF-SCORE:    0.00 PKD
ROOT
HETATM    1  C   UNL     1     -10.145   4.697  66.149  1.00  0.00    -0.291 C  
HETATM    2  C   UNL     1     -10.703   6.058  66.532  1.00  0.00    -0.161 C  
ENDROOT
BRANCH   2   3
HETATM    3  O   UNL     1      -9.705   6.811  67.184  1.00  0.00    -0.138 OA 
BRANCH   3   4
HETATM    4  C   UNL     1      -9.839   8.108  67.563  1.00  0.00    -0.177 A  
HETATM    5  C   UNL     1     -10.101   8.323  68.960  1.00  0.00    -0.202 A  
HETATM    6  C   UNL     1     -10.488   9.615  69.405  1.00  0.00    -0.220 A  
HETATM    7  C   UNL     1      -9.812  11.431  66.138  1.00  0.00    -0.222 C  
HETATM    8  C   UNL     1     -10.534  10.699  68.481  1.00  0.00    -0.191 A  
HETATM    9  O   UNL     1      -9.159  10.782  65.137  1.00  0.00    -0.193 OA 
HETATM   10  O   UNL     1     -10.147  12.596  66.133  1.00  0.00    -0.247 OA 
HETATM   11  N   UNL     1     -10.743  12.015  68.926  1.00  0.00    -0.308 NA 
HETATM   12  C   UNL     1      -8.924   9.388  65.450  1.00  0.00    -0.206 C  
HETATM   13  C   UNL     1     -10.060  10.447  67.190  1.00  0.00    -0.254 A  
HETATM   14  H2  UNL     1     -10.037  12.228  69.631  1.00  0.00     0.000 HD 
HETATM   15  H1  UNL     1     -10.775  12.791  68.265  1.00  0.00     0.000 HD 
HETATM   16  C   UNL     1      -9.657   9.202  66.747  1.00  0.00    -0.253 A  
BRANCH   5  17
HETATM   17  O   UNL     1      -9.874   7.337  69.928  1.00  0.00    -0.176 OA 
BRANCH  17  18
HETATM   18  C   UNL     1     -10.894   6.318  69.977  1.00  0.00    -0.324 C  
HETATM   19  C   UNL     1     -12.103   6.619  70.837  1.00  0.00    -0.379 C  
ENDBRANCH  17  18
ENDBRANCH   5  17
BRANCH   6  20
HETATM   20  O   UNL     1     -10.690  10.003  70.716  1.00  0.00    -0.303 OA 
BRANCH  20  21
HETATM   21  C   UNL     1     -12.026   9.939  71.217  1.00  0.00    -0.402 C  
HETATM   22  C   UNL     1     -12.491  11.362  71.534  1.00  0.00    -0.305 C  
ENDBRANCH  20  21
ENDBRANCH   6  20
BRANCH  12  23
HETATM   23  C   UNL     1      -7.364   9.060  65.462  1.00  0.00    -0.085 C  
HETATM   24  C   UNL     1      -7.015   6.619  65.318  1.00  0.00    -0.052 C  
HETATM   25  C   UNL     1      -7.201   7.828  63.246  1.00  0.00    -0.091 C  
HETATM   26  N   UNL     1      -6.853   7.909  64.651  1.00  0.00    -0.061 NA 
HETATM   27  C   UNL     1      -6.041   6.571  66.481  1.00  0.00    -0.033 C  
HETATM   28  C   UNL     1      -6.176   7.774  67.377  1.00  0.00    -0.054 A  
HETATM   29  C   UNL     1      -5.612   7.679  68.658  1.00  0.00    -0.027 A  
HETATM   30  C   UNL     1      -5.720   8.760  69.492  1.00  0.00    -0.034 A  
HETATM   31  C   UNL     1      -6.321   9.930  69.093  1.00  0.00    -0.044 A  
HETATM   32  O   UNL     1      -6.310  10.844  70.109  1.00  0.00    -0.129 OA 
HETATM   33  C   UNL     1      -6.845  10.089  67.811  1.00  0.00    -0.076 A  
HETATM   34  C   UNL     1      -6.796   8.981  66.921  1.00  0.00    -0.077 A  
HETATM   35  O   UNL     1      -5.261   8.798  70.772  1.00  0.00    -0.027 OA 
HETATM   36  C   UNL     1      -5.785  10.065  71.197  1.00  0.00    -0.063 C  
BRANCH  33  37
HETATM   37  O   UNL     1      -7.408  11.240  67.335  1.00  0.00    -0.102 OA 
HETATM   38  C   UNL     1      -6.539  12.315  66.988  1.00  0.00    -0.043 C  
ENDBRANCH  33  37
ENDBRANCH  12  23
ENDBRANCH   3   4
ENDBRANCH   2   3
TORSDOF 8
ENDMDL
MODEL       88
REMARK 921   NORMALIZED FREE ENERGY PREDICTED BY IDOCK:   -3.00 KCAL/MOL
REMARK 922        TOTAL FREE ENERGY PREDICTED BY IDOCK:   -5.19 KCAL/MOL
REMARK 923 INTER-LIGAND FREE ENERGY PREDICTED BY IDOCK:   -6.36 KCAL/MOL
REMARK 924 INTRA-LIGAND FREE ENERGY PREDICTED BY IDOCK:    1.17 KCAL/MOL
REMARK 927      BINDING AFFINITY PREDICTED BY RF-SCORE:    0.00 PKD
ROOT
HETATM    1  C   UNL     1     -12.689  12.348  64.186  1.00  0.00    -0.446 C  
HETATM    2  C   UNL     1     -11.908  13.274  65.103  1.00  0.00    -0.348 C  
ENDROOT
BRANCH   2   3
HETATM    3  O   UNL     1     -10.702  12.652  65.488  1.00  0.00    -0.265 OA 
BRANCH   3   4
HETATM    4  C   UNL     1     -10.619  11.545  66.267  1.00  0.00    -0.263 A  
HETATM    5  C   UNL     1      -9.828  10.469  65.736  1.00  0.00    -0.237 A  
HETATM    6  C   UNL     1      -9.874   9.194  66.362  1.00  0.00    -0.280 A  
HETATM    7  C   UNL     1     -11.843  10.277  69.425  1.00  0.00    -0.038 C  
HETATM    8  C   UNL     1     -10.638   9.017  67.551  1.00  0.00    -0.237 A  
HETATM    9  O   UNL     1     -12.049  11.601  69.652  1.00  0.00    -0.304 OA 
HETATM   10  O   UNL     1     -12.163   9.368  70.161  1.00  0.00     0.095 OA 
HETATM   11  N   UNL     1     -10.561   7.819  68.283  1.00  0.00    -0.363 NA 
HETATM   12  C   UNL     1     -11.564  12.425  68.563  1.00  0.00    -0.313 C  
HETATM   13  C   UNL     1     -11.202  10.165  68.116  1.00  0.00    -0.245 A  
HETATM   14  H2  UNL     1      -9.581   7.645  68.505  1.00  0.00     0.000 HD 
HETATM   15  H1  UNL     1     -11.107   7.692  69.135  1.00  0.00     0.000 HD 
HETATM   16  C   UNL     1     -11.146  11.417  67.533  1.00  0.00    -0.339 A  
BRANCH   5  17
HETATM   17  O   UNL     1      -8.913  10.652  64.691  1.00  0.00    -0.191 OA 
BRANCH  17  18
HETATM   18  C   UNL     1      -9.285   9.992  63.463  1.00  0.00    -0.277 C  
HETATM   19  C   UNL     1      -9.764  10.887  62.340  1.00  0.00    -0.071 C  
ENDBRANCH  17  18
ENDBRANCH   5  17
BRANCH   6  20
HETATM   20  O   UNL     1      -9.114   8.090  66.028  1.00  0.00    -0.173 OA 
BRANCH  20  21
HETATM   21  C   UNL     1      -7.768   8.054  66.507  1.00  0.00    -0.093 C  
HETATM   22  C   UNL     1      -6.828   8.289  65.322  1.00  0.00    -0.059 C  
ENDBRANCH  20  21
ENDBRANCH   6  20
BRANCH  12  23
HETATM   23  C   UNL     1     -10.437  13.434  69.068  1.00  0.00    -0.031 C  
HETATM   24  C   UNL     1     -10.450  15.476  67.678  1.00  0.00    -0.279 C  
HETATM   25  C   UNL     1     -11.907  15.439  69.592  1.00  0.00    -0.347 C  
HETATM   26  N   UNL     1     -10.694  14.908  69.002  1.00  0.00    -0.239 NA 
HETATM   27  C   UNL     1      -8.952  15.461  67.435  1.00  0.00    -0.202 C  
HETATM   28  C   UNL     1      -8.360  14.095  67.663  1.00  0.00    -0.187 A  
HETATM   29  C   UNL     1      -7.085  13.858  67.127  1.00  0.00     0.280 A  
HETATM   30  C   UNL     1      -6.522  12.624  67.321  1.00  0.00    -0.097 A  
HETATM   31  C   UNL     1      -7.151  11.645  68.053  1.00  0.00    -0.080 A  
HETATM   32  O   UNL     1      -6.390  10.510  68.087  1.00  0.00    -0.057 OA 
HETATM   33  C   UNL     1      -8.393  11.854  68.651  1.00  0.00    -0.058 A  
HETATM   34  C   UNL     1      -9.038  13.105  68.443  1.00  0.00    -0.134 A  
HETATM   35  O   UNL     1      -5.316  12.237  66.826  1.00  0.00    -0.332 OA 
HETATM   36  C   UNL     1      -5.322  10.848  67.185  1.00  0.00    -0.047 C  
BRANCH  33  37
HETATM   37  O   UNL     1      -9.047  10.944  69.433  1.00  0.00    -0.050 OA 
HETATM   38  C   UNL     1      -8.262  10.023  70.185  1.00  0.00    -0.053 C  
ENDBRANCH  33  37
ENDBRANCH  12  23
ENDBRANCH   3   4
ENDBRANCH   2   3
TORSDOF 8
ENDMDL
MODEL       89
REMARK 921   NORMALIZED FREE ENERGY PREDICTED BY IDOCK:   -3.00 KCAL/MOL
REMARK 922        TOTAL FREE ENERGY PREDICTED BY IDOCK:   -5.18 KCAL/MOL
REMARK 923 INTER-LIGAND FREE ENERGY PREDICTED BY IDOCK:   -4.91 KCAL/MOL
REMARK 924 INTRA-LIGAND FREE ENERGY PREDICTED BY IDOCK:   -0.27 KCAL/MOL
REMARK 927      BINDING AFFINITY PREDICTED BY RF-SCORE:    0.00 PKD
ROOT
HETATM    1  C   UNL     1     -11.444  11.408  68.389  1.00  0.00    -0.367 C  
HETATM    2  C   UNL     1     -10.615  11.116  67.149  1.00  0.00    -0.244 C  
ENDROOT
BRANCH   2   3
HETATM    3  O   UNL     1      -9.610  10.177  67.463  1.00  0.00    -0.153 OA 
BRANCH   3   4
HETATM    4  C   UNL     1      -9.118   9.255  66.598  1.00  0.00    -0.143 A  
HETATM    5  C   UNL     1      -8.335   9.777  65.512  1.00  0.00    -0.136 A  
HETATM    6  C   UNL     1      -7.979   8.923  64.434  1.00  0.00    -0.137 A  
HETATM    7  C   UNL     1      -9.156   5.684  66.033  1.00  0.00    -0.156 C  
HETATM    8  C   UNL     1      -8.331   7.543  64.479  1.00  0.00     0.049 A  
HETATM    9  O   UNL     1      -9.516   5.679  67.343  1.00  0.00    -0.112 OA 
HETATM   10  O   UNL     1      -9.090   4.714  65.307  1.00  0.00    -0.142 OA 
HETATM   11  N   UNL     1      -7.842   6.644  63.515  1.00  0.00    -0.136 NA 
HETATM   12  C   UNL     1      -9.512   7.009  67.917  1.00  0.00    -0.124 C  
HETATM   13  C   UNL     1      -8.903   7.076  65.667  1.00  0.00    -0.037 A  
HETATM   14  H2  UNL     1      -6.824   6.713  63.504  1.00  0.00     0.000 HD 
HETATM   15  H1  UNL     1      -8.093   5.656  63.548  1.00  0.00     0.000 HD 
HETATM   16  C   UNL     1      -9.234   7.889  66.734  1.00  0.00    -0.206 A  
BRANCH   5  17
HETATM   17  O   UNL     1      -7.800  11.072  65.525  1.00  0.00    -0.036 OA 
BRANCH  17  18
HETATM   18  C   UNL     1      -6.755  11.264  66.501  1.00  0.00    -0.105 C  
HETATM   19  C   UNL     1      -6.956  12.397  67.485  1.00  0.00    -0.142 C  
ENDBRANCH  17  18
ENDBRANCH   5  17
BRANCH   6  20
HETATM   20  O   UNL     1      -7.164   9.247  63.367  1.00  0.00    -0.095 OA 
BRANCH  20  21
HETATM   21  C   UNL     1      -5.785   9.491  63.648  1.00  0.00    -0.090 C  
HETATM   22  C   UNL     1      -5.198   8.239  64.304  1.00  0.00    -0.040 C  
ENDBRANCH  20  21
ENDBRANCH   6  20
BRANCH  12  23
HETATM   23  C   UNL     1      -8.481   7.104  69.131  1.00  0.00    -0.133 C  
HETATM   24  C   UNL     1      -6.586   5.566  68.749  1.00  0.00    -0.048 C  
HETATM   25  C   UNL     1      -6.405   7.784  67.834  1.00  0.00    -0.051 C  
HETATM   26  N   UNL     1      -7.016   6.959  68.857  1.00  0.00    -0.079 NA 
HETATM   27  C   UNL     1      -6.655   4.950  70.134  1.00  0.00    -0.036 C  
HETATM   28  C   UNL     1      -8.003   5.153  70.773  1.00  0.00    -0.096 A  
HETATM   29  C   UNL     1      -8.318   4.335  71.869  1.00  0.00    -0.103 A  
HETATM   30  C   UNL     1      -9.537   4.502  72.469  1.00  0.00    -0.140 A  
HETATM   31  C   UNL     1     -10.427   5.464  72.055  1.00  0.00    -0.221 A  
HETATM   32  O   UNL     1     -11.569   5.415  72.806  1.00  0.00    -0.307 OA 
HETATM   33  C   UNL     1     -10.135   6.337  71.008  1.00  0.00    -0.185 A  
HETATM   34  C   UNL     1      -8.898   6.177  70.324  1.00  0.00    -0.149 A  
HETATM   35  O   UNL     1      -9.996   3.755  73.510  1.00  0.00    -0.113 OA 
HETATM   36  C   UNL     1     -11.343   4.241  73.604  1.00  0.00    -0.191 C  
BRANCH  33  37
HETATM   37  O   UNL     1     -10.951   7.347  70.582  1.00  0.00    -0.245 OA 
HETATM   38  C   UNL     1     -11.085   8.495  71.416  1.00  0.00    -0.265 C  
ENDBRANCH  33  37
ENDBRANCH  12  23
ENDBRANCH   3   4
ENDBRANCH   2   3
TORSDOF 8
ENDMDL
MODEL       90
REMARK 921   NORMALIZED FREE ENERGY PREDICTED BY IDOCK:   -2.86 KCAL/MOL
REMARK 922        TOTAL FREE ENERGY PREDICTED BY IDOCK:   -4.98 KCAL/MOL
REMARK 923 INTER-LIGAND FREE ENERGY PREDICTED BY IDOCK:   -7.12 KCAL/MOL
REMARK 924 INTRA-LIGAND FREE ENERGY PREDICTED BY IDOCK:    2.13 KCAL/MOL
REMARK 927      BINDING AFFINITY PREDICTED BY RF-SCORE:    0.00 PKD
ROOT
HETATM    1  C   UNL     1      -8.455   5.759  65.625  1.00  0.00    -0.149 C  
HETATM    2  C   UNL     1      -9.594   6.474  66.334  1.00  0.00    -0.104 C  
ENDROOT
BRANCH   2   3
HETATM    3  O   UNL     1      -9.127   7.693  66.866  1.00  0.00    -0.133 OA 
BRANCH   3   4
HETATM    4  C   UNL     1      -9.566   8.250  68.023  1.00  0.00    -0.153 A  
HETATM    5  C   UNL     1      -8.931   7.774  69.221  1.00  0.00    -0.139 A  
HETATM    6  C   UNL     1      -9.480   8.118  70.486  1.00  0.00    -0.163 A  
HETATM    7  C   UNL     1     -12.000  10.652  69.198  1.00  0.00    -0.158 C  
HETATM    8  C   UNL     1     -10.602   8.994  70.556  1.00  0.00    -0.227 A  
HETATM    9  O   UNL     1     -11.942  11.050  67.899  1.00  0.00    -0.620 OA 
HETATM   10  O   UNL     1     -12.747  11.091  70.046  1.00  0.00    -0.230 OA 
HETATM   11  N   UNL     1     -11.053   9.487  71.792  1.00  0.00    -0.283 NA 
HETATM   12  C   UNL     1     -10.953  10.310  67.143  1.00  0.00    -0.165 C  
HETATM   13  C   UNL     1     -11.023   9.577  69.357  1.00  0.00    -0.192 A  
HETATM   14  H2  UNL     1     -10.267   9.938  72.260  1.00  0.00     0.000 HD 
HETATM   15  H1  UNL     1     -11.856  10.114  71.842  1.00  0.00     0.000 HD 
HETATM   16  C   UNL     1     -10.484   9.272  68.121  1.00  0.00    -0.263 A  
BRANCH   5  17
HETATM   17  O   UNL     1      -7.715   7.079  69.203  1.00  0.00    -0.101 OA 
BRANCH  17  18
HETATM   18  C   UNL     1      -7.850   5.657  69.409  1.00  0.00    -0.088 C  
HETATM   19  C   UNL     1      -6.953   5.044  70.465  1.00  0.00    -0.045 C  
ENDBRANCH  17  18
ENDBRANCH   5  17
BRANCH   6  20
HETATM   20  O   UNL     1      -8.943   7.815  71.722  1.00  0.00    -0.117 OA 
BRANCH  20  21
HETATM   21  C   UNL     1      -7.733   8.480  72.089  1.00  0.00    -0.078 C  
HETATM   22  C   UNL     1      -7.404   8.115  73.539  1.00  0.00    -0.190 C  
ENDBRANCH  20  21
ENDBRANCH   6  20
BRANCH  12  23
HETATM   23  C   UNL     1      -9.837  11.285  66.554  1.00  0.00    -0.208 C  
HETATM   24  C   UNL     1      -7.608  10.612  67.378  1.00  0.00    -0.095 C  
HETATM   25  C   UNL     1      -8.398   9.564  65.362  1.00  0.00    -0.139 C  
HETATM   26  N   UNL     1      -8.487  10.731  66.217  1.00  0.00    -0.156 NA 
HETATM   27  C   UNL     1      -7.215  12.013  67.810  1.00  0.00    -0.108 C  
HETATM   28  C   UNL     1      -8.417  12.898  68.007  1.00  0.00    -0.178 A  
HETATM   29  C   UNL     1      -8.225  14.075  68.745  1.00  0.00    -0.049 A  
HETATM   30  C   UNL     1      -9.302  14.899  68.938  1.00  0.00    -0.197 A  
HETATM   31  C   UNL     1     -10.536  14.623  68.398  1.00  0.00    -0.243 A  
HETATM   32  O   UNL     1     -11.438  15.589  68.746  1.00  0.00    -0.314 OA 
HETATM   33  C   UNL     1     -10.760  13.494  67.611  1.00  0.00    -0.248 A  
HETATM   34  C   UNL     1      -9.683  12.585  67.417  1.00  0.00    -0.194 A  
HETATM   35  O   UNL     1      -9.277  16.048  69.666  1.00  0.00    -0.194 OA 
HETATM   36  C   UNL     1     -10.672  16.385  69.666  1.00  0.00    -0.337 C  
BRANCH  33  37
HETATM   37  O   UNL     1     -11.944  13.188  67.003  1.00  0.00    -0.379 OA 
HETATM   38  C   UNL     1     -12.322  13.946  65.856  1.00  0.00    -0.483 C  
ENDBRANCH  33  37
ENDBRANCH  12  23
ENDBRANCH   3   4
ENDBRANCH   2   3
TORSDOF 8
ENDMDL
MODEL       91
REMARK 921   NORMALIZED FREE ENERGY PREDICTED BY IDOCK:   -2.86 KCAL/MOL
REMARK 922        TOTAL FREE ENERGY PREDICTED BY IDOCK:   -4.98 KCAL/MOL
REMARK 923 INTER-LIGAND FREE ENERGY PREDICTED BY IDOCK:   -5.35 KCAL/MOL
REMARK 924 INTRA-LIGAND FREE ENERGY PREDICTED BY IDOCK:    0.37 KCAL/MOL
REMARK 927      BINDING AFFINITY PREDICTED BY RF-SCORE:    0.00 PKD
ROOT
HETATM    1  C   UNL     1      -6.025  13.762  68.028  1.00  0.00    -0.135 C  
HETATM    2  C   UNL     1      -6.361  12.975  69.285  1.00  0.00    -0.107 C  
ENDROOT
BRANCH   2   3
HETATM    3  O   UNL     1      -7.467  12.136  69.035  1.00  0.00    -0.070 OA 
BRANCH   3   4
HETATM    4  C   UNL     1      -7.419  10.992  68.308  1.00  0.00    -0.092 A  
HETATM    5  C   UNL     1      -7.218   9.784  69.061  1.00  0.00    -0.076 A  
HETATM    6  C   UNL     1      -6.921   8.576  68.376  1.00  0.00    -0.066 A  
HETATM    7  C   UNL     1      -7.588   9.881  64.871  1.00  0.00    -0.135 C  
HETATM    8  C   UNL     1      -6.905   8.555  66.951  1.00  0.00    -0.069 A  
HETATM    9  O   UNL     1      -8.168  11.100  64.712  1.00  0.00     0.165 OA 
HETATM   10  O   UNL     1      -7.320   9.097  63.985  1.00  0.00    -0.098 OA 
HETATM   11  N   UNL     1      -6.788   7.343  66.251  1.00  0.00    -0.060 NA 
HETATM   12  C   UNL     1      -8.333  11.796  65.971  1.00  0.00     0.189 C  
HETATM   13  C   UNL     1      -7.320   9.721  66.298  1.00  0.00    -0.099 A  
HETATM   14  H2  UNL     1      -7.528   6.718  66.570  1.00  0.00     0.000 HD 
HETATM   15  H1  UNL     1      -6.777   7.328  65.231  1.00  0.00     0.000 HD 
HETATM   16  C   UNL     1      -7.636  10.897  66.951  1.00  0.00    -0.128 A  
BRANCH   5  17
HETATM   17  O   UNL     1      -7.422   9.718  70.445  1.00  0.00    -0.150 OA 
BRANCH  17  18
HETATM   18  C   UNL     1      -6.205   9.591  71.211  1.00  0.00    -0.042 C  
HETATM   19  C   UNL     1      -5.142  10.640  70.960  1.00  0.00    -0.088 C  
ENDBRANCH  17  18
ENDBRANCH   5  17
BRANCH   6  20
HETATM   20  O   UNL     1      -6.787   7.324  68.944  1.00  0.00    -0.067 OA 
BRANCH  20  21
HETATM   21  C   UNL     1      -7.983   6.668  69.371  1.00  0.00    -0.115 C  
HETATM   22  C   UNL     1      -7.832   6.307  70.851  1.00  0.00    -0.107 C  
ENDBRANCH  20  21
ENDBRANCH   6  20
BRANCH  12  23
HETATM   23  C   UNL     1      -9.872  12.101  66.258  1.00  0.00    -0.234 C  
HETATM   24  C   UNL     1     -11.258  11.269  64.390  1.00  0.00    -0.126 C  
HETATM   25  C   UNL     1     -10.768   9.725  66.169  1.00  0.00     0.185 C  
HETATM   26  N   UNL     1     -10.908  11.120  65.801  1.00  0.00    -0.201 NA 
HETATM   27  C   UNL     1     -12.037  12.562  64.238  1.00  0.00    -0.507 C  
HETATM   28  C   UNL     1     -11.307  13.733  64.841  1.00  0.00    -0.353 A  
HETATM   29  C   UNL     1     -11.728  15.013  64.452  1.00  0.00    -0.320 A  
HETATM   30  C   UNL     1     -11.081  16.095  64.988  1.00  0.00    -0.294 A  
HETATM   31  C   UNL     1     -10.074  15.957  65.913  1.00  0.00    -0.352 A  
HETATM   32  O   UNL     1      -9.588  17.181  66.278  1.00  0.00    -0.264 OA 
HETATM   33  C   UNL     1      -9.660  14.706  66.370  1.00  0.00    -0.301 A  
HETATM   34  C   UNL     1     -10.272  13.549  65.813  1.00  0.00    -0.305 A  
HETATM   35  O   UNL     1     -11.350  17.391  64.673  1.00  0.00    -0.874 OA 
HETATM   36  C   UNL     1     -10.290  18.054  65.378  1.00  0.00     0.319 C  
BRANCH  33  37
HETATM   37  O   UNL     1      -8.704  14.501  67.324  1.00  0.00    -0.186 OA 
HETATM   38  C   UNL     1      -8.972  14.956  68.648  1.00  0.00    -0.184 C  
ENDBRANCH  33  37
ENDBRANCH  12  23
ENDBRANCH   3   4
ENDBRANCH   2   3
TORSDOF 8
ENDMDL
MODEL       92
REMARK 921   NORMALIZED FREE ENERGY PREDICTED BY IDOCK:   -2.79 KCAL/MOL
REMARK 922        TOTAL FREE ENERGY PREDICTED BY IDOCK:   -4.88 KCAL/MOL
REMARK 923 INTER-LIGAND FREE ENERGY PREDICTED BY IDOCK:   -6.24 KCAL/MOL
REMARK 924 INTRA-LIGAND FREE ENERGY PREDICTED BY IDOCK:    1.36 KCAL/MOL
REMARK 927      BINDING AFFINITY PREDICTED BY RF-SCORE:    0.00 PKD
ROOT
HETATM    1  C   UNL     1     -12.771  14.295  65.175  1.00  0.00    -0.332 C  
HETATM    2  C   UNL     1     -11.607  13.575  65.834  1.00  0.00    -0.335 C  
ENDROOT
BRANCH   2   3
HETATM    3  O   UNL     1     -12.043  12.331  66.335  1.00  0.00    -0.623 OA 
BRANCH   3   4
HETATM    4  C   UNL     1     -11.266  11.223  66.439  1.00  0.00    -0.121 A  
HETATM    5  C   UNL     1     -10.383  10.978  65.331  1.00  0.00    -0.268 A  
HETATM    6  C   UNL     1      -9.709   9.732  65.239  1.00  0.00    -0.300 A  
HETATM    7  C   UNL     1     -10.658   8.460  68.690  1.00  0.00    -0.113 C  
HETATM    8  C   UNL     1      -9.850   8.772  66.282  1.00  0.00    -0.272 A  
HETATM    9  O   UNL     1     -11.251   9.307  69.574  1.00  0.00    -0.141 OA 
HETATM   10  O   UNL     1     -10.314   7.320  68.916  1.00  0.00    -0.192 OA 
HETATM   11  N   UNL     1      -9.061   7.608  66.301  1.00  0.00    -0.184 NA 
HETATM   12  C   UNL     1     -11.553  10.593  68.980  1.00  0.00    -0.261 C  
HETATM   13  C   UNL     1     -10.556   9.175  67.420  1.00  0.00    -0.315 A  
HETATM   14  H2  UNL     1      -8.082   7.888  66.256  1.00  0.00     0.000 HD 
HETATM   15  H1  UNL     1      -9.162   6.921  67.048  1.00  0.00     0.000 HD 
HETATM   16  C   UNL     1     -11.197  10.394  67.536  1.00  0.00    -0.254 A  
BRANCH   5  17
HETATM   17  O   UNL     1     -10.061  11.967  64.392  1.00  0.00    -0.274 OA 
BRANCH  17  18
HETATM   18  C   UNL     1     -10.628  11.740  63.084  1.00  0.00    -0.280 C  
HETATM   19  C   UNL     1     -12.135  11.607  63.021  1.00  0.00     0.052 C  
ENDBRANCH  17  18
ENDBRANCH   5  17
BRANCH   6  20
HETATM   20  O   UNL     1      -8.769   9.377  64.291  1.00  0.00    -0.191 OA 
BRANCH  20  21
HETATM   21  C   UNL     1      -7.458   9.929  64.431  1.00  0.00    -0.137 C  
HETATM   22  C   UNL     1      -6.902  10.210  63.033  1.00  0.00    -0.135 C  
ENDBRANCH  20  21
ENDBRANCH   6  20
BRANCH  12  23
HETATM   23  C   UNL     1     -10.792  11.768  69.744  1.00  0.00     0.236 C  
HETATM   24  C   UNL     1     -11.752  13.951  69.102  1.00  0.00    -0.338 C  
HETATM   25  C   UNL     1     -12.773  12.802  70.953  1.00  0.00    -0.192 C  
HETATM   26  N   UNL     1     -11.562  12.978  70.175  1.00  0.00    -0.144 NA 
HETATM   27  C   UNL     1     -10.407  14.589  68.809  1.00  0.00    -0.243 C  
HETATM   28  C   UNL     1      -9.340  13.558  68.554  1.00  0.00    -0.108 A  
HETATM   29  C   UNL     1      -8.168  13.999  67.921  1.00  0.00    -0.158 A  
HETATM   30  C   UNL     1      -7.181  13.081  67.679  1.00  0.00    -0.151 A  
HETATM   31  C   UNL     1      -7.294  11.769  68.073  1.00  0.00    -0.091 A  
HETATM   32  O   UNL     1      -6.185  11.060  67.703  1.00  0.00    -0.050 OA 
HETATM   33  C   UNL     1      -8.416  11.298  68.754  1.00  0.00    -0.112 A  
HETATM   34  C   UNL     1      -9.487  12.203  68.992  1.00  0.00     0.309 A  
HETATM   35  O   UNL     1      -6.012  13.352  67.038  1.00  0.00    -0.161 OA 
HETATM   36  C   UNL     1      -5.467  12.030  66.922  1.00  0.00    -0.058 C  
BRANCH  33  37
HETATM   37  O   UNL     1      -8.570  10.022  69.218  1.00  0.00    -0.143 OA 
HETATM   38  C   UNL     1      -7.836   9.641  70.380  1.00  0.00    -0.159 C  
ENDBRANCH  33  37
ENDBRANCH  12  23
ENDBRANCH   3   4
ENDBRANCH   2   3
TORSDOF 8
ENDMDL
MODEL       93
REMARK 921   NORMALIZED FREE ENERGY PREDICTED BY IDOCK:   -2.77 KCAL/MOL
REMARK 922        TOTAL FREE ENERGY PREDICTED BY IDOCK:   -4.85 KCAL/MOL
REMARK 923 INTER-LIGAND FREE ENERGY PREDICTED BY IDOCK:   -5.94 KCAL/MOL
REMARK 924 INTRA-LIGAND FREE ENERGY PREDICTED BY IDOCK:    1.09 KCAL/MOL
REMARK 927      BINDING AFFINITY PREDICTED BY RF-SCORE:    0.00 PKD
ROOT
HETATM    1  C   UNL     1     -10.452   4.748  70.846  1.00  0.00    -0.107 C  
HETATM    2  C   UNL     1     -10.246   5.034  69.368  1.00  0.00    -0.198 C  
ENDROOT
BRANCH   2   3
HETATM    3  O   UNL     1     -10.348   6.421  69.136  1.00  0.00    -0.179 OA 
BRANCH   3   4
HETATM    4  C   UNL     1      -9.399   7.174  68.524  1.00  0.00    -0.136 A  
HETATM    5  C   UNL     1      -9.643   7.476  67.140  1.00  0.00    -0.161 A  
HETATM    6  C   UNL     1      -8.605   8.051  66.359  1.00  0.00    -0.145 A  
HETATM    7  C   UNL     1      -6.219   8.742  69.233  1.00  0.00    -0.042 C  
HETATM    8  C   UNL     1      -7.365   8.396  66.971  1.00  0.00    -0.084 A  
HETATM    9  O   UNL     1      -6.654   8.594  70.512  1.00  0.00    -0.035 OA 
HETATM   10  O   UNL     1      -5.133   9.160  68.893  1.00  0.00    -0.033 OA 
HETATM   11  N   UNL     1      -6.391   9.121  66.265  1.00  0.00    -0.064 NA 
HETATM   12  C   UNL     1      -7.995   8.049  70.575  1.00  0.00    -0.096 C  
HETATM   13  C   UNL     1      -7.290   8.264  68.361  1.00  0.00    -0.094 A  
HETATM   14  H2  UNL     1      -6.823   9.977  65.917  1.00  0.00     0.000 HD 
HETATM   15  H1  UNL     1      -5.504   9.368  66.703  1.00  0.00     0.000 HD 
HETATM   16  C   UNL     1      -8.299   7.729  69.140  1.00  0.00    -0.134 A  
BRANCH   5  17
HETATM   17  O   UNL     1     -10.906   7.340  66.552  1.00  0.00    -0.066 OA 
BRANCH  17  18
HETATM   18  C   UNL     1     -11.249   5.980  66.209  1.00  0.00     0.613 C  
HETATM   19  C   UNL     1     -10.093   5.064  65.867  1.00  0.00    -0.194 C  
ENDBRANCH  17  18
ENDBRANCH   5  17
BRANCH   6  20
HETATM   20  O   UNL     1      -8.706   8.476  65.049  1.00  0.00    -0.169 OA 
BRANCH  20  21
HETATM   21  C   UNL     1      -9.282   9.765  64.822  1.00  0.00    -0.261 C  
HETATM   22  C   UNL     1      -9.246  10.052  63.319  1.00  0.00    -0.317 C  
ENDBRANCH  20  21
ENDBRANCH   6  20
BRANCH  12  23
HETATM   23  C   UNL     1      -8.990   9.059  71.304  1.00  0.00    -0.211 C  
HETATM   24  C   UNL     1     -11.054   7.876  71.970  1.00  0.00    -0.278 C  
HETATM   25  C   UNL     1      -9.220   7.851  73.527  1.00  0.00    -0.276 C  
HETATM   26  N   UNL     1      -9.845   8.558  72.427  1.00  0.00    -0.301 NA 
HETATM   27  C   UNL     1     -11.983   8.921  71.380  1.00  0.00    -0.374 C  
HETATM   28  C   UNL     1     -11.293   9.763  70.340  1.00  0.00    -0.362 A  
HETATM   29  C   UNL     1     -12.113  10.500  69.472  1.00  0.00    -0.208 A  
HETATM   30  C   UNL     1     -11.511  11.275  68.517  1.00  0.00    -0.306 A  
HETATM   31  C   UNL     1     -10.143  11.379  68.420  1.00  0.00    -0.201 A  
HETATM   32  O   UNL     1      -9.798  12.200  67.383  1.00  0.00    -0.188 OA 
HETATM   33  C   UNL     1      -9.289  10.710  69.296  1.00  0.00    -0.117 A  
HETATM   34  C   UNL     1      -9.866   9.858  70.279  1.00  0.00    -0.236 A  
HETATM   35  O   UNL     1     -12.175  12.008  67.583  1.00  0.00    -0.484 OA 
HETATM   36  C   UNL     1     -11.076  12.457  66.777  1.00  0.00    -0.285 C  
BRANCH  33  37
HETATM   37  O   UNL     1      -7.926  10.810  69.288  1.00  0.00    -0.147 OA 
HETATM   38  C   UNL     1      -7.350  12.046  68.875  1.00  0.00    -0.067 C  
ENDBRANCH  33  37
ENDBRANCH  12  23
ENDBRANCH   3   4
ENDBRANCH   2   3
TORSDOF 8
ENDMDL
MODEL       94
REMARK 921   NORMALIZED FREE ENERGY PREDICTED BY IDOCK:   -2.68 KCAL/MOL
REMARK 922        TOTAL FREE ENERGY PREDICTED BY IDOCK:   -4.71 KCAL/MOL
REMARK 923 INTER-LIGAND FREE ENERGY PREDICTED BY IDOCK:   -4.78 KCAL/MOL
REMARK 924 INTRA-LIGAND FREE ENERGY PREDICTED BY IDOCK:    0.07 KCAL/MOL
REMARK 927      BINDING AFFINITY PREDICTED BY RF-SCORE:    0.00 PKD
ROOT
HETATM    1  C   UNL     1      -8.624   8.493  73.363  1.00  0.00    -0.049 C  
HETATM    2  C   UNL     1      -7.828   7.320  72.816  1.00  0.00    -0.094 C  
ENDROOT
BRANCH   2   3
HETATM    3  O   UNL     1      -8.253   7.032  71.503  1.00  0.00    -0.107 OA 
BRANCH   3   4
HETATM    4  C   UNL     1      -7.710   7.566  70.380  1.00  0.00    -0.091 A  
HETATM    5  C   UNL     1      -6.788   6.721  69.672  1.00  0.00    -0.055 A  
HETATM    6  C   UNL     1      -5.996   7.272  68.629  1.00  0.00    -0.026 A  
HETATM    7  C   UNL     1      -7.763  10.631  68.461  1.00  0.00    -0.107 C  
HETATM    8  C   UNL     1      -6.182   8.630  68.242  1.00  0.00    -0.054 A  
HETATM    9  O   UNL     1      -8.920  10.812  69.152  1.00  0.00    -0.159 OA 
HETATM   10  O   UNL     1      -7.252  11.429  67.705  1.00  0.00    -0.088 OA 
HETATM   11  N   UNL     1      -5.539   9.148  67.104  1.00  0.00    -0.041 NA 
HETATM   12  C   UNL     1      -9.244   9.672  69.985  1.00  0.00    -0.241 C  
HETATM   13  C   UNL     1      -7.244   9.317  68.837  1.00  0.00    -0.073 A  
HETATM   14  H2  UNL     1      -5.776   8.555  66.309  1.00  0.00     0.000 HD 
HETATM   15  H1  UNL     1      -5.672  10.120  66.827  1.00  0.00     0.000 HD 
HETATM   16  C   UNL     1      -8.040   8.788  69.836  1.00  0.00    -0.109 A  
BRANCH   5  17
HETATM   17  O   UNL     1      -6.719   5.338  69.886  1.00  0.00    -0.044 OA 
BRANCH  17  18
HETATM   18  C   UNL     1      -7.892   4.619  69.450  1.00  0.00    -0.062 C  
HETATM   19  C   UNL     1      -8.359   3.492  70.347  1.00  0.00    -0.084 C  
ENDBRANCH  17  18
ENDBRANCH   5  17
BRANCH   6  20
HETATM   20  O   UNL     1      -5.133   6.579  67.803  1.00  0.00    -0.004 OA 
BRANCH  20  21
HETATM   21  C   UNL     1      -5.694   5.957  66.645  1.00  0.00    -0.017 C  
HETATM   22  C   UNL     1      -5.365   4.463  66.693  1.00  0.00    -0.013 C  
ENDBRANCH  20  21
ENDBRANCH   6  20
BRANCH  12  23
HETATM   23  C   UNL     1     -10.646   9.038  69.566  1.00  0.00    -0.225 C  
HETATM   24  C   UNL     1     -11.432   7.493  71.326  1.00  0.00    -0.274 C  
HETATM   25  C   UNL     1     -12.036   9.811  71.548  1.00  0.00    -0.409 C  
HETATM   26  N   UNL     1     -11.665   8.754  70.627  1.00  0.00    -0.221 NA 
HETATM   27  C   UNL     1     -11.738   6.363  70.361  1.00  0.00    -0.389 C  
HETATM   28  C   UNL     1     -10.996   6.518  69.060  1.00  0.00    -0.378 A  
HETATM   29  C   UNL     1     -10.900   5.381  68.243  1.00  0.00     0.059 A  
HETATM   30  C   UNL     1     -10.231   5.497  67.053  1.00  0.00    -0.224 A  
HETATM   31  C   UNL     1      -9.698   6.691  66.630  1.00  0.00    -0.159 A  
HETATM   32  O   UNL     1      -9.075   6.537  65.423  1.00  0.00     0.055 OA 
HETATM   33  C   UNL     1      -9.818   7.859  67.382  1.00  0.00    -0.181 A  
HETATM   34  C   UNL     1     -10.467   7.782  68.646  1.00  0.00    -0.199 A  
HETATM   35  O   UNL     1     -10.021   4.474  66.181  1.00  0.00    -0.205 OA 
HETATM   36  C   UNL     1      -9.153   5.114  65.235  1.00  0.00    -0.120 C  
BRANCH  33  37
HETATM   37  O   UNL     1      -9.358   9.087  66.997  1.00  0.00    -0.140 OA 
HETATM   38  C   UNL     1     -10.068   9.774  65.969  1.00  0.00    -0.251 C  
ENDBRANCH  33  37
ENDBRANCH  12  23
ENDBRANCH   3   4
ENDBRANCH   2   3
TORSDOF 8
ENDMDL
MODEL       95
REMARK 921   NORMALIZED FREE ENERGY PREDICTED BY IDOCK:   -2.67 KCAL/MOL
REMARK 922        TOTAL FREE ENERGY PREDICTED BY IDOCK:   -4.70 KCAL/MOL
REMARK 923 INTER-LIGAND FREE ENERGY PREDICTED BY IDOCK:   -4.19 KCAL/MOL
REMARK 924 INTRA-LIGAND FREE ENERGY PREDICTED BY IDOCK:   -0.52 KCAL/MOL
REMARK 927      BINDING AFFINITY PREDICTED BY RF-SCORE:    0.00 PKD
ROOT
HETATM    1  C   UNL     1      -6.276  12.626  68.463  1.00  0.00    -0.067 C  
HETATM    2  C   UNL     1      -7.362  11.952  69.285  1.00  0.00     0.094 C  
ENDROOT
BRANCH   2   3
HETATM    3  O   UNL     1      -8.582  11.990  68.579  1.00  0.00    -0.157 OA 
BRANCH   3   4
HETATM    4  C   UNL     1      -8.875  11.218  67.502  1.00  0.00    -0.140 A  
HETATM    5  C   UNL     1      -9.146   9.835  67.784  1.00  0.00    -0.131 A  
HETATM    6  C   UNL     1      -9.229   8.907  66.711  1.00  0.00    -0.159 A  
HETATM    7  C   UNL     1      -9.173  11.469  63.907  1.00  0.00     0.061 C  
HETATM    8  C   UNL     1      -9.124   9.368  65.367  1.00  0.00    -0.226 A  
HETATM    9  O   UNL     1      -9.293  12.790  64.207  1.00  0.00     0.368 OA 
HETATM   10  O   UNL     1      -9.125  10.992  62.793  1.00  0.00    -0.287 OA 
HETATM   11  N   UNL     1      -9.375   8.503  64.289  1.00  0.00     0.317 NA 
HETATM   12  C   UNL     1      -9.299  13.028  65.636  1.00  0.00     0.220 C  
HETATM   13  C   UNL     1      -9.074  10.753  65.177  1.00  0.00    -0.225 A  
HETATM   14  H2  UNL     1     -10.303   8.100  64.415  1.00  0.00     0.000 HD 
HETATM   15  H1  UNL     1      -9.300   8.833  63.326  1.00  0.00     0.000 HD 
HETATM   16  C   UNL     1      -9.016  11.670  66.209  1.00  0.00    -0.194 A  
BRANCH   5  17
HETATM   17  O   UNL     1      -9.455   9.376  69.071  1.00  0.00    -0.154 OA 
BRANCH  17  18
HETATM   18  C   UNL     1      -8.597   8.312  69.535  1.00  0.00    -0.134 C  
HETATM   19  C   UNL     1      -7.106   8.568  69.452  1.00  0.00    -0.054 C  
ENDBRANCH  17  18
ENDBRANCH   5  17
BRANCH   6  20
HETATM   20  O   UNL     1      -9.566   7.571  66.808  1.00  0.00    -0.181 OA 
BRANCH  20  21
HETATM   21  C   UNL     1     -10.945   7.258  67.013  1.00  0.00    -0.173 C  
HETATM   22  C   UNL     1     -11.033   6.102  68.013  1.00  0.00    -0.399 C  
ENDBRANCH  20  21
ENDBRANCH   6  20
BRANCH  12  23
HETATM   23  C   UNL     1     -10.660  13.723  66.093  1.00  0.00    -0.291 C  
HETATM   24  C   UNL     1     -12.096  14.140  64.127  1.00  0.00    -0.406 C  
HETATM   25  C   UNL     1     -12.302  11.999  65.205  1.00  0.00     0.119 C  
HETATM   26  N   UNL     1     -11.929  13.390  65.370  1.00  0.00    -0.364 NA 
HETATM   27  C   UNL     1     -12.374  15.587  64.491  1.00  0.00     0.021 C  
HETATM   28  C   UNL     1     -11.339  16.138  65.435  1.00  0.00     0.134 A  
HETATM   29  C   UNL     1     -11.268  17.535  65.555  1.00  0.00     0.649 A  
HETATM   30  C   UNL     1     -10.335  18.062  66.409  1.00  0.00    -0.379 A  
HETATM   31  C   UNL     1      -9.511  17.266  67.168  1.00  0.00    -0.256 A  
HETATM   32  O   UNL     1      -8.667  18.032  67.922  1.00  0.00    -0.248 OA 
HETATM   33  C   UNL     1      -9.584  15.874  67.123  1.00  0.00    -0.218 A  
HETATM   34  C   UNL     1     -10.508  15.278  66.220  1.00  0.00    -0.313 A  
HETATM   35  O   UNL     1     -10.122  19.392  66.595  1.00  0.00    -0.342 OA 
HETATM   36  C   UNL     1      -8.958  19.353  67.434  1.00  0.00    -0.300 C  
BRANCH  33  37
HETATM   37  O   UNL     1      -8.832  15.027  67.888  1.00  0.00    -0.165 OA 
HETATM   38  C   UNL     1      -8.881  15.184  69.304  1.00  0.00    -0.207 C  
ENDBRANCH  33  37
ENDBRANCH  12  23
ENDBRANCH   3   4
ENDBRANCH   2   3
TORSDOF 8
ENDMDL
MODEL       96
REMARK 921   NORMALIZED FREE ENERGY PREDICTED BY IDOCK:   -2.63 KCAL/MOL
REMARK 922        TOTAL FREE ENERGY PREDICTED BY IDOCK:   -4.65 KCAL/MOL
REMARK 923 INTER-LIGAND FREE ENERGY PREDICTED BY IDOCK:   -7.21 KCAL/MOL
REMARK 924 INTRA-LIGAND FREE ENERGY PREDICTED BY IDOCK:    2.56 KCAL/MOL
REMARK 927      BINDING AFFINITY PREDICTED BY RF-SCORE:    0.00 PKD
ROOT
HETATM    1  C   UNL     1     -12.591   9.869  69.368  1.00  0.00     1.105 C  
HETATM    2  C   UNL     1     -11.490  10.695  68.724  1.00  0.00    -0.262 C  
ENDROOT
BRANCH   2   3
HETATM    3  O   UNL     1     -12.063  11.682  67.896  1.00  0.00    -0.613 OA 
BRANCH   3   4
HETATM    4  C   UNL     1     -11.698  12.989  67.887  1.00  0.00    -0.357 A  
HETATM    5  C   UNL     1     -11.580  13.611  69.178  1.00  0.00    -0.309 A  
HETATM    6  C   UNL     1     -11.437  15.021  69.262  1.00  0.00    -0.307 A  
HETATM    7  C   UNL     1     -10.919  15.636  65.550  1.00  0.00    -0.300 C  
HETATM    8  C   UNL     1     -11.330  15.795  68.070  1.00  0.00    -0.310 A  
HETATM    9  O   UNL     1     -10.730  14.577  64.718  1.00  0.00    -0.413 OA 
HETATM   10  O   UNL     1     -10.862  16.807  65.238  1.00  0.00    -0.497 OA 
HETATM   11  N   UNL     1     -11.013  17.163  68.127  1.00  0.00    -0.314 NA 
HETATM   12  C   UNL     1     -10.888  13.310  65.400  1.00  0.00    -0.291 C  
HETATM   13  C   UNL     1     -11.240  15.090  66.866  1.00  0.00    -0.323 A  
HETATM   14  H2  UNL     1     -10.146  17.267  68.653  1.00  0.00     0.000 HD 
HETATM   15  H1  UNL     1     -10.937  17.717  67.274  1.00  0.00     0.000 HD 
HETATM   16  C   UNL     1     -11.354  13.716  66.769  1.00  0.00    -0.346 A  
BRANCH   5  17
HETATM   17  O   UNL     1     -11.479  12.870  70.363  1.00  0.00     0.009 OA 
BRANCH  17  18
HETATM   18  C   UNL     1     -12.614  13.016  71.243  1.00  0.00    -0.279 C  
HETATM   19  C   UNL     1     -13.088  11.758  71.939  1.00  0.00    -0.482 C  
ENDBRANCH  17  18
ENDBRANCH   5  17
BRANCH   6  20
HETATM   20  O   UNL     1     -11.227  15.756  70.413  1.00  0.00    -0.307 OA 
BRANCH  20  21
HETATM   21  C   UNL     1     -12.365  16.020  71.236  1.00  0.00    -0.312 C  
HETATM   22  C   UNL     1     -11.874  16.340  72.650  1.00  0.00    -0.596 C  
ENDBRANCH  20  21
ENDBRANCH   6  20
BRANCH  12  23
HETATM   23  C   UNL     1      -9.545  12.453  65.333  1.00  0.00    -0.027 C  
HETATM   24  C   UNL     1     -10.033  10.081  65.822  1.00  0.00    -0.276 C  
HETATM   25  C   UNL     1     -10.225  10.794  63.532  1.00  0.00    -0.250 C  
HETATM   26  N   UNL     1      -9.601  11.048  64.816  1.00  0.00    -0.234 NA 
HETATM   27  C   UNL     1      -8.918   9.940  66.841  1.00  0.00    -0.154 C  
HETATM   28  C   UNL     1      -8.481  11.275  67.385  1.00  0.00    -0.137 A  
HETATM   29  C   UNL     1      -7.737  11.264  68.574  1.00  0.00    -0.131 A  
HETATM   30  C   UNL     1      -7.326  12.465  69.089  1.00  0.00     0.109 A  
HETATM   31  C   UNL     1      -7.586  13.656  68.454  1.00  0.00    -0.132 A  
HETATM   32  O   UNL     1      -7.083  14.703  69.176  1.00  0.00    -0.119 OA 
HETATM   33  C   UNL     1      -8.273  13.711  67.242  1.00  0.00    -0.152 A  
HETATM   34  C   UNL     1      -8.758  12.494  66.688  1.00  0.00    -0.101 A  
HETATM   35  O   UNL     1      -6.638  12.613  70.253  1.00  0.00     0.110 OA 
HETATM   36  C   UNL     1      -6.633  14.043  70.371  1.00  0.00     0.093 C  
BRANCH  33  37
HETATM   37  O   UNL     1      -8.518  14.854  66.534  1.00  0.00    -0.188 OA 
HETATM   38  C   UNL     1      -7.573  15.917  66.632  1.00  0.00    -0.115 C  
ENDBRANCH  33  37
ENDBRANCH  12  23
ENDBRANCH   3   4
ENDBRANCH   2   3
TORSDOF 8
ENDMDL
MODEL       97
REMARK 921   NORMALIZED FREE ENERGY PREDICTED BY IDOCK:   -2.60 KCAL/MOL
REMARK 922        TOTAL FREE ENERGY PREDICTED BY IDOCK:   -4.59 KCAL/MOL
REMARK 923 INTER-LIGAND FREE ENERGY PREDICTED BY IDOCK:   -5.20 KCAL/MOL
REMARK 924 INTRA-LIGAND FREE ENERGY PREDICTED BY IDOCK:    0.61 KCAL/MOL
REMARK 927      BINDING AFFINITY PREDICTED BY RF-SCORE:    0.00 PKD
ROOT
HETATM    1  C   UNL     1     -10.393   5.902  66.065  1.00  0.00     0.146 C  
HETATM    2  C   UNL     1     -10.684   6.950  67.127  1.00  0.00    -0.366 C  
ENDROOT
BRANCH   2   3
HETATM    3  O   UNL     1      -9.668   6.927  68.105  1.00  0.00    -0.130 OA 
BRANCH   3   4
HETATM    4  C   UNL     1      -9.703   6.181  69.238  1.00  0.00    -0.137 A  
HETATM    5  C   UNL     1      -8.643   5.222  69.384  1.00  0.00    -0.101 A  
HETATM    6  C   UNL     1      -8.725   4.243  70.410  1.00  0.00    -0.078 A  
HETATM    7  C   UNL     1     -11.732   5.724  72.196  1.00  0.00    -0.163 C  
HETATM    8  C   UNL     1      -9.812   4.271  71.331  1.00  0.00    -0.190 A  
HETATM    9  O   UNL     1     -12.178   6.959  71.841  1.00  0.00    -0.322 OA 
HETATM   10  O   UNL     1     -12.156   5.049  73.109  1.00  0.00    -0.153 OA 
HETATM   11  N   UNL     1      -9.824   3.427  72.454  1.00  0.00    -0.150 NA 
HETATM   12  C   UNL     1     -11.472   7.486  70.691  1.00  0.00    -0.269 C  
HETATM   13  C   UNL     1     -10.681   5.363  71.247  1.00  0.00    -0.249 A  
HETATM   14  H2  UNL     1      -8.961   3.578  72.975  1.00  0.00     0.000 HD 
HETATM   15  H1  UNL     1     -10.602   3.447  73.114  1.00  0.00     0.000 HD 
HETATM   16  C   UNL     1     -10.602   6.337  70.270  1.00  0.00    -0.305 A  
BRANCH   5  17
HETATM   17  O   UNL     1      -7.464   5.283  68.630  1.00  0.00    -0.069 OA 
BRANCH  17  18
HETATM   18  C   UNL     1      -6.366   5.927  69.310  1.00  0.00    -0.041 C  
HETATM   19  C   UNL     1      -5.160   5.061  69.607  1.00  0.00     0.000 C  
ENDBRANCH  17  18
ENDBRANCH   5  17
BRANCH   6  20
HETATM   20  O   UNL     1      -7.756   3.312  70.733  1.00  0.00    -0.040 OA 
BRANCH  20  21
HETATM   21  C   UNL     1      -7.640   2.168  69.884  1.00  0.00    -0.043 C  
HETATM   22  C   UNL     1      -6.153   1.895  69.645  1.00  0.00    -0.024 C  
ENDBRANCH  20  21
ENDBRANCH   6  20
BRANCH  12  23
HETATM   23  C   UNL     1     -10.725   8.847  71.054  1.00  0.00    -0.247 C  
HETATM   24  C   UNL     1     -10.079  10.031  68.984  1.00  0.00    -0.200 C  
HETATM   25  C   UNL     1     -12.272  10.475  69.867  1.00  0.00    -0.218 C  
HETATM   26  N   UNL     1     -10.923  10.045  70.176  1.00  0.00    -0.288 NA 
HETATM   27  C   UNL     1      -8.646  10.266  69.426  1.00  0.00    -0.167 C  
HETATM   28  C   UNL     1      -8.230   9.311  70.514  1.00  0.00    -0.219 A  
HETATM   29  C   UNL     1      -6.853   9.175  70.748  1.00  0.00    -0.087 A  
HETATM   30  C   UNL     1      -6.449   8.314  71.733  1.00  0.00    -0.058 A  
HETATM   31  C   UNL     1      -7.347   7.625  72.512  1.00  0.00    -0.079 A  
HETATM   32  O   UNL     1      -6.692   6.827  73.409  1.00  0.00    -0.071 OA 
HETATM   33  C   UNL     1      -8.725   7.771  72.353  1.00  0.00    -0.137 A  
HETATM   34  C   UNL     1      -9.196   8.622  71.315  1.00  0.00    -0.283 A  
HETATM   35  O   UNL     1      -5.151   8.047  72.043  1.00  0.00    -0.034 OA 
HETATM   36  C   UNL     1      -5.324   6.987  72.995  1.00  0.00    -0.038 C  
BRANCH  33  37
HETATM   37  O   UNL     1      -9.670   7.158  73.126  1.00  0.00    -0.162 OA 
HETATM   38  C   UNL     1      -9.305   6.772  74.449  1.00  0.00    -0.230 C  
ENDBRANCH  33  37
ENDBRANCH  12  23
ENDBRANCH   3   4
ENDBRANCH   2   3
TORSDOF 8
ENDMDL
MODEL       98
REMARK 921   NORMALIZED FREE ENERGY PREDICTED BY IDOCK:   -2.52 KCAL/MOL
REMARK 922        TOTAL FREE ENERGY PREDICTED BY IDOCK:   -4.49 KCAL/MOL
REMARK 923 INTER-LIGAND FREE ENERGY PREDICTED BY IDOCK:   -5.66 KCAL/MOL
REMARK 924 INTRA-LIGAND FREE ENERGY PREDICTED BY IDOCK:    1.17 KCAL/MOL
REMARK 927      BINDING AFFINITY PREDICTED BY RF-SCORE:    0.00 PKD
ROOT
HETATM    1  C   UNL     1      -5.615   4.361  68.139  1.00  0.00    -0.017 C  
HETATM    2  C   UNL     1      -5.473   5.695  67.424  1.00  0.00    -0.012 C  
ENDROOT
BRANCH   2   3
HETATM    3  O   UNL     1      -6.595   6.503  67.704  1.00  0.00    -0.056 OA 
BRANCH   3   4
HETATM    4  C   UNL     1      -6.839   7.099  68.898  1.00  0.00    -0.069 A  
HETATM    5  C   UNL     1      -6.164   8.349  69.118  1.00  0.00    -0.043 A  
HETATM    6  C   UNL     1      -6.169   8.925  70.416  1.00  0.00    -0.040 A  
HETATM    7  C   UNL     1      -8.701   6.543  71.947  1.00  0.00    -0.130 C  
HETATM    8  C   UNL     1      -6.907   8.303  71.464  1.00  0.00    -0.066 A  
HETATM    9  O   UNL     1      -9.383   5.686  71.142  1.00  0.00    -0.150 OA 
HETATM   10  O   UNL     1      -8.874   6.693  73.138  1.00  0.00    -0.124 OA 
HETATM   11  N   UNL     1      -7.071   8.942  72.705  1.00  0.00    -0.331 NA 
HETATM   12  C   UNL     1      -8.917   5.736  69.771  1.00  0.00    -0.129 C  
HETATM   13  C   UNL     1      -7.706   7.211  71.111  1.00  0.00    -0.090 A  
HETATM   14  H2  UNL     1      -7.472   9.865  72.537  1.00  0.00     0.000 HD 
HETATM   15  H1  UNL     1      -7.600   8.497  73.455  1.00  0.00     0.000 HD 
HETATM   16  C   UNL     1      -7.731   6.652  69.847  1.00  0.00    -0.109 A  
BRANCH   5  17
HETATM   17  O   UNL     1      -5.597   9.092  68.074  1.00  0.00    -0.038 OA 
BRANCH  17  18
HETATM   18  C   UNL     1      -6.564   9.636  67.151  1.00  0.00    -0.071 C  
HETATM   19  C   UNL     1      -6.193  10.945  66.486  1.00  0.00    -0.122 C  
ENDBRANCH  17  18
ENDBRANCH   5  17
BRANCH   6  20
HETATM   20  O   UNL     1      -5.644  10.153  70.769  1.00  0.00    -0.064 OA 
BRANCH  20  21
HETATM   21  C   UNL     1      -6.272  11.314  70.221  1.00  0.00    -0.124 C  
HETATM   22  C   UNL     1      -5.346  12.513  70.442  1.00  0.00    -0.134 C  
ENDBRANCH  20  21
ENDBRANCH   6  20
BRANCH  12  23
HETATM   23  C   UNL     1     -10.091   6.174  68.785  1.00  0.00    -0.169 C  
HETATM   24  C   UNL     1      -9.142   7.003  66.661  1.00  0.00    -0.152 C  
HETATM   25  C   UNL     1      -9.559   4.640  66.831  1.00  0.00    -0.181 C  
HETATM   26  N   UNL     1      -9.927   5.957  67.312  1.00  0.00    -0.139 NA 
HETATM   27  C   UNL     1      -9.977   8.270  66.646  1.00  0.00    -0.348 C  
HETATM   28  C   UNL     1     -10.492   8.619  68.017  1.00  0.00    -0.254 A  
HETATM   29  C   UNL     1     -10.953   9.931  68.208  1.00  0.00    -0.248 A  
HETATM   30  C   UNL     1     -11.428  10.274  69.445  1.00  0.00    -0.186 A  
HETATM   31  C   UNL     1     -11.502   9.366  70.475  1.00  0.00    -0.262 A  
HETATM   32  O   UNL     1     -11.997   9.958  71.602  1.00  0.00    -0.393 OA 
HETATM   33  C   UNL     1     -11.108   8.037  70.315  1.00  0.00    -0.224 A  
HETATM   34  C   UNL     1     -10.567   7.642  69.060  1.00  0.00    -0.186 A  
HETATM   35  O   UNL     1     -11.866  11.515  69.790  1.00  0.00    -0.302 OA 
HETATM   36  C   UNL     1     -12.071  11.336  71.198  1.00  0.00    -0.147 C  
BRANCH  33  37
HETATM   37  O   UNL     1     -11.203   7.073  71.278  1.00  0.00    -0.250 OA 
HETATM   38  C   UNL     1     -12.505   6.641  71.665  1.00  0.00    -0.303 C  
ENDBRANCH  33  37
ENDBRANCH  12  23
ENDBRANCH   3   4
ENDBRANCH   2   3
TORSDOF 8
ENDMDL
MODEL       99
REMARK 921   NORMALIZED FREE ENERGY PREDICTED BY IDOCK:   -2.51 KCAL/MOL
REMARK 922        TOTAL FREE ENERGY PREDICTED BY IDOCK:   -4.47 KCAL/MOL
REMARK 923 INTER-LIGAND FREE ENERGY PREDICTED BY IDOCK:   -5.35 KCAL/MOL
REMARK 924 INTRA-LIGAND FREE ENERGY PREDICTED BY IDOCK:    0.87 KCAL/MOL
REMARK 927      BINDING AFFINITY PREDICTED BY RF-SCORE:    0.00 PKD
ROOT
HETATM    1  C   UNL     1     -10.728   5.645  69.870  1.00  0.00    -0.399 C  
HETATM    2  C   UNL     1     -11.341   6.685  68.946  1.00  0.00    -0.128 C  
ENDROOT
BRANCH   2   3
HETATM    3  O   UNL     1     -10.510   6.866  67.821  1.00  0.00    -0.184 OA 
BRANCH   3   4
HETATM    4  C   UNL     1     -10.035   8.064  67.396  1.00  0.00    -0.207 A  
HETATM    5  C   UNL     1     -10.150   9.146  68.335  1.00  0.00    -0.196 A  
HETATM    6  C   UNL     1      -9.901  10.476  67.900  1.00  0.00    -0.160 A  
HETATM    7  C   UNL     1      -8.523   9.571  64.478  1.00  0.00    -0.181 C  
HETATM    8  C   UNL     1      -9.464  10.714  66.565  1.00  0.00    -0.169 A  
HETATM    9  O   UNL     1      -8.251   8.270  64.191  1.00  0.00    -0.159 OA 
HETATM   10  O   UNL     1      -8.292  10.523  63.763  1.00  0.00    -0.165 OA 
HETATM   11  N   UNL     1      -9.045  11.994  66.164  1.00  0.00    -0.352 NA 
HETATM   12  C   UNL     1      -8.670   7.376  65.250  1.00  0.00     0.084 C  
HETATM   13  C   UNL     1      -9.175   9.590  65.786  1.00  0.00    -0.267 A  
HETATM   14  H2  UNL     1      -8.310  12.302  66.799  1.00  0.00     0.000 HD 
HETATM   15  H1  UNL     1      -8.732  12.165  65.208  1.00  0.00     0.000 HD 
HETATM   16  C   UNL     1      -9.388   8.289  66.202  1.00  0.00    -0.254 A  
BRANCH   5  17
HETATM   17  O   UNL     1     -10.381   8.936  69.701  1.00  0.00    -0.201 OA 
BRANCH  17  18
HETATM   18  C   UNL     1      -9.240   9.222  70.538  1.00  0.00    -0.261 C  
HETATM   19  C   UNL     1      -9.171   8.475  71.853  1.00  0.00    -0.326 C  
ENDBRANCH  17  18
ENDBRANCH   5  17
BRANCH   6  20
HETATM   20  O   UNL     1      -9.885  11.607  68.693  1.00  0.00    -0.203 OA 
BRANCH  20  21
HETATM   21  C   UNL     1     -11.017  12.475  68.614  1.00  0.00    -0.255 C  
HETATM   22  C   UNL     1     -11.819  12.341  69.911  1.00  0.00    -0.383 C  
ENDBRANCH  20  21
ENDBRANCH   6  20
BRANCH  12  23
HETATM   23  C   UNL     1      -7.428   6.569  65.841  1.00  0.00    -0.081 C  
HETATM   24  C   UNL     1      -8.228   4.610  67.117  1.00  0.00    -0.105 C  
HETATM   25  C   UNL     1      -7.871   4.315  64.756  1.00  0.00    -0.088 C  
HETATM   26  N   UNL     1      -7.506   5.076  65.935  1.00  0.00    -0.081 NA 
HETATM   27  C   UNL     1      -7.367   4.903  68.332  1.00  0.00    -0.066 C  
HETATM   28  C   UNL     1      -6.930   6.343  68.377  1.00  0.00    -0.080 A  
HETATM   29  C   UNL     1      -6.455   6.825  69.606  1.00  0.00    -0.044 A  
HETATM   30  C   UNL     1      -6.050   8.132  69.674  1.00  0.00    -0.029 A  
HETATM   31  C   UNL     1      -6.059   8.955  68.573  1.00  0.00    -0.046 A  
HETATM   32  O   UNL     1      -5.621  10.206  68.907  1.00  0.00    -0.035 OA 
HETATM   33  C   UNL     1      -6.470   8.504  67.319  1.00  0.00    -0.058 A  
HETATM   34  C   UNL     1      -6.940   7.166  67.206  1.00  0.00    -0.078 A  
HETATM   35  O   UNL     1      -5.608   8.748  70.804  1.00  0.00    -0.027 OA 
HETATM   36  C   UNL     1      -5.494  10.099  70.335  1.00  0.00    -0.055 C  
BRANCH  33  37
HETATM   37  O   UNL     1      -6.454   9.252  66.176  1.00  0.00    -0.067 OA 
HETATM   38  C   UNL     1      -5.197   9.484  65.546  1.00  0.00    -0.042 C  
ENDBRANCH  33  37
ENDBRANCH  12  23
ENDBRANCH   3   4
ENDBRANCH   2   3
TORSDOF 8
ENDMDL
MODEL      100
REMARK 921   NORMALIZED FREE ENERGY PREDICTED BY IDOCK:   -2.50 KCAL/MOL
REMARK 922        TOTAL FREE ENERGY PREDICTED BY IDOCK:   -4.46 KCAL/MOL
REMARK 923 INTER-LIGAND FREE ENERGY PREDICTED BY IDOCK:   -6.89 KCAL/MOL
REMARK 924 INTRA-LIGAND FREE ENERGY PREDICTED BY IDOCK:    2.43 KCAL/MOL
REMARK 927      BINDING AFFINITY PREDICTED BY RF-SCORE:    0.00 PKD
ROOT
HETATM    1  C   UNL     1      -6.854  14.295  69.521  1.00  0.00    -0.110 C  
HETATM    2  C   UNL     1      -6.341  12.914  69.146  1.00  0.00    -0.105 C  
ENDROOT
BRANCH   2   3
HETATM    3  O   UNL     1      -7.098  12.406  68.069  1.00  0.00    -0.081 OA 
BRANCH   3   4
HETATM    4  C   UNL     1      -8.354  11.905  68.176  1.00  0.00    -0.161 A  
HETATM    5  C   UNL     1      -9.389  12.684  67.553  1.00  0.00    -0.188 A  
HETATM    6  C   UNL     1     -10.750  12.369  67.811  1.00  0.00    -0.221 A  
HETATM    7  C   UNL     1     -10.108   9.107  69.648  1.00  0.00    -0.198 C  
HETATM    8  C   UNL     1     -11.075  11.240  68.617  1.00  0.00    -0.232 A  
HETATM    9  O   UNL     1      -8.857   8.576  69.649  1.00  0.00    -0.134 OA 
HETATM   10  O   UNL     1     -11.100   8.595  70.121  1.00  0.00    -0.248 OA 
HETATM   11  N   UNL     1     -12.406  10.806  68.744  1.00  0.00    -0.792 NA 
HETATM   12  C   UNL     1      -7.891   9.452  69.019  1.00  0.00    -0.079 C  
HETATM   13  C   UNL     1     -10.015  10.416  69.006  1.00  0.00    -0.224 A  
HETATM   14  H2  UNL     1     -12.779  10.647  67.808  1.00  0.00     0.000 HD 
HETATM   15  H1  UNL     1     -12.639   9.998  69.320  1.00  0.00     0.000 HD 
HETATM   16  C   UNL     1      -8.687  10.695  68.743  1.00  0.00    -0.157 A  
BRANCH   5  17
HETATM   17  O   UNL     1      -9.116  13.673  66.599  1.00  0.00    -0.238 OA 
BRANCH  17  18
HETATM   18  C   UNL     1      -9.370  15.017  67.059  1.00  0.00    -0.224 C  
HETATM   19  C   UNL     1      -8.988  16.134  66.110  1.00  0.00    -0.372 C  
ENDBRANCH  17  18
ENDBRANCH   5  17
BRANCH   6  20
HETATM   20  O   UNL     1     -11.853  12.962  67.227  1.00  0.00    -0.362 OA 
BRANCH  20  21
HETATM   21  C   UNL     1     -12.043  12.751  65.826  1.00  0.00    -0.448 C  
HETATM   22  C   UNL     1     -12.628  14.030  65.222  1.00  0.00    -0.495 C  
ENDBRANCH  20  21
ENDBRANCH   6  20
BRANCH  12  23
HETATM   23  C   UNL     1      -7.216   8.747  67.758  1.00  0.00    -0.084 C  
HETATM   24  C   UNL     1      -8.313   9.508  65.679  1.00  0.00    -0.126 C  
HETATM   25  C   UNL     1      -6.470  10.822  66.496  1.00  0.00    -0.119 C  
HETATM   26  N   UNL     1      -7.088   9.511  66.476  1.00  0.00    -0.085 NA 
HETATM   27  C   UNL     1      -8.507   8.107  65.130  1.00  0.00    -0.134 C  
HETATM   28  C   UNL     1      -8.449   7.065  66.215  1.00  0.00    -0.134 A  
HETATM   29  C   UNL     1      -8.970   5.798  65.909  1.00  0.00    -0.158 A  
HETATM   30  C   UNL     1      -8.927   4.832  66.879  1.00  0.00    -0.111 A  
HETATM   31  C   UNL     1      -8.358   5.059  68.109  1.00  0.00    -0.096 A  
HETATM   32  O   UNL     1      -8.455   3.945  68.895  1.00  0.00    -0.075 OA 
HETATM   33  C   UNL     1      -7.778   6.284  68.438  1.00  0.00    -0.104 A  
HETATM   34  C   UNL     1      -7.834   7.334  67.480  1.00  0.00    -0.112 A  
HETATM   35  O   UNL     1      -9.431   3.575  66.742  1.00  0.00    -0.196 OA 
HETATM   36  C   UNL     1      -9.266   3.083  68.079  1.00  0.00    -0.198 C  
BRANCH  33  37
HETATM   37  O   UNL     1      -7.150   6.559  69.620  1.00  0.00    -0.068 OA 
HETATM   38  C   UNL     1      -5.828   6.060  69.806  1.00  0.00    -0.021 C  
ENDBRANCH  33  37
ENDBRANCH  12  23
ENDBRANCH   3   4
ENDBRANCH   2   3
TORSDOF 8
ENDMDL
MODEL      101
REMARK 921   NORMALIZED FREE ENERGY PREDICTED BY IDOCK:   -2.46 KCAL/MOL
REMARK 922        TOTAL FREE ENERGY PREDICTED BY IDOCK:   -4.40 KCAL/MOL
REMARK 923 INTER-LIGAND FREE ENERGY PREDICTED BY IDOCK:   -5.77 KCAL/MOL
REMARK 924 INTRA-LIGAND FREE ENERGY PREDICTED BY IDOCK:    1.38 KCAL/MOL
REMARK 927      BINDING AFFINITY PREDICTED BY RF-SCORE:    0.00 PKD
ROOT
HETATM    1  C   UNL     1      -9.552   2.532  70.740  1.00  0.00    -0.175 C  
HETATM    2  C   UNL     1      -9.460   3.207  69.381  1.00  0.00    -0.119 C  
ENDROOT
BRANCH   2   3
HETATM    3  O   UNL     1      -9.825   4.564  69.502  1.00  0.00    -0.204 OA 
BRANCH   3   4
HETATM    4  C   UNL     1      -9.092   5.605  69.033  1.00  0.00    -0.111 A  
HETATM    5  C   UNL     1      -9.586   6.222  67.832  1.00  0.00    -0.118 A  
HETATM    6  C   UNL     1      -8.769   7.156  67.141  1.00  0.00    -0.121 A  
HETATM    7  C   UNL     1      -6.079   7.449  69.807  1.00  0.00    -0.027 C  
HETATM    8  C   UNL     1      -7.507   7.531  67.685  1.00  0.00    -0.104 A  
HETATM    9  O   UNL     1      -6.287   6.890  71.029  1.00  0.00    -0.039 OA 
HETATM   10  O   UNL     1      -5.125   8.124  69.484  1.00  0.00    -0.025 OA 
HETATM   11  N   UNL     1      -6.761   8.577  67.115  1.00  0.00    -0.062 NA 
HETATM   12  C   UNL     1      -7.516   6.125  71.079  1.00  0.00    -0.085 C  
HETATM   13  C   UNL     1      -7.199   7.046  68.959  1.00  0.00    -0.091 A  
HETATM   14  H2  UNL     1      -7.352   9.407  67.080  1.00  0.00     0.000 HD 
HETATM   15  H1  UNL     1      -5.857   8.846  67.504  1.00  0.00     0.000 HD 
HETATM   16  C   UNL     1      -7.994   6.156  69.657  1.00  0.00    -0.107 A  
BRANCH   5  17
HETATM   17  O   UNL     1     -10.896   6.033  67.374  1.00  0.00    -0.280 OA 
BRANCH  17  18
HETATM   18  C   UNL     1     -10.986   5.258  66.159  1.00  0.00     0.042 C  
HETATM   19  C   UNL     1      -9.901   4.225  65.942  1.00  0.00    -0.230 C  
ENDBRANCH  17  18
ENDBRANCH   5  17
BRANCH   6  20
HETATM   20  O   UNL     1      -9.129   7.894  66.030  1.00  0.00    -0.174 OA 
BRANCH  20  21
HETATM   21  C   UNL     1     -10.033   8.982  66.232  1.00  0.00    -0.281 C  
HETATM   22  C   UNL     1      -9.798  10.015  65.128  1.00  0.00    -0.388 C  
ENDBRANCH  20  21
ENDBRANCH   6  20
BRANCH  12  23
HETATM   23  C   UNL     1      -8.512   6.715  72.176  1.00  0.00    -0.112 C  
HETATM   24  C   UNL     1     -10.372   5.136  72.561  1.00  0.00    -0.204 C  
HETATM   25  C   UNL     1      -8.382   4.834  73.879  1.00  0.00    -0.104 C  
HETATM   26  N   UNL     1      -9.188   5.777  73.128  1.00  0.00    -0.137 NA 
HETATM   27  C   UNL     1     -11.452   6.193  72.425  1.00  0.00    -0.349 C  
HETATM   28  C   UNL     1     -10.962   7.405  71.677  1.00  0.00    -0.252 A  
HETATM   29  C   UNL     1     -11.938   8.276  71.169  1.00  0.00    -0.290 A  
HETATM   30  C   UNL     1     -11.518   9.386  70.486  1.00  0.00    -0.262 A  
HETATM   31  C   UNL     1     -10.185   9.683  70.327  1.00  0.00    -0.277 A  
HETATM   32  O   UNL     1     -10.034  10.831  69.601  1.00  0.00    -0.130 OA 
HETATM   33  C   UNL     1      -9.182   8.876  70.863  1.00  0.00    -0.231 A  
HETATM   34  C   UNL     1      -9.566   7.688  71.545  1.00  0.00    -0.179 A  
HETATM   35  O   UNL     1     -12.346  10.294  69.902  1.00  0.00    -0.163 OA 
HETATM   36  C   UNL     1     -11.389  11.112  69.213  1.00  0.00    -0.281 C  
BRANCH  33  37
HETATM   37  O   UNL     1      -7.843   9.140  70.786  1.00  0.00    -0.125 OA 
HETATM   38  C   UNL     1      -7.438  10.372  70.194  1.00  0.00     0.021 C  
ENDBRANCH  33  37
ENDBRANCH  12  23
ENDBRANCH   3   4
ENDBRANCH   2   3
TORSDOF 8
ENDMDL
MODEL      102
REMARK 921   NORMALIZED FREE ENERGY PREDICTED BY IDOCK:   -2.46 KCAL/MOL
REMARK 922        TOTAL FREE ENERGY PREDICTED BY IDOCK:   -4.39 KCAL/MOL
REMARK 923 INTER-LIGAND FREE ENERGY PREDICTED BY IDOCK:   -4.58 KCAL/MOL
REMARK 924 INTRA-LIGAND FREE ENERGY PREDICTED BY IDOCK:    0.19 KCAL/MOL
REMARK 927      BINDING AFFINITY PREDICTED BY RF-SCORE:    0.00 PKD
ROOT
HETATM    1  C   UNL     1      -9.405   1.756  68.516  1.00  0.00    -0.241 C  
HETATM    2  C   UNL     1      -9.716   2.448  69.832  1.00  0.00     0.124 C  
ENDROOT
BRANCH   2   3
HETATM    3  O   UNL     1      -8.926   3.610  69.954  1.00  0.00    -0.082 OA 
BRANCH   3   4
HETATM    4  C   UNL     1      -9.370   4.873  69.734  1.00  0.00    -0.138 A  
HETATM    5  C   UNL     1      -9.758   5.608  70.906  1.00  0.00    -0.173 A  
HETATM    6  C   UNL     1     -10.451   6.840  70.759  1.00  0.00    -0.214 A  
HETATM    7  C   UNL     1     -10.001   7.154  67.000  1.00  0.00    -0.217 C  
HETATM    8  C   UNL     1     -10.683   7.371  69.457  1.00  0.00    -0.224 A  
HETATM    9  O   UNL     1      -9.160   6.303  66.355  1.00  0.00    -0.146 OA 
HETATM   10  O   UNL     1     -10.588   8.091  66.502  1.00  0.00    -0.187 OA 
HETATM   11  N   UNL     1     -11.208   8.664  69.291  1.00  0.00    -0.417 NA 
HETATM   12  C   UNL     1      -8.638   5.278  67.235  1.00  0.00    -0.105 C  
HETATM   13  C   UNL     1     -10.086   6.699  68.386  1.00  0.00    -0.163 A  
HETATM   14  H2  UNL     1     -10.612   9.317  69.800  1.00  0.00     0.000 HD 
HETATM   15  H1  UNL     1     -11.373   9.045  68.359  1.00  0.00     0.000 HD 
HETATM   16  C   UNL     1      -9.388   5.513  68.514  1.00  0.00    -0.143 A  
BRANCH   5  17
HETATM   17  O   UNL     1      -9.376   5.223  72.197  1.00  0.00    -0.139 OA 
BRANCH  17  18
HETATM   18  C   UNL     1     -10.389   4.485  72.912  1.00  0.00    -0.184 C  
HETATM   19  C   UNL     1     -10.578   4.847  74.371  1.00  0.00    -0.268 C  
ENDBRANCH  17  18
ENDBRANCH   5  17
BRANCH   6  20
HETATM   20  O   UNL     1     -10.815   7.701  71.776  1.00  0.00    -0.224 OA 
BRANCH  20  21
HETATM   21  C   UNL     1     -12.140   7.576  72.296  1.00  0.00    -0.230 C  
HETATM   22  C   UNL     1     -12.752   8.975  72.399  1.00  0.00    -0.433 C  
ENDBRANCH  20  21
ENDBRANCH   6  20
BRANCH  12  23
HETATM   23  C   UNL     1      -7.047   5.354  67.321  1.00  0.00    -0.070 C  
HETATM   24  C   UNL     1      -6.143   3.200  68.125  1.00  0.00    -0.028 C  
HETATM   25  C   UNL     1      -6.475   3.437  65.754  1.00  0.00    -0.033 C  
HETATM   26  N   UNL     1      -6.240   4.132  67.004  1.00  0.00    -0.034 NA 
HETATM   27  C   UNL     1      -5.255   3.833  69.181  1.00  0.00    -0.011 C  
HETATM   28  C   UNL     1      -5.715   5.220  69.543  1.00  0.00    -0.016 A  
HETATM   29  C   UNL     1      -5.221   5.761  70.740  1.00  0.00    -0.009 A  
HETATM   30  C   UNL     1      -5.623   7.022  71.092  1.00  0.00    -0.028 A  
HETATM   31  C   UNL     1      -6.450   7.773  70.290  1.00  0.00    -0.037 A  
HETATM   32  O   UNL     1      -6.708   8.984  70.870  1.00  0.00    -0.063 OA 
HETATM   33  C   UNL     1      -6.919   7.299  69.066  1.00  0.00    -0.077 A  
HETATM   34  C   UNL     1      -6.565   5.978  68.675  1.00  0.00    -0.058 A  
HETATM   35  O   UNL     1      -5.263   7.657  72.240  1.00  0.00    -0.036 OA 
HETATM   36  C   UNL     1      -6.085   8.830  72.157  1.00  0.00    -0.075 C  
BRANCH  33  37
HETATM   37  O   UNL     1      -7.699   8.012  68.199  1.00  0.00    -0.112 OA 
HETATM   38  C   UNL     1      -7.189   9.246  67.702  1.00  0.00    -0.083 C  
ENDBRANCH  33  37
ENDBRANCH  12  23
ENDBRANCH   3   4
ENDBRANCH   2   3
TORSDOF 8
ENDMDL
MODEL      103
REMARK 921   NORMALIZED FREE ENERGY PREDICTED BY IDOCK:   -2.43 KCAL/MOL
REMARK 922        TOTAL FREE ENERGY PREDICTED BY IDOCK:   -4.35 KCAL/MOL
REMARK 923 INTER-LIGAND FREE ENERGY PREDICTED BY IDOCK:   -5.28 KCAL/MOL
REMARK 924 INTRA-LIGAND FREE ENERGY PREDICTED BY IDOCK:    0.93 KCAL/MOL
REMARK 927      BINDING AFFINITY PREDICTED BY RF-SCORE:    0.00 PKD
ROOT
HETATM    1  C   UNL     1      -8.948   5.216  65.049  1.00  0.00    -0.109 C  
HETATM    2  C   UNL     1      -8.638   5.527  66.504  1.00  0.00    -0.118 C  
ENDROOT
BRANCH   2   3
HETATM    3  O   UNL     1      -8.160   6.849  66.612  1.00  0.00    -0.106 OA 
BRANCH   3   4
HETATM    4  C   UNL     1      -8.685   7.796  67.429  1.00  0.00    -0.128 A  
HETATM    5  C   UNL     1      -8.190   7.797  68.779  1.00  0.00    -0.128 A  
HETATM    6  C   UNL     1      -8.844   8.588  69.761  1.00  0.00    -0.137 A  
HETATM    7  C   UNL     1     -11.118  10.471  67.370  1.00  0.00    -0.252 C  
HETATM    8  C   UNL     1      -9.929   9.431  69.384  1.00  0.00    -0.183 A  
HETATM    9  O   UNL     1     -10.917  10.359  66.030  1.00  0.00     0.037 OA 
HETATM   10  O   UNL     1     -11.925  11.196  67.912  1.00  0.00    -0.624 OA 
HETATM   11  N   UNL     1     -10.478  10.349  70.296  1.00  0.00    -0.442 NA 
HETATM   12  C   UNL     1      -9.891   9.388  65.710  1.00  0.00    -0.275 C  
HETATM   13  C   UNL     1     -10.207   9.529  68.017  1.00  0.00    -0.244 A  
HETATM   14  H2  UNL     1      -9.723  10.939  70.645  1.00  0.00     0.000 HD 
HETATM   15  H1  UNL     1     -11.254  10.952  70.026  1.00  0.00     0.000 HD 
HETATM   16  C   UNL     1      -9.564   8.785  67.046  1.00  0.00    -0.236 A  
BRANCH   5  17
HETATM   17  O   UNL     1      -7.008   7.142  69.147  1.00  0.00    -0.069 OA 
BRANCH  17  18
HETATM   18  C   UNL     1      -7.222   5.866  69.788  1.00  0.00    -0.070 C  
HETATM   19  C   UNL     1      -6.418   5.604  71.044  1.00  0.00    -0.036 C  
ENDBRANCH  17  18
ENDBRANCH   5  17
BRANCH   6  20
HETATM   20  O   UNL     1      -8.443   8.763  71.071  1.00  0.00    -0.145 OA 
BRANCH  20  21
HETATM   21  C   UNL     1      -7.095   9.183  71.291  1.00  0.00    -0.045 C  
HETATM   22  C   UNL     1      -6.836  10.434  70.449  1.00  0.00    -0.073 C  
ENDBRANCH  20  21
ENDBRANCH   6  20
BRANCH  12  23
HETATM   23  C   UNL     1      -8.683  10.071  64.924  1.00  0.00    -0.182 C  
HETATM   24  C   UNL     1      -6.830   8.459  64.661  1.00  0.00    -0.069 C  
HETATM   25  C   UNL     1      -8.532   8.467  62.960  1.00  0.00    -0.036 C  
HETATM   26  N   UNL     1      -7.862   9.242  63.985  1.00  0.00    -0.119 NA 
HETATM   27  C   UNL     1      -5.767   9.420  65.158  1.00  0.00    -0.058 C  
HETATM   28  C   UNL     1      -6.358  10.537  65.977  1.00  0.00    -0.124 A  
HETATM   29  C   UNL     1      -5.476  11.268  66.787  1.00  0.00    -0.115 A  
HETATM   30  C   UNL     1      -5.988  12.290  67.541  1.00  0.00    -0.136 A  
HETATM   31  C   UNL     1      -7.317  12.638  67.489  1.00  0.00    -0.151 A  
HETATM   32  O   UNL     1      -7.575  13.676  68.340  1.00  0.00    -0.117 OA 
HETATM   33  C   UNL     1      -8.220  11.977  66.656  1.00  0.00    -0.056 A  
HETATM   34  C   UNL     1      -7.745  10.880  65.885  1.00  0.00    -0.073 A  
HETATM   35  O   UNL     1      -5.265  13.054  68.403  1.00  0.00    -0.061 OA 
HETATM   36  C   UNL     1      -6.314  13.818  69.016  1.00  0.00    -0.100 C  
BRANCH  33  37
HETATM   37  O   UNL     1      -9.539  12.305  66.518  1.00  0.00    -0.226 OA 
HETATM   38  C   UNL     1      -9.858  13.610  66.042  1.00  0.00    -0.276 C  
ENDBRANCH  33  37
ENDBRANCH  12  23
ENDBRANCH   3   4
ENDBRANCH   2   3
TORSDOF 8
ENDMDL
MODEL      104
REMARK 921   NORMALIZED FREE ENERGY PREDICTED BY IDOCK:   -2.41 KCAL/MOL
REMARK 922        TOTAL FREE ENERGY PREDICTED BY IDOCK:   -4.32 KCAL/MOL
REMARK 923 INTER-LIGAND FREE ENERGY PREDICTED BY IDOCK:   -4.74 KCAL/MOL
REMARK 924 INTRA-LIGAND FREE ENERGY PREDICTED BY IDOCK:    0.42 KCAL/MOL
REMARK 927      BINDING AFFINITY PREDICTED BY RF-SCORE:    0.00 PKD
ROOT
HETATM    1  C   UNL     1      -8.504   7.508  64.661  1.00  0.00     0.101 C  
HETATM    2  C   UNL     1      -7.327   8.410  64.993  1.00  0.00    -0.086 C  
ENDROOT
BRANCH   2   3
HETATM    3  O   UNL     1      -7.433   8.852  66.329  1.00  0.00    -0.089 OA 
BRANCH   3   4
HETATM    4  C   UNL     1      -7.936   8.113  67.349  1.00  0.00    -0.117 A  
HETATM    5  C   UNL     1      -6.975   7.344  68.092  1.00  0.00    -0.075 A  
HETATM    6  C   UNL     1      -7.429   6.366  69.017  1.00  0.00    -0.095 A  
HETATM    7  C   UNL     1     -11.102   7.327  68.908  1.00  0.00     0.070 C  
HETATM    8  C   UNL     1      -8.825   6.214  69.258  1.00  0.00    -0.124 A  
HETATM    9  O   UNL     1     -11.475   8.469  68.271  1.00  0.00     0.690 OA 
HETATM   10  O   UNL     1     -11.832   6.591  69.537  1.00  0.00    -0.266 OA 
HETATM   11  N   UNL     1      -9.290   5.381  70.291  1.00  0.00    -0.149 NA 
HETATM   12  C   UNL     1     -10.364   9.105  67.593  1.00  0.00    -0.255 C  
HETATM   13  C   UNL     1      -9.675   7.145  68.653  1.00  0.00    -0.141 A  
HETATM   14  H2  UNL     1      -8.847   5.676  71.161  1.00  0.00     0.000 HD 
HETATM   15  H1  UNL     1     -10.289   5.272  70.463  1.00  0.00     0.000 HD 
HETATM   16  C   UNL     1      -9.247   8.117  67.769  1.00  0.00    -0.143 A  
BRANCH   5  17
HETATM   17  O   UNL     1      -5.599   7.600  68.033  1.00  0.00    -0.029 OA 
BRANCH  17  18
HETATM   18  C   UNL     1      -5.179   8.731  68.826  1.00  0.00    -0.033 C  
HETATM   19  C   UNL     1      -6.234   9.780  69.109  1.00  0.00    -0.040 C  
ENDBRANCH  17  18
ENDBRANCH   5  17
BRANCH   6  20
HETATM   20  O   UNL     1      -6.641   5.612  69.864  1.00  0.00    -0.042 OA 
BRANCH  20  21
HETATM   21  C   UNL     1      -6.317   6.180  71.135  1.00  0.00    -0.044 C  
HETATM   22  C   UNL     1      -5.279   5.283  71.814  1.00  0.00    -0.005 C  
ENDBRANCH  20  21
ENDBRANCH   6  20
BRANCH  12  23
HETATM   23  C   UNL     1     -10.112  10.572  68.163  1.00  0.00    -0.158 C  
HETATM   24  C   UNL     1     -11.737  11.072  69.955  1.00  0.00    -0.346 C  
HETATM   25  C   UNL     1      -9.691   9.983  70.598  1.00  0.00     0.255 C  
HETATM   26  N   UNL     1     -10.335  10.838  69.620  1.00  0.00    -0.161 NA 
HETATM   27  C   UNL     1     -12.134  12.419  69.380  1.00  0.00    -0.237 C  
HETATM   28  C   UNL     1     -11.800  12.526  67.916  1.00  0.00    -0.383 A  
HETATM   29  C   UNL     1     -12.433  13.548  67.192  1.00  0.00    -0.056 A  
HETATM   30  C   UNL     1     -12.146  13.668  65.859  1.00  0.00    -0.439 A  
HETATM   31  C   UNL     1     -11.235  12.849  65.234  1.00  0.00    -0.288 A  
HETATM   32  O   UNL     1     -11.140  13.164  63.907  1.00  0.00    -0.388 OA 
HETATM   33  C   UNL     1     -10.540  11.857  65.924  1.00  0.00    -0.266 A  
HETATM   34  C   UNL     1     -10.835  11.665  67.303  1.00  0.00    -0.302 A  
HETATM   35  O   UNL     1     -12.713  14.580  65.023  1.00  0.00    -0.525 OA 
HETATM   36  C   UNL     1     -12.184  14.142  63.763  1.00  0.00    -0.139 C  
BRANCH  33  37
HETATM   37  O   UNL     1      -9.587  11.046  65.377  1.00  0.00    -0.203 OA 
HETATM   38  C   UNL     1      -9.957  10.233  64.267  1.00  0.00    -0.223 C  
ENDBRANCH  33  37
ENDBRANCH  12  23
ENDBRANCH   3   4
ENDBRANCH   2   3
TORSDOF 8
ENDMDL
MODEL      105
REMARK 921   NORMALIZED FREE ENERGY PREDICTED BY IDOCK:   -2.38 KCAL/MOL
REMARK 922        TOTAL FREE ENERGY PREDICTED BY IDOCK:   -4.27 KCAL/MOL
REMARK 923 INTER-LIGAND FREE ENERGY PREDICTED BY IDOCK:   -5.21 KCAL/MOL
REMARK 924 INTRA-LIGAND FREE ENERGY PREDICTED BY IDOCK:    0.93 KCAL/MOL
REMARK 927      BINDING AFFINITY PREDICTED BY RF-SCORE:    0.00 PKD
ROOT
HETATM    1  C   UNL     1      -9.169   9.550  62.424  1.00  0.00    -0.185 C  
HETATM    2  C   UNL     1      -9.261  10.983  62.922  1.00  0.00    -0.345 C  
ENDROOT
BRANCH   2   3
HETATM    3  O   UNL     1      -8.641  11.084  64.185  1.00  0.00    -0.016 OA 
BRANCH   3   4
HETATM    4  C   UNL     1      -8.461  10.049  65.043  1.00  0.00    -0.160 A  
HETATM    5  C   UNL     1      -7.122   9.534  65.125  1.00  0.00    -0.104 A  
HETATM    6  C   UNL     1      -6.885   8.312  65.810  1.00  0.00    -0.063 A  
HETATM    7  C   UNL     1     -10.357   7.966  67.311  1.00  0.00    -0.307 C  
HETATM    8  C   UNL     1      -7.959   7.653  66.474  1.00  0.00    -0.106 A  
HETATM    9  O   UNL     1     -11.228   9.007  67.226  1.00  0.00     0.175 OA 
HETATM   10  O   UNL     1     -10.544   6.926  67.905  1.00  0.00    -0.196 OA 
HETATM   11  N   UNL     1      -7.719   6.542  67.300  1.00  0.00    -0.099 NA 
HETATM   12  C   UNL     1     -10.705  10.093  66.423  1.00  0.00    -0.007 C  
HETATM   13  C   UNL     1      -9.181   8.330  66.523  1.00  0.00    -0.236 A  
HETATM   14  H2  UNL     1      -7.029   6.810  68.001  1.00  0.00     0.000 HD 
HETATM   15  H1  UNL     1      -8.489   6.070  67.776  1.00  0.00     0.000 HD 
HETATM   16  C   UNL     1      -9.422   9.531  65.883  1.00  0.00    -0.307 A  
BRANCH   5  17
HETATM   17  O   UNL     1      -6.011  10.250  64.660  1.00  0.00    -0.120 OA 
BRANCH  17  18
HETATM   18  C   UNL     1      -5.595   9.886  63.327  1.00  0.00    -0.100 C  
HETATM   19  C   UNL     1      -5.178  11.025  62.420  1.00  0.00    -0.193 C  
ENDBRANCH  17  18
ENDBRANCH   5  17
BRANCH   6  20
HETATM   20  O   UNL     1      -5.654   7.734  66.050  1.00  0.00    -0.031 OA 
BRANCH  20  21
HETATM   21  C   UNL     1      -5.356   6.520  65.356  1.00  0.00    -0.021 C  
HETATM   22  C   UNL     1      -5.954   6.609  63.950  1.00  0.00    -0.031 C  
ENDBRANCH  20  21
ENDBRANCH   6  20
BRANCH  12  23
HETATM   23  C   UNL     1     -10.588  11.433  67.281  1.00  0.00    -0.227 C  
HETATM   24  C   UNL     1      -9.910  13.309  65.825  1.00  0.00    -0.197 C  
HETATM   25  C   UNL     1     -12.266  12.860  66.015  1.00  0.00    -0.366 C  
HETATM   26  N   UNL     1     -10.970  12.738  66.652  1.00  0.00    -0.264 NA 
HETATM   27  C   UNL     1      -8.801  13.779  66.748  1.00  0.00    -0.156 C  
HETATM   28  C   UNL     1      -8.358  12.692  67.691  1.00  0.00    -0.174 A  
HETATM   29  C   UNL     1      -7.120  12.869  68.328  1.00  0.00    -0.102 A  
HETATM   30  C   UNL     1      -6.695  11.896  69.193  1.00  0.00    -0.105 A  
HETATM   31  C   UNL     1      -7.459  10.789  69.477  1.00  0.00    -0.110 A  
HETATM   32  O   UNL     1      -6.807   9.969  70.354  1.00  0.00    -0.129 OA 
HETATM   33  C   UNL     1      -8.720  10.599  68.911  1.00  0.00    -0.161 A  
HETATM   34  C   UNL     1      -9.189  11.561  67.974  1.00  0.00    -0.175 A  
HETATM   35  O   UNL     1      -5.502  11.910  69.847  1.00  0.00    -0.077 OA 
HETATM   36  C   UNL     1      -5.523  10.608  70.451  1.00  0.00    -0.074 C  
BRANCH  33  37
HETATM   37  O   UNL     1      -9.551   9.552  69.190  1.00  0.00    -0.159 OA 
HETATM   38  C   UNL     1     -10.267   9.576  70.423  1.00  0.00    -0.279 C  
ENDBRANCH  33  37
ENDBRANCH  12  23
ENDBRANCH   3   4
ENDBRANCH   2   3
TORSDOF 8
ENDMDL
MODEL      106
REMARK 921   NORMALIZED FREE ENERGY PREDICTED BY IDOCK:   -2.28 KCAL/MOL
REMARK 922        TOTAL FREE ENERGY PREDICTED BY IDOCK:   -4.13 KCAL/MOL
REMARK 923 INTER-LIGAND FREE ENERGY PREDICTED BY IDOCK:   -6.54 KCAL/MOL
REMARK 924 INTRA-LIGAND FREE ENERGY PREDICTED BY IDOCK:    2.40 KCAL/MOL
REMARK 927      BINDING AFFINITY PREDICTED BY RF-SCORE:    0.00 PKD
ROOT
HETATM    1  C   UNL     1      -9.002   9.233  62.330  1.00  0.00    -0.216 C  
HETATM    2  C   UNL     1      -8.240  10.049  63.361  1.00  0.00    -0.164 C  
ENDROOT
BRANCH   2   3
HETATM    3  O   UNL     1      -8.543   9.578  64.655  1.00  0.00    -0.163 OA 
BRANCH   3   4
HETATM    4  C   UNL     1      -8.560  10.348  65.773  1.00  0.00    -0.164 A  
HETATM    5  C   UNL     1      -9.606  11.332  65.833  1.00  0.00    -0.221 A  
HETATM    6  C   UNL     1      -9.565  12.331  66.842  1.00  0.00    -0.213 A  
HETATM    7  C   UNL     1      -6.706  10.827  68.839  1.00  0.00    -0.064 C  
HETATM    8  C   UNL     1      -8.537  12.301  67.828  1.00  0.00    -0.170 A  
HETATM    9  O   UNL     1      -6.266   9.576  68.538  1.00  0.00    -0.047 OA 
HETATM   10  O   UNL     1      -6.323  11.514  69.762  1.00  0.00    -0.119 OA 
HETATM   11  N   UNL     1      -8.574  13.169  68.932  1.00  0.00    -0.361 NA 
HETATM   12  C   UNL     1      -6.912   9.039  67.358  1.00  0.00    -0.078 C  
HETATM   13  C   UNL     1      -7.688  11.189  67.820  1.00  0.00    -0.112 A  
HETATM   14  H2  UNL     1      -9.470  13.047  69.403  1.00  0.00     0.000 HD 
HETATM   15  H1  UNL     1      -7.838  13.147  69.639  1.00  0.00     0.000 HD 
HETATM   16  C   UNL     1      -7.730  10.196  66.861  1.00  0.00    -0.103 A  
BRANCH   5  17
HETATM   17  O   UNL     1     -10.738  11.279  65.010  1.00  0.00    -0.293 OA 
BRANCH  17  18
HETATM   18  C   UNL     1     -10.815  12.355  64.051  1.00  0.00    -0.397 C  
HETATM   19  C   UNL     1     -12.079  12.422  63.219  1.00  0.00    -0.519 C  
ENDBRANCH  17  18
ENDBRANCH   5  17
BRANCH   6  20
HETATM   20  O   UNL     1     -10.531  13.289  67.086  1.00  0.00    -0.246 OA 
BRANCH  20  21
HETATM   21  C   UNL     1     -10.338  14.576  66.496  1.00  0.00    -0.283 C  
HETATM   22  C   UNL     1     -11.109  15.606  67.325  1.00  0.00    -0.238 C  
ENDBRANCH  20  21
ENDBRANCH   6  20
BRANCH  12  23
HETATM   23  C   UNL     1      -7.710   7.702  67.702  1.00  0.00    -0.122 C  
HETATM   24  C   UNL     1      -9.980   7.801  66.733  1.00  0.00    -0.261 C  
HETATM   25  C   UNL     1      -8.225   6.929  65.337  1.00  0.00    -0.134 C  
HETATM   26  N   UNL     1      -8.674   7.148  66.699  1.00  0.00    -0.123 NA 
HETATM   27  C   UNL     1     -10.674   7.387  68.018  1.00  0.00    -0.191 C  
HETATM   28  C   UNL     1      -9.808   7.626  69.226  1.00  0.00    -0.168 A  
HETATM   29  C   UNL     1     -10.448   7.635  70.475  1.00  0.00    -0.221 A  
HETATM   30  C   UNL     1      -9.683   7.849  71.591  1.00  0.00    -0.163 A  
HETATM   31  C   UNL     1      -8.319   8.010  71.519  1.00  0.00    -0.116 A  
HETATM   32  O   UNL     1      -7.795   8.220  72.763  1.00  0.00    -0.138 OA 
HETATM   33  C   UNL     1      -7.633   7.952  70.306  1.00  0.00    -0.086 A  
HETATM   34  C   UNL     1      -8.389   7.774  69.113  1.00  0.00    -0.134 A  
HETATM   35  O   UNL     1     -10.168   7.928  72.859  1.00  0.00    -0.283 OA 
HETATM   36  C   UNL     1      -8.984   8.321  73.566  1.00  0.00    -0.167 C  
BRANCH  33  37
HETATM   37  O   UNL     1      -6.278   8.051  70.170  1.00  0.00    -0.032 OA 
HETATM   38  C   UNL     1      -5.465   7.113  70.870  1.00  0.00    -0.027 C  
ENDBRANCH  33  37
ENDBRANCH  12  23
ENDBRANCH   3   4
ENDBRANCH   2   3
TORSDOF 8
ENDMDL
MODEL      107
REMARK 921   NORMALIZED FREE ENERGY PREDICTED BY IDOCK:   -2.25 KCAL/MOL
REMARK 922        TOTAL FREE ENERGY PREDICTED BY IDOCK:   -4.08 KCAL/MOL
REMARK 923 INTER-LIGAND FREE ENERGY PREDICTED BY IDOCK:   -5.84 KCAL/MOL
REMARK 924 INTRA-LIGAND FREE ENERGY PREDICTED BY IDOCK:    1.76 KCAL/MOL
REMARK 927      BINDING AFFINITY PREDICTED BY RF-SCORE:    0.00 PKD
ROOT
HETATM    1  C   UNL     1     -11.753  15.493  70.905  1.00  0.00    -0.413 C  
HETATM    2  C   UNL     1     -10.542  15.326  70.001  1.00  0.00    -0.270 C  
ENDROOT
BRANCH   2   3
HETATM    3  O   UNL     1     -10.828  14.373  69.001  1.00  0.00    -0.241 OA 
BRANCH   3   4
HETATM    4  C   UNL     1     -10.036  13.315  68.695  1.00  0.00    -0.146 A  
HETATM    5  C   UNL     1     -10.703  12.044  68.613  1.00  0.00    -0.236 A  
HETATM    6  C   UNL     1      -9.929  10.855  68.533  1.00  0.00    -0.182 A  
HETATM    7  C   UNL     1      -6.568  12.548  68.019  1.00  0.00    -0.086 C  
HETATM    8  C   UNL     1      -8.509  10.938  68.453  1.00  0.00    -0.141 A  
HETATM    9  O   UNL     1      -6.524  13.885  67.777  1.00  0.00    -0.151 OA 
HETATM   10  O   UNL     1      -5.621  11.790  68.012  1.00  0.00    -0.043 OA 
HETATM   11  N   UNL     1      -7.735   9.793  68.198  1.00  0.00    -0.082 NA 
HETATM   12  C   UNL     1      -7.829  14.503  67.883  1.00  0.00    -0.147 C  
HETATM   13  C   UNL     1      -7.958  12.217  68.324  1.00  0.00    -0.163 A  
HETATM   14  H2  UNL     1      -8.078   9.362  67.339  1.00  0.00     0.000 HD 
HETATM   15  H1  UNL     1      -6.718   9.852  68.140  1.00  0.00     0.000 HD 
HETATM   16  C   UNL     1      -8.698  13.383  68.376  1.00  0.00    -0.134 A  
BRANCH   5  17
HETATM   17  O   UNL     1     -12.093  11.930  68.487  1.00  0.00    -0.412 OA 
BRANCH  17  18
HETATM   18  C   UNL     1     -12.730  11.275  69.604  1.00  0.00     0.174 C  
HETATM   19  C   UNL     1     -12.522  11.911  70.963  1.00  0.00    -0.390 C  
ENDBRANCH  17  18
ENDBRANCH   5  17
BRANCH   6  20
HETATM   20  O   UNL     1     -10.414   9.572  68.364  1.00  0.00    -0.208 OA 
BRANCH  20  21
HETATM   21  C   UNL     1     -10.629   9.127  67.023  1.00  0.00    -0.195 C  
HETATM   22  C   UNL     1     -10.353   7.622  66.965  1.00  0.00    -0.400 C  
ENDBRANCH  20  21
ENDBRANCH   6  20
BRANCH  12  23
HETATM   23  C   UNL     1      -8.256  15.179  66.503  1.00  0.00     0.075 C  
HETATM   24  C   UNL     1      -9.590  17.212  66.937  1.00  0.00    -0.262 C  
HETATM   25  C   UNL     1      -7.199  17.465  66.838  1.00  0.00    -0.196 C  
HETATM   26  N   UNL     1      -8.336  16.672  66.415  1.00  0.00    -0.292 NA 
HETATM   27  C   UNL     1     -10.697  16.834  65.971  1.00  0.00    -0.139 C  
HETATM   28  C   UNL     1     -10.711  15.356  65.682  1.00  0.00    -0.381 A  
HETATM   29  C   UNL     1     -11.881  14.830  65.114  1.00  0.00    -0.313 A  
HETATM   30  C   UNL     1     -11.918  13.489  64.841  1.00  0.00    -0.379 A  
HETATM   31  C   UNL     1     -10.838  12.669  65.067  1.00  0.00    -0.290 A  
HETATM   32  O   UNL     1     -11.135  11.379  64.724  1.00  0.00    -0.275 OA 
HETATM   33  C   UNL     1      -9.636  13.158  65.578  1.00  0.00     0.056 A  
HETATM   34  C   UNL     1      -9.561  14.537  65.918  1.00  0.00    -0.281 A  
HETATM   35  O   UNL     1     -12.996  12.832  64.332  1.00  0.00    -0.723 OA 
HETATM   36  C   UNL     1     -12.536  11.475  64.415  1.00  0.00     0.571 C  
BRANCH  33  37
HETATM   37  O   UNL     1      -8.510  12.409  65.777  1.00  0.00     0.491 OA 
HETATM   38  C   UNL     1      -8.335  11.240  64.981  1.00  0.00     0.366 C  
ENDBRANCH  33  37
ENDBRANCH  12  23
ENDBRANCH   3   4
ENDBRANCH   2   3
TORSDOF 8
ENDMDL
MODEL      108
REMARK 921   NORMALIZED FREE ENERGY PREDICTED BY IDOCK:   -2.19 KCAL/MOL
REMARK 922        TOTAL FREE ENERGY PREDICTED BY IDOCK:   -4.00 KCAL/MOL
REMARK 923 INTER-LIGAND FREE ENERGY PREDICTED BY IDOCK:   -6.14 KCAL/MOL
REMARK 924 INTRA-LIGAND FREE ENERGY PREDICTED BY IDOCK:    2.14 KCAL/MOL
REMARK 927      BINDING AFFINITY PREDICTED BY RF-SCORE:    0.00 PKD
ROOT
HETATM    1  C   UNL     1     -10.516  17.553  69.386  1.00  0.00    -0.001 C  
HETATM    2  C   UNL     1     -10.923  16.149  68.968  1.00  0.00    -0.312 C  
ENDROOT
BRANCH   2   3
HETATM    3  O   UNL     1     -10.017  15.214  69.508  1.00  0.00    -0.231 OA 
BRANCH   3   4
HETATM    4  C   UNL     1     -10.050  13.879  69.268  1.00  0.00     0.197 A  
HETATM    5  C   UNL     1     -11.352  13.272  69.309  1.00  0.00    -0.253 A  
HETATM    6  C   UNL     1     -11.461  11.856  69.306  1.00  0.00    -0.306 A  
HETATM    7  C   UNL     1      -7.807  11.131  68.563  1.00  0.00    -0.136 C  
HETATM    8  C   UNL     1     -10.290  11.055  69.180  1.00  0.00    -0.188 A  
HETATM    9  O   UNL     1      -6.982  12.153  68.211  1.00  0.00    -0.068 OA 
HETATM   10  O   UNL     1      -7.514   9.955  68.592  1.00  0.00    -0.073 OA 
HETATM   11  N   UNL     1     -10.385   9.664  68.999  1.00  0.00    -0.197 NA 
HETATM   12  C   UNL     1      -7.638  13.441  68.302  1.00  0.00    -0.135 C  
HETATM   13  C   UNL     1      -9.089  11.728  68.932  1.00  0.00     0.104 A  
HETATM   14  H2  UNL     1     -10.978   9.490  68.188  1.00  0.00     0.000 HD 
HETATM   15  H1  UNL     1      -9.546   9.091  68.908  1.00  0.00     0.000 HD 
HETATM   16  C   UNL     1      -8.969  13.105  68.908  1.00  0.00     0.300 A  
BRANCH   5  17
HETATM   17  O   UNL     1     -12.533  14.020  69.231  1.00  0.00    -0.259 OA 
BRANCH  17  18
HETATM   18  C   UNL     1     -13.285  14.059  70.463  1.00  0.00     0.078 C  
HETATM   19  C   UNL     1     -13.210  15.348  71.254  1.00  0.00    -0.585 C  
ENDBRANCH  17  18
ENDBRANCH   5  17
BRANCH   6  20
HETATM   20  O   UNL     1     -12.633  11.125  69.255  1.00  0.00    -0.336 OA 
BRANCH  20  21
HETATM   21  C   UNL     1     -12.889  10.226  70.336  1.00  0.00    -0.139 C  
HETATM   22  C   UNL     1     -13.140  11.051  71.601  1.00  0.00    -0.543 C  
ENDBRANCH  20  21
ENDBRANCH   6  20
BRANCH  12  23
HETATM   23  C   UNL     1      -7.667  14.169  66.883  1.00  0.00     0.363 C  
HETATM   24  C   UNL     1      -7.986  16.600  67.189  1.00  0.00    -0.182 C  
HETATM   25  C   UNL     1      -5.726  15.773  67.222  1.00  0.00     0.096 C  
HETATM   26  N   UNL     1      -7.079  15.540  66.754  1.00  0.00    -0.109 NA 
HETATM   27  C   UNL     1      -9.107  16.700  66.171  1.00  0.00    -0.318 C  
HETATM   28  C   UNL     1      -9.758  15.365  65.919  1.00  0.00    -0.392 A  
HETATM   29  C   UNL     1     -11.016  15.379  65.299  1.00  0.00    -0.397 A  
HETATM   30  C   UNL     1     -11.629  14.179  65.057  1.00  0.00    -0.362 A  
HETATM   31  C   UNL     1     -11.030  12.980  65.365  1.00  0.00    -0.275 A  
HETATM   32  O   UNL     1     -11.851  11.937  65.037  1.00  0.00    -0.272 OA 
HETATM   33  C   UNL     1      -9.757  12.916  65.931  1.00  0.00    -0.184 A  
HETATM   34  C   UNL     1      -9.097  14.137  66.241  1.00  0.00    -0.072 A  
HETATM   35  O   UNL     1     -12.864  14.038  64.503  1.00  0.00    -0.644 OA 
HETATM   36  C   UNL     1     -13.052  12.622  64.646  1.00  0.00     0.057 C  
BRANCH  33  37
HETATM   37  O   UNL     1      -9.085  11.760  66.213  1.00  0.00    -0.214 OA 
HETATM   38  C   UNL     1      -8.816  10.864  65.138  1.00  0.00    -0.156 C  
ENDBRANCH  33  37
ENDBRANCH  12  23
ENDBRANCH   3   4
ENDBRANCH   2   3
TORSDOF 8
ENDMDL
MODEL      109
REMARK 921   NORMALIZED FREE ENERGY PREDICTED BY IDOCK:   -2.14 KCAL/MOL
REMARK 922        TOTAL FREE ENERGY PREDICTED BY IDOCK:   -3.92 KCAL/MOL
REMARK 923 INTER-LIGAND FREE ENERGY PREDICTED BY IDOCK:   -4.58 KCAL/MOL
REMARK 924 INTRA-LIGAND FREE ENERGY PREDICTED BY IDOCK:    0.65 KCAL/MOL
REMARK 927      BINDING AFFINITY PREDICTED BY RF-SCORE:    0.00 PKD
ROOT
HETATM    1  C   UNL     1      -8.453   8.040  62.850  1.00  0.00     0.059 C  
HETATM    2  C   UNL     1      -7.933   8.988  63.919  1.00  0.00    -0.146 C  
ENDROOT
BRANCH   2   3
HETATM    3  O   UNL     1      -8.699   8.840  65.094  1.00  0.00    -0.186 OA 
BRANCH   3   4
HETATM    4  C   UNL     1      -8.325   9.284  66.320  1.00  0.00    -0.122 A  
HETATM    5  C   UNL     1      -9.074  10.399  66.833  1.00  0.00    -0.143 A  
HETATM    6  C   UNL     1      -8.610  11.078  67.991  1.00  0.00    -0.134 A  
HETATM    7  C   UNL     1      -5.877   8.598  68.892  1.00  0.00    -0.040 C  
HETATM    8  C   UNL     1      -7.456  10.601  68.676  1.00  0.00    -0.098 A  
HETATM    9  O   UNL     1      -5.814   7.408  68.238  1.00  0.00    -0.025 OA 
HETATM   10  O   UNL     1      -5.178   8.939  69.822  1.00  0.00    -0.029 OA 
HETATM   11  N   UNL     1      -7.079  11.146  69.916  1.00  0.00    -0.357 NA 
HETATM   12  C   UNL     1      -6.776   7.325  67.159  1.00  0.00    -0.068 C  
HETATM   13  C   UNL     1      -6.915   9.390  68.234  1.00  0.00    -0.071 A  
HETATM   14  H2  UNL     1      -7.877  11.078  70.548  1.00  0.00     0.000 HD 
HETATM   15  H1  UNL     1      -6.253  10.804  70.407  1.00  0.00     0.000 HD 
HETATM   16  C   UNL     1      -7.370   8.703  67.124  1.00  0.00    -0.088 A  
BRANCH   5  17
HETATM   17  O   UNL     1     -10.318  10.774  66.308  1.00  0.00    -0.241 OA 
BRANCH  17  18
HETATM   18  C   UNL     1     -10.230  11.639  65.156  1.00  0.00    -0.274 C  
HETATM   19  C   UNL     1     -11.027  12.925  65.221  1.00  0.00    -0.310 C  
ENDBRANCH  17  18
ENDBRANCH   5  17
BRANCH   6  20
HETATM   20  O   UNL     1      -9.256  12.104  68.652  1.00  0.00    -0.135 OA 
BRANCH  20  21
HETATM   21  C   UNL     1      -9.036  13.432  68.171  1.00  0.00    -0.207 C  
HETATM   22  C   UNL     1      -8.506  14.282  69.328  1.00  0.00     0.243 C  
ENDBRANCH  20  21
ENDBRANCH   6  20
BRANCH  12  23
HETATM   23  C   UNL     1      -7.794   6.119  67.392  1.00  0.00    -0.098 C  
HETATM   24  C   UNL     1      -9.460   6.058  65.569  1.00  0.00     0.287 C  
HETATM   25  C   UNL     1      -7.408   4.852  65.224  1.00  0.00    -0.072 C  
HETATM   26  N   UNL     1      -8.334   5.380  66.206  1.00  0.00    -0.113 NA 
HETATM   27  C   UNL     1     -10.652   5.959  66.503  1.00  0.00    -0.266 C  
HETATM   28  C   UNL     1     -10.319   6.440  67.891  1.00  0.00    -0.234 A  
HETATM   29  C   UNL     1     -11.399   6.744  68.734  1.00  0.00    -0.102 A  
HETATM   30  C   UNL     1     -11.123   7.182  70.002  1.00  0.00    -0.258 A  
HETATM   31  C   UNL     1      -9.836   7.287  70.473  1.00  0.00    -0.183 A  
HETATM   32  O   UNL     1      -9.832   7.756  71.757  1.00  0.00    -0.162 OA 
HETATM   33  C   UNL     1      -8.735   6.942  69.690  1.00  0.00    -0.141 A  
HETATM   34  C   UNL     1      -8.966   6.522  68.351  1.00  0.00    -0.125 A  
HETATM   35  O   UNL     1     -12.063   7.555  70.913  1.00  0.00    -0.293 OA 
HETATM   36  C   UNL     1     -11.222   8.065  71.958  1.00  0.00    -0.298 C  
BRANCH  33  37
HETATM   37  O   UNL     1      -7.436   6.973  70.113  1.00  0.00    -0.082 OA 
HETATM   38  C   UNL     1      -7.021   6.004  71.072  1.00  0.00    -0.068 C  
ENDBRANCH  33  37
ENDBRANCH  12  23
ENDBRANCH   3   4
ENDBRANCH   2   3
TORSDOF 8
ENDMDL
MODEL      110
REMARK 921   NORMALIZED FREE ENERGY PREDICTED BY IDOCK:   -2.08 KCAL/MOL
REMARK 922        TOTAL FREE ENERGY PREDICTED BY IDOCK:   -3.84 KCAL/MOL
REMARK 923 INTER-LIGAND FREE ENERGY PREDICTED BY IDOCK:   -5.34 KCAL/MOL
REMARK 924 INTRA-LIGAND FREE ENERGY PREDICTED BY IDOCK:    1.50 KCAL/MOL
REMARK 927      BINDING AFFINITY PREDICTED BY RF-SCORE:    0.00 PKD
ROOT
HETATM    1  C   UNL     1     -12.529  14.370  70.677  1.00  0.00    -0.419 C  
HETATM    2  C   UNL     1     -11.207  14.131  69.965  1.00  0.00    -0.061 C  
ENDROOT
BRANCH   2   3
HETATM    3  O   UNL     1     -11.317  12.997  69.134  1.00  0.00    -0.261 OA 
BRANCH   3   4
HETATM    4  C   UNL     1     -10.535  11.892  69.227  1.00  0.00     0.091 A  
HETATM    5  C   UNL     1     -11.233  10.650  69.416  1.00  0.00    -0.270 A  
HETATM    6  C   UNL     1     -10.499   9.483  69.758  1.00  0.00    -0.231 A  
HETATM    7  C   UNL     1      -7.042  10.958  69.213  1.00  0.00    -0.124 C  
HETATM    8  C   UNL     1      -9.078   9.536  69.831  1.00  0.00    -0.216 A  
HETATM    9  O   UNL     1      -6.921  12.177  68.622  1.00  0.00    -0.085 OA 
HETATM   10  O   UNL     1      -6.129  10.225  69.528  1.00  0.00    -0.041 OA 
HETATM   11  N   UNL     1      -8.321   8.363  69.995  1.00  0.00    -0.120 NA 
HETATM   12  C   UNL     1      -8.207  12.804  68.396  1.00  0.00    -0.128 C  
HETATM   13  C   UNL     1      -8.469  10.728  69.426  1.00  0.00     0.000 A  
HETATM   14  H2  UNL     1      -8.578   7.713  69.251  1.00  0.00     0.000 HD 
HETATM   15  H1  UNL     1      -7.303   8.401  70.047  1.00  0.00     0.000 HD 
HETATM   16  C   UNL     1      -9.167  11.865  69.067  1.00  0.00     0.275 A  
BRANCH   5  17
HETATM   17  O   UNL     1     -12.603  10.510  69.158  1.00  0.00    -0.171 OA 
BRANCH  17  18
HETATM   18  C   UNL     1     -13.404  10.306  70.341  1.00  0.00     0.188 C  
HETATM   19  C   UNL     1     -12.983  11.075  71.576  1.00  0.00    -0.553 C  
ENDBRANCH  17  18
ENDBRANCH   5  17
BRANCH   6  20
HETATM   20  O   UNL     1     -11.008   8.205  69.888  1.00  0.00    -0.240 OA 
BRANCH  20  21
HETATM   21  C   UNL     1     -11.304   7.751  71.210  1.00  0.00    -0.264 C  
HETATM   22  C   UNL     1     -11.230   6.222  71.223  1.00  0.00    -0.355 C  
ENDBRANCH  20  21
ENDBRANCH   6  20
BRANCH  12  23
HETATM   23  C   UNL     1      -8.446  13.074  66.842  1.00  0.00    -0.078 C  
HETATM   24  C   UNL     1     -10.856  13.394  66.404  1.00  0.00    -0.289 C  
HETATM   25  C   UNL     1      -9.579  15.343  67.005  1.00  0.00    -0.218 C  
HETATM   26  N   UNL     1      -9.534  14.015  66.424  1.00  0.00    -0.279 NA 
HETATM   27  C   UNL     1     -10.894  12.419  65.242  1.00  0.00    -0.324 C  
HETATM   28  C   UNL     1      -9.737  11.456  65.279  1.00  0.00    -0.276 A  
HETATM   29  C   UNL     1      -9.850  10.296  64.498  1.00  0.00    -0.384 A  
HETATM   30  C   UNL     1      -8.810   9.404  64.513  1.00  0.00    -0.198 A  
HETATM   31  C   UNL     1      -7.661   9.637  65.231  1.00  0.00    -0.115 A  
HETATM   32  O   UNL     1      -6.788   8.594  65.089  1.00  0.00    -0.067 OA 
HETATM   33  C   UNL     1      -7.482  10.801  65.977  1.00  0.00    -0.125 A  
HETATM   34  C   UNL     1      -8.550  11.740  66.027  1.00  0.00     0.064 A  
HETATM   35  O   UNL     1      -8.796   8.220  63.842  1.00  0.00     0.207 OA 
HETATM   36  C   UNL     1      -7.579   7.651  64.346  1.00  0.00    -0.107 C  
BRANCH  33  37
HETATM   37  O   UNL     1      -6.347  11.118  66.669  1.00  0.00    -0.109 OA 
HETATM   38  C   UNL     1      -5.137  11.279  65.932  1.00  0.00    -0.055 C  
ENDBRANCH  33  37
ENDBRANCH  12  23
ENDBRANCH   3   4
ENDBRANCH   2   3
TORSDOF 8
ENDMDL
MODEL      111
REMARK 921   NORMALIZED FREE ENERGY PREDICTED BY IDOCK:   -2.05 KCAL/MOL
REMARK 922        TOTAL FREE ENERGY PREDICTED BY IDOCK:   -3.79 KCAL/MOL
REMARK 923 INTER-LIGAND FREE ENERGY PREDICTED BY IDOCK:   -5.01 KCAL/MOL
REMARK 924 INTRA-LIGAND FREE ENERGY PREDICTED BY IDOCK:    1.22 KCAL/MOL
REMARK 927      BINDING AFFINITY PREDICTED BY RF-SCORE:    0.00 PKD
ROOT
HETATM    1  C   UNL     1      -5.471   2.856  68.475  1.00  0.00    -0.017 C  
HETATM    2  C   UNL     1      -5.379   4.361  68.282  1.00  0.00    -0.012 C  
ENDROOT
BRANCH   2   3
HETATM    3  O   UNL     1      -6.598   4.961  68.663  1.00  0.00    -0.045 OA 
BRANCH   3   4
HETATM    4  C   UNL     1      -6.754   5.783  69.730  1.00  0.00    -0.052 A  
HETATM    5  C   UNL     1      -6.598   7.187  69.462  1.00  0.00    -0.044 A  
HETATM    6  C   UNL     1      -6.509   8.099  70.547  1.00  0.00    -0.036 A  
HETATM    7  C   UNL     1      -7.423   5.624  73.280  1.00  0.00    -0.096 C  
HETATM    8  C   UNL     1      -6.655   7.626  71.883  1.00  0.00    -0.043 A  
HETATM    9  O   UNL     1      -7.885   4.392  72.938  1.00  0.00    -0.084 OA 
HETATM   10  O   UNL     1      -7.341   6.067  74.406  1.00  0.00    -0.087 OA 
HETATM   11  N   UNL     1      -6.745   8.526  72.959  1.00  0.00    -0.225 NA 
HETATM   12  C   UNL     1      -7.834   4.166  71.508  1.00  0.00    -0.076 C  
HETATM   13  C   UNL     1      -7.015   6.284  72.042  1.00  0.00    -0.077 A  
HETATM   14  H2  UNL     1      -7.507   9.176  72.766  1.00  0.00     0.000 HD 
HETATM   15  H1  UNL     1      -6.851   8.187  73.915  1.00  0.00     0.000 HD 
HETATM   16  C   UNL     1      -7.130   5.389  70.995  1.00  0.00    -0.068 A  
BRANCH   5  17
HETATM   17  O   UNL     1      -6.650   7.715  68.166  1.00  0.00    -0.051 OA 
BRANCH  17  18
HETATM   18  C   UNL     1      -5.357   8.036  67.611  1.00  0.00    -0.033 C  
HETATM   19  C   UNL     1      -5.359   8.788  66.297  1.00  0.00    -0.031 C  
ENDBRANCH  17  18
ENDBRANCH   5  17
BRANCH   6  20
HETATM   20  O   UNL     1      -6.444   9.476  70.457  1.00  0.00    -0.065 OA 
BRANCH  20  21
HETATM   21  C   UNL     1      -7.507  10.136  69.766  1.00  0.00    -0.163 C  
HETATM   22  C   UNL     1      -8.821   9.439  70.126  1.00  0.00    -0.249 C  
ENDBRANCH  20  21
ENDBRANCH   6  20
BRANCH  12  23
HETATM   23  C   UNL     1      -9.290   3.887  70.921  1.00  0.00    -0.152 C  
HETATM   24  C   UNL     1      -9.242   4.010  68.454  1.00  0.00    -0.150 C  
HETATM   25  C   UNL     1      -8.748   1.880  69.459  1.00  0.00    -0.063 C  
HETATM   26  N   UNL     1      -9.425   3.152  69.622  1.00  0.00    -0.151 NA 
HETATM   27  C   UNL     1     -10.445   4.930  68.359  1.00  0.00     0.063 C  
HETATM   28  C   UNL     1     -10.698   5.658  69.652  1.00  0.00    -0.398 A  
HETATM   29  C   UNL     1     -11.528   6.788  69.593  1.00  0.00    -0.286 A  
HETATM   30  C   UNL     1     -11.776   7.468  70.756  1.00  0.00    -0.256 A  
HETATM   31  C   UNL     1     -11.272   7.051  71.965  1.00  0.00    -0.253 A  
HETATM   32  O   UNL     1     -11.652   7.904  72.963  1.00  0.00    -0.351 OA 
HETATM   33  C   UNL     1     -10.489   5.903  72.081  1.00  0.00    -0.207 A  
HETATM   34  C   UNL     1     -10.168   5.185  70.895  1.00  0.00    -0.299 A  
HETATM   35  O   UNL     1     -12.523   8.601  70.846  1.00  0.00    -0.167 OA 
HETATM   36  C   UNL     1     -12.302   8.950  72.220  1.00  0.00    -0.360 C  
BRANCH  33  37
HETATM   37  O   UNL     1     -10.001   5.405  73.256  1.00  0.00    -0.163 OA 
HETATM   38  C   UNL     1     -10.882   4.639  74.074  1.00  0.00    -0.263 C  
ENDBRANCH  33  37
ENDBRANCH  12  23
ENDBRANCH   3   4
ENDBRANCH   2   3
TORSDOF 8
ENDMDL
MODEL      112
REMARK 921   NORMALIZED FREE ENERGY PREDICTED BY IDOCK:   -2.03 KCAL/MOL
REMARK 922        TOTAL FREE ENERGY PREDICTED BY IDOCK:   -3.77 KCAL/MOL
REMARK 923 INTER-LIGAND FREE ENERGY PREDICTED BY IDOCK:   -4.56 KCAL/MOL
REMARK 924 INTRA-LIGAND FREE ENERGY PREDICTED BY IDOCK:    0.79 KCAL/MOL
REMARK 927      BINDING AFFINITY PREDICTED BY RF-SCORE:    0.00 PKD
ROOT
HETATM    1  C   UNL     1      -5.964   7.419  64.012  1.00  0.00    -0.044 C  
HETATM    2  C   UNL     1      -5.556   7.680  65.452  1.00  0.00    -0.033 C  
ENDROOT
BRANCH   2   3
HETATM    3  O   UNL     1      -6.614   7.325  66.314  1.00  0.00    -0.050 OA 
BRANCH   3   4
HETATM    4  C   UNL     1      -6.710   7.700  67.615  1.00  0.00    -0.067 A  
HETATM    5  C   UNL     1      -7.246   9.014  67.845  1.00  0.00    -0.080 A  
HETATM    6  C   UNL     1      -7.166   9.582  69.144  1.00  0.00    -0.067 A  
HETATM    7  C   UNL     1      -5.970   6.448  70.925  1.00  0.00    -0.027 C  
HETATM    8  C   UNL     1      -6.630   8.817  70.220  1.00  0.00    -0.040 A  
HETATM    9  O   UNL     1      -5.974   5.260  70.263  1.00  0.00    -0.016 OA 
HETATM   10  O   UNL     1      -5.688   6.611  72.093  1.00  0.00    -0.036 OA 
HETATM   11  N   UNL     1      -6.699   9.289  71.542  1.00  0.00    -0.279 NA 
HETATM   12  C   UNL     1      -6.338   5.413  68.869  1.00  0.00    -0.034 C  
HETATM   13  C   UNL     1      -6.328   7.478  69.953  1.00  0.00    -0.027 A  
HETATM   14  H2  UNL     1      -7.674   9.496  71.755  1.00  0.00     0.000 HD 
HETATM   15  H1  UNL     1      -6.315   8.741  72.312  1.00  0.00     0.000 HD 
HETATM   16  C   UNL     1      -6.424   6.902  68.700  1.00  0.00    -0.036 A  
BRANCH   5  17
HETATM   17  O   UNL     1      -7.960   9.717  66.866  1.00  0.00    -0.105 OA 
BRANCH  17  18
HETATM   18  C   UNL     1      -9.282   9.196  66.617  1.00  0.00    -0.164 C  
HETATM   19  C   UNL     1     -10.084   9.890  65.536  1.00  0.00    -0.297 C  
ENDBRANCH  17  18
ENDBRANCH   5  17
BRANCH   6  20
HETATM   20  O   UNL     1      -7.707  10.788  69.545  1.00  0.00    -0.139 OA 
BRANCH  20  21
HETATM   21  C   UNL     1      -7.181  11.973  68.942  1.00  0.00    -0.089 C  
HETATM   22  C   UNL     1      -5.700  12.084  69.310  1.00  0.00    -0.072 C  
ENDBRANCH  20  21
ENDBRANCH   6  20
BRANCH  12  23
HETATM   23  C   UNL     1      -7.655   4.583  68.527  1.00  0.00    -0.064 C  
HETATM   24  C   UNL     1      -8.433   5.135  66.248  1.00  0.00    -0.114 C  
HETATM   25  C   UNL     1      -6.826   3.357  66.462  1.00  0.00    -0.053 C  
HETATM   26  N   UNL     1      -7.875   4.106  67.124  1.00  0.00    -0.095 NA 
HETATM   27  C   UNL     1      -9.870   5.376  66.670  1.00  0.00    -0.193 C  
HETATM   28  C   UNL     1      -9.982   5.663  68.144  1.00  0.00    -0.186 A  
HETATM   29  C   UNL     1     -11.175   6.256  68.587  1.00  0.00    -0.328 A  
HETATM   30  C   UNL     1     -11.303   6.527  69.924  1.00  0.00    -0.406 A  
HETATM   31  C   UNL     1     -10.323   6.198  70.831  1.00  0.00    -0.215 A  
HETATM   32  O   UNL     1     -10.687   6.583  72.090  1.00  0.00    -0.211 OA 
HETATM   33  C   UNL     1      -9.146   5.557  70.444  1.00  0.00    -0.139 A  
HETATM   34  C   UNL     1      -8.947   5.292  69.061  1.00  0.00    -0.126 A  
HETATM   35  O   UNL     1     -12.379   7.136  70.490  1.00  0.00    -0.213 OA 
HETATM   36  C   UNL     1     -11.903   7.306  71.833  1.00  0.00    -0.297 C  
BRANCH  33  37
HETATM   37  O   UNL     1      -8.158   5.156  71.298  1.00  0.00    -0.107 OA 
HETATM   38  C   UNL     1      -8.418   4.038  72.143  1.00  0.00    -0.104 C  
ENDBRANCH  33  37
ENDBRANCH  12  23
ENDBRANCH   3   4
ENDBRANCH   2   3
TORSDOF 8
ENDMDL
MODEL      113
REMARK 921   NORMALIZED FREE ENERGY PREDICTED BY IDOCK:   -2.00 KCAL/MOL
REMARK 922        TOTAL FREE ENERGY PREDICTED BY IDOCK:   -3.71 KCAL/MOL
REMARK 923 INTER-LIGAND FREE ENERGY PREDICTED BY IDOCK:   -4.35 KCAL/MOL
REMARK 924 INTRA-LIGAND FREE ENERGY PREDICTED BY IDOCK:    0.63 KCAL/MOL
REMARK 927      BINDING AFFINITY PREDICTED BY RF-SCORE:    0.00 PKD
ROOT
HETATM    1  C   UNL     1      -8.555   2.195  70.179  1.00  0.00    -0.098 C  
HETATM    2  C   UNL     1      -7.448   2.872  70.971  1.00  0.00    -0.033 C  
ENDROOT
BRANCH   2   3
HETATM    3  O   UNL     1      -7.451   4.255  70.700  1.00  0.00    -0.047 OA 
BRANCH   3   4
HETATM    4  C   UNL     1      -8.568   5.007  70.532  1.00  0.00    -0.109 A  
HETATM    5  C   UNL     1      -9.338   5.250  71.722  1.00  0.00    -0.146 A  
HETATM    6  C   UNL     1     -10.635   5.820  71.609  1.00  0.00    -0.245 A  
HETATM    7  C   UNL     1     -10.420   6.680  67.915  1.00  0.00    -0.219 C  
HETATM    8  C   UNL     1     -11.124   6.218  70.332  1.00  0.00    -0.352 A  
HETATM    9  O   UNL     1      -9.226   6.571  67.273  1.00  0.00    -0.119 OA 
HETATM   10  O   UNL     1     -11.448   7.112  67.440  1.00  0.00     0.045 OA 
HETATM   11  N   UNL     1     -12.325   6.940  70.215  1.00  0.00    -0.598 NA 
HETATM   12  C   UNL     1      -8.201   5.995  68.118  1.00  0.00    -0.113 C  
HETATM   13  C   UNL     1     -10.229   6.142  69.260  1.00  0.00    -0.251 A  
HETATM   14  H2  UNL     1     -12.254   7.771  70.802  1.00  0.00     0.000 HD 
HETATM   15  H1  UNL     1     -12.675   7.225  69.300  1.00  0.00     0.000 HD 
HETATM   16  C   UNL     1      -8.955   5.613  69.358  1.00  0.00    -0.124 A  
BRANCH   5  17
HETATM   17  O   UNL     1      -8.817   5.059  73.007  1.00  0.00    -0.117 OA 
BRANCH  17  18
HETATM   18  C   UNL     1      -9.501   4.044  73.773  1.00  0.00    -0.105 C  
HETATM   19  C   UNL     1      -8.637   2.940  74.345  1.00  0.00    -0.072 C  
ENDBRANCH  17  18
ENDBRANCH   5  17
BRANCH   6  20
HETATM   20  O   UNL     1     -11.460   6.191  72.653  1.00  0.00    -0.276 OA 
BRANCH  20  21
HETATM   21  C   UNL     1     -10.995   7.232  73.514  1.00  0.00    -0.135 C  
HETATM   22  C   UNL     1     -10.588   8.428  72.649  1.00  0.00    -0.312 C  
ENDBRANCH  20  21
ENDBRANCH   6  20
BRANCH  12  23
HETATM   23  C   UNL     1      -6.984   7.008  68.311  1.00  0.00    -0.080 C  
HETATM   24  C   UNL     1      -7.838   9.243  68.926  1.00  0.00    -0.087 C  
HETATM   25  C   UNL     1      -7.419   7.693  70.718  1.00  0.00    -0.071 C  
HETATM   26  N   UNL     1      -7.079   8.072  69.361  1.00  0.00    -0.062 NA 
HETATM   27  C   UNL     1      -7.008   9.975  67.888  1.00  0.00    -0.084 C  
HETATM   28  C   UNL     1      -6.558   9.059  66.781  1.00  0.00    -0.064 A  
HETATM   29  C   UNL     1      -6.112   9.665  65.596  1.00  0.00    -0.066 A  
HETATM   30  C   UNL     1      -5.695   8.854  64.574  1.00  0.00    -0.064 A  
HETATM   31  C   UNL     1      -5.666   7.485  64.696  1.00  0.00    -0.037 A  
HETATM   32  O   UNL     1      -5.226   6.910  63.537  1.00  0.00    -0.026 OA 
HETATM   33  C   UNL     1      -6.047   6.842  65.874  1.00  0.00    -0.038 A  
HETATM   34  C   UNL     1      -6.527   7.638  66.950  1.00  0.00    -0.054 A  
HETATM   35  O   UNL     1      -5.279   9.296  63.356  1.00  0.00    -0.065 OA 
HETATM   36  C   UNL     1      -5.138   8.048  62.662  1.00  0.00    -0.055 C  
BRANCH  33  37
HETATM   37  O   UNL     1      -5.993   5.492  66.079  1.00  0.00    -0.021 OA 
HETATM   38  C   UNL     1      -6.664   4.647  65.148  1.00  0.00    -0.048 C  
ENDBRANCH  33  37
ENDBRANCH  12  23
ENDBRANCH   3   4
ENDBRANCH   2   3
TORSDOF 8
ENDMDL
MODEL      114
REMARK 921   NORMALIZED FREE ENERGY PREDICTED BY IDOCK:   -1.96 KCAL/MOL
REMARK 922        TOTAL FREE ENERGY PREDICTED BY IDOCK:   -3.66 KCAL/MOL
REMARK 923 INTER-LIGAND FREE ENERGY PREDICTED BY IDOCK:   -3.53 KCAL/MOL
REMARK 924 INTRA-LIGAND FREE ENERGY PREDICTED BY IDOCK:   -0.13 KCAL/MOL
REMARK 927      BINDING AFFINITY PREDICTED BY RF-SCORE:    0.00 PKD
ROOT
HETATM    1  C   UNL     1     -12.810  10.723  71.062  1.00  0.00    -0.480 C  
HETATM    2  C   UNL     1     -11.446  10.853  70.404  1.00  0.00    -0.275 C  
ENDROOT
BRANCH   2   3
HETATM    3  O   UNL     1     -11.077   9.616  69.836  1.00  0.00    -0.236 OA 
BRANCH   3   4
HETATM    4  C   UNL     1      -9.906   8.974  70.078  1.00  0.00    -0.184 A  
HETATM    5  C   UNL     1      -9.950   7.541  69.972  1.00  0.00    -0.186 A  
HETATM    6  C   UNL     1      -8.847   6.774  70.433  1.00  0.00    -0.152 A  
HETATM    7  C   UNL     1      -6.490   9.694  71.017  1.00  0.00    -0.050 C  
HETATM    8  C   UNL     1      -7.681   7.432  70.920  1.00  0.00    -0.088 A  
HETATM    9  O   UNL     1      -6.835  10.931  70.570  1.00  0.00    -0.241 OA 
HETATM   10  O   UNL     1      -5.436   9.392  71.534  1.00  0.00    -0.055 OA 
HETATM   11  N   UNL     1      -6.516   6.704  71.217  1.00  0.00    -0.048 NA 
HETATM   12  C   UNL     1      -8.176  10.960  70.022  1.00  0.00     0.933 C  
HETATM   13  C   UNL     1      -7.641   8.823  70.790  1.00  0.00    -0.097 A  
HETATM   14  H2  UNL     1      -6.257   6.167  70.390  1.00  0.00     0.000 HD 
HETATM   15  H1  UNL     1      -5.681   7.175  71.565  1.00  0.00     0.000 HD 
HETATM   16  C   UNL     1      -8.696   9.583  70.320  1.00  0.00    -0.270 A  
BRANCH   5  17
HETATM   17  O   UNL     1     -10.989   6.867  69.318  1.00  0.00    -0.244 OA 
BRANCH  17  18
HETATM   18  C   UNL     1     -11.832   6.094  70.199  1.00  0.00     0.137 C  
HETATM   19  C   UNL     1     -12.758   6.882  71.102  1.00  0.00    -0.331 C  
ENDBRANCH  17  18
ENDBRANCH   5  17
BRANCH   6  20
HETATM   20  O   UNL     1      -8.699   5.405  70.324  1.00  0.00    -0.123 OA 
BRANCH  20  21
HETATM   21  C   UNL     1      -8.429   4.878  69.023  1.00  0.00    -0.081 C  
HETATM   22  C   UNL     1      -9.353   3.682  68.785  1.00  0.00    -0.231 C  
ENDBRANCH  20  21
ENDBRANCH   6  20
BRANCH  12  23
HETATM   23  C   UNL     1      -8.158  11.395  68.488  1.00  0.00    -0.149 C  
HETATM   24  C   UNL     1      -5.870  11.188  67.581  1.00  0.00    -0.048 C  
HETATM   25  C   UNL     1      -7.275   9.239  67.476  1.00  0.00    -0.080 C  
HETATM   26  N   UNL     1      -7.241  10.687  67.539  1.00  0.00    -0.089 NA 
HETATM   27  C   UNL     1      -5.863  12.575  66.964  1.00  0.00     0.115 C  
HETATM   28  C   UNL     1      -6.891  13.476  67.595  1.00  0.00    -0.178 A  
HETATM   29  C   UNL     1      -6.744  14.855  67.383  1.00  0.00    -0.082 A  
HETATM   30  C   UNL     1      -7.667  15.696  67.945  1.00  0.00    -0.131 A  
HETATM   31  C   UNL     1      -8.740  15.224  68.664  1.00  0.00    -0.182 A  
HETATM   32  O   UNL     1      -9.501  16.262  69.125  1.00  0.00    -0.247 OA 
HETATM   33  C   UNL     1      -8.958  13.860  68.852  1.00  0.00     0.104 A  
HETATM   34  C   UNL     1      -8.004  12.946  68.324  1.00  0.00    -0.151 A  
HETATM   35  O   UNL     1      -7.629  17.053  67.862  1.00  0.00    -0.167 OA 
HETATM   36  C   UNL     1      -8.705  17.398  68.747  1.00  0.00    -0.223 C  
BRANCH  33  37
HETATM   37  O   UNL     1     -10.029  13.323  69.509  1.00  0.00     0.561 OA 
HETATM   38  C   UNL     1     -11.333  13.746  69.118  1.00  0.00    -0.281 C  
ENDBRANCH  33  37
ENDBRANCH  12  23
ENDBRANCH   3   4
ENDBRANCH   2   3
TORSDOF 8
ENDMDL
MODEL      115
REMARK 921   NORMALIZED FREE ENERGY PREDICTED BY IDOCK:   -1.92 KCAL/MOL
REMARK 922        TOTAL FREE ENERGY PREDICTED BY IDOCK:   -3.59 KCAL/MOL
REMARK 923 INTER-LIGAND FREE ENERGY PREDICTED BY IDOCK:   -6.05 KCAL/MOL
REMARK 924 INTRA-LIGAND FREE ENERGY PREDICTED BY IDOCK:    2.46 KCAL/MOL
REMARK 927      BINDING AFFINITY PREDICTED BY RF-SCORE:    0.00 PKD
ROOT
HETATM    1  C   UNL     1      -6.989   9.194  65.067  1.00  0.00    -0.081 C  
HETATM    2  C   UNL     1      -7.679  10.386  64.425  1.00  0.00    -0.042 C  
ENDROOT
BRANCH   2   3
HETATM    3  O   UNL     1      -7.894  11.386  65.395  1.00  0.00     0.306 OA 
BRANCH   3   4
HETATM    4  C   UNL     1      -8.053  11.154  66.722  1.00  0.00    -0.155 A  
HETATM    5  C   UNL     1      -7.049  11.724  67.578  1.00  0.00    -0.113 A  
HETATM    6  C   UNL     1      -6.998  11.341  68.945  1.00  0.00    -0.099 A  
HETATM    7  C   UNL     1     -10.273   9.417  68.987  1.00  0.00    -0.205 C  
HETATM    8  C   UNL     1      -7.987  10.461  69.471  1.00  0.00    -0.144 A  
HETATM    9  O   UNL     1     -11.107   9.496  67.917  1.00  0.00    -0.179 OA 
HETATM   10  O   UNL     1     -10.503   8.841  70.029  1.00  0.00    -0.202 OA 
HETATM   11  N   UNL     1      -8.062  10.206  70.851  1.00  0.00    -0.115 NA 
HETATM   12  C   UNL     1     -10.523  10.242  66.821  1.00  0.00    -0.214 C  
HETATM   13  C   UNL     1      -9.047  10.123  68.623  1.00  0.00    -0.143 A  
HETATM   14  H2  UNL     1      -8.141  11.099  71.336  1.00  0.00     0.000 HD 
HETATM   15  H1  UNL     1      -8.771   9.576  71.228  1.00  0.00     0.000 HD 
HETATM   16  C   UNL     1      -9.124  10.507  67.298  1.00  0.00    -0.152 A  
BRANCH   5  17
HETATM   17  O   UNL     1      -6.186  12.741  67.151  1.00  0.00    -0.263 OA 
BRANCH  17  18
HETATM   18  C   UNL     1      -6.693  14.074  67.378  1.00  0.00     0.038 C  
HETATM   19  C   UNL     1      -5.662  15.139  67.688  1.00  0.00    -0.055 C  
ENDBRANCH  17  18
ENDBRANCH   5  17
BRANCH   6  20
HETATM   20  O   UNL     1      -6.156  11.859  69.910  1.00  0.00    -0.130 OA 
BRANCH  20  21
HETATM   21  C   UNL     1      -6.428  13.184  70.372  1.00  0.00     0.323 C  
HETATM   22  C   UNL     1      -5.230  13.662  71.196  1.00  0.00    -0.163 C  
ENDBRANCH  20  21
ENDBRANCH   6  20
BRANCH  12  23
HETATM   23  C   UNL     1     -11.407  11.521  66.465  1.00  0.00    -0.193 C  
HETATM   24  C   UNL     1     -10.047  13.163  65.217  1.00  0.00    -0.235 C  
HETATM   25  C   UNL     1     -11.176  11.468  63.936  1.00  0.00    -0.355 C  
HETATM   26  N   UNL     1     -11.172  12.232  65.168  1.00  0.00    -0.315 NA 
HETATM   27  C   UNL     1     -10.454  14.337  66.089  1.00  0.00    -0.294 C  
HETATM   28  C   UNL     1     -10.971  13.889  67.430  1.00  0.00    -0.299 A  
HETATM   29  C   UNL     1     -11.029  14.857  68.445  1.00  0.00    -0.266 A  
HETATM   30  C   UNL     1     -11.497  14.475  69.674  1.00  0.00    -0.288 A  
HETATM   31  C   UNL     1     -11.942  13.198  69.919  1.00  0.00    -0.317 A  
HETATM   32  O   UNL     1     -12.343  13.072  71.220  1.00  0.00    -0.281 OA 
HETATM   33  C   UNL     1     -11.955  12.218  68.926  1.00  0.00    -0.248 A  
HETATM   34  C   UNL     1     -11.440  12.554  67.644  1.00  0.00    -0.392 A  
HETATM   35  O   UNL     1     -11.570  15.289  70.761  1.00  0.00    -0.280 OA 
HETATM   36  C   UNL     1     -11.956  14.343  71.768  1.00  0.00    -0.126 C  
BRANCH  33  37
HETATM   37  O   UNL     1     -12.432  10.948  69.089  1.00  0.00    -0.409 OA 
HETATM   38  C   UNL     1     -13.161  10.654  70.278  1.00  0.00     0.033 C  
ENDBRANCH  33  37
ENDBRANCH  12  23
ENDBRANCH   3   4
ENDBRANCH   2   3
TORSDOF 8
ENDMDL
MODEL      116
REMARK 921   NORMALIZED FREE ENERGY PREDICTED BY IDOCK:   -1.80 KCAL/MOL
REMARK 922        TOTAL FREE ENERGY PREDICTED BY IDOCK:   -3.43 KCAL/MOL
REMARK 923 INTER-LIGAND FREE ENERGY PREDICTED BY IDOCK:   -3.66 KCAL/MOL
REMARK 924 INTRA-LIGAND FREE ENERGY PREDICTED BY IDOCK:    0.23 KCAL/MOL
REMARK 927      BINDING AFFINITY PREDICTED BY RF-SCORE:    0.00 PKD
ROOT
HETATM    1  C   UNL     1     -12.185  13.896  71.513  1.00  0.00    -0.233 C  
HETATM    2  C   UNL     1     -11.876  12.927  70.384  1.00  0.00    -0.157 C  
ENDROOT
BRANCH   2   3
HETATM    3  O   UNL     1     -10.585  13.186  69.879  1.00  0.00     0.548 OA 
BRANCH   3   4
HETATM    4  C   UNL     1     -10.308  13.488  68.585  1.00  0.00    -0.214 A  
HETATM    5  C   UNL     1     -10.369  14.883  68.246  1.00  0.00    -0.232 A  
HETATM    6  C   UNL     1     -10.328  15.271  66.880  1.00  0.00    -0.278 A  
HETATM    7  C   UNL     1      -9.460  11.851  65.475  1.00  0.00    -0.138 C  
HETATM    8  C   UNL     1     -10.145  14.284  65.869  1.00  0.00    -0.326 A  
HETATM    9  O   UNL     1      -9.114  10.848  66.325  1.00  0.00    -0.166 OA 
HETATM   10  O   UNL     1      -9.446  11.795  64.263  1.00  0.00    -0.108 OA 
HETATM   11  N   UNL     1      -9.927  14.657  64.531  1.00  0.00    -0.497 NA 
HETATM   12  C   UNL     1      -9.260  11.233  67.713  1.00  0.00    -0.156 C  
HETATM   13  C   UNL     1      -9.882  12.980  66.299  1.00  0.00    -0.278 A  
HETATM   14  H2  UNL     1      -9.129  15.292  64.505  1.00  0.00     0.000 HD 
HETATM   15  H1  UNL     1      -9.796  13.951  63.807  1.00  0.00     0.000 HD 
HETATM   16  C   UNL     1      -9.895  12.590  67.625  1.00  0.00    -0.202 A  
BRANCH   5  17
HETATM   17  O   UNL     1     -10.346  15.894  69.215  1.00  0.00    -0.215 OA 
BRANCH  17  18
HETATM   18  C   UNL     1     -11.616  16.556  69.401  1.00  0.00     0.092 C  
HETATM   19  C   UNL     1     -12.835  15.823  68.883  1.00  0.00     1.210 C  
ENDBRANCH  17  18
ENDBRANCH   5  17
BRANCH   6  20
HETATM   20  O   UNL     1     -10.290  16.565  66.397  1.00  0.00    -0.302 OA 
BRANCH  20  21
HETATM   21  C   UNL     1      -9.035  17.246  66.449  1.00  0.00    -0.252 C  
HETATM   22  C   UNL     1      -9.305  18.750  66.533  1.00  0.00    -0.345 C  
ENDBRANCH  20  21
ENDBRANCH   6  20
BRANCH  12  23
HETATM   23  C   UNL     1      -7.864  11.149  68.480  1.00  0.00    -0.136 C  
HETATM   24  C   UNL     1      -6.044  11.927  67.002  1.00  0.00    -0.149 C  
HETATM   25  C   UNL     1      -7.179  13.591  68.319  1.00  0.00    -0.111 C  
HETATM   26  N   UNL     1      -6.821  12.190  68.211  1.00  0.00    -0.063 NA 
HETATM   27  C   UNL     1      -5.154  10.728  67.273  1.00  0.00    -0.038 C  
HETATM   28  C   UNL     1      -5.937   9.553  67.797  1.00  0.00    -0.052 A  
HETATM   29  C   UNL     1      -5.315   8.297  67.737  1.00  0.00    -0.034 A  
HETATM   30  C   UNL     1      -6.005   7.212  68.208  1.00  0.00    -0.030 A  
HETATM   31  C   UNL     1      -7.256   7.331  68.767  1.00  0.00    -0.090 A  
HETATM   32  O   UNL     1      -7.730   6.107  69.145  1.00  0.00    -0.096 OA 
HETATM   33  C   UNL     1      -7.890   8.567  68.898  1.00  0.00    -0.109 A  
HETATM   34  C   UNL     1      -7.231   9.719  68.385  1.00  0.00    -0.077 A  
HETATM   35  O   UNL     1      -5.549   5.931  68.176  1.00  0.00    -0.007 OA 
HETATM   36  C   UNL     1      -6.717   5.229  68.626  1.00  0.00    -0.050 C  
BRANCH  33  37
HETATM   37  O   UNL     1      -9.106   8.762  69.489  1.00  0.00    -0.142 OA 
HETATM   38  C   UNL     1      -9.128   9.245  70.830  1.00  0.00    -0.222 C  
ENDBRANCH  33  37
ENDBRANCH  12  23
ENDBRANCH   3   4
ENDBRANCH   2   3
TORSDOF 8
ENDMDL
MODEL      117
REMARK 921   NORMALIZED FREE ENERGY PREDICTED BY IDOCK:   -1.79 KCAL/MOL
REMARK 922        TOTAL FREE ENERGY PREDICTED BY IDOCK:   -3.41 KCAL/MOL
REMARK 923 INTER-LIGAND FREE ENERGY PREDICTED BY IDOCK:   -5.02 KCAL/MOL
REMARK 924 INTRA-LIGAND FREE ENERGY PREDICTED BY IDOCK:    1.62 KCAL/MOL
REMARK 927      BINDING AFFINITY PREDICTED BY RF-SCORE:    0.00 PKD
ROOT
HETATM    1  C   UNL     1     -12.063   8.032  72.499  1.00  0.00    -0.338 C  
HETATM    2  C   UNL     1     -10.887   7.432  73.251  1.00  0.00    -0.368 C  
ENDROOT
BRANCH   2   3
HETATM    3  O   UNL     1      -9.917   6.984  72.331  1.00  0.00    -0.164 OA 
BRANCH   3   4
HETATM    4  C   UNL     1      -9.615   7.606  71.163  1.00  0.00    -0.158 A  
HETATM    5  C   UNL     1      -8.643   8.661  71.253  1.00  0.00    -0.187 A  
HETATM    6  C   UNL     1      -8.439   9.518  70.139  1.00  0.00    -0.205 A  
HETATM    7  C   UNL     1     -10.534   7.537  67.666  1.00  0.00    -0.250 C  
HETATM    8  C   UNL     1      -9.139   9.276  68.921  1.00  0.00    -0.139 A  
HETATM    9  O   UNL     1     -10.983   6.301  68.012  1.00  0.00    -0.307 OA 
HETATM   10  O   UNL     1     -10.667   8.067  66.584  1.00  0.00    -0.215 OA 
HETATM   11  N   UNL     1      -8.827   9.999  67.757  1.00  0.00    -0.125 NA 
HETATM   12  C   UNL     1     -10.678   5.973  69.389  1.00  0.00    -0.334 C  
HETATM   13  C   UNL     1      -9.902   8.107  68.854  1.00  0.00    -0.178 A  
HETATM   14  H2  UNL     1      -7.829   9.896  67.576  1.00  0.00     0.000 HD 
HETATM   15  H1  UNL     1      -9.328   9.825  66.885  1.00  0.00     0.000 HD 
HETATM   16  C   UNL     1     -10.091   7.248  69.921  1.00  0.00    -0.196 A  
BRANCH   5  17
HETATM   17  O   UNL     1      -7.793   8.808  72.356  1.00  0.00    -0.351 OA 
BRANCH  17  18
HETATM   18  C   UNL     1      -6.645   7.933  72.333  1.00  0.00    -0.069 C  
HETATM   19  C   UNL     1      -5.315   8.564  72.686  1.00  0.00    -0.048 C  
ENDBRANCH  17  18
ENDBRANCH   5  17
BRANCH   6  20
HETATM   20  O   UNL     1      -7.489  10.516  70.036  1.00  0.00    -0.142 OA 
BRANCH  20  21
HETATM   21  C   UNL     1      -6.238  10.168  69.441  1.00  0.00    -0.046 C  
HETATM   22  C   UNL     1      -5.655  11.418  68.777  1.00  0.00    -0.042 C  
ENDBRANCH  20  21
ENDBRANCH   6  20
BRANCH  12  23
HETATM   23  C   UNL     1      -9.754   4.676  69.477  1.00  0.00    -0.208 C  
HETATM   24  C   UNL     1      -8.235   4.853  71.416  1.00  0.00    -0.112 C  
HETATM   25  C   UNL     1     -10.404   3.885  71.802  1.00  0.00     0.043 C  
HETATM   26  N   UNL     1      -9.367   4.145  70.823  1.00  0.00    -0.138 NA 
HETATM   27  C   UNL     1      -6.992   4.489  70.625  1.00  0.00    -0.037 C  
HETATM   28  C   UNL     1      -7.181   4.713  69.148  1.00  0.00    -0.052 A  
HETATM   29  C   UNL     1      -6.021   4.770  68.360  1.00  0.00    -0.026 A  
HETATM   30  C   UNL     1      -6.166   4.972  67.013  1.00  0.00    -0.032 A  
HETATM   31  C   UNL     1      -7.402   5.075  66.421  1.00  0.00    -0.085 A  
HETATM   32  O   UNL     1      -7.273   5.284  65.076  1.00  0.00    -0.064 OA 
HETATM   33  C   UNL     1      -8.582   4.967  67.155  1.00  0.00    -0.104 A  
HETATM   34  C   UNL     1      -8.485   4.800  68.565  1.00  0.00    -0.097 A  
HETATM   35  O   UNL     1      -5.135   5.092  66.134  1.00  0.00    -0.007 OA 
HETATM   36  C   UNL     1      -5.851   5.448  64.942  1.00  0.00    -0.021 C  
BRANCH  33  37
HETATM   37  O   UNL     1      -9.840   5.008  66.623  1.00  0.00    -0.156 OA 
HETATM   38  C   UNL     1     -10.210   3.983  65.704  1.00  0.00    -0.067 C  
ENDBRANCH  33  37
ENDBRANCH  12  23
ENDBRANCH   3   4
ENDBRANCH   2   3
TORSDOF 8
ENDMDL
MODEL      118
REMARK 921   NORMALIZED FREE ENERGY PREDICTED BY IDOCK:   -1.67 KCAL/MOL
REMARK 922        TOTAL FREE ENERGY PREDICTED BY IDOCK:   -3.23 KCAL/MOL
REMARK 923 INTER-LIGAND FREE ENERGY PREDICTED BY IDOCK:   -4.12 KCAL/MOL
REMARK 924 INTRA-LIGAND FREE ENERGY PREDICTED BY IDOCK:    0.89 KCAL/MOL
REMARK 927      BINDING AFFINITY PREDICTED BY RF-SCORE:    0.00 PKD
ROOT
HETATM    1  C   UNL     1     -12.380  15.684  64.426  1.00  0.00     0.070 C  
HETATM    2  C   UNL     1     -11.323  14.615  64.198  1.00  0.00     0.060 C  
ENDROOT
BRANCH   2   3
HETATM    3  O   UNL     1     -10.440  14.582  65.298  1.00  0.00    -0.337 OA 
BRANCH   3   4
HETATM    4  C   UNL     1     -10.695  13.957  66.475  1.00  0.00    -0.277 A  
HETATM    5  C   UNL     1     -10.143  12.637  66.610  1.00  0.00    -0.241 A  
HETATM    6  C   UNL     1     -10.550  11.819  67.697  1.00  0.00    -0.205 A  
HETATM    7  C   UNL     1     -12.461  14.507  69.582  1.00  0.00    -0.168 C  
HETATM    8  C   UNL     1     -11.435  12.341  68.684  1.00  0.00    -0.307 A  
HETATM    9  O   UNL     1     -12.361  15.802  69.181  1.00  0.00    -0.212 OA 
HETATM   10  O   UNL     1     -13.054  14.107  70.561  1.00  0.00    -0.265 OA 
HETATM   11  N   UNL     1     -11.713  11.617  69.856  1.00  0.00    -0.363 NA 
HETATM   12  C   UNL     1     -11.599  15.939  67.957  1.00  0.00    -0.168 C  
HETATM   13  C   UNL     1     -11.754  13.699  68.590  1.00  0.00    -0.389 A  
HETATM   14  H2  UNL     1     -10.828  11.393  70.309  1.00  0.00     0.000 HD 
HETATM   15  H1  UNL     1     -12.347  11.991  70.562  1.00  0.00     0.000 HD 
HETATM   16  C   UNL     1     -11.347  14.516  67.552  1.00  0.00    -0.355 A  
BRANCH   5  17
HETATM   17  O   UNL     1      -9.122  12.160  65.777  1.00  0.00    -0.096 OA 
BRANCH  17  18
HETATM   18  C   UNL     1      -9.590  11.331  64.692  1.00  0.00    -0.231 C  
HETATM   19  C   UNL     1      -8.693  10.178  64.295  1.00  0.00    -0.218 C  
ENDBRANCH  17  18
ENDBRANCH   5  17
BRANCH   6  20
HETATM   20  O   UNL     1     -10.052  10.570  68.013  1.00  0.00    -0.158 OA 
BRANCH  20  21
HETATM   21  C   UNL     1      -8.804  10.520  68.709  1.00  0.00    -0.158 C  
HETATM   22  C   UNL     1      -7.867   9.577  67.950  1.00  0.00    -0.091 C  
ENDBRANCH  20  21
ENDBRANCH   6  20
BRANCH  12  23
HETATM   23  C   UNL     1     -10.311  16.851  68.185  1.00  0.00    -0.336 C  
HETATM   24  C   UNL     1      -9.715  18.008  66.086  1.00  0.00    -0.212 C  
HETATM   25  C   UNL     1     -11.298  19.099  67.532  1.00  0.00     0.385 C  
HETATM   26  N   UNL     1     -10.201  18.154  67.456  1.00  0.00    -0.353 NA 
HETATM   27  C   UNL     1      -8.249  17.621  66.151  1.00  0.00    -0.205 C  
HETATM   28  C   UNL     1      -8.022  16.426  67.040  1.00  0.00    -0.240 A  
HETATM   29  C   UNL     1      -6.800  15.752  66.899  1.00  0.00     0.064 A  
HETATM   30  C   UNL     1      -6.568  14.663  67.697  1.00  0.00    -0.155 A  
HETATM   31  C   UNL     1      -7.473  14.249  68.645  1.00  0.00    -0.127 A  
HETATM   32  O   UNL     1      -7.012  13.139  69.296  1.00  0.00    -0.074 OA 
HETATM   33  C   UNL     1      -8.676  14.922  68.859  1.00  0.00    -0.180 A  
HETATM   34  C   UNL     1      -8.982  16.034  68.027  1.00  0.00    -0.187 A  
HETATM   35  O   UNL     1      -5.451  13.888  67.643  1.00  0.00    -0.301 OA 
HETATM   36  C   UNL     1      -5.821  12.838  68.549  1.00  0.00    -0.061 C  
BRANCH  33  37
HETATM   37  O   UNL     1      -9.594  14.596  69.817  1.00  0.00     0.147 OA 
HETATM   38  C   UNL     1      -9.577  15.333  71.038  1.00  0.00     1.820 C  
ENDBRANCH  33  37
ENDBRANCH  12  23
ENDBRANCH   3   4
ENDBRANCH   2   3
TORSDOF 8
ENDMDL
MODEL      119
REMARK 921   NORMALIZED FREE ENERGY PREDICTED BY IDOCK:   -1.57 KCAL/MOL
REMARK 922        TOTAL FREE ENERGY PREDICTED BY IDOCK:   -3.08 KCAL/MOL
REMARK 923 INTER-LIGAND FREE ENERGY PREDICTED BY IDOCK:   -5.50 KCAL/MOL
REMARK 924 INTRA-LIGAND FREE ENERGY PREDICTED BY IDOCK:    2.42 KCAL/MOL
REMARK 927      BINDING AFFINITY PREDICTED BY RF-SCORE:    0.00 PKD
ROOT
HETATM    1  C   UNL     1     -11.792  16.043  72.669  1.00  0.00    -0.611 C  
HETATM    2  C   UNL     1     -11.622  14.591  72.255  1.00  0.00     0.396 C  
ENDROOT
BRANCH   2   3
HETATM    3  O   UNL     1     -11.392  14.519  70.865  1.00  0.00    -0.180 OA 
BRANCH   3   4
HETATM    4  C   UNL     1     -11.438  13.379  70.132  1.00  0.00     0.013 A  
HETATM    5  C   UNL     1     -12.331  12.363  70.619  1.00  0.00    -0.279 A  
HETATM    6  C   UNL     1     -12.274  11.058  70.060  1.00  0.00    -0.343 A  
HETATM    7  C   UNL     1      -9.932  11.907  67.192  1.00  0.00    -0.194 C  
HETATM    8  C   UNL     1     -11.393  10.791  68.973  1.00  0.00    -0.284 A  
HETATM    9  O   UNL     1      -9.643  13.209  66.930  1.00  0.00    -0.233 OA 
HETATM   10  O   UNL     1      -9.574  10.951  66.538  1.00  0.00    -0.186 OA 
HETATM   11  N   UNL     1     -11.443   9.563  68.292  1.00  0.00    -0.301 NA 
HETATM   12  C   UNL     1     -10.206  14.105  67.919  1.00  0.00    -0.235 C  
HETATM   13  C   UNL     1     -10.718  11.886  68.424  1.00  0.00    -0.248 A  
HETATM   14  H2  UNL     1     -12.399   9.417  67.969  1.00  0.00     0.000 HD 
HETATM   15  H1  UNL     1     -10.812   9.372  67.513  1.00  0.00     0.000 HD 
HETATM   16  C   UNL     1     -10.781  13.167  68.940  1.00  0.00    -0.202 A  
BRANCH   5  17
HETATM   17  O   UNL     1     -13.347  12.635  71.544  1.00  0.00    -0.302 OA 
BRANCH  17  18
HETATM   18  C   UNL     1     -14.314  13.604  71.085  1.00  0.00     1.042 C  
HETATM   19  C   UNL     1     -14.410  14.886  71.885  1.00  0.00    -0.667 C  
ENDBRANCH  17  18
ENDBRANCH   5  17
BRANCH   6  20
HETATM   20  O   UNL     1     -13.115  10.003  70.356  1.00  0.00    -0.163 OA 
BRANCH  20  21
HETATM   21  C   UNL     1     -12.817   9.237  71.525  1.00  0.00    -0.354 C  
HETATM   22  C   UNL     1     -13.993   9.362  72.496  1.00  0.00    -0.315 C  
ENDBRANCH  20  21
ENDBRANCH   6  20
BRANCH  12  23
HETATM   23  C   UNL     1     -11.224  15.132  67.246  1.00  0.00    -0.324 C  
HETATM   24  C   UNL     1     -11.275  14.787  64.800  1.00  0.00    -0.385 C  
HETATM   25  C   UNL     1     -12.784  13.466  66.128  1.00  0.00    -0.078 C  
HETATM   26  N   UNL     1     -12.019  14.696  66.054  1.00  0.00    -0.297 NA 
HETATM   27  C   UNL     1     -11.097  16.258  64.471  1.00  0.00    -0.174 C  
HETATM   28  C   UNL     1     -10.503  17.024  65.624  1.00  0.00    -0.229 A  
HETATM   29  C   UNL     1      -9.954  18.282  65.336  1.00  0.00     0.810 A  
HETATM   30  C   UNL     1      -9.409  19.000  66.367  1.00  0.00    -0.336 A  
HETATM   31  C   UNL     1      -9.425  18.540  67.663  1.00  0.00    -0.279 A  
HETATM   32  O   UNL     1      -8.810  19.433  68.495  1.00  0.00    -0.351 OA 
HETATM   33  C   UNL     1     -10.010  17.321  68.005  1.00  0.00    -0.304 A  
HETATM   34  C   UNL     1     -10.552  16.519  66.963  1.00  0.00    -0.255 A  
HETATM   35  O   UNL     1      -8.804  20.211  66.232  1.00  0.00    -0.309 OA 
HETATM   36  C   UNL     1      -8.292  20.395  67.560  1.00  0.00    -0.282 C  
BRANCH  33  37
HETATM   37  O   UNL     1     -10.106  16.831  69.276  1.00  0.00    -0.271 OA 
HETATM   38  C   UNL     1     -10.998  17.482  70.178  1.00  0.00     1.211 C  
ENDBRANCH  33  37
ENDBRANCH  12  23
ENDBRANCH   3   4
ENDBRANCH   2   3
TORSDOF 8
ENDMDL
MODEL      120
REMARK 921   NORMALIZED FREE ENERGY PREDICTED BY IDOCK:   -1.55 KCAL/MOL
REMARK 922        TOTAL FREE ENERGY PREDICTED BY IDOCK:   -3.05 KCAL/MOL
REMARK 923 INTER-LIGAND FREE ENERGY PREDICTED BY IDOCK:   -3.91 KCAL/MOL
REMARK 924 INTRA-LIGAND FREE ENERGY PREDICTED BY IDOCK:    0.86 KCAL/MOL
REMARK 927      BINDING AFFINITY PREDICTED BY RF-SCORE:    0.00 PKD
ROOT
HETATM    1  C   UNL     1     -11.425   6.417  71.590  1.00  0.00    -0.354 C  
HETATM    2  C   UNL     1     -10.436   6.089  70.483  1.00  0.00    -0.242 C  
ENDROOT
BRANCH   2   3
HETATM    3  O   UNL     1      -9.662   7.230  70.187  1.00  0.00    -0.172 OA 
BRANCH   3   4
HETATM    4  C   UNL     1      -9.558   7.795  68.958  1.00  0.00    -0.155 A  
HETATM    5  C   UNL     1      -9.957   9.173  68.872  1.00  0.00    -0.180 A  
HETATM    6  C   UNL     1     -10.107   9.777  67.595  1.00  0.00    -0.190 A  
HETATM    7  C   UNL     1      -8.600   6.932  65.580  1.00  0.00    -0.077 C  
HETATM    8  C   UNL     1      -9.784   9.039  66.420  1.00  0.00    -0.268 A  
HETATM    9  O   UNL     1      -7.975   5.913  66.227  1.00  0.00    -0.099 OA 
HETATM   10  O   UNL     1      -8.666   7.079  64.378  1.00  0.00     0.279 OA 
HETATM   11  N   UNL     1      -9.757   9.665  65.162  1.00  0.00    -0.422 NA 
HETATM   12  C   UNL     1      -8.099   6.021  67.666  1.00  0.00    -0.106 C  
HETATM   13  C   UNL     1      -9.203   7.781  66.605  1.00  0.00    -0.220 A  
HETATM   14  H2  UNL     1      -9.126  10.465  65.219  1.00  0.00     0.000 HD 
HETATM   15  H1  UNL     1      -9.525   9.137  64.321  1.00  0.00     0.000 HD 
HETATM   16  C   UNL     1      -9.027   7.188  67.841  1.00  0.00    -0.122 A  
BRANCH   5  17
HETATM   17  O   UNL     1     -10.090   9.990  70.002  1.00  0.00    -0.248 OA 
BRANCH  17  18
HETATM   18  C   UNL     1     -11.458  10.263  70.370  1.00  0.00    -0.335 C  
HETATM   19  C   UNL     1     -11.693  10.701  71.800  1.00  0.00     0.719 C  
ENDBRANCH  17  18
ENDBRANCH   5  17
BRANCH   6  20
HETATM   20  O   UNL     1     -10.398  11.105  67.346  1.00  0.00    -0.184 OA 
BRANCH  20  21
HETATM   21  C   UNL     1      -9.328  12.043  67.474  1.00  0.00    -0.179 C  
HETATM   22  C   UNL     1      -9.914  13.383  67.927  1.00  0.00    -0.236 C  
ENDBRANCH  20  21
ENDBRANCH   6  20
BRANCH  12  23
HETATM   23  C   UNL     1      -6.667   6.144  68.356  1.00  0.00    -0.064 C  
HETATM   24  C   UNL     1      -6.737   5.166  70.624  1.00  0.00    -0.036 C  
HETATM   25  C   UNL     1      -6.230   3.681  68.800  1.00  0.00    -0.029 C  
HETATM   26  N   UNL     1      -6.200   5.052  69.270  1.00  0.00    -0.028 NA 
HETATM   27  C   UNL     1      -6.077   6.361  71.287  1.00  0.00    -0.039 C  
HETATM   28  C   UNL     1      -6.193   7.605  70.447  1.00  0.00    -0.033 A  
HETATM   29  C   UNL     1      -5.960   8.830  71.090  1.00  0.00    -0.045 A  
HETATM   30  C   UNL     1      -6.059   9.977  70.348  1.00  0.00    -0.093 A  
HETATM   31  C   UNL     1      -6.335   9.952  69.001  1.00  0.00    -0.040 A  
HETATM   32  O   UNL     1      -6.391  11.223  68.500  1.00  0.00    -0.046 OA 
HETATM   33  C   UNL     1      -6.518   8.756  68.309  1.00  0.00    -0.060 A  
HETATM   34  C   UNL     1      -6.467   7.539  69.043  1.00  0.00    -0.040 A  
HETATM   35  O   UNL     1      -5.903  11.235  70.843  1.00  0.00    -0.319 OA 
HETATM   36  C   UNL     1      -6.273  12.013  69.695  1.00  0.00    -0.131 C  
BRANCH  33  37
HETATM   37  O   UNL     1      -6.742   8.658  66.965  1.00  0.00    -0.061 OA 
HETATM   38  C   UNL     1      -5.885   9.386  66.089  1.00  0.00    -0.057 C  
ENDBRANCH  33  37
ENDBRANCH  12  23
ENDBRANCH   3   4
ENDBRANCH   2   3
TORSDOF 8
ENDMDL
MODEL      121
REMARK 921   NORMALIZED FREE ENERGY PREDICTED BY IDOCK:   -1.54 KCAL/MOL
REMARK 922        TOTAL FREE ENERGY PREDICTED BY IDOCK:   -3.04 KCAL/MOL
REMARK 923 INTER-LIGAND FREE ENERGY PREDICTED BY IDOCK:   -6.14 KCAL/MOL
REMARK 924 INTRA-LIGAND FREE ENERGY PREDICTED BY IDOCK:    3.10 KCAL/MOL
REMARK 927      BINDING AFFINITY PREDICTED BY RF-SCORE:    0.00 PKD
ROOT
HETATM    1  C   UNL     1     -12.487  10.137  71.524  1.00  0.00    -0.526 C  
HETATM    2  C   UNL     1     -11.940   8.801  71.999  1.00  0.00    -0.376 C  
ENDROOT
BRANCH   2   3
HETATM    3  O   UNL     1     -11.140   8.232  70.987  1.00  0.00    -0.240 OA 
BRANCH   3   4
HETATM    4  C   UNL     1      -9.864   8.603  70.710  1.00  0.00    -0.192 A  
HETATM    5  C   UNL     1      -8.842   7.921  71.456  1.00  0.00    -0.132 A  
HETATM    6  C   UNL     1      -7.506   8.401  71.409  1.00  0.00    -0.094 A  
HETATM    7  C   UNL     1      -8.043  10.929  68.625  1.00  0.00    -0.143 C  
HETATM    8  C   UNL     1      -7.178   9.501  70.564  1.00  0.00    -0.135 A  
HETATM    9  O   UNL     1      -9.216  10.926  67.938  1.00  0.00    -0.147 OA 
HETATM   10  O   UNL     1      -7.079  11.626  68.388  1.00  0.00    -0.072 OA 
HETATM   11  N   UNL     1      -5.840   9.882  70.367  1.00  0.00    -0.057 NA 
HETATM   12  C   UNL     1     -10.172   9.989  68.491  1.00  0.00    -0.175 C  
HETATM   13  C   UNL     1      -8.187   9.967  69.716  1.00  0.00    -0.191 A  
HETATM   14  H2  UNL     1      -5.322   9.066  70.043  1.00  0.00     0.000 HD 
HETATM   15  H1  UNL     1      -5.605  10.669  69.762  1.00  0.00     0.000 HD 
HETATM   16  C   UNL     1      -9.486   9.495  69.731  1.00  0.00    -0.228 A  
BRANCH   5  17
HETATM   17  O   UNL     1      -9.083   6.721  72.138  1.00  0.00    -0.138 OA 
BRANCH  17  18
HETATM   18  C   UNL     1      -9.556   6.900  73.489  1.00  0.00    -0.192 C  
HETATM   19  C   UNL     1      -9.434   5.702  74.407  1.00  0.00    -0.149 C  
ENDBRANCH  17  18
ENDBRANCH   5  17
BRANCH   6  20
HETATM   20  O   UNL     1      -6.403   7.812  71.995  1.00  0.00    -0.039 OA 
BRANCH  20  21
HETATM   21  C   UNL     1      -6.275   6.394  71.869  1.00  0.00    -0.042 C  
HETATM   22  C   UNL     1      -5.328   6.097  70.704  1.00  0.00    -0.014 C  
ENDBRANCH  20  21
ENDBRANCH   6  20
BRANCH  12  23
HETATM   23  C   UNL     1     -10.577   8.884  67.415  1.00  0.00    -0.235 C  
HETATM   24  C   UNL     1      -9.301   6.808  67.818  1.00  0.00    -0.116 C  
HETATM   25  C   UNL     1     -11.381   7.067  68.998  1.00  0.00     0.091 C  
HETATM   26  N   UNL     1     -10.616   7.444  67.826  1.00  0.00    -0.221 NA 
HETATM   27  C   UNL     1      -8.868   6.654  66.372  1.00  0.00    -0.151 C  
HETATM   28  C   UNL     1      -8.952   7.956  65.619  1.00  0.00    -0.077 A  
HETATM   29  C   UNL     1      -8.247   8.036  64.408  1.00  0.00    -0.085 A  
HETATM   30  C   UNL     1      -8.308   9.209  63.703  1.00  0.00    -0.187 A  
HETATM   31  C   UNL     1      -9.065  10.275  64.127  1.00  0.00    -0.251 A  
HETATM   32  O   UNL     1      -8.947  11.323  63.257  1.00  0.00    -0.169 OA 
HETATM   33  C   UNL     1      -9.827  10.220  65.294  1.00  0.00    -0.306 A  
HETATM   34  C   UNL     1      -9.763   9.039  66.084  1.00  0.00    -0.354 A  
HETATM   35  O   UNL     1      -7.644   9.447  62.540  1.00  0.00    -0.109 OA 
HETATM   36  C   UNL     1      -7.934  10.841  62.358  1.00  0.00    -0.171 C  
BRANCH  33  37
HETATM   37  O   UNL     1     -10.640  11.222  65.744  1.00  0.00    -0.258 OA 
HETATM   38  C   UNL     1     -11.465  11.890  64.793  1.00  0.00    -0.260 C  
ENDBRANCH  33  37
ENDBRANCH  12  23
ENDBRANCH   3   4
ENDBRANCH   2   3
TORSDOF 8
ENDMDL
MODEL      122
REMARK 921   NORMALIZED FREE ENERGY PREDICTED BY IDOCK:   -1.53 KCAL/MOL
REMARK 922        TOTAL FREE ENERGY PREDICTED BY IDOCK:   -3.03 KCAL/MOL
REMARK 923 INTER-LIGAND FREE ENERGY PREDICTED BY IDOCK:   -4.01 KCAL/MOL
REMARK 924 INTRA-LIGAND FREE ENERGY PREDICTED BY IDOCK:    0.99 KCAL/MOL
REMARK 927      BINDING AFFINITY PREDICTED BY RF-SCORE:    0.00 PKD
ROOT
HETATM    1  C   UNL     1     -10.838   7.371  72.646  1.00  0.00    -0.349 C  
HETATM    2  C   UNL     1      -9.352   7.263  72.946  1.00  0.00    -0.154 C  
ENDROOT
BRANCH   2   3
HETATM    3  O   UNL     1      -8.620   7.352  71.744  1.00  0.00    -0.114 OA 
BRANCH   3   4
HETATM    4  C   UNL     1      -9.158   7.640  70.531  1.00  0.00    -0.151 A  
HETATM    5  C   UNL     1      -9.117   9.025  70.147  1.00  0.00    -0.188 A  
HETATM    6  C   UNL     1      -9.858   9.456  69.014  1.00  0.00    -0.169 A  
HETATM    7  C   UNL     1     -10.821   5.998  67.773  1.00  0.00    -0.290 C  
HETATM    8  C   UNL     1     -10.566   8.503  68.227  1.00  0.00    -0.119 A  
HETATM    9  O   UNL     1     -10.245   4.902  68.335  1.00  0.00    -0.121 OA 
HETATM   10  O   UNL     1     -11.582   5.998  66.828  1.00  0.00     0.226 OA 
HETATM   11  N   UNL     1     -11.160   8.876  67.009  1.00  0.00    -0.136 NA 
HETATM   12  C   UNL     1      -9.403   5.245  69.462  1.00  0.00    -0.130 C  
HETATM   13  C   UNL     1     -10.379   7.155  68.548  1.00  0.00    -0.203 A  
HETATM   14  H2  UNL     1     -10.443   9.303  66.423  1.00  0.00     0.000 HD 
HETATM   15  H1  UNL     1     -11.667   8.194  66.445  1.00  0.00     0.000 HD 
HETATM   16  C   UNL     1      -9.642   6.717  69.631  1.00  0.00    -0.156 A  
BRANCH   5  17
HETATM   17  O   UNL     1      -8.276   9.954  70.772  1.00  0.00    -0.181 OA 
BRANCH  17  18
HETATM   18  C   UNL     1      -6.948  10.014  70.210  1.00  0.00    -0.150 C  
HETATM   19  C   UNL     1      -6.569  11.307  69.519  1.00  0.00    -0.129 C  
ENDBRANCH  17  18
ENDBRANCH   5  17
BRANCH   6  20
HETATM   20  O   UNL     1      -9.854  10.725  68.468  1.00  0.00    -0.163 OA 
BRANCH  20  21
HETATM   21  C   UNL     1     -10.530  11.751  69.197  1.00  0.00    -0.024 C  
HETATM   22  C   UNL     1     -11.829  11.168  69.760  1.00  0.00    -0.422 C  
ENDBRANCH  20  21
ENDBRANCH   6  20
BRANCH  12  23
HETATM   23  C   UNL     1      -7.894   4.795  69.206  1.00  0.00    -0.070 C  
HETATM   24  C   UNL     1      -6.439   5.666  71.003  1.00  0.00    -0.036 C  
HETATM   25  C   UNL     1      -7.486   3.531  71.372  1.00  0.00    -0.044 C  
HETATM   26  N   UNL     1      -7.018   4.478  70.379  1.00  0.00    -0.040 NA 
HETATM   27  C   UNL     1      -5.404   6.234  70.049  1.00  0.00    -0.013 C  
HETATM   28  C   UNL     1      -5.968   6.448  68.670  1.00  0.00    -0.021 A  
HETATM   29  C   UNL     1      -5.247   7.293  67.812  1.00  0.00    -0.020 A  
HETATM   30  C   UNL     1      -5.738   7.503  66.551  1.00  0.00    -0.032 A  
HETATM   31  C   UNL     1      -6.879   6.882  66.101  1.00  0.00    -0.064 A  
HETATM   32  O   UNL     1      -7.161   7.268  64.820  1.00  0.00    -0.059 OA 
HETATM   33  C   UNL     1      -7.597   5.992  66.899  1.00  0.00    -0.096 A  
HETATM   34  C   UNL     1      -7.151   5.772  68.232  1.00  0.00    -0.074 A  
HETATM   35  O   UNL     1      -5.172   8.327  65.628  1.00  0.00    -0.031 OA 
HETATM   36  C   UNL     1      -6.172   8.288  64.599  1.00  0.00    -0.064 C  
BRANCH  33  37
HETATM   37  O   UNL     1      -8.707   5.303  66.496  1.00  0.00    -0.114 OA 
HETATM   38  C   UNL     1      -8.515   4.111  65.739  1.00  0.00    -0.109 C  
ENDBRANCH  33  37
ENDBRANCH  12  23
ENDBRANCH   3   4
ENDBRANCH   2   3
TORSDOF 8
ENDMDL
MODEL      123
REMARK 921   NORMALIZED FREE ENERGY PREDICTED BY IDOCK:   -1.47 KCAL/MOL
REMARK 922        TOTAL FREE ENERGY PREDICTED BY IDOCK:   -2.94 KCAL/MOL
REMARK 923 INTER-LIGAND FREE ENERGY PREDICTED BY IDOCK:   -3.45 KCAL/MOL
REMARK 924 INTRA-LIGAND FREE ENERGY PREDICTED BY IDOCK:    0.51 KCAL/MOL
REMARK 927      BINDING AFFINITY PREDICTED BY RF-SCORE:    0.00 PKD
ROOT
HETATM    1  C   UNL     1      -8.583   7.749  63.491  1.00  0.00     0.392 C  
HETATM    2  C   UNL     1      -8.838   9.103  64.134  1.00  0.00    -0.089 C  
ENDROOT
BRANCH   2   3
HETATM    3  O   UNL     1      -8.196   9.158  65.388  1.00  0.00    -0.118 OA 
BRANCH   3   4
HETATM    4  C   UNL     1      -8.372   8.256  66.386  1.00  0.00    -0.117 A  
HETATM    5  C   UNL     1      -7.252   7.395  66.650  1.00  0.00    -0.080 A  
HETATM    6  C   UNL     1      -7.421   6.274  67.506  1.00  0.00    -0.088 A  
HETATM    7  C   UNL     1     -10.899   7.176  68.736  1.00  0.00    -0.120 C  
HETATM    8  C   UNL     1      -8.670   6.061  68.156  1.00  0.00    -0.113 A  
HETATM    9  O   UNL     1     -11.415   8.399  68.441  1.00  0.00     0.699 OA 
HETATM   10  O   UNL     1     -11.415   6.336  69.443  1.00  0.00    -0.427 OA 
HETATM   11  N   UNL     1      -8.810   5.065  69.137  1.00  0.00    -0.091 NA 
HETATM   12  C   UNL     1     -10.558   9.155  67.551  1.00  0.00    -0.249 C  
HETATM   13  C   UNL     1      -9.636   7.062  68.011  1.00  0.00    -0.133 A  
HETATM   14  H2  UNL     1      -8.102   5.223  69.854  1.00  0.00     0.000 HD 
HETATM   15  H1  UNL     1      -9.705   4.912  69.603  1.00  0.00     0.000 HD 
HETATM   16  C   UNL     1      -9.479   8.171  67.201  1.00  0.00    -0.207 A  
BRANCH   5  17
HETATM   17  O   UNL     1      -5.959   7.681  66.193  1.00  0.00    -0.036 OA 
BRANCH  17  18
HETATM   18  C   UNL     1      -5.274   8.688  66.966  1.00  0.00    -0.036 C  
HETATM   19  C   UNL     1      -5.140  10.052  66.322  1.00  0.00    -0.039 C  
ENDBRANCH  17  18
ENDBRANCH   5  17
BRANCH   6  20
HETATM   20  O   UNL     1      -6.430   5.406  67.924  1.00  0.00    -0.044 OA 
BRANCH  20  21
HETATM   21  C   UNL     1      -6.120   4.307  67.065  1.00  0.00    -0.028 C  
HETATM   22  C   UNL     1      -5.766   3.099  67.937  1.00  0.00    -0.019 C  
ENDBRANCH  20  21
ENDBRANCH   6  20
BRANCH  12  23
HETATM   23  C   UNL     1     -10.084  10.516  68.234  1.00  0.00    -0.160 C  
HETATM   24  C   UNL     1      -8.549  11.726  66.723  1.00  0.00    -0.185 C  
HETATM   25  C   UNL     1     -10.904  12.149  66.469  1.00  0.00    -0.270 C  
HETATM   26  N   UNL     1      -9.856  11.722  67.376  1.00  0.00    -0.178 NA 
HETATM   27  C   UNL     1      -7.497  11.963  67.791  1.00  0.00    -0.121 C  
HETATM   28  C   UNL     1      -7.634  10.998  68.939  1.00  0.00    -0.134 A  
HETATM   29  C   UNL     1      -6.529  10.867  69.794  1.00  0.00    -0.128 A  
HETATM   30  C   UNL     1      -6.629   9.997  70.847  1.00  0.00     0.032 A  
HETATM   31  C   UNL     1      -7.782   9.294  71.105  1.00  0.00    -0.009 A  
HETATM   32  O   UNL     1      -7.620   8.490  72.199  1.00  0.00    -0.170 OA 
HETATM   33  C   UNL     1      -8.923   9.436  70.316  1.00  0.00    -0.240 A  
HETATM   34  C   UNL     1      -8.857  10.295  69.184  1.00  0.00    -0.182 A  
HETATM   35  O   UNL     1      -5.629   9.733  71.731  1.00  0.00    -0.146 OA 
HETATM   36  C   UNL     1      -6.220   8.662  72.480  1.00  0.00    -0.072 C  
BRANCH  33  37
HETATM   37  O   UNL     1     -10.115   8.809  70.546  1.00  0.00    -0.182 OA 
HETATM   38  C   UNL     1     -11.011   9.400  71.484  1.00  0.00    -0.359 C  
ENDBRANCH  33  37
ENDBRANCH  12  23
ENDBRANCH   3   4
ENDBRANCH   2   3
TORSDOF 8
ENDMDL
MODEL      124
REMARK 921   NORMALIZED FREE ENERGY PREDICTED BY IDOCK:   -1.40 KCAL/MOL
REMARK 922        TOTAL FREE ENERGY PREDICTED BY IDOCK:   -2.84 KCAL/MOL
REMARK 923 INTER-LIGAND FREE ENERGY PREDICTED BY IDOCK:   -5.05 KCAL/MOL
REMARK 924 INTRA-LIGAND FREE ENERGY PREDICTED BY IDOCK:    2.21 KCAL/MOL
REMARK 927      BINDING AFFINITY PREDICTED BY RF-SCORE:    0.00 PKD
ROOT
HETATM    1  C   UNL     1     -11.208   8.109  72.594  1.00  0.00    -0.447 C  
HETATM    2  C   UNL     1      -9.757   8.014  73.037  1.00  0.00    -0.278 C  
ENDROOT
BRANCH   2   3
HETATM    3  O   UNL     1      -8.958   7.600  71.951  1.00  0.00    -0.116 OA 
BRANCH   3   4
HETATM    4  C   UNL     1      -9.254   7.823  70.645  1.00  0.00    -0.161 A  
HETATM    5  C   UNL     1      -8.941   9.136  70.152  1.00  0.00    -0.198 A  
HETATM    6  C   UNL     1      -9.425   9.536  68.878  1.00  0.00    -0.155 A  
HETATM    7  C   UNL     1     -10.714   6.128  67.804  1.00  0.00    -0.303 C  
HETATM    8  C   UNL     1     -10.145   8.609  68.071  1.00  0.00    -0.196 A  
HETATM    9  O   UNL     1     -10.406   5.033  68.549  1.00  0.00    -0.124 OA 
HETATM   10  O   UNL     1     -11.313   6.128  66.750  1.00  0.00    -0.188 OA 
HETATM   11  N   UNL     1     -10.483   8.921  66.743  1.00  0.00    -0.240 NA 
HETATM   12  C   UNL     1      -9.702   5.380  69.767  1.00  0.00    -0.184 C  
HETATM   13  C   UNL     1     -10.220   7.292  68.536  1.00  0.00    -0.197 A  
HETATM   14  H2  UNL     1      -9.627   9.176  66.249  1.00  0.00     0.000 HD 
HETATM   15  H1  UNL     1     -10.998   8.257  66.165  1.00  0.00     0.000 HD 
HETATM   16  C   UNL     1      -9.733   6.880  69.763  1.00  0.00    -0.166 A  
BRANCH   5  17
HETATM   17  O   UNL     1      -8.071  10.004  70.824  1.00  0.00    -0.105 OA 
BRANCH  17  18
HETATM   18  C   UNL     1      -6.724  10.001  70.305  1.00  0.00    -0.137 C  
HETATM   19  C   UNL     1      -5.612   9.910  71.328  1.00  0.00    -0.069 C  
ENDBRANCH  17  18
ENDBRANCH   5  17
BRANCH   6  20
HETATM   20  O   UNL     1      -9.143  10.723  68.230  1.00  0.00    -0.145 OA 
BRANCH  20  21
HETATM   21  C   UNL     1     -10.009  11.830  68.487  1.00  0.00    -0.199 C  
HETATM   22  C   UNL     1     -10.202  12.605  67.181  1.00  0.00    -0.230 C  
ENDBRANCH  20  21
ENDBRANCH   6  20
BRANCH  12  23
HETATM   23  C   UNL     1      -8.260   4.699  69.807  1.00  0.00    -0.067 C  
HETATM   24  C   UNL     1      -6.521   6.427  70.106  1.00  0.00    -0.040 C  
HETATM   25  C   UNL     1      -7.508   5.503  72.096  1.00  0.00    -0.099 C  
HETATM   26  N   UNL     1      -7.204   5.278  70.696  1.00  0.00    -0.066 NA 
HETATM   27  C   UNL     1      -5.654   5.919  68.969  1.00  0.00    -0.011 C  
HETATM   28  C   UNL     1      -6.438   5.075  67.999  1.00  0.00    -0.045 A  
HETATM   29  C   UNL     1      -5.863   4.856  66.738  1.00  0.00    -0.022 A  
HETATM   30  C   UNL     1      -6.555   4.090  65.838  1.00  0.00    -0.044 A  
HETATM   31  C   UNL     1      -7.760   3.507  66.152  1.00  0.00    -0.081 A  
HETATM   32  O   UNL     1      -8.247   2.809  65.082  1.00  0.00    -0.089 OA 
HETATM   33  C   UNL     1      -8.342   3.651  67.411  1.00  0.00    -0.094 A  
HETATM   34  C   UNL     1      -7.683   4.472  68.367  1.00  0.00    -0.079 A  
HETATM   35  O   UNL     1      -6.145   3.829  64.567  1.00  0.00    -0.021 OA 
HETATM   36  C   UNL     1      -7.301   3.151  64.055  1.00  0.00    -0.065 C  
BRANCH  33  37
HETATM   37  O   UNL     1      -9.508   3.057  67.804  1.00  0.00    -0.208 OA 
HETATM   38  C   UNL     1      -9.457   1.694  68.218  1.00  0.00    -0.183 C  
ENDBRANCH  33  37
ENDBRANCH  12  23
ENDBRANCH   3   4
ENDBRANCH   2   3
TORSDOF 8
ENDMDL
MODEL      125
REMARK 921   NORMALIZED FREE ENERGY PREDICTED BY IDOCK:   -1.38 KCAL/MOL
REMARK 922        TOTAL FREE ENERGY PREDICTED BY IDOCK:   -2.81 KCAL/MOL
REMARK 923 INTER-LIGAND FREE ENERGY PREDICTED BY IDOCK:   -4.94 KCAL/MOL
REMARK 924 INTRA-LIGAND FREE ENERGY PREDICTED BY IDOCK:    2.13 KCAL/MOL
REMARK 927      BINDING AFFINITY PREDICTED BY RF-SCORE:    0.00 PKD
ROOT
HETATM    1  C   UNL     1     -12.385   6.260  71.952  1.00  0.00    -0.186 C  
HETATM    2  C   UNL     1     -11.152   6.136  72.833  1.00  0.00    -0.247 C  
ENDROOT
BRANCH   2   3
HETATM    3  O   UNL     1     -10.432   4.977  72.477  1.00  0.00    -0.201 OA 
BRANCH   3   4
HETATM    4  C   UNL     1      -9.198   4.978  71.913  1.00  0.00    -0.137 A  
HETATM    5  C   UNL     1      -8.521   3.710  71.895  1.00  0.00    -0.085 A  
HETATM    6  C   UNL     1      -7.146   3.658  71.544  1.00  0.00    -0.032 A  
HETATM    7  C   UNL     1      -6.851   7.262  70.379  1.00  0.00    -0.053 C  
HETATM    8  C   UNL     1      -6.474   4.847  71.136  1.00  0.00    -0.023 A  
HETATM    9  O   UNL     1      -7.976   8.011  70.235  1.00  0.00    -0.099 OA 
HETATM   10  O   UNL     1      -5.724   7.605  70.090  1.00  0.00    -0.023 OA 
HETATM   11  N   UNL     1      -5.168   4.793  70.619  1.00  0.00    -0.003 NA 
HETATM   12  C   UNL     1      -9.160   7.314  70.694  1.00  0.00    -0.157 C  
HETATM   13  C   UNL     1      -7.259   5.993  70.978  1.00  0.00    -0.074 A  
HETATM   14  H2  UNL     1      -5.163   4.140  69.836  1.00  0.00     0.000 HD 
HETATM   15  H1  UNL     1      -4.687   5.644  70.327  1.00  0.00     0.000 HD 
HETATM   16  C   UNL     1      -8.603   6.055  71.292  1.00  0.00    -0.129 A  
BRANCH   5  17
HETATM   17  O   UNL     1      -9.192   2.497  72.094  1.00  0.00    -0.082 OA 
BRANCH  17  18
HETATM   18  C   UNL     1      -8.847   1.473  71.136  1.00  0.00    -0.055 C  
HETATM   19  C   UNL     1      -9.590   1.511  69.817  1.00  0.00    -0.081 C  
ENDBRANCH  17  18
ENDBRANCH   5  17
BRANCH   6  20
HETATM   20  O   UNL     1      -6.380   2.518  71.397  1.00  0.00    -0.017 OA 
BRANCH  20  21
HETATM   21  C   UNL     1      -5.491   2.187  72.465  1.00  0.00     0.000 C  
HETATM   22  C   UNL     1      -6.231   2.387  73.790  1.00  0.00    -0.012 C  
ENDBRANCH  20  21
ENDBRANCH   6  20
BRANCH  12  23
HETATM   23  C   UNL     1     -10.212   7.133  69.510  1.00  0.00    -0.195 C  
HETATM   24  C   UNL     1      -9.035   6.550  67.418  1.00  0.00    -0.110 C  
HETATM   25  C   UNL     1      -9.673   4.736  68.864  1.00  0.00    -0.174 C  
HETATM   26  N   UNL     1      -9.957   6.098  68.458  1.00  0.00    -0.140 NA 
HETATM   27  C   UNL     1      -9.750   7.598  66.585  1.00  0.00    -0.283 C  
HETATM   28  C   UNL     1     -10.334   8.691  67.439  1.00  0.00    -0.353 A  
HETATM   29  C   UNL     1     -10.690   9.884  66.790  1.00  0.00    -0.154 A  
HETATM   30  C   UNL     1     -11.225  10.894  67.544  1.00  0.00    -0.293 A  
HETATM   31  C   UNL     1     -11.457  10.753  68.891  1.00  0.00    -0.293 A  
HETATM   32  O   UNL     1     -11.981  11.903  69.410  1.00  0.00    -0.306 OA 
HETATM   33  C   UNL     1     -11.172   9.567  69.568  1.00  0.00    -0.074 A  
HETATM   34  C   UNL     1     -10.575   8.502  68.837  1.00  0.00    -0.166 A  
HETATM   35  O   UNL     1     -11.576  12.117  67.062  1.00  0.00    -0.376 OA 
HETATM   36  C   UNL     1     -11.902  12.794  68.284  1.00  0.00    -0.312 C  
BRANCH  33  37
HETATM   37  O   UNL     1     -11.425   9.343  70.892  1.00  0.00    -0.273 OA 
HETATM   38  C   UNL     1     -10.347   9.491  71.813  1.00  0.00     0.258 C  
ENDBRANCH  33  37
ENDBRANCH  12  23
ENDBRANCH   3   4
ENDBRANCH   2   3
TORSDOF 8
ENDMDL
MODEL      126
REMARK 921   NORMALIZED FREE ENERGY PREDICTED BY IDOCK:   -1.27 KCAL/MOL
REMARK 922        TOTAL FREE ENERGY PREDICTED BY IDOCK:   -2.64 KCAL/MOL
REMARK 923 INTER-LIGAND FREE ENERGY PREDICTED BY IDOCK:   -4.47 KCAL/MOL
REMARK 924 INTRA-LIGAND FREE ENERGY PREDICTED BY IDOCK:    1.83 KCAL/MOL
REMARK 927      BINDING AFFINITY PREDICTED BY RF-SCORE:    0.00 PKD
ROOT
HETATM    1  C   UNL     1     -12.269  14.024  71.526  1.00  0.00    -0.285 C  
HETATM    2  C   UNL     1     -12.481  13.157  70.295  1.00  0.00    -0.163 C  
ENDROOT
BRANCH   2   3
HETATM    3  O   UNL     1     -11.319  13.180  69.496  1.00  0.00    -0.234 OA 
BRANCH   3   4
HETATM    4  C   UNL     1     -11.277  13.598  68.206  1.00  0.00    -0.273 A  
HETATM    5  C   UNL     1     -10.798  14.938  68.002  1.00  0.00    -0.263 A  
HETATM    6  C   UNL     1     -10.939  15.542  66.724  1.00  0.00    -0.257 A  
HETATM    7  C   UNL     1     -12.069  12.419  64.881  1.00  0.00    -0.407 C  
HETATM    8  C   UNL     1     -11.479  14.790  65.641  1.00  0.00    -0.327 A  
HETATM    9  O   UNL     1     -11.999  11.213  65.505  1.00  0.00     0.345 OA 
HETATM   10  O   UNL     1     -12.392  12.607  63.727  1.00  0.00    -0.524 OA 
HETATM   11  N   UNL     1     -11.467  15.304  64.333  1.00  0.00    -0.672 NA 
HETATM   12  C   UNL     1     -11.600  11.338  66.892  1.00  0.00     0.090 C  
HETATM   13  C   UNL     1     -11.721  13.433  65.874  1.00  0.00    -0.389 A  
HETATM   14  H2  UNL     1     -10.507  15.555  64.098  1.00  0.00     0.000 HD 
HETATM   15  H1  UNL     1     -11.853  14.765  63.557  1.00  0.00     0.000 HD 
HETATM   16  C   UNL     1     -11.566  12.823  67.105  1.00  0.00    -0.426 A  
BRANCH   5  17
HETATM   17  O   UNL     1     -10.082  15.638  68.982  1.00  0.00    -0.204 OA 
BRANCH  17  18
HETATM   18  C   UNL     1     -10.819  16.727  69.578  1.00  0.00    -0.225 C  
HETATM   19  C   UNL     1     -10.201  18.104  69.450  1.00  0.00     0.117 C  
ENDBRANCH  17  18
ENDBRANCH   5  17
BRANCH   6  20
HETATM   20  O   UNL     1     -10.457  16.780  66.345  1.00  0.00    -0.314 OA 
BRANCH  20  21
HETATM   21  C   UNL     1      -9.078  16.860  65.979  1.00  0.00    -0.164 C  
HETATM   22  C   UNL     1      -8.592  18.288  66.238  1.00  0.00    -0.208 C  
ENDBRANCH  20  21
ENDBRANCH   6  20
BRANCH  12  23
HETATM   23  C   UNL     1     -10.242  10.549  67.169  1.00  0.00    -0.223 C  
HETATM   24  C   UNL     1     -10.294   9.547  69.426  1.00  0.00    -0.214 C  
HETATM   25  C   UNL     1     -11.209   8.244  67.622  1.00  0.00     0.687 C  
HETATM   26  N   UNL     1     -10.279   9.295  67.987  1.00  0.00    -0.198 NA 
HETATM   27  C   UNL     1      -8.926  10.074  69.819  1.00  0.00    -0.209 C  
HETATM   28  C   UNL     1      -8.510  11.246  68.970  1.00  0.00     0.002 A  
HETATM   29  C   UNL     1      -7.463  12.044  69.456  1.00  0.00     0.430 A  
HETATM   30  C   UNL     1      -7.065  13.115  68.702  1.00  0.00    -0.103 A  
HETATM   31  C   UNL     1      -7.630  13.397  67.481  1.00  0.00    -0.169 A  
HETATM   32  O   UNL     1      -7.067  14.519  66.940  1.00  0.00     0.041 OA 
HETATM   33  C   UNL     1      -8.634  12.600  66.932  1.00  0.00    -0.151 A  
HETATM   34  C   UNL     1      -9.112  11.499  67.696  1.00  0.00    -0.168 A  
HETATM   35  O   UNL     1      -6.096  13.999  69.064  1.00  0.00    -0.081 OA 
HETATM   36  C   UNL     1      -6.223  14.968  68.013  1.00  0.00    -0.150 C  
BRANCH  33  37
HETATM   37  O   UNL     1      -9.201  12.792  65.704  1.00  0.00     0.064 OA 
HETATM   38  C   UNL     1      -8.796  11.935  64.640  1.00  0.00     0.751 C  
ENDBRANCH  33  37
ENDBRANCH  12  23
ENDBRANCH   3   4
ENDBRANCH   2   3
TORSDOF 8
ENDMDL
MODEL      127
REMARK 921   NORMALIZED FREE ENERGY PREDICTED BY IDOCK:   -1.17 KCAL/MOL
REMARK 922        TOTAL FREE ENERGY PREDICTED BY IDOCK:   -2.51 KCAL/MOL
REMARK 923 INTER-LIGAND FREE ENERGY PREDICTED BY IDOCK:   -3.82 KCAL/MOL
REMARK 924 INTRA-LIGAND FREE ENERGY PREDICTED BY IDOCK:    1.31 KCAL/MOL
REMARK 927      BINDING AFFINITY PREDICTED BY RF-SCORE:    0.00 PKD
ROOT
HETATM    1  C   UNL     1      -9.571   8.987  72.292  1.00  0.00     0.123 C  
HETATM    2  C   UNL     1      -8.158   8.428  72.301  1.00  0.00    -0.127 C  
ENDROOT
BRANCH   2   3
HETATM    3  O   UNL     1      -8.045   7.411  71.331  1.00  0.00    -0.096 OA 
BRANCH   3   4
HETATM    4  C   UNL     1      -8.068   7.617  69.990  1.00  0.00    -0.120 A  
HETATM    5  C   UNL     1      -6.877   7.233  69.282  1.00  0.00    -0.054 A  
HETATM    6  C   UNL     1      -6.715   7.623  67.926  1.00  0.00    -0.067 A  
HETATM    7  C   UNL     1     -10.240   8.946  67.423  1.00  0.00    -0.249 C  
HETATM    8  C   UNL     1      -7.765   8.319  67.259  1.00  0.00    -0.101 A  
HETATM    9  O   UNL     1     -11.181   8.721  68.379  1.00  0.00     0.212 OA 
HETATM   10  O   UNL     1     -10.428   9.477  66.349  1.00  0.00    -0.199 OA 
HETATM   11  N   UNL     1      -7.702   8.562  65.876  1.00  0.00    -0.095 NA 
HETATM   12  C   UNL     1     -10.624   8.084  69.555  1.00  0.00    -0.214 C  
HETATM   13  C   UNL     1      -8.968   8.464  67.957  1.00  0.00    -0.138 A  
HETATM   14  H2  UNL     1      -7.561   7.669  65.403  1.00  0.00     0.000 HD 
HETATM   15  H1  UNL     1      -8.453   9.060  65.399  1.00  0.00     0.000 HD 
HETATM   16  C   UNL     1      -9.151   8.068  69.268  1.00  0.00    -0.148 A  
BRANCH   5  17
HETATM   17  O   UNL     1      -5.914   6.380  69.837  1.00  0.00    -0.021 OA 
BRANCH  17  18
HETATM   18  C   UNL     1      -6.189   4.977  69.638  1.00  0.00    -0.026 C  
HETATM   19  C   UNL     1      -5.813   4.052  70.776  1.00  0.00    -0.014 C  
ENDBRANCH  17  18
ENDBRANCH   5  17
BRANCH   6  20
HETATM   20  O   UNL     1      -5.677   7.263  67.088  1.00  0.00    -0.027 OA 
BRANCH  20  21
HETATM   21  C   UNL     1      -5.851   6.081  66.304  1.00  0.00    -0.024 C  
HETATM   22  C   UNL     1      -5.362   6.370  64.882  1.00  0.00    -0.021 C  
ENDBRANCH  20  21
ENDBRANCH   6  20
BRANCH  12  23
HETATM   23  C   UNL     1     -11.311   6.670  69.819  1.00  0.00    -0.354 C  
HETATM   24  C   UNL     1     -10.880   5.943  72.140  1.00  0.00    -0.241 C  
HETATM   25  C   UNL     1     -12.817   7.319  71.760  1.00  0.00    -0.331 C  
HETATM   26  N   UNL     1     -11.884   6.377  71.172  1.00  0.00    -0.316 NA 
HETATM   27  C   UNL     1     -10.423   4.551  71.744  1.00  0.00    -0.114 C  
HETATM   28  C   UNL     1      -9.989   4.491  70.303  1.00  0.00    -0.288 A  
HETATM   29  C   UNL     1      -9.213   3.387  69.919  1.00  0.00    -0.222 A  
HETATM   30  C   UNL     1      -8.807   3.308  68.613  1.00  0.00    -0.116 A  
HETATM   31  C   UNL     1      -9.170   4.248  67.679  1.00  0.00    -0.149 A  
HETATM   32  O   UNL     1      -8.627   3.948  66.461  1.00  0.00    -0.108 OA 
HETATM   33  C   UNL     1      -9.986   5.332  68.003  1.00  0.00    -0.152 A  
HETATM   34  C   UNL     1     -10.400   5.482  69.356  1.00  0.00    -0.348 A  
HETATM   35  O   UNL     1      -8.018   2.321  68.107  1.00  0.00    -0.058 OA 
HETATM   36  C   UNL     1      -7.785   2.829  66.785  1.00  0.00    -0.075 C  
BRANCH  33  37
HETATM   37  O   UNL     1     -10.426   6.272  67.114  1.00  0.00    -0.192 OA 
HETATM   38  C   UNL     1     -11.150   5.823  65.971  1.00  0.00     0.645 C  
ENDBRANCH  33  37
ENDBRANCH  12  23
ENDBRANCH   3   4
ENDBRANCH   2   3
TORSDOF 8
ENDMDL
MODEL      128
REMARK 921   NORMALIZED FREE ENERGY PREDICTED BY IDOCK:   -1.15 KCAL/MOL
REMARK 922        TOTAL FREE ENERGY PREDICTED BY IDOCK:   -2.47 KCAL/MOL
REMARK 923 INTER-LIGAND FREE ENERGY PREDICTED BY IDOCK:   -4.82 KCAL/MOL
REMARK 924 INTRA-LIGAND FREE ENERGY PREDICTED BY IDOCK:    2.34 KCAL/MOL
REMARK 927      BINDING AFFINITY PREDICTED BY RF-SCORE:    0.00 PKD
ROOT
HETATM    1  C   UNL     1      -9.628   2.411  68.467  1.00  0.00    -0.108 C  
HETATM    2  C   UNL     1      -9.593   3.257  69.729  1.00  0.00    -0.087 C  
ENDROOT
BRANCH   2   3
HETATM    3  O   UNL     1      -8.782   4.391  69.516  1.00  0.00    -0.078 OA 
BRANCH   3   4
HETATM    4  C   UNL     1      -9.240   5.666  69.439  1.00  0.00    -0.121 A  
HETATM    5  C   UNL     1      -9.498   6.310  70.698  1.00  0.00    -0.168 A  
HETATM    6  C   UNL     1     -10.196   7.547  70.718  1.00  0.00    -0.194 A  
HETATM    7  C   UNL     1     -10.145   8.144  66.967  1.00  0.00    -0.280 C  
HETATM    8  C   UNL     1     -10.561   8.174  69.491  1.00  0.00    -0.213 A  
HETATM    9  O   UNL     1      -9.381   7.345  66.174  1.00  0.00    -0.146 OA 
HETATM   10  O   UNL     1     -10.776   9.114  66.605  1.00  0.00    -0.145 OA 
HETATM   11  N   UNL     1     -11.094   9.475  69.479  1.00  0.00    -0.387 NA 
HETATM   12  C   UNL     1      -8.775   6.259  66.915  1.00  0.00    -0.113 C  
HETATM   13  C   UNL     1     -10.085   7.585  68.316  1.00  0.00    -0.209 A  
HETATM   14  H2  UNL     1     -10.444  10.089  69.970  1.00  0.00     0.000 HD 
HETATM   15  H1  UNL     1     -11.355   9.923  68.601  1.00  0.00     0.000 HD 
HETATM   16  C   UNL     1      -9.384   6.395  68.280  1.00  0.00    -0.109 A  
BRANCH   5  17
HETATM   17  O   UNL     1      -8.982   5.830  71.908  1.00  0.00    -0.138 OA 
BRANCH  17  18
HETATM   18  C   UNL     1      -7.756   6.470  72.318  1.00  0.00    -0.097 C  
HETATM   19  C   UNL     1      -6.715   5.577  72.960  1.00  0.00    -0.073 C  
ENDBRANCH  17  18
ENDBRANCH   5  17
BRANCH   6  20
HETATM   20  O   UNL     1     -10.445   8.329  71.829  1.00  0.00    -0.224 OA 
BRANCH  20  21
HETATM   21  C   UNL     1     -11.516   7.927  72.684  1.00  0.00    -0.395 C  
HETATM   22  C   UNL     1     -12.606   7.284  71.823  1.00  0.00    -0.376 C  
ENDBRANCH  20  21
ENDBRANCH   6  20
BRANCH  12  23
HETATM   23  C   UNL     1      -7.184   6.332  66.836  1.00  0.00    -0.074 C  
HETATM   24  C   UNL     1      -6.302   7.595  68.767  1.00  0.00    -0.040 C  
HETATM   25  C   UNL     1      -6.628   5.229  69.057  1.00  0.00    -0.051 C  
HETATM   26  N   UNL     1      -6.388   6.296  68.105  1.00  0.00    -0.038 NA 
HETATM   27  C   UNL     1      -5.410   8.489  67.925  1.00  0.00    -0.035 C  
HETATM   28  C   UNL     1      -5.856   8.533  66.487  1.00  0.00    -0.051 A  
HETATM   29  C   UNL     1      -5.360   9.583  65.700  1.00  0.00    -0.043 A  
HETATM   30  C   UNL     1      -5.750   9.646  64.389  1.00  0.00    -0.081 A  
HETATM   31  C   UNL     1      -6.568   8.695  63.826  1.00  0.00    -0.084 A  
HETATM   32  O   UNL     1      -6.816   8.992  62.515  1.00  0.00    -0.095 OA 
HETATM   33  C   UNL     1      -7.040   7.604  64.554  1.00  0.00    -0.065 A  
HETATM   34  C   UNL     1      -6.698   7.517  65.933  1.00  0.00    -0.046 A  
HETATM   35  O   UNL     1      -5.386  10.627  63.519  1.00  0.00    -0.157 OA 
HETATM   36  C   UNL     1      -6.197  10.284  62.386  1.00  0.00    -0.127 C  
BRANCH  33  37
HETATM   37  O   UNL     1      -7.811   6.598  64.044  1.00  0.00    -0.114 OA 
HETATM   38  C   UNL     1      -7.174   5.611  63.237  1.00  0.00    -0.052 C  
ENDBRANCH  33  37
ENDBRANCH  12  23
ENDBRANCH   3   4
ENDBRANCH   2   3
TORSDOF 8
ENDMDL
MODEL      129
REMARK 921   NORMALIZED FREE ENERGY PREDICTED BY IDOCK:   -1.11 KCAL/MOL
REMARK 922        TOTAL FREE ENERGY PREDICTED BY IDOCK:   -2.41 KCAL/MOL
REMARK 923 INTER-LIGAND FREE ENERGY PREDICTED BY IDOCK:   -3.96 KCAL/MOL
REMARK 924 INTRA-LIGAND FREE ENERGY PREDICTED BY IDOCK:    1.55 KCAL/MOL
REMARK 927      BINDING AFFINITY PREDICTED BY RF-SCORE:    0.00 PKD
ROOT
HETATM    1  C   UNL     1      -9.455  10.514  64.610  1.00  0.00    -0.316 C  
HETATM    2  C   UNL     1      -9.567   9.257  65.456  1.00  0.00    -0.220 C  
ENDROOT
BRANCH   2   3
HETATM    3  O   UNL     1      -9.450   9.594  66.821  1.00  0.00    -0.149 OA 
BRANCH   3   4
HETATM    4  C   UNL     1      -9.644   8.730  67.849  1.00  0.00    -0.145 A  
HETATM    5  C   UNL     1      -9.984   7.385  67.475  1.00  0.00    -0.173 A  
HETATM    6  C   UNL     1     -10.433   6.477  68.471  1.00  0.00    -0.220 A  
HETATM    7  C   UNL     1      -9.647   8.678  71.465  1.00  0.00    -0.257 C  
HETATM    8  C   UNL     1     -10.465   6.882  69.836  1.00  0.00    -0.216 A  
HETATM    9  O   UNL     1      -8.924   9.816  71.285  1.00  0.00     0.033 OA 
HETATM   10  O   UNL     1     -10.018   8.229  72.528  1.00  0.00    -0.266 OA 
HETATM   11  N   UNL     1     -10.738   5.953  70.856  1.00  0.00    -0.261 NA 
HETATM   12  C   UNL     1      -8.662  10.083  69.886  1.00  0.00    -0.142 C  
HETATM   13  C   UNL     1      -9.918   8.133  70.136  1.00  0.00    -0.187 A  
HETATM   14  H2  UNL     1     -10.076   5.183  70.768  1.00  0.00     0.000 HD 
HETATM   15  H1  UNL     1     -10.761   6.244  71.834  1.00  0.00     0.000 HD 
HETATM   16  C   UNL     1      -9.454   9.019  69.182  1.00  0.00    -0.153 A  
BRANCH   5  17
HETATM   17  O   UNL     1      -9.776   6.888  66.182  1.00  0.00    -0.048 OA 
BRANCH  17  18
HETATM   18  C   UNL     1      -8.437   6.400  65.950  1.00  0.00    -0.147 C  
HETATM   19  C   UNL     1      -8.180   5.764  64.600  1.00  0.00    -0.126 C  
ENDBRANCH  17  18
ENDBRANCH   5  17
BRANCH   6  20
HETATM   20  O   UNL     1     -10.714   5.136  68.290  1.00  0.00    -0.014 OA 
BRANCH  20  21
HETATM   21  C   UNL     1      -9.627   4.217  68.421  1.00  0.00    -0.133 C  
HETATM   22  C   UNL     1      -9.614   3.307  67.190  1.00  0.00    -0.085 C  
ENDBRANCH  20  21
ENDBRANCH   6  20
BRANCH  12  23
HETATM   23  C   UNL     1      -7.095  10.112  69.593  1.00  0.00    -0.115 C  
HETATM   24  C   UNL     1      -6.681  10.923  67.297  1.00  0.00    -0.082 C  
HETATM   25  C   UNL     1      -6.843  12.578  69.036  1.00  0.00    -0.089 C  
HETATM   26  N   UNL     1      -6.534  11.196  68.725  1.00  0.00    -0.049 NA 
HETATM   27  C   UNL     1      -5.738   9.789  66.941  1.00  0.00    -0.050 C  
HETATM   28  C   UNL     1      -5.927   8.597  67.841  1.00  0.00    -0.047 A  
HETATM   29  C   UNL     1      -5.395   7.376  67.400  1.00  0.00    -0.025 A  
HETATM   30  C   UNL     1      -5.552   6.276  68.201  1.00  0.00    -0.008 A  
HETATM   31  C   UNL     1      -6.172   6.350  69.426  1.00  0.00    -0.034 A  
HETATM   32  O   UNL     1      -6.211   5.119  70.018  1.00  0.00    -0.020 OA 
HETATM   33  C   UNL     1      -6.665   7.553  69.930  1.00  0.00    -0.046 A  
HETATM   34  C   UNL     1      -6.565   8.716  69.117  1.00  0.00    -0.047 A  
HETATM   35  O   UNL     1      -5.129   5.022  67.886  1.00  0.00    -0.003 OA 
HETATM   36  C   UNL     1      -5.695   4.276  68.973  1.00  0.00    -0.017 C  
BRANCH  33  37
HETATM   37  O   UNL     1      -7.243   7.706  71.159  1.00  0.00    -0.060 OA 
HETATM   38  C   UNL     1      -6.401   7.640  72.307  1.00  0.00    -0.043 C  
ENDBRANCH  33  37
ENDBRANCH  12  23
ENDBRANCH   3   4
ENDBRANCH   2   3
TORSDOF 8
ENDMDL
MODEL      130
REMARK 921   NORMALIZED FREE ENERGY PREDICTED BY IDOCK:   -1.10 KCAL/MOL
REMARK 922        TOTAL FREE ENERGY PREDICTED BY IDOCK:   -2.40 KCAL/MOL
REMARK 923 INTER-LIGAND FREE ENERGY PREDICTED BY IDOCK:   -4.08 KCAL/MOL
REMARK 924 INTRA-LIGAND FREE ENERGY PREDICTED BY IDOCK:    1.68 KCAL/MOL
REMARK 927      BINDING AFFINITY PREDICTED BY RF-SCORE:    0.00 PKD
ROOT
HETATM    1  C   UNL     1      -6.674  13.990  67.944  1.00  0.00    -0.171 C  
HETATM    2  C   UNL     1      -6.657  12.972  69.073  1.00  0.00    -0.105 C  
ENDROOT
BRANCH   2   3
HETATM    3  O   UNL     1      -7.451  11.861  68.719  1.00  0.00    -0.117 OA 
BRANCH   3   4
HETATM    4  C   UNL     1      -7.027  10.820  67.959  1.00  0.00    -0.073 A  
HETATM    5  C   UNL     1      -6.406   9.740  68.676  1.00  0.00    -0.046 A  
HETATM    6  C   UNL     1      -5.724   8.724  67.953  1.00  0.00    -0.035 A  
HETATM    7  C   UNL     1      -6.874   9.795  64.495  1.00  0.00    -0.118 C  
HETATM    8  C   UNL     1      -5.732   8.742  66.529  1.00  0.00    -0.047 A  
HETATM    9  O   UNL     1      -7.842  10.742  64.377  1.00  0.00     0.046 OA 
HETATM   10  O   UNL     1      -6.370   9.173  63.584  1.00  0.00    -0.088 OA 
HETATM   11  N   UNL     1      -5.218   7.660  65.793  1.00  0.00    -0.028 NA 
HETATM   12  C   UNL     1      -8.211  11.310  65.657  1.00  0.00     0.133 C  
HETATM   13  C   UNL     1      -6.537   9.706  65.914  1.00  0.00    -0.080 A  
HETATM   14  H2  UNL     1      -5.691   6.812  66.104  1.00  0.00     0.000 HD 
HETATM   15  H1  UNL     1      -5.224   7.673  64.773  1.00  0.00     0.000 HD 
HETATM   16  C   UNL     1      -7.226  10.687  66.603  1.00  0.00    -0.128 A  
BRANCH   5  17
HETATM   17  O   UNL     1      -6.545   9.577  70.060  1.00  0.00    -0.052 OA 
BRANCH  17  18
HETATM   18  C   UNL     1      -7.460   8.527  70.437  1.00  0.00    -0.069 C  
HETATM   19  C   UNL     1      -8.509   8.890  71.467  1.00  0.00    -0.182 C  
ENDBRANCH  17  18
ENDBRANCH   5  17
BRANCH   6  20
HETATM   20  O   UNL     1      -5.154   7.583  68.484  1.00  0.00    -0.023 OA 
BRANCH  20  21
HETATM   21  C   UNL     1      -5.948   6.395  68.484  1.00  0.00    -0.021 C  
HETATM   22  C   UNL     1      -5.429   5.468  69.585  1.00  0.00    -0.004 C  
ENDBRANCH  20  21
ENDBRANCH   6  20
BRANCH  12  23
HETATM   23  C   UNL     1      -9.754  11.058  65.971  1.00  0.00    -0.224 C  
HETATM   24  C   UNL     1     -10.441  12.384  67.939  1.00  0.00    -0.215 C  
HETATM   25  C   UNL     1     -10.590  13.450  65.787  1.00  0.00    -0.282 C  
HETATM   26  N   UNL     1     -10.586  12.187  66.498  1.00  0.00    -0.231 NA 
HETATM   27  C   UNL     1     -11.113  11.216  68.637  1.00  0.00    -0.293 C  
HETATM   28  C   UNL     1     -10.617   9.891  68.121  1.00  0.00    -0.270 A  
HETATM   29  C   UNL     1     -10.872   8.763  68.916  1.00  0.00    -0.040 A  
HETATM   30  C   UNL     1     -10.432   7.546  68.468  1.00  0.00    -0.180 A  
HETATM   31  C   UNL     1      -9.794   7.402  67.259  1.00  0.00    -0.175 A  
HETATM   32  O   UNL     1      -9.448   6.096  67.053  1.00  0.00    -0.122 OA 
HETATM   33  C   UNL     1      -9.569   8.486  66.410  1.00  0.00    -0.245 A  
HETATM   34  C   UNL     1      -9.969   9.778  66.849  1.00  0.00    -0.270 A  
HETATM   35  O   UNL     1     -10.569   6.376  69.148  1.00  0.00    -0.204 OA 
HETATM   36  C   UNL     1      -9.800   5.499  68.312  1.00  0.00    -0.144 C  
BRANCH  33  37
HETATM   37  O   UNL     1      -8.989   8.404  65.176  1.00  0.00    -0.097 OA 
HETATM   38  C   UNL     1      -8.520   7.130  64.741  1.00  0.00     0.119 C  
ENDBRANCH  33  37
ENDBRANCH  12  23
ENDBRANCH   3   4
ENDBRANCH   2   3
TORSDOF 8
ENDMDL
MODEL      131
REMARK 921   NORMALIZED FREE ENERGY PREDICTED BY IDOCK:   -1.00 KCAL/MOL
REMARK 922        TOTAL FREE ENERGY PREDICTED BY IDOCK:   -2.26 KCAL/MOL
REMARK 923 INTER-LIGAND FREE ENERGY PREDICTED BY IDOCK:   -4.18 KCAL/MOL
REMARK 924 INTRA-LIGAND FREE ENERGY PREDICTED BY IDOCK:    1.92 KCAL/MOL
REMARK 927      BINDING AFFINITY PREDICTED BY RF-SCORE:    0.00 PKD
ROOT
HETATM    1  C   UNL     1     -11.445  13.445  64.138  1.00  0.00    -0.421 C  
HETATM    2  C   UNL     1     -10.510  14.405  64.854  1.00  0.00    -0.423 C  
ENDROOT
BRANCH   2   3
HETATM    3  O   UNL     1      -9.408  13.693  65.371  1.00  0.00     0.160 OA 
BRANCH   3   4
HETATM    4  C   UNL     1      -8.938  13.810  66.639  1.00  0.00    -0.129 A  
HETATM    5  C   UNL     1      -9.812  14.476  67.566  1.00  0.00    -0.222 A  
HETATM    6  C   UNL     1      -9.317  14.853  68.843  1.00  0.00    -0.197 A  
HETATM    7  C   UNL     1      -6.007  13.005  68.597  1.00  0.00    -0.071 C  
HETATM    8  C   UNL     1      -7.990  14.498  69.221  1.00  0.00     0.007 A  
HETATM    9  O   UNL     1      -5.801  12.138  67.570  1.00  0.00    -0.091 OA 
HETATM   10  O   UNL     1      -5.251  13.204  69.524  1.00  0.00    -0.075 OA 
HETATM   11  N   UNL     1      -7.537  14.704  70.535  1.00  0.00     0.167 NA 
HETATM   12  C   UNL     1      -6.889  12.154  66.614  1.00  0.00     0.262 C  
HETATM   13  C   UNL     1      -7.284  13.668  68.344  1.00  0.00    -0.109 A  
HETATM   14  H2  UNL     1      -8.184  14.239  71.171  1.00  0.00     0.000 HD 
HETATM   15  H1  UNL     1      -6.587  14.449  70.806  1.00  0.00     0.000 HD 
HETATM   16  C   UNL     1      -7.760  13.272  67.108  1.00  0.00    -0.018 A  
BRANCH   5  17
HETATM   17  O   UNL     1     -11.176  14.664  67.311  1.00  0.00    -0.313 OA 
BRANCH  17  18
HETATM   18  C   UNL     1     -11.616  16.031  67.460  1.00  0.00     0.162 C  
HETATM   19  C   UNL     1     -10.641  17.101  67.017  1.00  0.00    -0.227 C  
ENDBRANCH  17  18
ENDBRANCH   5  17
BRANCH   6  20
HETATM   20  O   UNL     1     -10.047  15.417  69.871  1.00  0.00    -0.277 OA 
BRANCH  20  21
HETATM   21  C   UNL     1     -11.028  14.594  70.504  1.00  0.00     0.060 C  
HETATM   22  C   UNL     1     -12.137  15.498  71.049  1.00  0.00    -0.438 C  
ENDBRANCH  20  21
ENDBRANCH   6  20
BRANCH  12  23
HETATM   23  C   UNL     1      -7.573  10.717  66.503  1.00  0.00    -0.139 C  
HETATM   24  C   UNL     1      -8.852  10.553  64.396  1.00  0.00    -0.197 C  
HETATM   25  C   UNL     1      -6.524   9.948  64.321  1.00  0.00    -0.126 C  
HETATM   26  N   UNL     1      -7.701  10.072  65.158  1.00  0.00    -0.132 NA 
HETATM   27  C   UNL     1     -10.107  10.020  65.062  1.00  0.00    -0.228 C  
HETATM   28  C   UNL     1     -10.138  10.335  66.535  1.00  0.00    -0.290 A  
HETATM   29  C   UNL     1     -11.380  10.230  67.180  1.00  0.00     0.202 A  
HETATM   30  C   UNL     1     -11.436  10.510  68.520  1.00  0.00    -0.215 A  
HETATM   31  C   UNL     1     -10.314  10.844  69.241  1.00  0.00    -0.187 A  
HETATM   32  O   UNL     1     -10.639  11.086  70.547  1.00  0.00     0.465 OA 
HETATM   33  C   UNL     1      -9.051  10.906  68.654  1.00  0.00    -0.175 A  
HETATM   34  C   UNL     1      -8.947  10.665  67.256  1.00  0.00    -0.141 A  
HETATM   35  O   UNL     1     -12.572  10.492  69.267  1.00  0.00    -0.195 OA 
HETATM   36  C   UNL     1     -12.075  11.014  70.508  1.00  0.00    -0.377 C  
BRANCH  33  37
HETATM   37  O   UNL     1      -7.891  11.181  69.322  1.00  0.00    -0.103 OA 
HETATM   38  C   UNL     1      -7.311  10.143  70.108  1.00  0.00    -0.147 C  
ENDBRANCH  33  37
ENDBRANCH  12  23
ENDBRANCH   3   4
ENDBRANCH   2   3
TORSDOF 8
ENDMDL
MODEL      132
REMARK 921   NORMALIZED FREE ENERGY PREDICTED BY IDOCK:   -0.98 KCAL/MOL
REMARK 922        TOTAL FREE ENERGY PREDICTED BY IDOCK:   -2.22 KCAL/MOL
REMARK 923 INTER-LIGAND FREE ENERGY PREDICTED BY IDOCK:   -4.09 KCAL/MOL
REMARK 924 INTRA-LIGAND FREE ENERGY PREDICTED BY IDOCK:    1.87 KCAL/MOL
REMARK 927      BINDING AFFINITY PREDICTED BY RF-SCORE:    0.00 PKD
ROOT
HETATM    1  C   UNL     1      -6.251   9.051  71.420  1.00  0.00    -0.071 C  
HETATM    2  C   UNL     1      -6.316  10.194  70.420  1.00  0.00    -0.121 C  
ENDROOT
BRANCH   2   3
HETATM    3  O   UNL     1      -7.658  10.589  70.241  1.00  0.00    -0.132 OA 
BRANCH   3   4
HETATM    4  C   UNL     1      -8.361  10.438  69.090  1.00  0.00    -0.158 A  
HETATM    5  C   UNL     1      -9.267   9.323  69.057  1.00  0.00    -0.144 A  
HETATM    6  C   UNL     1      -9.865   8.946  67.825  1.00  0.00    -0.166 A  
HETATM    7  C   UNL     1      -8.710  11.966  65.831  1.00  0.00     0.134 C  
HETATM    8  C   UNL     1      -9.626   9.723  66.655  1.00  0.00    -0.187 A  
HETATM    9  O   UNL     1      -8.139  13.015  66.480  1.00  0.00     0.214 OA 
HETATM   10  O   UNL     1      -8.974  11.917  64.649  1.00  0.00     0.311 OA 
HETATM   11  N   UNL     1     -10.339   9.476  65.469  1.00  0.00    -0.134 NA 
HETATM   12  C   UNL     1      -7.940  12.745  67.889  1.00  0.00    -0.158 C  
HETATM   13  C   UNL     1      -8.905  10.909  66.822  1.00  0.00    -0.149 A  
HETATM   14  H2  UNL     1     -11.335   9.521  65.683  1.00  0.00     0.000 HD 
HETATM   15  H1  UNL     1     -10.168  10.032  64.631  1.00  0.00     0.000 HD 
HETATM   16  C   UNL     1      -8.336  11.303  68.018  1.00  0.00    -0.136 A  
BRANCH   5  17
HETATM   17  O   UNL     1      -9.685   8.658  70.217  1.00  0.00    -0.167 OA 
BRANCH  17  18
HETATM   18  C   UNL     1     -10.466   9.478  71.112  1.00  0.00    -0.288 C  
HETATM   19  C   UNL     1     -11.095  10.717  70.510  1.00  0.00    -0.176 C  
ENDBRANCH  17  18
ENDBRANCH   5  17
BRANCH   6  20
HETATM   20  O   UNL     1     -10.816   7.960  67.643  1.00  0.00    -0.176 OA 
BRANCH  20  21
HETATM   21  C   UNL     1     -10.346   6.618  67.499  1.00  0.00    -0.208 C  
HETATM   22  C   UNL     1     -10.577   6.180  66.050  1.00  0.00     0.438 C  
ENDBRANCH  20  21
ENDBRANCH   6  20
BRANCH  12  23
HETATM   23  C   UNL     1      -8.744  13.786  68.791  1.00  0.00     0.038 C  
HETATM   24  C   UNL     1     -10.780  14.530  67.606  1.00  0.00    -0.254 C  
HETATM   25  C   UNL     1     -10.954  12.544  68.953  1.00  0.00    -0.227 C  
HETATM   26  N   UNL     1     -10.241  13.788  68.744  1.00  0.00    -0.203 NA 
HETATM   27  C   UNL     1     -10.524  16.006  67.849  1.00  0.00    -0.292 C  
HETATM   28  C   UNL     1      -9.077  16.281  68.163  1.00  0.00    -0.188 A  
HETATM   29  C   UNL     1      -8.643  17.610  68.044  1.00  0.00    -0.248 A  
HETATM   30  C   UNL     1      -7.332  17.887  68.325  1.00  0.00    -0.249 A  
HETATM   31  C   UNL     1      -6.457  16.917  68.754  1.00  0.00    -0.178 A  
HETATM   32  O   UNL     1      -5.213  17.446  68.952  1.00  0.00    -0.145 OA 
HETATM   33  C   UNL     1      -6.858  15.594  68.940  1.00  0.00    -0.126 A  
HETATM   34  C   UNL     1      -8.201  15.246  68.621  1.00  0.00    -0.159 A  
HETATM   35  O   UNL     1      -6.759  19.117  68.213  1.00  0.00    -0.238 OA 
HETATM   36  C   UNL     1      -5.385  18.786  68.460  1.00  0.00    -0.192 C  
BRANCH  33  37
HETATM   37  O   UNL     1      -6.056  14.594  69.412  1.00  0.00    -0.099 OA 
HETATM   38  C   UNL     1      -6.439  13.945  70.622  1.00  0.00     0.141 C  
ENDBRANCH  33  37
ENDBRANCH  12  23
ENDBRANCH   3   4
ENDBRANCH   2   3
TORSDOF 8
ENDMDL
MODEL      133
REMARK 921   NORMALIZED FREE ENERGY PREDICTED BY IDOCK:   -0.86 KCAL/MOL
REMARK 922        TOTAL FREE ENERGY PREDICTED BY IDOCK:   -2.05 KCAL/MOL
REMARK 923 INTER-LIGAND FREE ENERGY PREDICTED BY IDOCK:   -5.87 KCAL/MOL
REMARK 924 INTRA-LIGAND FREE ENERGY PREDICTED BY IDOCK:    3.83 KCAL/MOL
REMARK 927      BINDING AFFINITY PREDICTED BY RF-SCORE:    0.00 PKD
ROOT
HETATM    1  C   UNL     1      -8.945   9.391  62.887  1.00  0.00    -0.188 C  
HETATM    2  C   UNL     1      -8.717  10.382  64.016  1.00  0.00    -0.194 C  
ENDROOT
BRANCH   2   3
HETATM    3  O   UNL     1      -9.749  10.258  64.969  1.00  0.00    -0.259 OA 
BRANCH   3   4
HETATM    4  C   UNL     1      -9.574  10.341  66.312  1.00  0.00    -0.189 A  
HETATM    5  C   UNL     1      -8.218  10.211  66.772  1.00  0.00    -0.122 A  
HETATM    6  C   UNL     1      -7.965  10.049  68.160  1.00  0.00    -0.100 A  
HETATM    7  C   UNL     1     -11.505  10.754  69.341  1.00  0.00    -0.295 C  
HETATM    8  C   UNL     1      -9.045  10.097  69.087  1.00  0.00    -0.183 A  
HETATM    9  O   UNL     1     -12.421  11.234  68.457  1.00  0.00    -0.434 OA 
HETATM   10  O   UNL     1     -11.679  10.594  70.530  1.00  0.00    -0.308 OA 
HETATM   11  N   UNL     1      -8.804  10.115  70.472  1.00  0.00    -0.268 NA 
HETATM   12  C   UNL     1     -11.903  11.284  67.106  1.00  0.00     0.329 C  
HETATM   13  C   UNL     1     -10.301  10.439  68.576  1.00  0.00    -0.197 A  
HETATM   14  H2  UNL     1      -8.175  10.891  70.675  1.00  0.00     0.000 HD 
HETATM   15  H1  UNL     1      -9.578  10.150  71.136  1.00  0.00     0.000 HD 
HETATM   16  C   UNL     1     -10.560  10.624  67.231  1.00  0.00    -0.313 A  
BRANCH   5  17
HETATM   17  O   UNL     1      -7.117  10.358  65.918  1.00  0.00    -0.123 OA 
BRANCH  17  18
HETATM   18  C   UNL     1      -5.993  11.032  66.523  1.00  0.00    -0.131 C  
HETATM   19  C   UNL     1      -6.226  12.462  66.963  1.00  0.00     0.017 C  
ENDBRANCH  17  18
ENDBRANCH   5  17
BRANCH   6  20
HETATM   20  O   UNL     1      -6.724   9.997  68.765  1.00  0.00    -0.049 OA 
BRANCH  20  21
HETATM   21  C   UNL     1      -5.883   8.889  68.439  1.00  0.00    -0.041 C  
HETATM   22  C   UNL     1      -5.471   8.197  69.740  1.00  0.00    -0.023 C  
ENDBRANCH  20  21
ENDBRANCH   6  20
BRANCH  12  23
HETATM   23  C   UNL     1     -11.910  12.777  66.545  1.00  0.00    -0.405 C  
HETATM   24  C   UNL     1     -10.901  12.836  64.291  1.00  0.00    -0.390 C  
HETATM   25  C   UNL     1     -13.263  12.397  64.428  1.00  0.00     0.281 C  
HETATM   26  N   UNL     1     -12.119  13.005  65.080  1.00  0.00    -0.399 NA 
HETATM   27  C   UNL     1      -9.977  13.998  64.608  1.00  0.00     0.079 C  
HETATM   28  C   UNL     1      -9.762  14.157  66.089  1.00  0.00    -0.310 A  
HETATM   29  C   UNL     1      -8.666  14.936  66.492  1.00  0.00    -0.204 A  
HETATM   30  C   UNL     1      -8.449  15.097  67.835  1.00  0.00    -0.149 A  
HETATM   31  C   UNL     1      -9.290  14.559  68.779  1.00  0.00    -0.177 A  
HETATM   32  O   UNL     1      -8.848  14.853  70.038  1.00  0.00     0.190 OA 
HETATM   33  C   UNL     1     -10.422  13.825  68.425  1.00  0.00    -0.252 A  
HETATM   34  C   UNL     1     -10.668  13.593  67.043  1.00  0.00    -0.278 A  
HETATM   35  O   UNL     1      -7.406  15.786  68.372  1.00  0.00    -0.113 OA 
HETATM   36  C   UNL     1      -7.587  15.486  69.764  1.00  0.00    -0.065 C  
BRANCH  33  37
HETATM   37  O   UNL     1     -11.326  13.308  69.309  1.00  0.00    -0.262 OA 
HETATM   38  C   UNL     1     -12.043  14.217  70.141  1.00  0.00    -0.346 C  
ENDBRANCH  33  37
ENDBRANCH  12  23
ENDBRANCH   3   4
ENDBRANCH   2   3
TORSDOF 8
ENDMDL
MODEL      134
REMARK 921   NORMALIZED FREE ENERGY PREDICTED BY IDOCK:   -0.81 KCAL/MOL
REMARK 922        TOTAL FREE ENERGY PREDICTED BY IDOCK:   -1.98 KCAL/MOL
REMARK 923 INTER-LIGAND FREE ENERGY PREDICTED BY IDOCK:   -3.13 KCAL/MOL
REMARK 924 INTRA-LIGAND FREE ENERGY PREDICTED BY IDOCK:    1.15 KCAL/MOL
REMARK 927      BINDING AFFINITY PREDICTED BY RF-SCORE:    0.00 PKD
ROOT
HETATM    1  C   UNL     1      -9.850   9.203  70.566  1.00  0.00    -0.285 C  
HETATM    2  C   UNL     1     -10.415  10.612  70.638  1.00  0.00     0.778 C  
ENDROOT
BRANCH   2   3
HETATM    3  O   UNL     1     -10.582  11.122  69.334  1.00  0.00    -0.208 OA 
BRANCH   3   4
HETATM    4  C   UNL     1      -9.570  11.344  68.457  1.00  0.00    -0.189 A  
HETATM    5  C   UNL     1      -9.524  10.460  67.325  1.00  0.00    -0.154 A  
HETATM    6  C   UNL     1      -8.378  10.462  66.485  1.00  0.00    -0.130 A  
HETATM    7  C   UNL     1      -6.724  13.527  68.000  1.00  0.00    -0.138 C  
HETATM    8  C   UNL     1      -7.326  11.392  66.725  1.00  0.00    -0.135 A  
HETATM    9  O   UNL     1      -7.419  14.292  68.884  1.00  0.00    -0.123 OA 
HETATM   10  O   UNL     1      -5.618  13.767  67.565  1.00  0.00    -0.336 OA 
HETATM   11  N   UNL     1      -6.268  11.532  65.811  1.00  0.00    -0.369 NA 
HETATM   12  C   UNL     1      -8.704  13.713  69.217  1.00  0.00     0.672 C  
HETATM   13  C   UNL     1      -7.548  12.355  67.714  1.00  0.00    -0.134 A  
HETATM   14  H2  UNL     1      -6.665  11.730  64.893  1.00  0.00     0.000 HD 
HETATM   15  H1  UNL     1      -5.514  12.198  65.982  1.00  0.00     0.000 HD 
HETATM   16  C   UNL     1      -8.668  12.382  68.524  1.00  0.00    -0.060 A  
BRANCH   5  17
HETATM   17  O   UNL     1     -10.618   9.675  66.938  1.00  0.00    -0.228 OA 
BRANCH  17  18
HETATM   18  C   UNL     1     -10.612   8.346  67.500  1.00  0.00    -0.215 C  
HETATM   19  C   UNL     1     -10.559   7.200  66.512  1.00  0.00     0.023 C  
ENDBRANCH  17  18
ENDBRANCH   5  17
BRANCH   6  20
HETATM   20  O   UNL     1      -8.217   9.740  65.318  1.00  0.00    -0.126 OA 
BRANCH  20  21
HETATM   21  C   UNL     1      -8.672  10.346  64.107  1.00  0.00    -0.197 C  
HETATM   22  C   UNL     1      -7.591  10.159  63.039  1.00  0.00    -0.143 C  
ENDBRANCH  20  21
ENDBRANCH   6  20
BRANCH  12  23
HETATM   23  C   UNL     1      -9.895  14.693  68.811  1.00  0.00    -0.227 C  
HETATM   24  C   UNL     1     -11.876  14.240  70.215  1.00  0.00    -0.307 C  
HETATM   25  C   UNL     1     -10.267  15.816  71.059  1.00  0.00     0.919 C  
HETATM   26  N   UNL     1     -10.823  15.194  69.874  1.00  0.00    -0.267 NA 
HETATM   27  C   UNL     1     -12.836  14.168  69.042  1.00  0.00     0.914 C  
HETATM   28  C   UNL     1     -12.121  13.894  67.746  1.00  0.00    -0.328 A  
HETATM   29  C   UNL     1     -12.903  13.444  66.671  1.00  0.00     0.550 A  
HETATM   30  C   UNL     1     -12.277  13.189  65.480  1.00  0.00    -0.461 A  
HETATM   31  C   UNL     1     -10.930  13.399  65.306  1.00  0.00    -0.295 A  
HETATM   32  O   UNL     1     -10.552  13.057  64.038  1.00  0.00    -0.412 OA 
HETATM   33  C   UNL     1     -10.124  13.898  66.329  1.00  0.00    -0.300 A  
HETATM   34  C   UNL     1     -10.719  14.139  67.598  1.00  0.00    -0.260 A  
HETATM   35  O   UNL     1     -12.896  12.709  64.368  1.00  0.00    -0.712 OA 
HETATM   36  C   UNL     1     -11.763  12.482  63.518  1.00  0.00    -0.518 C  
BRANCH  33  37
HETATM   37  O   UNL     1      -8.792  14.179  66.207  1.00  0.00    -0.046 OA 
HETATM   38  C   UNL     1      -8.413  15.532  65.968  1.00  0.00     0.319 C  
ENDBRANCH  33  37
ENDBRANCH  12  23
ENDBRANCH   3   4
ENDBRANCH   2   3
TORSDOF 8
ENDMDL
MODEL      135
REMARK 921   NORMALIZED FREE ENERGY PREDICTED BY IDOCK:   -0.72 KCAL/MOL
REMARK 922        TOTAL FREE ENERGY PREDICTED BY IDOCK:   -1.85 KCAL/MOL
REMARK 923 INTER-LIGAND FREE ENERGY PREDICTED BY IDOCK:   -3.84 KCAL/MOL
REMARK 924 INTRA-LIGAND FREE ENERGY PREDICTED BY IDOCK:    2.00 KCAL/MOL
REMARK 927      BINDING AFFINITY PREDICTED BY RF-SCORE:    0.00 PKD
ROOT
HETATM    1  C   UNL     1      -9.739   1.483  69.550  1.00  0.00     0.002 C  
HETATM    2  C   UNL     1      -8.524   1.696  70.438  1.00  0.00    -0.042 C  
ENDROOT
BRANCH   2   3
HETATM    3  O   UNL     1      -8.047   3.014  70.277  1.00  0.00    -0.042 OA 
BRANCH   3   4
HETATM    4  C   UNL     1      -8.787   4.051  69.809  1.00  0.00    -0.089 A  
HETATM    5  C   UNL     1      -9.598   4.726  70.785  1.00  0.00    -0.179 A  
HETATM    6  C   UNL     1     -10.576   5.661  70.352  1.00  0.00    -0.294 A  
HETATM    7  C   UNL     1      -9.495   5.778  66.712  1.00  0.00    -0.143 C  
HETATM    8  C   UNL     1     -10.687   5.980  68.968  1.00  0.00    -0.324 A  
HETATM    9  O   UNL     1      -8.331   5.181  66.342  1.00  0.00    -0.108 OA 
HETATM   10  O   UNL     1     -10.217   6.438  65.996  1.00  0.00     0.160 OA 
HETATM   11  N   UNL     1     -11.521   7.025  68.535  1.00  0.00    -0.354 NA 
HETATM   12  C   UNL     1      -7.720   4.449  67.433  1.00  0.00    -0.085 C  
HETATM   13  C   UNL     1      -9.719   5.439  68.116  1.00  0.00    -0.174 A  
HETATM   14  H2  UNL     1     -11.255   7.872  69.037  1.00  0.00     0.000 HD 
HETATM   15  H1  UNL     1     -11.600   7.254  67.544  1.00  0.00     0.000 HD 
HETATM   16  C   UNL     1      -8.746   4.546  68.524  1.00  0.00    -0.117 A  
BRANCH   5  17
HETATM   17  O   UNL     1      -9.386   4.591  72.163  1.00  0.00    -0.127 OA 
BRANCH  17  18
HETATM   18  C   UNL     1     -10.488   3.981  72.868  1.00  0.00    -0.171 C  
HETATM   19  C   UNL     1     -10.824   4.569  74.222  1.00  0.00    -0.194 C  
ENDBRANCH  17  18
ENDBRANCH   5  17
BRANCH   6  20
HETATM   20  O   UNL     1     -11.370   6.450  71.162  1.00  0.00    -0.293 OA 
BRANCH  20  21
HETATM   21  C   UNL     1     -10.803   7.670  71.644  1.00  0.00    -0.227 C  
HETATM   22  C   UNL     1     -11.705   8.216  72.753  1.00  0.00    -0.334 C  
ENDBRANCH  20  21
ENDBRANCH   6  20
BRANCH  12  23
HETATM   23  C   UNL     1      -6.271   5.025  67.767  1.00  0.00    -0.039 C  
HETATM   24  C   UNL     1      -5.748   4.659  70.153  1.00  0.00    -0.013 C  
HETATM   25  C   UNL     1      -5.185   2.893  68.620  1.00  0.00    -0.012 C  
HETATM   26  N   UNL     1      -5.417   4.316  68.772  1.00  0.00    -0.012 NA 
HETATM   27  C   UNL     1      -5.303   6.090  70.396  1.00  0.00    -0.013 C  
HETATM   28  C   UNL     1      -5.848   7.032  69.355  1.00  0.00    -0.018 A  
HETATM   29  C   UNL     1      -5.823   8.401  69.662  1.00  0.00    -0.029 A  
HETATM   30  C   UNL     1      -6.311   9.279  68.731  1.00  0.00    -0.048 A  
HETATM   31  C   UNL     1      -6.779   8.860  67.508  1.00  0.00    -0.066 A  
HETATM   32  O   UNL     1      -7.219   9.925  66.773  1.00  0.00    -0.089 OA 
HETATM   33  C   UNL     1      -6.771   7.515  67.138  1.00  0.00    -0.067 A  
HETATM   34  C   UNL     1      -6.313   6.559  68.086  1.00  0.00    -0.040 A  
HETATM   35  O   UNL     1      -6.391  10.627  68.906  1.00  0.00    -0.043 OA 
HETATM   36  C   UNL     1      -7.113  10.999  67.723  1.00  0.00    -0.086 C  
BRANCH  33  37
HETATM   37  O   UNL     1      -7.171   7.038  65.922  1.00  0.00    -0.070 OA 
HETATM   38  C   UNL     1      -7.034   7.893  64.790  1.00  0.00    -0.062 C  
ENDBRANCH  33  37
ENDBRANCH  12  23
ENDBRANCH   3   4
ENDBRANCH   2   3
TORSDOF 8
ENDMDL
MODEL      136
REMARK 921   NORMALIZED FREE ENERGY PREDICTED BY IDOCK:   -0.68 KCAL/MOL
REMARK 922        TOTAL FREE ENERGY PREDICTED BY IDOCK:   -1.79 KCAL/MOL
REMARK 923 INTER-LIGAND FREE ENERGY PREDICTED BY IDOCK:   -5.42 KCAL/MOL
REMARK 924 INTRA-LIGAND FREE ENERGY PREDICTED BY IDOCK:    3.63 KCAL/MOL
REMARK 927      BINDING AFFINITY PREDICTED BY RF-SCORE:    0.00 PKD
ROOT
HETATM    1  C   UNL     1      -7.508   2.737  69.857  1.00  0.00    -0.044 C  
HETATM    2  C   UNL     1      -6.778   3.506  70.946  1.00  0.00    -0.032 C  
ENDROOT
BRANCH   2   3
HETATM    3  O   UNL     1      -7.038   4.885  70.805  1.00  0.00    -0.046 OA 
BRANCH   3   4
HETATM    4  C   UNL     1      -8.249   5.415  70.496  1.00  0.00    -0.110 A  
HETATM    5  C   UNL     1      -9.037   5.857  71.614  1.00  0.00    -0.143 A  
HETATM    6  C   UNL     1     -10.399   6.204  71.412  1.00  0.00    -0.214 A  
HETATM    7  C   UNL     1     -10.328   6.089  67.616  1.00  0.00    -0.206 C  
HETATM    8  C   UNL     1     -10.947   6.187  70.097  1.00  0.00    -0.358 A  
HETATM    9  O   UNL     1      -9.136   5.972  66.974  1.00  0.00    -0.115 OA 
HETATM   10  O   UNL     1     -11.409   6.244  67.090  1.00  0.00    -0.261 OA 
HETATM   11  N   UNL     1     -12.236   6.691  69.849  1.00  0.00    -0.479 NA 
HETATM   12  C   UNL     1      -8.035   5.776  67.895  1.00  0.00    -0.098 C  
HETATM   13  C   UNL     1     -10.057   5.951  69.045  1.00  0.00    -0.237 A  
HETATM   14  H2  UNL     1     -12.275   7.648  70.198  1.00  0.00     0.000 HD 
HETATM   15  H1  UNL     1     -12.628   6.680  68.907  1.00  0.00     0.000 HD 
HETATM   16  C   UNL     1      -8.723   5.636  69.222  1.00  0.00    -0.108 A  
BRANCH   5  17
HETATM   17  O   UNL     1      -8.485   6.079  72.882  1.00  0.00    -0.118 OA 
BRANCH  17  18
HETATM   18  C   UNL     1      -8.110   7.451  73.126  1.00  0.00    -0.109 C  
HETATM   19  C   UNL     1      -6.625   7.731  73.233  1.00  0.00    -0.079 C  
ENDBRANCH  17  18
ENDBRANCH   5  17
BRANCH   6  20
HETATM   20  O   UNL     1     -11.260   6.725  72.359  1.00  0.00    -0.247 OA 
BRANCH  20  21
HETATM   21  C   UNL     1     -11.846   7.998  72.079  1.00  0.00    -0.326 C  
HETATM   22  C   UNL     1     -10.719   9.019  71.904  1.00  0.00    -0.401 C  
ENDBRANCH  20  21
ENDBRANCH   6  20
BRANCH  12  23
HETATM   23  C   UNL     1      -6.967   6.953  67.769  1.00  0.00    -0.083 C  
HETATM   24  C   UNL     1      -7.106   8.432  69.743  1.00  0.00    -0.051 C  
HETATM   25  C   UNL     1      -5.651   6.523  69.899  1.00  0.00    -0.014 C  
HETATM   26  N   UNL     1      -6.296   7.465  69.006  1.00  0.00    -0.038 NA 
HETATM   27  C   UNL     1      -7.161   9.711  68.927  1.00  0.00    -0.067 C  
HETATM   28  C   UNL     1      -7.602   9.455  67.510  1.00  0.00    -0.091 A  
HETATM   29  C   UNL     1      -8.043  10.564  66.772  1.00  0.00    -0.123 A  
HETATM   30  C   UNL     1      -8.449  10.358  65.480  1.00  0.00    -0.167 A  
HETATM   31  C   UNL     1      -8.395   9.119  64.888  1.00  0.00    -0.162 A  
HETATM   32  O   UNL     1      -8.866   9.179  63.606  1.00  0.00    -0.178 OA 
HETATM   33  C   UNL     1      -7.912   7.999  65.565  1.00  0.00    -0.117 A  
HETATM   34  C   UNL     1      -7.518   8.152  66.923  1.00  0.00    -0.091 A  
HETATM   35  O   UNL     1      -8.940  11.327  64.660  1.00  0.00    -0.077 OA 
HETATM   36  C   UNL     1      -9.346  10.533  63.536  1.00  0.00    -0.293 C  
BRANCH  33  37
HETATM   37  O   UNL     1      -7.783   6.753  65.020  1.00  0.00    -0.093 OA 
HETATM   38  C   UNL     1      -6.635   6.490  64.217  1.00  0.00    -0.037 C  
ENDBRANCH  33  37
ENDBRANCH  12  23
ENDBRANCH   3   4
ENDBRANCH   2   3
TORSDOF 8
ENDMDL
MODEL      137
REMARK 921   NORMALIZED FREE ENERGY PREDICTED BY IDOCK:   -0.40 KCAL/MOL
REMARK 922        TOTAL FREE ENERGY PREDICTED BY IDOCK:   -1.36 KCAL/MOL
REMARK 923 INTER-LIGAND FREE ENERGY PREDICTED BY IDOCK:   -3.43 KCAL/MOL
REMARK 924 INTRA-LIGAND FREE ENERGY PREDICTED BY IDOCK:    2.07 KCAL/MOL
REMARK 927      BINDING AFFINITY PREDICTED BY RF-SCORE:    0.00 PKD
ROOT
HETATM    1  C   UNL     1     -11.590  11.971  64.568  1.00  0.00    -0.387 C  
HETATM    2  C   UNL     1     -10.641  11.096  65.370  1.00  0.00    -0.227 C  
ENDROOT
BRANCH   2   3
HETATM    3  O   UNL     1     -11.317  10.568  66.489  1.00  0.00    -0.021 OA 
BRANCH   3   4
HETATM    4  C   UNL     1     -10.917   9.477  67.190  1.00  0.00     0.051 A  
HETATM    5  C   UNL     1     -10.041   8.576  66.491  1.00  0.00    -0.258 A  
HETATM    6  C   UNL     1      -9.762   7.301  67.051  1.00  0.00    -0.181 A  
HETATM    7  C   UNL     1     -11.382   7.936  70.427  1.00  0.00    -0.194 C  
HETATM    8  C   UNL     1     -10.284   6.960  68.332  1.00  0.00    -0.176 A  
HETATM    9  O   UNL     1     -11.781   9.194  70.750  1.00  0.00    -0.280 OA 
HETATM   10  O   UNL     1     -11.416   6.968  71.157  1.00  0.00    -0.267 OA 
HETATM   11  N   UNL     1      -9.881   5.781  68.982  1.00  0.00    -0.148 NA 
HETATM   12  C   UNL     1     -11.629  10.117  69.645  1.00  0.00    -0.153 C  
HETATM   13  C   UNL     1     -10.947   7.972  69.033  1.00  0.00     0.086 A  
HETATM   14  H2  UNL     1      -8.864   5.784  69.044  1.00  0.00     0.000 HD 
HETATM   15  H1  UNL     1     -10.255   5.537  69.899  1.00  0.00     0.000 HD 
HETATM   16  C   UNL     1     -11.206   9.226  68.513  1.00  0.00     0.197 A  
BRANCH   5  17
HETATM   17  O   UNL     1      -9.350   8.948  65.331  1.00  0.00    -0.193 OA 
BRANCH  17  18
HETATM   18  C   UNL     1      -7.920   9.044  65.507  1.00  0.00    -0.106 C  
HETATM   19  C   UNL     1      -7.177   9.901  64.503  1.00  0.00    -0.137 C  
ENDBRANCH  17  18
ENDBRANCH   5  17
BRANCH   6  20
HETATM   20  O   UNL     1      -8.881   6.363  66.550  1.00  0.00    -0.126 OA 
BRANCH  20  21
HETATM   21  C   UNL     1      -7.565   6.339  67.107  1.00  0.00    -0.096 C  
HETATM   22  C   UNL     1      -6.985   4.935  66.916  1.00  0.00    -0.064 C  
ENDBRANCH  20  21
ENDBRANCH   6  20
BRANCH  12  23
HETATM   23  C   UNL     1     -10.632  11.304  70.024  1.00  0.00     0.482 C  
HETATM   24  C   UNL     1     -10.946  13.197  68.469  1.00  0.00    -0.263 C  
HETATM   25  C   UNL     1     -12.341  13.140  70.428  1.00  0.00    -0.279 C  
HETATM   26  N   UNL     1     -11.083  12.721  69.843  1.00  0.00     0.171 NA 
HETATM   27  C   UNL     1      -9.466  13.355  68.176  1.00  0.00    -0.218 C  
HETATM   28  C   UNL     1      -8.693  12.102  68.497  1.00  0.00    -0.079 A  
HETATM   29  C   UNL     1      -7.411  11.986  67.939  1.00  0.00    -0.114 A  
HETATM   30  C   UNL     1      -6.687  10.857  68.217  1.00  0.00    -0.063 A  
HETATM   31  C   UNL     1      -7.164   9.873  69.050  1.00  0.00    -0.077 A  
HETATM   32  O   UNL     1      -6.259   8.853  69.152  1.00  0.00    -0.042 OA 
HETATM   33  C   UNL     1      -8.409   9.972  69.671  1.00  0.00    -0.176 A  
HETATM   34  C   UNL     1      -9.217  11.105  69.380  1.00  0.00     0.284 A  
HETATM   35  O   UNL     1      -5.452  10.587  67.715  1.00  0.00    -0.043 OA 
HETATM   36  C   UNL     1      -5.267   9.245  68.189  1.00  0.00    -0.034 C  
BRANCH  33  37
HETATM   37  O   UNL     1      -8.919   9.057  70.548  1.00  0.00    -0.173 OA 
HETATM   38  C   UNL     1      -8.008   8.367  71.400  1.00  0.00    -0.126 C  
ENDBRANCH  33  37
ENDBRANCH  12  23
ENDBRANCH   3   4
ENDBRANCH   2   3
TORSDOF 8
ENDMDL
MODEL      138
REMARK 921   NORMALIZED FREE ENERGY PREDICTED BY IDOCK:   -0.39 KCAL/MOL
REMARK 922        TOTAL FREE ENERGY PREDICTED BY IDOCK:   -1.36 KCAL/MOL
REMARK 923 INTER-LIGAND FREE ENERGY PREDICTED BY IDOCK:   -5.01 KCAL/MOL
REMARK 924 INTRA-LIGAND FREE ENERGY PREDICTED BY IDOCK:    3.65 KCAL/MOL
REMARK 927      BINDING AFFINITY PREDICTED BY RF-SCORE:    0.00 PKD
ROOT
HETATM    1  C   UNL     1      -7.328   1.875  70.241  1.00  0.00    -0.033 C  
HETATM    2  C   UNL     1      -6.247   2.660  70.967  1.00  0.00    -0.019 C  
ENDROOT
BRANCH   2   3
HETATM    3  O   UNL     1      -6.528   4.040  70.880  1.00  0.00    -0.025 OA 
BRANCH   3   4
HETATM    4  C   UNL     1      -7.739   4.599  71.131  1.00  0.00    -0.081 A  
HETATM    5  C   UNL     1      -8.116   4.670  72.516  1.00  0.00    -0.103 A  
HETATM    6  C   UNL     1      -9.450   5.018  72.859  1.00  0.00    -0.137 A  
HETATM    7  C   UNL     1     -10.557   6.020  69.366  1.00  0.00    -0.298 C  
HETATM    8  C   UNL     1     -10.376   5.369  71.834  1.00  0.00    -0.212 A  
HETATM    9  O   UNL     1      -9.629   6.134  68.379  1.00  0.00    -0.118 OA 
HETATM   10  O   UNL     1     -11.735   6.288  69.272  1.00  0.00    -0.262 OA 
HETATM   11  N   UNL     1     -11.644   5.883  72.156  1.00  0.00    -0.286 NA 
HETATM   12  C   UNL     1      -8.313   5.711  68.813  1.00  0.00    -0.103 C  
HETATM   13  C   UNL     1      -9.868   5.479  70.536  1.00  0.00    -0.254 A  
HETATM   14  H2  UNL     1     -11.514   6.694  72.760  1.00  0.00     0.000 HD 
HETATM   15  H1  UNL     1     -12.306   6.135  71.423  1.00  0.00     0.000 HD 
HETATM   16  C   UNL     1      -8.567   5.168  70.189  1.00  0.00    -0.116 A  
BRANCH   5  17
HETATM   17  O   UNL     1      -7.189   4.528  73.556  1.00  0.00    -0.075 OA 
BRANCH  17  18
HETATM   18  C   UNL     1      -7.270   3.262  74.245  1.00  0.00    -0.048 C  
HETATM   19  C   UNL     1      -8.365   2.321  73.789  1.00  0.00    -0.062 C  
ENDBRANCH  17  18
ENDBRANCH   5  17
BRANCH   6  20
HETATM   20  O   UNL     1      -9.944   5.212  74.134  1.00  0.00    -0.163 OA 
BRANCH  20  21
HETATM   21  C   UNL     1     -10.131   6.562  74.564  1.00  0.00    -0.308 C  
HETATM   22  C   UNL     1      -8.906   7.377  74.141  1.00  0.00    -0.273 C  
ENDBRANCH  20  21
ENDBRANCH   6  20
BRANCH  12  23
HETATM   23  C   UNL     1      -7.264   6.907  68.703  1.00  0.00    -0.088 C  
HETATM   24  C   UNL     1      -6.995   7.996  70.904  1.00  0.00    -0.045 C  
HETATM   25  C   UNL     1      -5.577   6.111  70.429  1.00  0.00    -0.014 C  
HETATM   26  N   UNL     1      -6.359   7.193  69.862  1.00  0.00    -0.034 NA 
HETATM   27  C   UNL     1      -7.176   9.402  70.362  1.00  0.00    -0.111 C  
HETATM   28  C   UNL     1      -7.884   9.404  69.033  1.00  0.00    -0.079 A  
HETATM   29  C   UNL     1      -8.433  10.624  68.608  1.00  0.00    -0.142 A  
HETATM   30  C   UNL     1      -9.081  10.653  67.401  1.00  0.00    -0.139 A  
HETATM   31  C   UNL     1      -9.167   9.545  66.593  1.00  0.00    -0.152 A  
HETATM   32  O   UNL     1      -9.871   9.833  65.458  1.00  0.00    -0.294 OA 
HETATM   33  C   UNL     1      -8.587   8.327  66.949  1.00  0.00    -0.119 A  
HETATM   34  C   UNL     1      -7.939   8.233  68.212  1.00  0.00    -0.119 A  
HETATM   35  O   UNL     1      -9.698  11.749  66.881  1.00  0.00    -0.193 OA 
HETATM   36  C   UNL     1     -10.327  11.169  65.729  1.00  0.00    -0.260 C  
BRANCH  33  37
HETATM   37  O   UNL     1      -8.590   7.204  66.171  1.00  0.00    -0.134 OA 
HETATM   38  C   UNL     1      -8.066   7.304  64.849  1.00  0.00    -0.108 C  
ENDBRANCH  33  37
ENDBRANCH  12  23
ENDBRANCH   3   4
ENDBRANCH   2   3
TORSDOF 8
ENDMDL
MODEL      139
REMARK 921   NORMALIZED FREE ENERGY PREDICTED BY IDOCK:   -0.27 KCAL/MOL
REMARK 922        TOTAL FREE ENERGY PREDICTED BY IDOCK:   -1.19 KCAL/MOL
REMARK 923 INTER-LIGAND FREE ENERGY PREDICTED BY IDOCK:   -3.17 KCAL/MOL
REMARK 924 INTRA-LIGAND FREE ENERGY PREDICTED BY IDOCK:    1.98 KCAL/MOL
REMARK 927      BINDING AFFINITY PREDICTED BY RF-SCORE:    0.00 PKD
ROOT
HETATM    1  C   UNL     1      -5.552  15.530  67.468  1.00  0.00    -0.035 C  
HETATM    2  C   UNL     1      -6.949  15.313  68.027  1.00  0.00    -0.133 C  
ENDROOT
BRANCH   2   3
HETATM    3  O   UNL     1      -7.438  14.060  67.601  1.00  0.00    -0.146 OA 
BRANCH   3   4
HETATM    4  C   UNL     1      -8.644  13.544  67.949  1.00  0.00    -0.182 A  
HETATM    5  C   UNL     1      -9.666  14.505  68.260  1.00  0.00    -0.218 A  
HETATM    6  C   UNL     1     -10.878  14.066  68.856  1.00  0.00    -0.258 A  
HETATM    7  C   UNL     1     -10.252  10.343  68.442  1.00  0.00    -0.165 C  
HETATM    8  C   UNL     1     -11.101  12.675  69.066  1.00  0.00    -0.238 A  
HETATM    9  O   UNL     1      -9.207   9.922  67.680  1.00  0.00    -0.133 OA 
HETATM   10  O   UNL     1     -11.087   9.633  68.962  1.00  0.00    -0.177 OA 
HETATM   11  N   UNL     1     -12.355  12.204  69.491  1.00  0.00    -0.065 NA 
HETATM   12  C   UNL     1      -8.383  11.023  67.227  1.00  0.00    -0.125 C  
HETATM   13  C   UNL     1     -10.148  11.797  68.541  1.00  0.00    -0.212 A  
HETATM   14  H2  UNL     1     -13.061  12.544  68.837  1.00  0.00     0.000 HD 
HETATM   15  H1  UNL     1     -12.515  11.207  69.640  1.00  0.00     0.000 HD 
HETATM   16  C   UNL     1      -8.974  12.207  67.936  1.00  0.00    -0.184 A  
BRANCH   5  17
HETATM   17  O   UNL     1      -9.570  15.852  67.888  1.00  0.00    -0.213 OA 
BRANCH  17  18
HETATM   18  C   UNL     1     -10.172  16.152  66.611  1.00  0.00    -0.287 C  
HETATM   19  C   UNL     1      -9.297  16.876  65.610  1.00  0.00     0.191 C  
ENDBRANCH  17  18
ENDBRANCH   5  17
BRANCH   6  20
HETATM   20  O   UNL     1     -11.983  14.847  69.135  1.00  0.00    -0.304 OA 
BRANCH  20  21
HETATM   21  C   UNL     1     -12.701  14.558  70.336  1.00  0.00    -0.322 C  
HETATM   22  C   UNL     1     -11.723  14.628  71.511  1.00  0.00    -0.273 C  
ENDBRANCH  20  21
ENDBRANCH   6  20
BRANCH  12  23
HETATM   23  C   UNL     1      -8.349  11.094  65.634  1.00  0.00     0.002 C  
HETATM   24  C   UNL     1     -10.603  10.653  64.723  1.00  0.00    -0.114 C  
HETATM   25  C   UNL     1     -10.069  12.931  65.283  1.00  0.00    -0.238 C  
HETATM   26  N   UNL     1      -9.538  11.637  64.902  1.00  0.00    -0.196 NA 
HETATM   27  C   UNL     1     -10.123   9.626  63.715  1.00  0.00     1.401 C  
HETATM   28  C   UNL     1      -8.782   9.054  64.091  1.00  0.00    -0.126 A  
HETATM   29  C   UNL     1      -8.403   7.857  63.463  1.00  0.00     0.077 A  
HETATM   30  C   UNL     1      -7.187   7.316  63.787  1.00  0.00    -0.075 A  
HETATM   31  C   UNL     1      -6.326   7.932  64.665  1.00  0.00    -0.048 A  
HETATM   32  O   UNL     1      -5.192   7.186  64.826  1.00  0.00    -0.027 OA 
HETATM   33  C   UNL     1      -6.637   9.149  65.270  1.00  0.00    -0.069 A  
HETATM   34  C   UNL     1      -7.907   9.731  64.999  1.00  0.00    -0.128 A  
HETATM   35  O   UNL     1      -6.705   6.143  63.294  1.00  0.00    -0.038 OA 
HETATM   36  C   UNL     1      -5.516   5.999  64.083  1.00  0.00    -0.017 C  
BRANCH  33  37
HETATM   37  O   UNL     1      -5.808   9.839  66.109  1.00  0.00    -0.058 OA 
HETATM   38  C   UNL     1      -5.172   9.117  67.162  1.00  0.00    -0.036 C  
ENDBRANCH  33  37
ENDBRANCH  12  23
ENDBRANCH   3   4
ENDBRANCH   2   3
TORSDOF 8
ENDMDL
MODEL      140
REMARK 921   NORMALIZED FREE ENERGY PREDICTED BY IDOCK:   -0.24 KCAL/MOL
REMARK 922        TOTAL FREE ENERGY PREDICTED BY IDOCK:   -1.14 KCAL/MOL
REMARK 923 INTER-LIGAND FREE ENERGY PREDICTED BY IDOCK:   -4.78 KCAL/MOL
REMARK 924 INTRA-LIGAND FREE ENERGY PREDICTED BY IDOCK:    3.65 KCAL/MOL
REMARK 927      BINDING AFFINITY PREDICTED BY RF-SCORE:    0.00 PKD
ROOT
HETATM    1  C   UNL     1      -9.442   2.795  68.195  1.00  0.00    -0.217 C  
HETATM    2  C   UNL     1      -9.383   3.502  69.539  1.00  0.00    -0.173 C  
ENDROOT
BRANCH   2   3
HETATM    3  O   UNL     1      -8.616   4.680  69.420  1.00  0.00    -0.081 OA 
BRANCH   3   4
HETATM    4  C   UNL     1      -9.131   5.922  69.239  1.00  0.00    -0.123 A  
HETATM    5  C   UNL     1      -9.592   6.583  70.429  1.00  0.00    -0.162 A  
HETATM    6  C   UNL     1     -10.355   7.776  70.313  1.00  0.00    -0.215 A  
HETATM    7  C   UNL     1      -9.831   8.275  66.584  1.00  0.00    -0.267 C  
HETATM    8  C   UNL     1     -10.586   8.346  69.028  1.00  0.00    -0.154 A  
HETATM    9  O   UNL     1      -8.924   7.503  65.928  1.00  0.00    -0.159 OA 
HETATM   10  O   UNL     1     -10.462   9.195  66.108  1.00  0.00    -0.141 OA 
HETATM   11  N   UNL     1     -11.185   9.612  68.900  1.00  0.00    -0.459 NA 
HETATM   12  C   UNL     1      -8.363   6.475  66.780  1.00  0.00    -0.111 C  
HETATM   13  C   UNL     1      -9.923   7.757  67.947  1.00  0.00    -0.212 A  
HETATM   14  H2  UNL     1     -10.643  10.277  69.452  1.00  0.00     0.000 HD 
HETATM   15  H1  UNL     1     -11.350  10.021  67.980  1.00  0.00     0.000 HD 
HETATM   16  C   UNL     1      -9.157   6.610  68.046  1.00  0.00    -0.114 A  
BRANCH   5  17
HETATM   17  O   UNL     1      -9.219   6.167  71.713  1.00  0.00    -0.145 OA 
BRANCH  17  18
HETATM   18  C   UNL     1      -9.217   7.226  72.694  1.00  0.00    -0.140 C  
HETATM   19  C   UNL     1      -7.888   7.523  73.356  1.00  0.00    -0.139 C  
ENDBRANCH  17  18
ENDBRANCH   5  17
BRANCH   6  20
HETATM   20  O   UNL     1     -10.796   8.570  71.353  1.00  0.00    -0.232 OA 
BRANCH  20  21
HETATM   21  C   UNL     1     -12.165   8.439  71.741  1.00  0.00    -0.330 C  
HETATM   22  C   UNL     1     -12.691   7.105  71.208  1.00  0.00    -0.412 C  
ENDBRANCH  20  21
ENDBRANCH   6  20
BRANCH  12  23
HETATM   23  C   UNL     1      -6.782   6.642  66.912  1.00  0.00    -0.056 C  
HETATM   24  C   UNL     1      -6.049   5.961  69.170  1.00  0.00    -0.031 C  
HETATM   25  C   UNL     1      -6.178   4.243  67.490  1.00  0.00    -0.036 C  
HETATM   26  N   UNL     1      -6.011   5.661  67.741  1.00  0.00    -0.020 NA 
HETATM   27  C   UNL     1      -5.220   7.210  69.405  1.00  0.00    -0.015 C  
HETATM   28  C   UNL     1      -5.640   8.341  68.505  1.00  0.00    -0.037 A  
HETATM   29  C   UNL     1      -5.219   9.631  68.865  1.00  0.00    -0.036 A  
HETATM   30  C   UNL     1      -5.587  10.677  68.062  1.00  0.00    -0.036 A  
HETATM   31  C   UNL     1      -6.311  10.490  66.908  1.00  0.00    -0.074 A  
HETATM   32  O   UNL     1      -6.558  11.688  66.298  1.00  0.00     0.025 OA 
HETATM   33  C   UNL     1      -6.702   9.222  66.481  1.00  0.00    -0.072 A  
HETATM   34  C   UNL     1      -6.381   8.106  67.303  1.00  0.00    -0.056 A  
HETATM   35  O   UNL     1      -5.291  11.982  68.307  1.00  0.00    -0.049 OA 
HETATM   36  C   UNL     1      -6.048  12.620  67.268  1.00  0.00    -0.082 C  
BRANCH  33  37
HETATM   37  O   UNL     1      -7.376   8.961  65.321  1.00  0.00    -0.086 OA 
HETATM   38  C   UNL     1      -7.365   9.959  64.303  1.00  0.00    -0.133 C  
ENDBRANCH  33  37
ENDBRANCH  12  23
ENDBRANCH   3   4
ENDBRANCH   2   3
TORSDOF 8
ENDMDL
MODEL      141
REMARK 921   NORMALIZED FREE ENERGY PREDICTED BY IDOCK:   -0.23 KCAL/MOL
REMARK 922        TOTAL FREE ENERGY PREDICTED BY IDOCK:   -1.12 KCAL/MOL
REMARK 923 INTER-LIGAND FREE ENERGY PREDICTED BY IDOCK:   -3.18 KCAL/MOL
REMARK 924 INTRA-LIGAND FREE ENERGY PREDICTED BY IDOCK:    2.06 KCAL/MOL
REMARK 927      BINDING AFFINITY PREDICTED BY RF-SCORE:    0.00 PKD
ROOT
HETATM    1  C   UNL     1     -11.949  15.757  69.901  1.00  0.00    -0.346 C  
HETATM    2  C   UNL     1     -10.963  14.633  70.173  1.00  0.00    -0.076 C  
ENDROOT
BRANCH   2   3
HETATM    3  O   UNL     1     -10.789  13.865  69.003  1.00  0.00    -0.245 OA 
BRANCH   3   4
HETATM    4  C   UNL     1     -10.080  12.709  68.937  1.00  0.00     0.064 A  
HETATM    5  C   UNL     1     -10.829  11.541  68.562  1.00  0.00    -0.215 A  
HETATM    6  C   UNL     1     -10.233  10.259  68.693  1.00  0.00    -0.180 A  
HETATM    7  C   UNL     1      -6.722  11.480  69.471  1.00  0.00    -0.106 C  
HETATM    8  C   UNL     1      -8.878  10.148  69.117  1.00  0.00    -0.175 A  
HETATM    9  O   UNL     1      -6.428  12.800  69.330  1.00  0.00    -0.102 OA 
HETATM   10  O   UNL     1      -5.936  10.601  69.754  1.00  0.00    -0.047 OA 
HETATM   11  N   UNL     1      -8.214   8.909  69.087  1.00  0.00    -0.116 NA 
HETATM   12  C   UNL     1      -7.598  13.590  69.008  1.00  0.00     0.080 C  
HETATM   13  C   UNL     1      -8.160  11.340  69.255  1.00  0.00     0.103 A  
HETATM   14  H2  UNL     1      -8.284   8.534  68.142  1.00  0.00     0.000 HD 
HETATM   15  H1  UNL     1      -7.243   8.830  69.390  1.00  0.00     0.000 HD 
HETATM   16  C   UNL     1      -8.718  12.596  69.107  1.00  0.00     0.695 A  
BRANCH   5  17
HETATM   17  O   UNL     1     -12.089  11.619  67.954  1.00  0.00    -0.613 OA 
BRANCH  17  18
HETATM   18  C   UNL     1     -12.057  12.124  66.602  1.00  0.00     0.104 C  
HETATM   19  C   UNL     1     -12.662  13.495  66.384  1.00  0.00    -0.068 C  
ENDBRANCH  17  18
ENDBRANCH   5  17
BRANCH   6  20
HETATM   20  O   UNL     1     -10.785   9.055  68.299  1.00  0.00    -0.191 OA 
BRANCH  20  21
HETATM   21  C   UNL     1     -10.150   8.368  67.219  1.00  0.00    -0.253 C  
HETATM   22  C   UNL     1     -10.960   7.108  66.905  1.00  0.00    -0.208 C  
ENDBRANCH  20  21
ENDBRANCH   6  20
BRANCH  12  23
HETATM   23  C   UNL     1      -7.423  14.324  67.603  1.00  0.00    -0.179 C  
HETATM   24  C   UNL     1      -8.912  16.292  67.488  1.00  0.00    -0.187 C  
HETATM   25  C   UNL     1      -6.727  16.620  68.440  1.00  0.00    -0.142 C  
HETATM   26  N   UNL     1      -7.531  15.817  67.540  1.00  0.00    -0.154 NA 
HETATM   27  C   UNL     1      -9.477  15.932  66.127  1.00  0.00    -0.375 C  
HETATM   28  C   UNL     1      -9.292  14.472  65.810  1.00  0.00    -0.035 A  
HETATM   29  C   UNL     1     -10.077  13.942  64.775  1.00  0.00    -0.247 A  
HETATM   30  C   UNL     1      -9.927  12.616  64.465  1.00  0.00    -0.160 A  
HETATM   31  C   UNL     1      -9.010  11.818  65.107  1.00  0.00     0.276 A  
HETATM   32  O   UNL     1      -9.067  10.540  64.625  1.00  0.00    -0.192 OA 
HETATM   33  C   UNL     1      -8.170  12.314  66.103  1.00  0.00     0.493 A  
HETATM   34  C   UNL     1      -8.316  13.676  66.490  1.00  0.00     0.434 A  
HETATM   35  O   UNL     1     -10.648  11.956  63.519  1.00  0.00    -0.385 OA 
HETATM   36  C   UNL     1     -10.202  10.611  63.745  1.00  0.00    -0.196 C  
BRANCH  33  37
HETATM   37  O   UNL     1      -7.204  11.590  66.743  1.00  0.00    -0.141 OA 
HETATM   38  C   UNL     1      -6.140  11.055  65.959  1.00  0.00    -0.094 C  
ENDBRANCH  33  37
ENDBRANCH  12  23
ENDBRANCH   3   4
ENDBRANCH   2   3
TORSDOF 8
ENDMDL
MODEL      142
REMARK 921   NORMALIZED FREE ENERGY PREDICTED BY IDOCK:    0.15 KCAL/MOL
REMARK 922        TOTAL FREE ENERGY PREDICTED BY IDOCK:   -0.56 KCAL/MOL
REMARK 923 INTER-LIGAND FREE ENERGY PREDICTED BY IDOCK:   -3.66 KCAL/MOL
REMARK 924 INTRA-LIGAND FREE ENERGY PREDICTED BY IDOCK:    3.09 KCAL/MOL
REMARK 927      BINDING AFFINITY PREDICTED BY RF-SCORE:    0.00 PKD
ROOT
HETATM    1  C   UNL     1      -9.246  17.070  65.375  1.00  0.00     0.934 C  
HETATM    2  C   UNL     1      -8.575  17.319  66.716  1.00  0.00    -0.249 C  
ENDROOT
BRANCH   2   3
HETATM    3  O   UNL     1      -8.895  16.273  67.606  1.00  0.00    -0.188 OA 
BRANCH   3   4
HETATM    4  C   UNL     1      -8.199  15.114  67.718  1.00  0.00    -0.150 A  
HETATM    5  C   UNL     1      -7.207  15.084  68.758  1.00  0.00    -0.125 A  
HETATM    6  C   UNL     1      -6.274  14.013  68.801  1.00  0.00    -0.087 A  
HETATM    7  C   UNL     1      -7.940  11.869  66.144  1.00  0.00     0.355 C  
HETATM    8  C   UNL     1      -6.381  12.943  67.867  1.00  0.00    -0.125 A  
HETATM    9  O   UNL     1      -9.175  12.211  65.688  1.00  0.00    -0.108 OA 
HETATM   10  O   UNL     1      -7.319  10.873  65.842  1.00  0.00    -0.126 OA 
HETATM   11  N   UNL     1      -5.585  11.792  67.997  1.00  0.00    -0.044 NA 
HETATM   12  C   UNL     1      -9.627  13.476  66.229  1.00  0.00    -0.232 C  
HETATM   13  C   UNL     1      -7.501  12.946  67.028  1.00  0.00     0.096 A  
HETATM   14  H2  UNL     1      -5.725  11.413  68.933  1.00  0.00     0.000 HD 
HETATM   15  H1  UNL     1      -5.662  11.026  67.328  1.00  0.00     0.000 HD 
HETATM   16  C   UNL     1      -8.431  13.968  66.990  1.00  0.00    -0.168 A  
BRANCH   5  17
HETATM   17  O   UNL     1      -7.192  16.007  69.812  1.00  0.00    -0.140 OA 
BRANCH  17  18
HETATM   18  C   UNL     1      -6.172  17.020  69.688  1.00  0.00    -0.232 C  
HETATM   19  C   UNL     1      -6.652  18.456  69.670  1.00  0.00    -0.105 C  
ENDBRANCH  17  18
ENDBRANCH   5  17
BRANCH   6  20
HETATM   20  O   UNL     1      -5.322  13.795  69.778  1.00  0.00    -0.085 OA 
BRANCH  20  21
HETATM   21  C   UNL     1      -5.774  13.257  71.023  1.00  0.00    -0.140 C  
HETATM   22  C   UNL     1      -5.275  14.165  72.149  1.00  0.00    -0.209 C  
ENDBRANCH  20  21
ENDBRANCH   6  20
BRANCH  12  23
HETATM   23  C   UNL     1     -10.973  13.292  67.064  1.00  0.00    -0.276 C  
HETATM   24  C   UNL     1     -10.835  14.564  69.177  1.00  0.00    -0.263 C  
HETATM   25  C   UNL     1     -11.664  15.730  67.243  1.00  0.00     0.275 C  
HETATM   26  N   UNL     1     -11.491  14.438  67.878  1.00  0.00    -0.304 NA 
HETATM   27  C   UNL     1     -11.291  13.403  70.042  1.00  0.00    -0.009 C  
HETATM   28  C   UNL     1     -11.095  12.078  69.354  1.00  0.00    -0.198 A  
HETATM   29  C   UNL     1     -11.127  10.932  70.162  1.00  0.00    -0.238 A  
HETATM   30  C   UNL     1     -10.952   9.714  69.560  1.00  0.00    -0.208 A  
HETATM   31  C   UNL     1     -10.793   9.589  68.200  1.00  0.00    -0.156 A  
HETATM   32  O   UNL     1     -10.626   8.277  67.856  1.00  0.00    -0.214 OA 
HETATM   33  C   UNL     1     -10.811  10.696  67.352  1.00  0.00    -0.296 A  
HETATM   34  C   UNL     1     -10.947  11.987  67.933  1.00  0.00    -0.266 A  
HETATM   35  O   UNL     1     -10.915   8.524  70.218  1.00  0.00    -0.242 OA 
HETATM   36  C   UNL     1     -10.550   7.645  69.145  1.00  0.00    -0.186 C  
BRANCH  33  37
HETATM   37  O   UNL     1     -10.711  10.638  65.991  1.00  0.00    -0.168 OA 
HETATM   38  C   UNL     1     -10.152   9.462  65.411  1.00  0.00     0.222 C  
ENDBRANCH  33  37
ENDBRANCH  12  23
ENDBRANCH   3   4
ENDBRANCH   2   3
TORSDOF 8
ENDMDL
MODEL      143
REMARK 921   NORMALIZED FREE ENERGY PREDICTED BY IDOCK:    0.17 KCAL/MOL
REMARK 922        TOTAL FREE ENERGY PREDICTED BY IDOCK:   -0.53 KCAL/MOL
REMARK 923 INTER-LIGAND FREE ENERGY PREDICTED BY IDOCK:   -4.60 KCAL/MOL
REMARK 924 INTRA-LIGAND FREE ENERGY PREDICTED BY IDOCK:    4.07 KCAL/MOL
REMARK 927      BINDING AFFINITY PREDICTED BY RF-SCORE:    0.00 PKD
ROOT
HETATM    1  C   UNL     1      -5.598   8.979  71.104  1.00  0.00    -0.043 C  
HETATM    2  C   UNL     1      -6.691   9.994  70.813  1.00  0.00    -0.008 C  
ENDROOT
BRANCH   2   3
HETATM    3  O   UNL     1      -6.690  10.308  69.438  1.00  0.00    -0.049 OA 
BRANCH   3   4
HETATM    4  C   UNL     1      -7.683  10.975  68.798  1.00  0.00    -0.135 A  
HETATM    5  C   UNL     1      -7.274  12.131  68.049  1.00  0.00    -0.099 A  
HETATM    6  C   UNL     1      -8.260  13.020  67.544  1.00  0.00    -0.181 A  
HETATM    7  C   UNL     1     -11.269  10.846  68.349  1.00  0.00    -0.285 C  
HETATM    8  C   UNL     1      -9.641  12.716  67.715  1.00  0.00    -0.197 A  
HETATM    9  O   UNL     1     -11.076   9.563  68.755  1.00  0.00    -0.132 OA 
HETATM   10  O   UNL     1     -12.340  11.372  68.131  1.00  0.00    -0.502 OA 
HETATM   11  N   UNL     1     -10.631  13.485  67.077  1.00  0.00    -0.268 NA 
HETATM   12  C   UNL     1      -9.674   9.255  68.945  1.00  0.00    -0.161 C  
HETATM   13  C   UNL     1      -9.950  11.469  68.266  1.00  0.00    -0.205 A  
HETATM   14  H2  UNL     1     -10.428  13.497  66.078  1.00  0.00     0.000 HD 
HETATM   15  H1  UNL     1     -11.620  13.267  67.199  1.00  0.00     0.000 HD 
HETATM   16  C   UNL     1      -9.002  10.581  68.740  1.00  0.00    -0.166 A  
BRANCH   5  17
HETATM   17  O   UNL     1      -5.940  12.360  67.688  1.00  0.00    -0.097 OA 
BRANCH  17  18
HETATM   18  C   UNL     1      -5.137  12.930  68.743  1.00  0.00    -0.061 C  
HETATM   19  C   UNL     1      -5.756  12.942  70.124  1.00  0.00    -0.148 C  
ENDBRANCH  17  18
ENDBRANCH   5  17
BRANCH   6  20
HETATM   20  O   UNL     1      -8.036  14.120  66.739  1.00  0.00     0.063 OA 
BRANCH  20  21
HETATM   21  C   UNL     1      -8.903  15.243  66.911  1.00  0.00    -0.254 C  
HETATM   22  C   UNL     1      -8.153  16.503  66.472  1.00  0.00    -0.341 C  
ENDBRANCH  20  21
ENDBRANCH   6  20
BRANCH  12  23
HETATM   23  C   UNL     1      -9.214   8.069  67.983  1.00  0.00    -0.135 C  
HETATM   24  C   UNL     1      -7.066   7.133  68.765  1.00  0.00    -0.088 C  
HETATM   25  C   UNL     1      -9.079   6.199  69.697  1.00  0.00    -0.137 C  
HETATM   26  N   UNL     1      -8.494   6.893  68.566  1.00  0.00    -0.123 NA 
HETATM   27  C   UNL     1      -6.409   7.190  67.399  1.00  0.00    -0.050 C  
HETATM   28  C   UNL     1      -7.099   8.167  66.484  1.00  0.00    -0.076 A  
HETATM   29  C   UNL     1      -6.390   8.583  65.347  1.00  0.00    -0.055 A  
HETATM   30  C   UNL     1      -6.996   9.470  64.497  1.00  0.00    -0.103 A  
HETATM   31  C   UNL     1      -8.277   9.921  64.708  1.00  0.00    -0.151 A  
HETATM   32  O   UNL     1      -8.641  10.803  63.729  1.00  0.00    -0.137 OA 
HETATM   33  C   UNL     1      -9.040   9.492  65.794  1.00  0.00    -0.196 A  
HETATM   34  C   UNL     1      -8.440   8.603  66.728  1.00  0.00    -0.117 A  
HETATM   35  O   UNL     1      -6.416   9.993  63.383  1.00  0.00    -0.125 OA 
HETATM   36  C   UNL     1      -7.412  10.953  63.000  1.00  0.00     0.251 C  
BRANCH  33  37
HETATM   37  O   UNL     1     -10.334   9.860  66.033  1.00  0.00    -0.224 OA 
HETATM   38  C   UNL     1     -10.952  10.763  65.119  1.00  0.00     0.136 C  
ENDBRANCH  33  37
ENDBRANCH  12  23
ENDBRANCH   3   4
ENDBRANCH   2   3
TORSDOF 8
ENDMDL
MODEL      144
REMARK 921   NORMALIZED FREE ENERGY PREDICTED BY IDOCK:    0.37 KCAL/MOL
REMARK 922        TOTAL FREE ENERGY PREDICTED BY IDOCK:   -0.23 KCAL/MOL
REMARK 923 INTER-LIGAND FREE ENERGY PREDICTED BY IDOCK:   -5.63 KCAL/MOL
REMARK 924 INTRA-LIGAND FREE ENERGY PREDICTED BY IDOCK:    5.40 KCAL/MOL
REMARK 927      BINDING AFFINITY PREDICTED BY RF-SCORE:    0.00 PKD
ROOT
HETATM    1  C   UNL     1      -6.438   6.733  65.190  1.00  0.00    -0.043 C  
HETATM    2  C   UNL     1      -5.439   6.051  66.112  1.00  0.00    -0.013 C  
ENDROOT
BRANCH   2   3
HETATM    3  O   UNL     1      -5.750   6.358  67.453  1.00  0.00    -0.011 OA 
BRANCH   3   4
HETATM    4  C   UNL     1      -6.980   6.226  68.011  1.00  0.00    -0.080 A  
HETATM    5  C   UNL     1      -7.005   5.676  69.338  1.00  0.00    -0.063 A  
HETATM    6  C   UNL     1      -8.246   5.284  69.907  1.00  0.00    -0.094 A  
HETATM    7  C   UNL     1     -10.462   6.781  67.210  1.00  0.00    -0.282 C  
HETATM    8  C   UNL     1      -9.456   5.513  69.192  1.00  0.00    -0.129 A  
HETATM    9  O   UNL     1      -9.912   7.596  66.271  1.00  0.00    -0.118 OA 
HETATM   10  O   UNL     1     -11.642   6.531  67.335  1.00  0.00     0.005 OA 
HETATM   11  N   UNL     1     -10.704   5.295  69.802  1.00  0.00    -0.222 NA 
HETATM   12  C   UNL     1      -8.470   7.666  66.384  1.00  0.00    -0.137 C  
HETATM   13  C   UNL     1      -9.359   6.244  68.004  1.00  0.00    -0.114 A  
HETATM   14  H2  UNL     1     -10.735   5.840  70.664  1.00  0.00     0.000 HD 
HETATM   15  H1  UNL     1     -11.571   5.460  69.290  1.00  0.00     0.000 HD 
HETATM   16  C   UNL     1      -8.162   6.654  67.449  1.00  0.00    -0.121 A  
BRANCH   5  17
HETATM   17  O   UNL     1      -5.865   5.619  70.151  1.00  0.00    -0.021 OA 
BRANCH  17  18
HETATM   18  C   UNL     1      -5.216   4.330  70.160  1.00  0.00    -0.004 C  
HETATM   19  C   UNL     1      -5.567   3.411  71.311  1.00  0.00    -0.012 C  
ENDBRANCH  17  18
ENDBRANCH   5  17
BRANCH   6  20
HETATM   20  O   UNL     1      -8.447   4.822  71.194  1.00  0.00    -0.102 OA 
BRANCH  20  21
HETATM   21  C   UNL     1      -9.336   5.571  72.025  1.00  0.00    -0.147 C  
HETATM   22  C   UNL     1     -10.429   4.628  72.535  1.00  0.00    -0.257 C  
ENDBRANCH  20  21
ENDBRANCH   6  20
BRANCH  12  23
HETATM   23  C   UNL     1      -7.990   9.161  66.664  1.00  0.00    -0.104 C  
HETATM   24  C   UNL     1      -8.540   9.800  68.986  1.00  0.00    -0.146 C  
HETATM   25  C   UNL     1      -6.425   8.714  68.615  1.00  0.00    -0.054 C  
HETATM   26  N   UNL     1      -7.476   9.519  68.025  1.00  0.00    -0.083 NA 
HETATM   27  C   UNL     1      -9.184  11.118  68.595  1.00  0.00    -0.173 C  
HETATM   28  C   UNL     1      -9.610  11.128  67.151  1.00  0.00    -0.192 A  
HETATM   29  C   UNL     1     -10.530  12.116  66.767  1.00  0.00    -0.245 A  
HETATM   30  C   UNL     1     -10.932  12.148  65.458  1.00  0.00    -0.301 A  
HETATM   31  C   UNL     1     -10.432  11.276  64.521  1.00  0.00    -0.334 A  
HETATM   32  O   UNL     1     -11.001  11.507  63.299  1.00  0.00    -0.351 OA 
HETATM   33  C   UNL     1      -9.475  10.314  64.845  1.00  0.00    -0.279 A  
HETATM   34  C   UNL     1      -9.056  10.213  66.200  1.00  0.00    -0.184 A  
HETATM   35  O   UNL     1     -11.847  13.018  64.951  1.00  0.00    -0.328 OA 
HETATM   36  C   UNL     1     -11.995  12.494  63.624  1.00  0.00    -0.537 C  
BRANCH  33  37
HETATM   37  O   UNL     1      -8.900   9.453  63.954  1.00  0.00    -0.217 OA 
HETATM   38  C   UNL     1      -7.685   9.855  63.325  1.00  0.00    -0.143 C  
ENDBRANCH  33  37
ENDBRANCH  12  23
ENDBRANCH   3   4
ENDBRANCH   2   3
TORSDOF 8
ENDMDL
MODEL      145
REMARK 921   NORMALIZED FREE ENERGY PREDICTED BY IDOCK:    0.39 KCAL/MOL
REMARK 922        TOTAL FREE ENERGY PREDICTED BY IDOCK:   -0.21 KCAL/MOL
REMARK 923 INTER-LIGAND FREE ENERGY PREDICTED BY IDOCK:   -2.27 KCAL/MOL
REMARK 924 INTRA-LIGAND FREE ENERGY PREDICTED BY IDOCK:    2.06 KCAL/MOL
REMARK 927      BINDING AFFINITY PREDICTED BY RF-SCORE:    0.00 PKD
ROOT
HETATM    1  C   UNL     1      -6.141  14.853  67.754  1.00  0.00    -0.149 C  
HETATM    2  C   UNL     1      -6.478  13.715  68.704  1.00  0.00    -0.094 C  
ENDROOT
BRANCH   2   3
HETATM    3  O   UNL     1      -7.706  13.133  68.327  1.00  0.00    -0.125 OA 
BRANCH   3   4
HETATM    4  C   UNL     1      -7.876  12.314  67.258  1.00  0.00    -0.171 A  
HETATM    5  C   UNL     1      -7.258  11.021  67.361  1.00  0.00    -0.103 A  
HETATM    6  C   UNL     1      -7.181  10.191  66.210  1.00  0.00    -0.111 A  
HETATM    7  C   UNL     1      -9.425  12.305  63.991  1.00  0.00     0.235 C  
HETATM    8  C   UNL     1      -7.786  10.613  64.991  1.00  0.00     0.017 A  
HETATM    9  O   UNL     1     -10.125  13.335  64.536  1.00  0.00    -0.334 OA 
HETATM   10  O   UNL     1      -9.500  11.920  62.843  1.00  0.00    -0.358 OA 
HETATM   11  N   UNL     1      -7.876   9.740  63.893  1.00  0.00    -0.137 NA 
HETATM   12  C   UNL     1      -9.787  13.549  65.928  1.00  0.00    -0.241 C  
HETATM   13  C   UNL     1      -8.548  11.785  65.037  1.00  0.00     0.716 A  
HETATM   14  H2  UNL     1      -8.342   8.888  64.202  1.00  0.00     0.000 HD 
HETATM   15  H1  UNL     1      -8.309  10.042  63.021  1.00  0.00     0.000 HD 
HETATM   16  C   UNL     1      -8.653  12.591  66.155  1.00  0.00     0.345 A  
BRANCH   5  17
HETATM   17  O   UNL     1      -6.830  10.487  68.583  1.00  0.00    -0.052 OA 
BRANCH  17  18
HETATM   18  C   UNL     1      -7.698   9.460  69.109  1.00  0.00    -0.079 C  
HETATM   19  C   UNL     1      -7.789   9.368  70.618  1.00  0.00    -0.178 C  
ENDBRANCH  17  18
ENDBRANCH   5  17
BRANCH   6  20
HETATM   20  O   UNL     1      -6.698   8.898  66.164  1.00  0.00    -0.068 OA 
BRANCH  20  21
HETATM   21  C   UNL     1      -7.653   7.840  66.278  1.00  0.00    -0.087 C  
HETATM   22  C   UNL     1      -6.929   6.589  66.780  1.00  0.00    -0.067 C  
ENDBRANCH  20  21
ENDBRANCH   6  20
BRANCH  12  23
HETATM   23  C   UNL     1     -11.067  13.367  66.862  1.00  0.00    -0.292 C  
HETATM   24  C   UNL     1     -10.689  14.476  69.036  1.00  0.00    -0.251 C  
HETATM   25  C   UNL     1     -11.613  15.816  67.264  1.00  0.00     0.146 C  
HETATM   26  N   UNL     1     -11.455  14.475  67.792  1.00  0.00    -0.324 NA 
HETATM   27  C   UNL     1     -11.132  13.279  69.857  1.00  0.00     0.183 C  
HETATM   28  C   UNL     1     -11.063  11.999  69.066  1.00  0.00    -0.291 A  
HETATM   29  C   UNL     1     -11.087  10.800  69.794  1.00  0.00    -0.346 A  
HETATM   30  C   UNL     1     -11.027   9.622  69.098  1.00  0.00    -0.151 A  
HETATM   31  C   UNL     1     -10.987   9.589  67.724  1.00  0.00    -0.100 A  
HETATM   32  O   UNL     1     -10.919   8.298  67.278  1.00  0.00    -0.135 OA 
HETATM   33  C   UNL     1     -11.018  10.753  66.958  1.00  0.00    -0.227 A  
HETATM   34  C   UNL     1     -11.038  12.004  67.635  1.00  0.00    -0.319 A  
HETATM   35  O   UNL     1     -10.998   8.387  69.668  1.00  0.00    -0.200 OA 
HETATM   36  C   UNL     1     -10.769   7.572  68.510  1.00  0.00    -0.073 C  
BRANCH  33  37
HETATM   37  O   UNL     1     -11.034  10.789  65.592  1.00  0.00    -0.066 OA 
HETATM   38  C   UNL     1     -12.207  11.281  64.950  1.00  0.00     1.215 C  
ENDBRANCH  33  37
ENDBRANCH  12  23
ENDBRANCH   3   4
ENDBRANCH   2   3
TORSDOF 8
ENDMDL
MODEL      146
REMARK 921   NORMALIZED FREE ENERGY PREDICTED BY IDOCK:    0.51 KCAL/MOL
REMARK 922        TOTAL FREE ENERGY PREDICTED BY IDOCK:   -0.04 KCAL/MOL
REMARK 923 INTER-LIGAND FREE ENERGY PREDICTED BY IDOCK:   -4.13 KCAL/MOL
REMARK 924 INTRA-LIGAND FREE ENERGY PREDICTED BY IDOCK:    4.09 KCAL/MOL
REMARK 927      BINDING AFFINITY PREDICTED BY RF-SCORE:    0.00 PKD
ROOT
HETATM    1  C   UNL     1      -9.440   8.824  65.789  1.00  0.00    -0.239 C  
HETATM    2  C   UNL     1      -8.043   9.416  65.698  1.00  0.00    -0.112 C  
ENDROOT
BRANCH   2   3
HETATM    3  O   UNL     1      -7.716  10.043  66.918  1.00  0.00    -0.095 OA 
BRANCH   3   4
HETATM    4  C   UNL     1      -8.486  10.010  68.034  1.00  0.00    -0.117 A  
HETATM    5  C   UNL     1      -7.836   9.532  69.224  1.00  0.00    -0.088 A  
HETATM    6  C   UNL     1      -8.615   9.240  70.375  1.00  0.00    -0.219 A  
HETATM    7  C   UNL     1     -11.871  10.717  69.091  1.00  0.00    -0.215 C  
HETATM    8  C   UNL     1     -10.016   9.499  70.366  1.00  0.00    -0.267 A  
HETATM    9  O   UNL     1     -11.866  11.449  67.946  1.00  0.00    -0.588 OA 
HETATM   10  O   UNL     1     -12.824  10.539  69.820  1.00  0.00    -0.137 OA 
HETATM   11  N   UNL     1     -10.776   9.384  71.543  1.00  0.00    -0.346 NA 
HETATM   12  C   UNL     1     -10.570  11.444  67.299  1.00  0.00    -0.227 C  
HETATM   13  C   UNL     1     -10.529  10.160  69.246  1.00  0.00    -0.246 A  
HETATM   14  H2  UNL     1     -10.348   9.973  72.256  1.00  0.00     0.000 HD 
HETATM   15  H1  UNL     1     -11.779   9.570  71.536  1.00  0.00     0.000 HD 
HETATM   16  C   UNL     1      -9.780  10.474  68.127  1.00  0.00    -0.166 A  
BRANCH   5  17
HETATM   17  O   UNL     1      -6.442   9.454  69.340  1.00  0.00    -0.043 OA 
BRANCH  17  18
HETATM   18  C   UNL     1      -5.808  10.715  69.640  1.00  0.00    -0.049 C  
HETATM   19  C   UNL     1      -5.248  10.869  71.038  1.00  0.00    -0.109 C  
ENDBRANCH  17  18
ENDBRANCH   5  17
BRANCH   6  20
HETATM   20  O   UNL     1      -8.136   8.858  71.613  1.00  0.00    -0.280 OA 
BRANCH  20  21
HETATM   21  C   UNL     1      -8.065   7.456  71.882  1.00  0.00    -0.098 C  
HETATM   22  C   UNL     1      -6.600   7.084  72.121  1.00  0.00    -0.056 C  
ENDBRANCH  20  21
ENDBRANCH   6  20
BRANCH  12  23
HETATM   23  C   UNL     1      -9.983  12.922  67.184  1.00  0.00    -0.240 C  
HETATM   24  C   UNL     1      -7.668  12.979  68.045  1.00  0.00    -0.145 C  
HETATM   25  C   UNL     1      -7.964  12.433  65.720  1.00  0.00     1.588 C  
HETATM   26  N   UNL     1      -8.530  13.108  66.872  1.00  0.00    -0.129 NA 
HETATM   27  C   UNL     1      -7.902  14.190  68.929  1.00  0.00    -0.076 C  
HETATM   28  C   UNL     1      -9.364  14.392  69.230  1.00  0.00     0.160 A  
HETATM   29  C   UNL     1      -9.681  15.229  70.310  1.00  0.00     0.273 A  
HETATM   30  C   UNL     1     -11.003  15.431  70.604  1.00  0.00    -0.319 A  
HETATM   31  C   UNL     1     -12.009  14.874  69.851  1.00  0.00    -0.330 A  
HETATM   32  O   UNL     1     -13.232  15.217  70.357  1.00  0.00    -0.262 OA 
HETATM   33  C   UNL     1     -11.742  14.081  68.735  1.00  0.00    -0.353 A  
HETATM   34  C   UNL     1     -10.384  13.807  68.414  1.00  0.00    -0.247 A  
HETATM   35  O   UNL     1     -11.459  16.180  71.644  1.00  0.00    -0.413 OA 
HETATM   36  C   UNL     1     -12.865  15.902  71.566  1.00  0.00    -0.329 C  
BRANCH  33  37
HETATM   37  O   UNL     1     -12.693  13.542  67.915  1.00  0.00     0.381 OA 
HETATM   38  C   UNL     1     -12.768  14.020  66.574  1.00  0.00     0.004 C  
ENDBRANCH  33  37
ENDBRANCH  12  23
ENDBRANCH   3   4
ENDBRANCH   2   3
TORSDOF 8
ENDMDL
MODEL      147
REMARK 921   NORMALIZED FREE ENERGY PREDICTED BY IDOCK:    1.09 KCAL/MOL
REMARK 922        TOTAL FREE ENERGY PREDICTED BY IDOCK:    0.82 KCAL/MOL
REMARK 923 INTER-LIGAND FREE ENERGY PREDICTED BY IDOCK:   -3.02 KCAL/MOL
REMARK 924 INTRA-LIGAND FREE ENERGY PREDICTED BY IDOCK:    3.84 KCAL/MOL
REMARK 927      BINDING AFFINITY PREDICTED BY RF-SCORE:    0.00 PKD
ROOT
HETATM    1  C   UNL     1     -10.581  19.572  70.473  1.00  0.00     1.842 C  
HETATM    2  C   UNL     1      -9.922  18.203  70.435  1.00  0.00     1.957 C  
ENDROOT
BRANCH   2   3
HETATM    3  O   UNL     1     -10.771  17.288  69.778  1.00  0.00    -0.102 OA 
BRANCH   3   4
HETATM    4  C   UNL     1     -10.694  16.971  68.461  1.00  0.00    -0.352 A  
HETATM    5  C   UNL     1      -9.852  17.822  67.665  1.00  0.00    -0.299 A  
HETATM    6  C   UNL     1      -9.894  17.715  66.249  1.00  0.00    -0.288 A  
HETATM    7  C   UNL     1     -12.023  14.574  66.103  1.00  0.00    -0.312 C  
HETATM    8  C   UNL     1     -10.704  16.716  65.637  1.00  0.00    -0.214 A  
HETATM    9  O   UNL     1     -12.274  13.883  67.247  1.00  0.00    -0.394 OA 
HETATM   10  O   UNL     1     -12.353  14.243  64.984  1.00  0.00    -0.418 OA 
HETATM   11  N   UNL     1     -10.629  16.477  64.254  1.00  0.00    -0.307 NA 
HETATM   12  C   UNL     1     -11.763  14.563  68.420  1.00  0.00    -0.333 C  
HETATM   13  C   UNL     1     -11.323  15.796  66.489  1.00  0.00     0.132 A  
HETATM   14  H2  UNL     1      -9.656  16.286  64.018  1.00  0.00     0.000 HD 
HETATM   15  H1  UNL     1     -11.209  15.761  63.816  1.00  0.00     0.000 HD 
HETATM   16  C   UNL     1     -11.273  15.871  67.869  1.00  0.00    -0.297 A  
BRANCH   5  17
HETATM   17  O   UNL     1      -8.897  18.676  68.230  1.00  0.00    -0.307 OA 
BRANCH  17  18
HETATM   18  C   UNL     1      -8.697  19.900  67.493  1.00  0.00    -0.338 C  
HETATM   19  C   UNL     1      -9.819  20.915  67.561  1.00  0.00    -0.295 C  
ENDBRANCH  17  18
ENDBRANCH   5  17
BRANCH   6  20
HETATM   20  O   UNL     1      -9.091  18.395  65.353  1.00  0.00     0.281 OA 
BRANCH  20  21
HETATM   21  C   UNL     1      -7.703  18.508  65.675  1.00  0.00     0.187 C  
HETATM   22  C   UNL     1      -7.167  17.110  65.993  1.00  0.00    -0.149 C  
ENDBRANCH  20  21
ENDBRANCH   6  20
BRANCH  12  23
HETATM   23  C   UNL     1     -10.685  13.664  69.177  1.00  0.00    -0.104 C  
HETATM   24  C   UNL     1      -9.647  12.078  67.593  1.00  0.00    -0.188 C  
HETATM   25  C   UNL     1      -8.637  14.252  67.794  1.00  0.00    -0.177 C  
HETATM   26  N   UNL     1      -9.445  13.243  68.451  1.00  0.00    -0.202 NA 
HETATM   27  C   UNL     1      -9.847  10.870  68.490  1.00  0.00    -0.188 C  
HETATM   28  C   UNL     1     -10.925  11.103  69.515  1.00  0.00    -0.276 A  
HETATM   29  C   UNL     1     -11.456   9.969  70.148  1.00  0.00    -0.344 A  
HETATM   30  C   UNL     1     -12.437  10.154  71.086  1.00  0.00    -0.387 A  
HETATM   31  C   UNL     1     -12.875  11.406  71.444  1.00  0.00    -0.397 A  
HETATM   32  O   UNL     1     -13.862  11.317  72.385  1.00  0.00     0.088 OA 
HETATM   33  C   UNL     1     -12.337  12.564  70.882  1.00  0.00    -0.255 A  
HETATM   34  C   UNL     1     -11.345  12.424  69.872  1.00  0.00    -0.070 A  
HETATM   35  O   UNL     1     -13.073   9.150  71.748  1.00  0.00    -0.342 OA 
HETATM   36  C   UNL     1     -14.079   9.897  72.447  1.00  0.00     0.222 C  
BRANCH  33  37
HETATM   37  O   UNL     1     -12.690  13.837  71.230  1.00  0.00    -0.341 OA 
HETATM   38  C   UNL     1     -12.187  14.358  72.458  1.00  0.00    -0.049 C  
ENDBRANCH  33  37
ENDBRANCH  12  23
ENDBRANCH   3   4
ENDBRANCH   2   3
TORSDOF 8
ENDMDL
MODEL      148
REMARK 921   NORMALIZED FREE ENERGY PREDICTED BY IDOCK:    1.39 KCAL/MOL
REMARK 922        TOTAL FREE ENERGY PREDICTED BY IDOCK:    1.25 KCAL/MOL
REMARK 923 INTER-LIGAND FREE ENERGY PREDICTED BY IDOCK:   -1.19 KCAL/MOL
REMARK 924 INTRA-LIGAND FREE ENERGY PREDICTED BY IDOCK:    2.44 KCAL/MOL
REMARK 927      BINDING AFFINITY PREDICTED BY RF-SCORE:    0.00 PKD
ROOT
HETATM    1  C   UNL     1      -5.301  12.807  70.253  1.00  0.00    -0.124 C  
HETATM    2  C   UNL     1      -6.109  11.623  70.761  1.00  0.00     0.241 C  
ENDROOT
BRANCH   2   3
HETATM    3  O   UNL     1      -6.428  10.772  69.682  1.00  0.00    -0.074 OA 
BRANCH   3   4
HETATM    4  C   UNL     1      -7.457  10.971  68.820  1.00  0.00    -0.116 A  
HETATM    5  C   UNL     1      -7.299  12.068  67.905  1.00  0.00    -0.104 A  
HETATM    6  C   UNL     1      -8.411  12.498  67.132  1.00  0.00    -0.179 A  
HETATM    7  C   UNL     1     -10.713   9.612  68.027  1.00  0.00    -0.232 C  
HETATM    8  C   UNL     1      -9.644  11.790  67.212  1.00  0.00    -0.176 A  
HETATM    9  O   UNL     1     -10.211   8.541  68.697  1.00  0.00    -0.190 OA 
HETATM   10  O   UNL     1     -11.841   9.719  67.596  1.00  0.00     0.717 OA 
HETATM   11  N   UNL     1     -10.701  12.085  66.333  1.00  0.00    -0.249 NA 
HETATM   12  C   UNL     1      -8.832   8.740  69.093  1.00  0.00    -0.137 C  
HETATM   13  C   UNL     1      -9.648  10.611  67.963  1.00  0.00    -0.167 A  
HETATM   14  H2  UNL     1     -10.351  12.009  65.378  1.00  0.00     0.000 HD 
HETATM   15  H1  UNL     1     -11.584  11.578  66.390  1.00  0.00     0.000 HD 
HETATM   16  C   UNL     1      -8.568  10.165  68.702  1.00  0.00    -0.123 A  
BRANCH   5  17
HETATM   17  O   UNL     1      -6.056  12.661  67.650  1.00  0.00    -0.116 OA 
BRANCH  17  18
HETATM   18  C   UNL     1      -5.292  12.000  66.619  1.00  0.00     0.107 C  
HETATM   19  C   UNL     1      -6.058  11.580  65.382  1.00  0.00     1.188 C  
ENDBRANCH  17  18
ENDBRANCH   5  17
BRANCH   6  20
HETATM   20  O   UNL     1      -8.400  13.473  66.154  1.00  0.00     0.686 OA 
BRANCH  20  21
HETATM   21  C   UNL     1      -8.541  14.829  66.582  1.00  0.00    -0.135 C  
HETATM   22  C   UNL     1      -8.078  14.927  68.037  1.00  0.00    -0.137 C  
ENDBRANCH  20  21
ENDBRANCH   6  20
BRANCH  12  23
HETATM   23  C   UNL     1      -7.885   7.637  68.438  1.00  0.00    -0.121 C  
HETATM   24  C   UNL     1      -8.582   7.202  66.109  1.00  0.00    -0.146 C  
HETATM   25  C   UNL     1      -7.008   8.985  66.472  1.00  0.00    -0.080 C  
HETATM   26  N   UNL     1      -7.542   7.738  66.984  1.00  0.00    -0.098 NA 
HETATM   27  C   UNL     1      -8.593   5.693  66.270  1.00  0.00    -0.127 C  
HETATM   28  C   UNL     1      -8.700   5.283  67.715  1.00  0.00    -0.103 A  
HETATM   29  C   UNL     1      -9.085   3.958  67.972  1.00  0.00    -0.183 A  
HETATM   30  C   UNL     1      -9.189   3.559  69.278  1.00  0.00    -0.161 A  
HETATM   31  C   UNL     1      -8.888   4.401  70.323  1.00  0.00    -0.080 A  
HETATM   32  O   UNL     1      -9.084   3.768  71.519  1.00  0.00    -0.102 OA 
HETATM   33  C   UNL     1      -8.447   5.707  70.114  1.00  0.00    -0.119 A  
HETATM   34  C   UNL     1      -8.364   6.183  68.775  1.00  0.00    -0.111 A  
HETATM   35  O   UNL     1      -9.592   2.323  69.680  1.00  0.00    -0.082 OA 
HETATM   36  C   UNL     1      -9.672   2.525  71.099  1.00  0.00    -0.110 C  
BRANCH  33  37
HETATM   37  O   UNL     1      -8.083   6.576  71.103  1.00  0.00    -0.113 OA 
HETATM   38  C   UNL     1      -9.063   6.933  72.074  1.00  0.00    -0.136 C  
ENDBRANCH  33  37
ENDBRANCH  12  23
ENDBRANCH   3   4
ENDBRANCH   2   3
TORSDOF 8
ENDMDL
MODEL      149
REMARK 921   NORMALIZED FREE ENERGY PREDICTED BY IDOCK:    1.52 KCAL/MOL
REMARK 922        TOTAL FREE ENERGY PREDICTED BY IDOCK:    1.45 KCAL/MOL
REMARK 923 INTER-LIGAND FREE ENERGY PREDICTED BY IDOCK:   -2.83 KCAL/MOL
REMARK 924 INTRA-LIGAND FREE ENERGY PREDICTED BY IDOCK:    4.28 KCAL/MOL
REMARK 927      BINDING AFFINITY PREDICTED BY RF-SCORE:    0.00 PKD
ROOT
HETATM    1  C   UNL     1     -11.944   6.025  71.523  1.00  0.00     0.005 C  
HETATM    2  C   UNL     1     -11.175   5.430  70.355  1.00  0.00     0.365 C  
ENDROOT
BRANCH   2   3
HETATM    3  O   UNL     1     -10.870   6.445  69.425  1.00  0.00    -0.252 OA 
BRANCH   3   4
HETATM    4  C   UNL     1      -9.618   6.756  69.003  1.00  0.00    -0.135 A  
HETATM    5  C   UNL     1      -9.410   6.704  67.582  1.00  0.00    -0.119 A  
HETATM    6  C   UNL     1      -8.088   6.781  67.067  1.00  0.00    -0.109 A  
HETATM    7  C   UNL     1      -6.389   7.680  70.343  1.00  0.00    -0.038 C  
HETATM    8  C   UNL     1      -6.994   6.987  67.955  1.00  0.00    -0.083 A  
HETATM    9  O   UNL     1      -7.149   8.003  71.423  1.00  0.00    -0.056 OA 
HETATM   10  O   UNL     1      -5.179   7.724  70.284  1.00  0.00    -0.023 OA 
HETATM   11  N   UNL     1      -5.703   7.240  67.458  1.00  0.00    -0.028 NA 
HETATM   12  C   UNL     1      -8.564   7.822  71.170  1.00  0.00    -0.131 C  
HETATM   13  C   UNL     1      -7.306   7.238  69.294  1.00  0.00    -0.087 A  
HETATM   14  H2  UNL     1      -5.756   8.039  66.827  1.00  0.00     0.000 HD 
HETATM   15  H1  UNL     1      -4.919   7.388  68.094  1.00  0.00     0.000 HD 
HETATM   16  C   UNL     1      -8.588   7.192  69.808  1.00  0.00    -0.141 A  
BRANCH   5  17
HETATM   17  O   UNL     1     -10.470   6.704  66.666  1.00  0.00    -0.214 OA 
BRANCH  17  18
HETATM   18  C   UNL     1     -10.975   5.387  66.357  1.00  0.00    -0.007 C  
HETATM   19  C   UNL     1     -10.307   4.667  65.205  1.00  0.00    -0.059 C  
ENDBRANCH  17  18
ENDBRANCH   5  17
BRANCH   6  20
HETATM   20  O   UNL     1      -7.731   6.832  65.734  1.00  0.00    -0.087 OA 
BRANCH  20  21
HETATM   21  C   UNL     1      -6.384   6.487  65.405  1.00  0.00    -0.038 C  
HETATM   22  C   UNL     1      -6.270   6.384  63.882  1.00  0.00    -0.026 C  
ENDBRANCH  20  21
ENDBRANCH   6  20
BRANCH  12  23
HETATM   23  C   UNL     1      -9.354   9.198  71.330  1.00  0.00    -0.215 C  
HETATM   24  C   UNL     1     -11.739   8.869  70.778  1.00  0.00    -0.230 C  
HETATM   25  C   UNL     1     -11.071   8.469  73.055  1.00  0.00     0.459 C  
HETATM   26  N   UNL     1     -10.767   9.175  71.825  1.00  0.00    -0.366 NA 
HETATM   27  C   UNL     1     -11.809  10.064  69.845  1.00  0.00    -0.141 C  
HETATM   28  C   UNL     1     -10.446  10.472  69.352  1.00  0.00    -0.264 A  
HETATM   29  C   UNL     1     -10.402  11.303  68.222  1.00  0.00    -0.200 A  
HETATM   30  C   UNL     1      -9.175  11.690  67.754  1.00  0.00    -0.178 A  
HETATM   31  C   UNL     1      -8.007  11.323  68.380  1.00  0.00    -0.140 A  
HETATM   32  O   UNL     1      -6.926  11.825  67.711  1.00  0.00    -0.082 OA 
HETATM   33  C   UNL     1      -8.005  10.545  69.537  1.00  0.00    -0.109 A  
HETATM   34  C   UNL     1      -9.253  10.082  70.039  1.00  0.00    -0.146 A  
HETATM   35  O   UNL     1      -8.975  12.456  66.647  1.00  0.00    -0.212 OA 
HETATM   36  C   UNL     1      -7.545  12.397  66.546  1.00  0.00     0.468 C  
BRANCH  33  37
HETATM   37  O   UNL     1      -6.887  10.189  70.237  1.00  0.00    -0.130 OA 
HETATM   38  C   UNL     1      -5.681  10.904  69.979  1.00  0.00    -0.077 C  
ENDBRANCH  33  37
ENDBRANCH  12  23
ENDBRANCH   3   4
ENDBRANCH   2   3
TORSDOF 8
ENDMDL
MODEL      150
REMARK 921   NORMALIZED FREE ENERGY PREDICTED BY IDOCK:    2.06 KCAL/MOL
REMARK 922        TOTAL FREE ENERGY PREDICTED BY IDOCK:    2.23 KCAL/MOL
REMARK 923 INTER-LIGAND FREE ENERGY PREDICTED BY IDOCK:   -2.31 KCAL/MOL
REMARK 924 INTRA-LIGAND FREE ENERGY PREDICTED BY IDOCK:    4.54 KCAL/MOL
REMARK 927      BINDING AFFINITY PREDICTED BY RF-SCORE:    0.00 PKD
ROOT
HETATM    1  C   UNL     1      -8.503   8.934  65.245  1.00  0.00    -0.185 C  
HETATM    2  C   UNL     1      -8.480  10.324  64.632  1.00  0.00    -0.175 C  
ENDROOT
BRANCH   2   3
HETATM    3  O   UNL     1      -8.265  11.283  65.643  1.00  0.00    -0.031 OA 
BRANCH   3   4
HETATM    4  C   UNL     1      -8.833  12.515  65.673  1.00  0.00     0.621 A  
HETATM    5  C   UNL     1     -10.117  12.624  65.036  1.00  0.00    -0.231 A  
HETATM    6  C   UNL     1     -10.677  13.909  64.810  1.00  0.00    -0.423 A  
HETATM    7  C   UNL     1      -8.136  15.863  66.849  1.00  0.00    -0.250 C  
HETATM    8  C   UNL     1     -10.001  15.070  65.287  1.00  0.00    -0.290 A  
HETATM    9  O   UNL     1      -7.250  15.191  67.632  1.00  0.00    -0.150 OA 
HETATM   10  O   UNL     1      -8.262  17.067  66.786  1.00  0.00    -0.200 OA 
HETATM   11  N   UNL     1     -10.615  16.333  65.232  1.00  0.00    -0.581 NA 
HETATM   12  C   UNL     1      -7.342  13.756  67.456  1.00  0.00    -0.162 C  
HETATM   13  C   UNL     1      -8.869  14.859  66.080  1.00  0.00     0.014 A  
HETATM   14  H2  UNL     1     -11.515  16.270  65.707  1.00  0.00     0.000 HD 
HETATM   15  H1  UNL     1     -10.132  17.163  65.574  1.00  0.00     0.000 HD 
HETATM   16  C   UNL     1      -8.325  13.614  66.330  1.00  0.00     0.645 A  
BRANCH   5  17
HETATM   17  O   UNL     1     -10.903  11.505  64.732  1.00  0.00    -0.305 OA 
BRANCH  17  18
HETATM   18  C   UNL     1     -11.212  11.369  63.329  1.00  0.00    -0.055 C  
HETATM   19  C   UNL     1     -10.032  11.175  62.399  1.00  0.00     0.235 C  
ENDBRANCH  17  18
ENDBRANCH   5  17
BRANCH   6  20
HETATM   20  O   UNL     1     -11.929  14.178  64.292  1.00  0.00    -0.443 OA 
BRANCH  20  21
HETATM   21  C   UNL     1     -13.047  14.005  65.164  1.00  0.00    -0.066 C  
HETATM   22  C   UNL     1     -12.528  13.905  66.600  1.00  0.00    -0.313 C  
ENDBRANCH  20  21
ENDBRANCH   6  20
BRANCH  12  23
HETATM   23  C   UNL     1      -7.724  13.036  68.827  1.00  0.00     0.004 C  
HETATM   24  C   UNL     1      -8.290  10.669  68.406  1.00  0.00    -0.127 C  
HETATM   25  C   UNL     1      -5.976  11.192  68.804  1.00  0.00    -0.043 C  
HETATM   26  N   UNL     1      -7.350  11.599  69.026  1.00  0.00    -0.101 NA 
HETATM   27  C   UNL     1      -9.582  10.714  69.201  1.00  0.00    -0.193 C  
HETATM   28  C   UNL     1     -10.091  12.122  69.365  1.00  0.00     0.555 A  
HETATM   29  C   UNL     1     -11.433  12.272  69.747  1.00  0.00    -0.237 A  
HETATM   30  C   UNL     1     -11.921  13.542  69.905  1.00  0.00    -0.348 A  
HETATM   31  C   UNL     1     -11.127  14.652  69.741  1.00  0.00    -0.234 A  
HETATM   32  O   UNL     1     -11.852  15.794  69.942  1.00  0.00    -0.342 OA 
HETATM   33  C   UNL     1      -9.775  14.550  69.417  1.00  0.00     0.108 A  
HETATM   34  C   UNL     1      -9.231  13.254  69.201  1.00  0.00     0.608 A  
HETATM   35  O   UNL     1     -13.208  13.842  70.229  1.00  0.00     0.032 OA 
HETATM   36  C   UNL     1     -13.183  15.270  70.091  1.00  0.00     0.114 C  
BRANCH  33  37
HETATM   37  O   UNL     1      -8.919  15.608  69.291  1.00  0.00    -0.238 OA 
HETATM   38  C   UNL     1      -9.409  16.906  69.619  1.00  0.00     0.477 C  
ENDBRANCH  33  37
ENDBRANCH  12  23
ENDBRANCH   3   4
ENDBRANCH   2   3
TORSDOF 8
ENDMDL
MODEL      151
REMARK 921   NORMALIZED FREE ENERGY PREDICTED BY IDOCK:    2.82 KCAL/MOL
REMARK 922        TOTAL FREE ENERGY PREDICTED BY IDOCK:    3.36 KCAL/MOL
REMARK 923 INTER-LIGAND FREE ENERGY PREDICTED BY IDOCK:    0.76 KCAL/MOL
REMARK 924 INTRA-LIGAND FREE ENERGY PREDICTED BY IDOCK:    2.60 KCAL/MOL
REMARK 927      BINDING AFFINITY PREDICTED BY RF-SCORE:    0.00 PKD
ROOT
HETATM    1  C   UNL     1     -11.133  19.554  68.680  1.00  0.00     1.081 C  
HETATM    2  C   UNL     1      -9.987  20.491  69.024  1.00  0.00     0.338 C  
ENDROOT
BRANCH   2   3
HETATM    3  O   UNL     1      -8.764  19.903  68.638  1.00  0.00    -0.232 OA 
BRANCH   3   4
HETATM    4  C   UNL     1      -8.614  18.606  68.269  1.00  0.00    -0.321 A  
HETATM    5  C   UNL     1      -9.098  18.274  66.957  1.00  0.00    -0.271 A  
HETATM    6  C   UNL     1      -9.199  16.909  66.576  1.00  0.00    -0.269 A  
HETATM    7  C   UNL     1      -7.367  15.475  69.578  1.00  0.00    -0.203 C  
HETATM    8  C   UNL     1      -8.746  15.891  67.463  1.00  0.00    -0.178 A  
HETATM    9  O   UNL     1      -6.720  16.315  70.430  1.00  0.00     0.336 OA 
HETATM   10  O   UNL     1      -7.359  14.263  69.629  1.00  0.00    -0.031 OA 
HETATM   11  N   UNL     1      -8.674  14.551  67.044  1.00  0.00    -0.231 NA 
HETATM   12  C   UNL     1      -6.952  17.707  70.105  1.00  0.00     1.073 C  
HETATM   13  C   UNL     1      -8.095  16.311  68.627  1.00  0.00    -0.213 A  
HETATM   14  H2  UNL     1      -8.105  14.513  66.199  1.00  0.00     0.000 HD 
HETATM   15  H1  UNL     1      -8.349  13.822  67.679  1.00  0.00     0.000 HD 
HETATM   16  C   UNL     1      -7.967  17.636  69.001  1.00  0.00    -0.081 A  
BRANCH   5  17
HETATM   17  O   UNL     1      -9.364  19.246  65.984  1.00  0.00    -0.419 OA 
BRANCH  17  18
HETATM   18  C   UNL     1     -10.770  19.468  65.747  1.00  0.00    -0.393 C  
HETATM   19  C   UNL     1     -11.133  20.744  65.017  1.00  0.00     1.455 C  
ENDBRANCH  17  18
ENDBRANCH   5  17
BRANCH   6  20
HETATM   20  O   UNL     1      -9.561  16.431  65.332  1.00  0.00    -0.455 OA 
BRANCH  20  21
HETATM   21  C   UNL     1     -10.955  16.417  65.017  1.00  0.00    -0.252 C  
HETATM   22  C   UNL     1     -11.470  14.984  65.168  1.00  0.00    -0.339 C  
ENDBRANCH  20  21
ENDBRANCH   6  20
BRANCH  12  23
HETATM   23  C   UNL     1      -5.582  18.450  69.763  1.00  0.00    -0.226 C  
HETATM   24  C   UNL     1      -5.812  20.874  70.175  1.00  0.00     0.130 C  
HETATM   25  C   UNL     1      -5.128  19.503  72.030  1.00  0.00    -0.140 C  
HETATM   26  N   UNL     1      -5.166  19.630  70.586  1.00  0.00    -0.213 NA 
HETATM   27  C   UNL     1      -5.234  21.277  68.831  1.00  0.00    -0.187 C  
HETATM   28  C   UNL     1      -5.310  20.156  67.828  1.00  0.00    -0.204 A  
HETATM   29  C   UNL     1      -5.157  20.501  66.477  1.00  0.00    -0.177 A  
HETATM   30  C   UNL     1      -5.221  19.500  65.544  1.00  0.00    -0.158 A  
HETATM   31  C   UNL     1      -5.388  18.182  65.901  1.00  0.00    -0.190 A  
HETATM   32  O   UNL     1      -5.431  17.388  64.789  1.00  0.00     0.571 OA 
HETATM   33  C   UNL     1      -5.488  17.787  67.234  1.00  0.00    -0.134 A  
HETATM   34  C   UNL     1      -5.470  18.794  68.238  1.00  0.00    -0.190 A  
HETATM   35  O   UNL     1      -5.134  19.688  64.200  1.00  0.00    -0.151 OA 
HETATM   36  C   UNL     1      -5.428  18.363  63.733  1.00  0.00     0.374 C  
BRANCH  33  37
HETATM   37  O   UNL     1      -5.602  16.493  67.658  1.00  0.00    -0.120 OA 
HETATM   38  C   UNL     1      -5.138  15.461  66.790  1.00  0.00     1.383 C  
ENDBRANCH  33  37
ENDBRANCH  12  23
ENDBRANCH   3   4
ENDBRANCH   2   3
TORSDOF 8
ENDMDL
MODEL      152
REMARK 921   NORMALIZED FREE ENERGY PREDICTED BY IDOCK:    3.26 KCAL/MOL
REMARK 922        TOTAL FREE ENERGY PREDICTED BY IDOCK:    3.99 KCAL/MOL
REMARK 923 INTER-LIGAND FREE ENERGY PREDICTED BY IDOCK:    0.60 KCAL/MOL
REMARK 924 INTRA-LIGAND FREE ENERGY PREDICTED BY IDOCK:    3.39 KCAL/MOL
REMARK 927      BINDING AFFINITY PREDICTED BY RF-SCORE:    0.00 PKD
ROOT
HETATM    1  C   UNL     1     -10.294  14.851  64.885  1.00  0.00    -0.347 C  
HETATM    2  C   UNL     1     -10.195  14.575  66.377  1.00  0.00    -0.287 C  
ENDROOT
BRANCH   2   3
HETATM    3  O   UNL     1      -9.974  13.198  66.588  1.00  0.00    -0.256 OA 
BRANCH   3   4
HETATM    4  C   UNL     1     -10.344  12.519  67.703  1.00  0.00    -0.218 A  
HETATM    5  C   UNL     1     -11.551  12.974  68.336  1.00  0.00    -0.335 A  
HETATM    6  C   UNL     1     -11.888  12.485  69.627  1.00  0.00    -0.314 A  
HETATM    7  C   UNL     1      -9.210   9.797  69.796  1.00  0.00    -0.226 C  
HETATM    8  C   UNL     1     -11.073  11.493  70.244  1.00  0.00     0.410 A  
HETATM    9  O   UNL     1      -8.492   9.499  68.680  1.00  0.00    -0.115 OA 
HETATM   10  O   UNL     1      -9.143   9.223  70.861  1.00  0.00    -0.241 OA 
HETATM   11  N   UNL     1     -11.477  10.870  71.437  1.00  0.00     0.224 NA 
HETATM   12  C   UNL     1      -8.795  10.391  67.580  1.00  0.00    -0.134 C  
HETATM   13  C   UNL     1     -10.040  10.955  69.470  1.00  0.00    -0.056 A  
HETATM   14  H2  UNL     1     -12.405  10.472  71.289  1.00  0.00     0.000 HD 
HETATM   15  H1  UNL     1     -10.894  10.159  71.878  1.00  0.00     0.000 HD 
HETATM   16  C   UNL     1      -9.714  11.401  68.204  1.00  0.00    -0.194 A  
BRANCH   5  17
HETATM   17  O   UNL     1     -12.481  13.792  67.683  1.00  0.00    -0.148 OA 
BRANCH  17  18
HETATM   18  C   UNL     1     -12.639  15.095  68.284  1.00  0.00     0.785 C  
HETATM   19  C   UNL     1     -11.363  15.835  68.625  1.00  0.00    -0.369 C  
ENDBRANCH  17  18
ENDBRANCH   5  17
BRANCH   6  20
HETATM   20  O   UNL     1     -13.048  12.756  70.328  1.00  0.00     0.355 OA 
BRANCH  20  21
HETATM   21  C   UNL     1     -12.905  13.216  71.673  1.00  0.00    -0.291 C  
HETATM   22  C   UNL     1     -12.859  14.745  71.658  1.00  0.00    -0.405 C  
ENDBRANCH  20  21
ENDBRANCH   6  20
BRANCH  12  23
HETATM   23  C   UNL     1      -9.372   9.583  66.332  1.00  0.00    -0.179 C  
HETATM   24  C   UNL     1     -11.306   8.216  67.033  1.00  0.00     1.371 C  
HETATM   25  C   UNL     1     -11.749  10.478  66.345  1.00  0.00     1.656 C  
HETATM   26  N   UNL     1     -10.848   9.349  66.232  1.00  0.00     0.266 NA 
HETATM   27  C   UNL     1     -10.796   6.946  66.378  1.00  0.00     0.419 C  
HETATM   28  C   UNL     1      -9.310   6.997  66.135  1.00  0.00    -0.090 A  
HETATM   29  C   UNL     1      -8.665   5.776  65.884  1.00  0.00    -0.149 A  
HETATM   30  C   UNL     1      -7.314   5.795  65.659  1.00  0.00    -0.076 A  
HETATM   31  C   UNL     1      -6.597   6.967  65.632  1.00  0.00    -0.051 A  
HETATM   32  O   UNL     1      -5.273   6.714  65.402  1.00  0.00    -0.020 OA 
HETATM   33  C   UNL     1      -7.205   8.208  65.820  1.00  0.00    -0.068 A  
HETATM   34  C   UNL     1      -8.599   8.239  66.100  1.00  0.00    -0.156 A  
HETATM   35  O   UNL     1      -6.550   4.690  65.446  1.00  0.00    -0.042 OA 
HETATM   36  C   UNL     1      -5.240   5.277  65.444  1.00  0.00    -0.012 C  
BRANCH  33  37
HETATM   37  O   UNL     1      -6.561   9.412  65.754  1.00  0.00    -0.070 OA 
HETATM   38  C   UNL     1      -5.158   9.406  65.502  1.00  0.00    -0.035 C  
ENDBRANCH  33  37
ENDBRANCH  12  23
ENDBRANCH   3   4
ENDBRANCH   2   3
TORSDOF 8
ENDMDL
MODEL      153
REMARK 921   NORMALIZED FREE ENERGY PREDICTED BY IDOCK:    3.32 KCAL/MOL
REMARK 922        TOTAL FREE ENERGY PREDICTED BY IDOCK:    4.10 KCAL/MOL
REMARK 923 INTER-LIGAND FREE ENERGY PREDICTED BY IDOCK:    3.55 KCAL/MOL
REMARK 924 INTRA-LIGAND FREE ENERGY PREDICTED BY IDOCK:    0.54 KCAL/MOL
REMARK 927      BINDING AFFINITY PREDICTED BY RF-SCORE:    0.00 PKD
ROOT
HETATM    1  C   UNL     1      -9.478  15.511  70.329  1.00  0.00     0.478 C  
HETATM    2  C   UNL     1      -8.047  15.246  70.765  1.00  0.00     1.968 C  
ENDROOT
BRANCH   2   3
HETATM    3  O   UNL     1      -7.281  14.842  69.651  1.00  0.00    -0.169 OA 
BRANCH   3   4
HETATM    4  C   UNL     1      -6.874  13.569  69.414  1.00  0.00    -0.010 A  
HETATM    5  C   UNL     1      -6.349  12.863  70.550  1.00  0.00     0.351 A  
HETATM    6  C   UNL     1      -5.686  11.622  70.354  1.00  0.00    -0.158 A  
HETATM    7  C   UNL     1      -6.598  11.208  66.690  1.00  0.00    -0.137 C  
HETATM    8  C   UNL     1      -5.620  11.053  69.049  1.00  0.00    -0.040 A  
HETATM    9  O   UNL     1      -7.508  12.049  66.129  1.00  0.00     0.372 OA 
HETATM   10  O   UNL     1      -6.082  10.253  66.149  1.00  0.00    -0.072 OA 
HETATM   11  N   UNL     1      -5.126   9.751  68.857  1.00  0.00    -0.037 NA 
HETATM   12  C   UNL     1      -7.911  13.102  67.037  1.00  0.00     0.015 C  
HETATM   13  C   UNL     1      -6.340  11.701  68.041  1.00  0.00    -0.047 A  
HETATM   14  H2  UNL     1      -5.658   9.118  69.453  1.00  0.00     0.000 HD 
HETATM   15  H1  UNL     1      -5.079   9.343  67.923  1.00  0.00     0.000 HD 
HETATM   16  C   UNL     1      -7.010  12.896  68.220  1.00  0.00    -0.099 A  
BRANCH   5  17
HETATM   17  O   UNL     1      -6.567  13.287  71.867  1.00  0.00     1.458 OA 
BRANCH  17  18
HETATM   18  C   UNL     1      -5.388  13.805  72.518  1.00  0.00    -0.134 C  
HETATM   19  C   UNL     1      -5.498  14.049  74.009  1.00  0.00    -0.247 C  
ENDBRANCH  17  18
ENDBRANCH   5  17
BRANCH   6  20
HETATM   20  O   UNL     1      -5.205  10.785  71.342  1.00  0.00    -0.138 OA 
BRANCH  20  21
HETATM   21  C   UNL     1      -5.884   9.543  71.534  1.00  0.00    -0.051 C  
HETATM   22  C   UNL     1      -5.133   8.742  72.601  1.00  0.00    -0.049 C  
ENDBRANCH  20  21
ENDBRANCH   6  20
BRANCH  12  23
HETATM   23  C   UNL     1      -9.480  13.043  67.320  1.00  0.00    -0.224 C  
HETATM   24  C   UNL     1     -10.457  11.050  66.238  1.00  0.00    -0.254 C  
HETATM   25  C   UNL     1      -9.590  10.778  68.465  1.00  0.00    -0.183 C  
HETATM   26  N   UNL     1     -10.139  11.711  67.501  1.00  0.00    -0.189 NA 
HETATM   27  C   UNL     1     -11.592  11.816  65.584  1.00  0.00    -0.190 C  
HETATM   28  C   UNL     1     -11.288  13.287  65.476  1.00  0.00    -0.315 A  
HETATM   29  C   UNL     1     -12.069  14.033  64.580  1.00  0.00    -0.462 A  
HETATM   30  C   UNL     1     -11.813  15.374  64.464  1.00  0.00    -0.256 A  
HETATM   31  C   UNL     1     -10.854  16.001  65.223  1.00  0.00    -0.362 A  
HETATM   32  O   UNL     1     -10.788  17.329  64.910  1.00  0.00    -0.773 OA 
HETATM   33  C   UNL     1     -10.092  15.310  66.166  1.00  0.00    -0.296 A  
HETATM   34  C   UNL     1     -10.290  13.907  66.294  1.00  0.00    -0.293 A  
HETATM   35  O   UNL     1     -12.457  16.213  63.609  1.00  0.00    -0.586 OA 
HETATM   36  C   UNL     1     -11.687  17.410  63.791  1.00  0.00     5.180 C  
BRANCH  33  37
HETATM   37  O   UNL     1      -9.161  15.881  66.987  1.00  0.00    -0.202 OA 
HETATM   38  C   UNL     1      -8.293  16.865  66.432  1.00  0.00    -0.298 C  
ENDBRANCH  33  37
ENDBRANCH  12  23
ENDBRANCH   3   4
ENDBRANCH   2   3
TORSDOF 8
ENDMDL
MODEL      154
REMARK 921   NORMALIZED FREE ENERGY PREDICTED BY IDOCK:    3.86 KCAL/MOL
REMARK 922        TOTAL FREE ENERGY PREDICTED BY IDOCK:    4.88 KCAL/MOL
REMARK 923 INTER-LIGAND FREE ENERGY PREDICTED BY IDOCK:    1.06 KCAL/MOL
REMARK 924 INTRA-LIGAND FREE ENERGY PREDICTED BY IDOCK:    3.82 KCAL/MOL
REMARK 927      BINDING AFFINITY PREDICTED BY RF-SCORE:    0.00 PKD
ROOT
HETATM    1  C   UNL     1      -6.760  11.777  71.666  1.00  0.00     4.252 C  
HETATM    2  C   UNL     1      -6.534  10.295  71.417  1.00  0.00     0.597 C  
ENDROOT
BRANCH   2   3
HETATM    3  O   UNL     1      -6.681  10.019  70.042  1.00  0.00    -0.079 OA 
BRANCH   3   4
HETATM    4  C   UNL     1      -7.547  10.657  69.215  1.00  0.00    -0.138 A  
HETATM    5  C   UNL     1      -7.308  12.062  69.028  1.00  0.00    -0.018 A  
HETATM    6  C   UNL     1      -8.290  12.855  68.376  1.00  0.00    -0.116 A  
HETATM    7  C   UNL     1     -10.490   9.981  67.226  1.00  0.00    -0.254 C  
HETATM    8  C   UNL     1      -9.459  12.240  67.845  1.00  0.00    -0.200 A  
HETATM    9  O   UNL     1     -10.040   8.704  67.350  1.00  0.00    -0.191 OA 
HETATM   10  O   UNL     1     -11.526  10.323  66.696  1.00  0.00     0.145 OA 
HETATM   11  N   UNL     1     -10.357  12.970  67.047  1.00  0.00    -0.246 NA 
HETATM   12  C   UNL     1      -8.775   8.636  68.053  1.00  0.00    -0.141 C  
HETATM   13  C   UNL     1      -9.511  10.843  67.883  1.00  0.00    -0.166 A  
HETATM   14  H2  UNL     1      -9.834  13.380  66.273  1.00  0.00     0.000 HD 
HETATM   15  H1  UNL     1     -11.195  12.529  66.666  1.00  0.00     0.000 HD 
HETATM   16  C   UNL     1      -8.553  10.054  68.492  1.00  0.00    -0.119 A  
BRANCH   5  17
HETATM   17  O   UNL     1      -6.088  12.667  69.355  1.00  0.00    -0.092 OA 
BRANCH  17  18
HETATM   18  C   UNL     1      -5.345  13.141  68.212  1.00  0.00    -0.089 C  
HETATM   19  C   UNL     1      -5.216  14.643  68.072  1.00  0.00    -0.108 C  
ENDBRANCH  17  18
ENDBRANCH   5  17
BRANCH   6  20
HETATM   20  O   UNL     1      -8.175  14.192  68.045  1.00  0.00    -0.132 OA 
BRANCH  20  21
HETATM   21  C   UNL     1      -9.374  14.883  67.692  1.00  0.00    -0.191 C  
HETATM   22  C   UNL     1      -9.064  16.380  67.616  1.00  0.00    -0.198 C  
ENDBRANCH  20  21
ENDBRANCH   6  20
BRANCH  12  23
HETATM   23  C   UNL     1      -7.643   7.992  67.132  1.00  0.00    -0.097 C  
HETATM   24  C   UNL     1      -7.895   8.786  64.807  1.00  0.00    -0.124 C  
HETATM   25  C   UNL     1      -6.557  10.128  66.289  1.00  0.00    -0.094 C  
HETATM   26  N   UNL     1      -7.067   8.800  66.011  1.00  0.00    -0.083 NA 
HETATM   27  C   UNL     1      -7.809   7.399  64.199  1.00  0.00    -0.120 C  
HETATM   28  C   UNL     1      -8.127   6.324  65.205  1.00  0.00    -0.132 A  
HETATM   29  C   UNL     1      -8.441   5.053  64.700  1.00  0.00    -0.145 A  
HETATM   30  C   UNL     1      -8.733   4.058  65.594  1.00  0.00    -0.119 A  
HETATM   31  C   UNL     1      -8.685   4.262  66.953  1.00  0.00    -0.113 A  
HETATM   32  O   UNL     1      -9.029   3.121  67.622  1.00  0.00    -0.123 OA 
HETATM   33  C   UNL     1      -8.323   5.493  67.501  1.00  0.00    -0.100 A  
HETATM   34  C   UNL     1      -8.052   6.571  66.613  1.00  0.00    -0.110 A  
HETATM   35  O   UNL     1      -9.096   2.792  65.252  1.00  0.00    -0.143 OA 
HETATM   36  C   UNL     1      -9.434   2.261  66.542  1.00  0.00     0.207 C  
BRANCH  33  37
HETATM   37  O   UNL     1      -8.205   5.748  68.838  1.00  0.00    -0.100 OA 
HETATM   38  C   UNL     1      -6.898   5.742  69.406  1.00  0.00    -0.062 C  
ENDBRANCH  33  37
ENDBRANCH  12  23
ENDBRANCH   3   4
ENDBRANCH   2   3
TORSDOF 8
ENDMDL
MODEL      155
REMARK 921   NORMALIZED FREE ENERGY PREDICTED BY IDOCK:    3.91 KCAL/MOL
REMARK 922        TOTAL FREE ENERGY PREDICTED BY IDOCK:    4.95 KCAL/MOL
REMARK 923 INTER-LIGAND FREE ENERGY PREDICTED BY IDOCK:    2.60 KCAL/MOL
REMARK 924 INTRA-LIGAND FREE ENERGY PREDICTED BY IDOCK:    2.35 KCAL/MOL
REMARK 927      BINDING AFFINITY PREDICTED BY RF-SCORE:    0.00 PKD
ROOT
HETATM    1  C   UNL     1     -10.425  19.725  69.999  1.00  0.00     0.755 C  
HETATM    2  C   UNL     1     -10.385  18.207  69.934  1.00  0.00     0.912 C  
ENDROOT
BRANCH   2   3
HETATM    3  O   UNL     1     -11.268  17.755  68.931  1.00  0.00     0.486 OA 
BRANCH   3   4
HETATM    4  C   UNL     1     -10.900  17.016  67.854  1.00  0.00    -0.302 A  
HETATM    5  C   UNL     1      -9.719  17.464  67.167  1.00  0.00    -0.267 A  
HETATM    6  C   UNL     1      -9.393  16.904  65.903  1.00  0.00    -0.094 A  
HETATM    7  C   UNL     1     -11.990  14.133  65.964  1.00  0.00    -0.413 C  
HETATM    8  C   UNL     1     -10.190  15.851  65.368  1.00  0.00    -0.323 A  
HETATM    9  O   UNL     1     -12.677  13.887  67.111  1.00  0.00    -0.008 OA 
HETATM   10  O   UNL     1     -12.061  13.489  64.939  1.00  0.00    -0.363 OA 
HETATM   11  N   UNL     1      -9.790  15.164  64.209  1.00  0.00     0.258 NA 
HETATM   12  C   UNL     1     -12.380  14.856  68.146  1.00  0.00     0.208 C  
HETATM   13  C   UNL     1     -11.190  15.333  66.197  1.00  0.00    -0.225 A  
HETATM   14  H2  UNL     1      -8.848  14.804  64.362  1.00  0.00     0.000 HD 
HETATM   15  H1  UNL     1     -10.360  14.410  63.826  1.00  0.00     0.000 HD 
HETATM   16  C   UNL     1     -11.505  15.851  67.439  1.00  0.00     0.050 A  
BRANCH   5  17
HETATM   17  O   UNL     1      -8.802  18.350  67.747  1.00  0.00    -0.271 OA 
BRANCH  17  18
HETATM   18  C   UNL     1      -8.681  19.608  67.049  1.00  0.00    -0.316 C  
HETATM   19  C   UNL     1      -9.967  20.208  66.521  1.00  0.00    -0.586 C  
ENDBRANCH  17  18
ENDBRANCH   5  17
BRANCH   6  20
HETATM   20  O   UNL     1      -8.256  17.162  65.162  1.00  0.00     1.048 OA 
BRANCH  20  21
HETATM   21  C   UNL     1      -7.000  17.061  65.834  1.00  0.00     0.272 C  
HETATM   22  C   UNL     1      -6.065  18.136  65.276  1.00  0.00    -0.150 C  
ENDBRANCH  20  21
ENDBRANCH   6  20
BRANCH  12  23
HETATM   23  C   UNL     1     -11.755  14.147  69.430  1.00  0.00    -0.313 C  
HETATM   24  C   UNL     1     -11.813  15.691  71.357  1.00  0.00    -0.421 C  
HETATM   25  C   UNL     1     -13.754  14.318  70.988  1.00  0.00    -0.098 C  
HETATM   26  N   UNL     1     -12.325  14.450  70.781  1.00  0.00    -0.323 NA 
HETATM   27  C   UNL     1     -10.361  15.466  71.732  1.00  0.00     1.340 C  
HETATM   28  C   UNL     1      -9.561  14.919  70.579  1.00  0.00     1.023 A  
HETATM   29  C   UNL     1      -8.164  15.013  70.674  1.00  0.00     1.632 A  
HETATM   30  C   UNL     1      -7.413  14.522  69.638  1.00  0.00     0.035 A  
HETATM   31  C   UNL     1      -7.987  13.913  68.548  1.00  0.00    -0.137 A  
HETATM   32  O   UNL     1      -7.026  13.525  67.656  1.00  0.00    -0.147 OA 
HETATM   33  C   UNL     1      -9.367  13.747  68.437  1.00  0.00    -0.190 A  
HETATM   34  C   UNL     1     -10.193  14.278  69.467  1.00  0.00     0.152 A  
HETATM   35  O   UNL     1      -6.056  14.582  69.571  1.00  0.00    -0.100 OA 
HETATM   36  C   UNL     1      -5.841  14.091  68.240  1.00  0.00    -0.116 C  
BRANCH  33  37
HETATM   37  O   UNL     1      -9.997  13.106  67.408  1.00  0.00    -0.224 OA 
HETATM   38  C   UNL     1      -9.902  11.685  67.348  1.00  0.00    -0.183 C  
ENDBRANCH  33  37
ENDBRANCH  12  23
ENDBRANCH   3   4
ENDBRANCH   2   3
TORSDOF 8
ENDMDL
MODEL      156
REMARK 921   NORMALIZED FREE ENERGY PREDICTED BY IDOCK:    4.22 KCAL/MOL
REMARK 922        TOTAL FREE ENERGY PREDICTED BY IDOCK:    5.41 KCAL/MOL
REMARK 923 INTER-LIGAND FREE ENERGY PREDICTED BY IDOCK:    1.10 KCAL/MOL
REMARK 924 INTRA-LIGAND FREE ENERGY PREDICTED BY IDOCK:    4.31 KCAL/MOL
REMARK 927      BINDING AFFINITY PREDICTED BY RF-SCORE:    0.00 PKD
ROOT
HETATM    1  C   UNL     1     -10.468  19.994  70.268  1.00  0.00     1.012 C  
HETATM    2  C   UNL     1      -9.744  18.677  70.043  1.00  0.00     1.108 C  
ENDROOT
BRANCH   2   3
HETATM    3  O   UNL     1     -10.606  17.768  69.395  1.00  0.00    -0.116 OA 
BRANCH   3   4
HETATM    4  C   UNL     1     -10.384  17.235  68.167  1.00  0.00    -0.357 A  
HETATM    5  C   UNL     1      -9.367  17.880  67.384  1.00  0.00    -0.257 A  
HETATM    6  C   UNL     1      -9.229  17.547  66.010  1.00  0.00    -0.041 A  
HETATM    7  C   UNL     1     -11.609  14.587  66.032  1.00  0.00    -0.356 C  
HETATM    8  C   UNL     1     -10.042  16.522  65.444  1.00  0.00    -0.066 A  
HETATM    9  O   UNL     1     -12.074  14.113  67.218  1.00  0.00    -0.417 OA 
HETATM   10  O   UNL     1     -11.816  14.102  64.940  1.00  0.00    -0.362 OA 
HETATM   11  N   UNL     1      -9.806  16.055  64.140  1.00  0.00     1.809 NA 
HETATM   12  C   UNL     1     -11.662  14.937  68.336  1.00  0.00    -0.309 C  
HETATM   13  C   UNL     1     -10.854  15.802  66.326  1.00  0.00    -0.232 A  
HETATM   14  H2  UNL     1      -8.832  15.758  64.080  1.00  0.00     0.000 HD 
HETATM   15  H1  UNL     1     -10.388  15.321  63.736  1.00  0.00     0.000 HD 
HETATM   16  C   UNL     1     -10.982  16.097  67.670  1.00  0.00    -0.268 A  
BRANCH   5  17
HETATM   17  O   UNL     1      -8.418  18.744  67.946  1.00  0.00    -0.280 OA 
BRANCH  17  18
HETATM   18  C   UNL     1      -8.460  20.085  67.416  1.00  0.00    -0.336 C  
HETATM   19  C   UNL     1      -9.792  20.546  66.861  1.00  0.00    -0.506 C  
ENDBRANCH  17  18
ENDBRANCH   5  17
BRANCH   6  20
HETATM   20  O   UNL     1      -8.253  18.010  65.148  1.00  0.00     0.820 OA 
BRANCH  20  21
HETATM   21  C   UNL     1      -6.893  17.759  65.506  1.00  0.00     0.088 C  
HETATM   22  C   UNL     1      -6.116  19.073  65.403  1.00  0.00    -0.283 C  
ENDBRANCH  20  21
ENDBRANCH   6  20
BRANCH  12  23
HETATM   23  C   UNL     1     -10.786  14.098  69.371  1.00  0.00    -0.090 C  
HETATM   24  C   UNL     1      -9.012  15.528  70.326  1.00  0.00     0.825 C  
HETATM   25  C   UNL     1     -11.145  15.528  71.441  1.00  0.00    -0.254 C  
HETATM   26  N   UNL     1     -10.241  14.781  70.588  1.00  0.00     0.485 NA 
HETATM   27  C   UNL     1      -7.903  14.524  70.072  1.00  0.00     0.533 C  
HETATM   28  C   UNL     1      -8.282  13.526  69.010  1.00  0.00     0.282 A  
HETATM   29  C   UNL     1      -7.238  12.791  68.427  1.00  0.00    -0.115 A  
HETATM   30  C   UNL     1      -7.555  11.875  67.460  1.00  0.00    -0.140 A  
HETATM   31  C   UNL     1      -8.855  11.635  67.083  1.00  0.00    -0.172 A  
HETATM   32  O   UNL     1      -8.901  10.690  66.096  1.00  0.00    -0.156 OA 
HETATM   33  C   UNL     1      -9.929  12.300  67.674  1.00  0.00    -0.198 A  
HETATM   34  C   UNL     1      -9.648  13.292  68.655  1.00  0.00    -0.053 A  
HETATM   35  O   UNL     1      -6.649  11.123  66.778  1.00  0.00    -0.111 OA 
HETATM   36  C   UNL     1      -7.505  10.498  65.811  1.00  0.00    -0.139 C  
BRANCH  33  37
HETATM   37  O   UNL     1     -11.245  12.072  67.385  1.00  0.00    -0.268 OA 
HETATM   38  C   UNL     1     -11.919  11.044  68.106  1.00  0.00     0.017 C  
ENDBRANCH  33  37
ENDBRANCH  12  23
ENDBRANCH   3   4
ENDBRANCH   2   3
TORSDOF 8
ENDMDL
MODEL      157
REMARK 921   NORMALIZED FREE ENERGY PREDICTED BY IDOCK:    4.93 KCAL/MOL
REMARK 922        TOTAL FREE ENERGY PREDICTED BY IDOCK:    6.45 KCAL/MOL
REMARK 923 INTER-LIGAND FREE ENERGY PREDICTED BY IDOCK:   -0.85 KCAL/MOL
REMARK 924 INTRA-LIGAND FREE ENERGY PREDICTED BY IDOCK:    7.30 KCAL/MOL
REMARK 927      BINDING AFFINITY PREDICTED BY RF-SCORE:    0.00 PKD
ROOT
HETATM    1  C   UNL     1      -5.130  14.354  68.720  1.00  0.00    -0.089 C  
HETATM    2  C   UNL     1      -6.156  13.301  69.107  1.00  0.00    -0.094 C  
ENDROOT
BRANCH   2   3
HETATM    3  O   UNL     1      -5.801  12.063  68.533  1.00  0.00    -0.052 OA 
BRANCH   3   4
HETATM    4  C   UNL     1      -6.603  10.969  68.500  1.00  0.00    -0.059 A  
HETATM    5  C   UNL     1      -6.698  10.230  69.729  1.00  0.00    -0.103 A  
HETATM    6  C   UNL     1      -7.318   8.952  69.729  1.00  0.00    -0.056 A  
HETATM    7  C   UNL     1      -8.685   9.124  66.189  1.00  0.00    -0.148 C  
HETATM    8  C   UNL     1      -7.908   8.452  68.533  1.00  0.00    -0.120 A  
HETATM    9  O   UNL     1      -8.632  10.300  65.510  1.00  0.00    -0.150 OA 
HETATM   10  O   UNL     1      -9.212   8.102  65.805  1.00  0.00    -0.139 OA 
HETATM   11  N   UNL     1      -8.676   7.274  68.548  1.00  0.00    -0.124 NA 
HETATM   12  C   UNL     1      -7.911  11.322  66.240  1.00  0.00    -0.086 C  
HETATM   13  C   UNL     1      -7.957   9.323  67.441  1.00  0.00    -0.106 A  
HETATM   14  H2  UNL     1      -9.412   7.384  69.245  1.00  0.00     0.000 HD 
HETATM   15  H1  UNL     1      -9.099   6.916  67.691  1.00  0.00     0.000 HD 
HETATM   16  C   UNL     1      -7.381  10.579  67.432  1.00  0.00    -0.093 A  
BRANCH   5  17
HETATM   17  O   UNL     1      -6.311  10.770  70.963  1.00  0.00    -0.346 OA 
BRANCH  17  18
HETATM   18  C   UNL     1      -5.174  10.112  71.559  1.00  0.00    -0.071 C  
HETATM   19  C   UNL     1      -5.331   9.677  73.001  1.00  0.00     0.035 C  
ENDBRANCH  17  18
ENDBRANCH   5  17
BRANCH   6  20
HETATM   20  O   UNL     1      -7.563   8.161  70.835  1.00  0.00    -0.069 OA 
BRANCH  20  21
HETATM   21  C   UNL     1      -8.835   8.302  71.470  1.00  0.00    -0.168 C  
HETATM   22  C   UNL     1      -8.616   8.337  72.984  1.00  0.00    -0.275 C  
ENDBRANCH  20  21
ENDBRANCH   6  20
BRANCH  12  23
HETATM   23  C   UNL     1      -8.849  12.576  66.545  1.00  0.00    -0.087 C  
HETATM   24  C   UNL     1     -10.061  12.226  68.668  1.00  0.00    -0.144 C  
HETATM   25  C   UNL     1      -7.887  13.250  68.798  1.00  0.00     0.008 C  
HETATM   26  N   UNL     1      -9.049  13.010  67.964  1.00  0.00    -0.204 NA 
HETATM   27  C   UNL     1     -11.416  12.589  68.091  1.00  0.00    -0.368 C  
HETATM   28  C   UNL     1     -11.440  12.462  66.591  1.00  0.00    -0.429 A  
HETATM   29  C   UNL     1     -12.701  12.409  65.977  1.00  0.00     0.997 A  
HETATM   30  C   UNL     1     -12.750  12.295  64.613  1.00  0.00    -0.182 A  
HETATM   31  C   UNL     1     -11.612  12.274  63.842  1.00  0.00    -0.444 A  
HETATM   32  O   UNL     1     -11.931  12.141  62.520  1.00  0.00     0.783 OA 
HETATM   33  C   UNL     1     -10.340  12.381  64.404  1.00  0.00    -0.343 A  
HETATM   34  C   UNL     1     -10.233  12.459  65.820  1.00  0.00    -0.283 A  
HETATM   35  O   UNL     1     -13.895  12.188  63.886  1.00  0.00     0.219 OA 
HETATM   36  C   UNL     1     -13.352  11.932  62.583  1.00  0.00     1.945 C  
BRANCH  33  37
HETATM   37  O   UNL     1      -9.173  12.420  63.693  1.00  0.00     0.169 OA 
HETATM   38  C   UNL     1      -8.913  11.360  62.777  1.00  0.00    -0.174 C  
ENDBRANCH  33  37
ENDBRANCH  12  23
ENDBRANCH   3   4
ENDBRANCH   2   3
TORSDOF 8
ENDMDL
MODEL      158
REMARK 921   NORMALIZED FREE ENERGY PREDICTED BY IDOCK:    5.39 KCAL/MOL
REMARK 922        TOTAL FREE ENERGY PREDICTED BY IDOCK:    7.13 KCAL/MOL
REMARK 923 INTER-LIGAND FREE ENERGY PREDICTED BY IDOCK:    4.84 KCAL/MOL
REMARK 924 INTRA-LIGAND FREE ENERGY PREDICTED BY IDOCK:    2.28 KCAL/MOL
REMARK 927      BINDING AFFINITY PREDICTED BY RF-SCORE:    0.00 PKD
ROOT
HETATM    1  C   UNL     1     -10.346  13.587  63.606  1.00  0.00     1.201 C  
HETATM    2  C   UNL     1      -9.477  12.378  63.298  1.00  0.00     0.842 C  
ENDROOT
BRANCH   2   3
HETATM    3  O   UNL     1      -9.700  11.378  64.267  1.00  0.00    -0.234 OA 
BRANCH   3   4
HETATM    4  C   UNL     1      -9.776  11.600  65.603  1.00  0.00    -0.236 A  
HETATM    5  C   UNL     1     -11.069  11.390  66.196  1.00  0.00    -0.198 A  
HETATM    6  C   UNL     1     -11.303  11.819  67.530  1.00  0.00    -0.310 A  
HETATM    7  C   UNL     1      -7.694  12.666  68.361  1.00  0.00    -0.133 C  
HETATM    8  C   UNL     1     -10.236  12.379  68.291  1.00  0.00    -0.229 A  
HETATM    9  O   UNL     1      -6.707  12.301  67.499  1.00  0.00    -0.108 OA 
HETATM   10  O   UNL     1      -7.538  13.183  69.446  1.00  0.00     0.259 OA 
HETATM   11  N   UNL     1     -10.395  12.649  69.661  1.00  0.00     0.124 NA 
HETATM   12  C   UNL     1      -7.232  11.727  66.278  1.00  0.00     0.342 C  
HETATM   13  C   UNL     1      -8.964  12.350  67.711  1.00  0.00    -0.182 A  
HETATM   14  H2  UNL     1     -10.699  11.791  70.121  1.00  0.00     0.000 HD 
HETATM   15  H1  UNL     1      -9.631  13.049  70.206  1.00  0.00     0.000 HD 
HETATM   16  C   UNL     1      -8.715  11.913  66.423  1.00  0.00    -0.118 A  
BRANCH   5  17
HETATM   17  O   UNL     1     -12.082  10.666  65.554  1.00  0.00     1.676 OA 
BRANCH  17  18
HETATM   18  C   UNL     1     -13.031  11.490  64.845  1.00  0.00     2.251 C  
HETATM   19  C   UNL     1     -13.245  11.159  63.383  1.00  0.00     1.825 C  
ENDBRANCH  17  18
ENDBRANCH   5  17
BRANCH   6  20
HETATM   20  O   UNL     1     -12.454  11.615  68.266  1.00  0.00    -0.251 OA 
BRANCH  20  21
HETATM   21  C   UNL     1     -12.295  11.230  69.633  1.00  0.00    -0.194 C  
HETATM   22  C   UNL     1     -12.645   9.746  69.760  1.00  0.00     0.675 C  
ENDBRANCH  20  21
ENDBRANCH   6  20
BRANCH  12  23
HETATM   23  C   UNL     1      -6.721  10.229  66.084  1.00  0.00    -0.110 C  
HETATM   24  C   UNL     1      -7.343   9.409  63.838  1.00  0.00    -0.105 C  
HETATM   25  C   UNL     1      -5.249  10.575  64.042  1.00  0.00    -0.160 C  
HETATM   26  N   UNL     1      -6.251   9.787  64.732  1.00  0.00    -0.088 NA 
HETATM   27  C   UNL     1      -7.932   8.107  64.349  1.00  0.00    -0.145 C  
HETATM   28  C   UNL     1      -8.300   8.190  65.807  1.00  0.00    -0.140 A  
HETATM   29  C   UNL     1      -9.174   7.208  66.298  1.00  0.00    -0.169 A  
HETATM   30  C   UNL     1      -9.523   7.260  67.622  1.00  0.00    -0.131 A  
HETATM   31  C   UNL     1      -9.011   8.210  68.473  1.00  0.00    -0.137 A  
HETATM   32  O   UNL     1      -9.524   8.053  69.730  1.00  0.00    -0.159 OA 
HETATM   33  C   UNL     1      -8.097   9.171  68.042  1.00  0.00    -0.105 A  
HETATM   34  C   UNL     1      -7.735   9.185  66.666  1.00  0.00    -0.097 A  
HETATM   35  O   UNL     1     -10.391   6.405  68.227  1.00  0.00    -0.156 OA 
HETATM   36  C   UNL     1     -10.501   7.019  69.519  1.00  0.00    -0.220 C  
BRANCH  33  37
HETATM   37  O   UNL     1      -7.512  10.109  68.844  1.00  0.00    -0.077 OA 
HETATM   38  C   UNL     1      -7.647   9.959  70.256  1.00  0.00    -0.158 C  
ENDBRANCH  33  37
ENDBRANCH  12  23
ENDBRANCH   3   4
ENDBRANCH   2   3
TORSDOF 8
ENDMDL
MODEL      159
REMARK 921   NORMALIZED FREE ENERGY PREDICTED BY IDOCK:    5.58 KCAL/MOL
REMARK 922        TOTAL FREE ENERGY PREDICTED BY IDOCK:    7.41 KCAL/MOL
REMARK 923 INTER-LIGAND FREE ENERGY PREDICTED BY IDOCK:    0.42 KCAL/MOL
REMARK 924 INTRA-LIGAND FREE ENERGY PREDICTED BY IDOCK:    6.99 KCAL/MOL
REMARK 927      BINDING AFFINITY PREDICTED BY RF-SCORE:    0.00 PKD
ROOT
HETATM    1  C   UNL     1      -6.135  15.826  67.960  1.00  0.00    -0.149 C  
HETATM    2  C   UNL     1      -6.022  14.493  68.681  1.00  0.00    -0.089 C  
ENDROOT
BRANCH   2   3
HETATM    3  O   UNL     1      -6.791  13.523  68.004  1.00  0.00    -0.101 OA 
BRANCH   3   4
HETATM    4  C   UNL     1      -8.090  13.240  68.276  1.00  0.00    -0.156 A  
HETATM    5  C   UNL     1      -9.049  14.190  67.785  1.00  0.00    -0.190 A  
HETATM    6  C   UNL     1     -10.400  14.105  68.218  1.00  0.00    -0.245 A  
HETATM    7  C   UNL     1     -10.088  10.756  69.984  1.00  0.00     0.380 C  
HETATM    8  C   UNL     1     -10.805  13.036  69.068  1.00  0.00    -0.155 A  
HETATM    9  O   UNL     1      -8.954  10.023  69.828  1.00  0.00    -0.207 OA 
HETATM   10  O   UNL     1     -11.083  10.412  70.585  1.00  0.00    -0.313 OA 
HETATM   11  N   UNL     1     -12.162  12.831  69.369  1.00  0.00    -0.157 NA 
HETATM   12  C   UNL     1      -7.943  10.732  69.072  1.00  0.00    -0.137 C  
HETATM   13  C   UNL     1      -9.857  12.040  69.325  1.00  0.00     0.464 A  
HETATM   14  H2  UNL     1     -12.673  12.750  68.490  1.00  0.00     0.000 HD 
HETATM   15  H1  UNL     1     -12.452  12.065  69.977  1.00  0.00     0.000 HD 
HETATM   16  C   UNL     1      -8.546  12.095  68.891  1.00  0.00     0.225 A  
BRANCH   5  17
HETATM   17  O   UNL     1      -8.737  15.131  66.796  1.00  0.00    -0.243 OA 
BRANCH  17  18
HETATM   18  C   UNL     1      -9.211  14.777  65.479  1.00  0.00     0.424 C  
HETATM   19  C   UNL     1     -10.047  13.518  65.385  1.00  0.00    -0.279 C  
ENDBRANCH  17  18
ENDBRANCH   5  17
BRANCH   6  20
HETATM   20  O   UNL     1     -11.452  14.883  67.776  1.00  0.00    -0.318 OA 
BRANCH  20  21
HETATM   21  C   UNL     1     -11.366  16.291  68.007  1.00  0.00    -0.205 C  
HETATM   22  C   UNL     1     -12.417  16.672  69.053  1.00  0.00     1.909 C  
ENDBRANCH  20  21
ENDBRANCH   6  20
BRANCH  12  23
HETATM   23  C   UNL     1      -7.564   9.940  67.741  1.00  0.00    -0.090 C  
HETATM   24  C   UNL     1      -5.644  11.029  66.630  1.00  0.00    -0.098 C  
HETATM   25  C   UNL     1      -5.152   9.365  68.297  1.00  0.00    -0.034 C  
HETATM   26  N   UNL     1      -6.126   9.843  67.334  1.00  0.00    -0.058 NA 
HETATM   27  C   UNL     1      -6.301  11.057  65.263  1.00  0.00     0.282 C  
HETATM   28  C   UNL     1      -7.799  10.934  65.356  1.00  0.00     0.078 A  
HETATM   29  C   UNL     1      -8.539  11.310  64.225  1.00  0.00     0.387 A  
HETATM   30  C   UNL     1      -9.904  11.205  64.283  1.00  0.00    -0.286 A  
HETATM   31  C   UNL     1     -10.550  10.710  65.391  1.00  0.00    -0.115 A  
HETATM   32  O   UNL     1     -11.903  10.722  65.202  1.00  0.00     0.867 OA 
HETATM   33  C   UNL     1      -9.852  10.272  66.516  1.00  0.00    -0.212 A  
HETATM   34  C   UNL     1      -8.435  10.399  66.521  1.00  0.00    -0.132 A  
HETATM   35  O   UNL     1     -10.751  11.572  63.284  1.00  0.00    -0.362 OA 
HETATM   36  C   UNL     1     -12.015  11.408  63.943  1.00  0.00     0.151 C  
BRANCH  33  37
HETATM   37  O   UNL     1     -10.427   9.722  67.627  1.00  0.00    -0.217 OA 
HETATM   38  C   UNL     1     -10.056   8.392  67.983  1.00  0.00    -0.199 C  
ENDBRANCH  33  37
ENDBRANCH  12  23
ENDBRANCH   3   4
ENDBRANCH   2   3
TORSDOF 8
ENDMDL
MODEL      160
REMARK 921   NORMALIZED FREE ENERGY PREDICTED BY IDOCK:    5.74 KCAL/MOL
REMARK 922        TOTAL FREE ENERGY PREDICTED BY IDOCK:    7.64 KCAL/MOL
REMARK 923 INTER-LIGAND FREE ENERGY PREDICTED BY IDOCK:    3.49 KCAL/MOL
REMARK 924 INTRA-LIGAND FREE ENERGY PREDICTED BY IDOCK:    4.15 KCAL/MOL
REMARK 927      BINDING AFFINITY PREDICTED BY RF-SCORE:    0.00 PKD
ROOT
HETATM    1  C   UNL     1     -10.828  19.793  65.336  1.00  0.00    -0.121 C  
HETATM    2  C   UNL     1     -10.813  18.273  65.337  1.00  0.00     0.313 C  
ENDROOT
BRANCH   2   3
HETATM    3  O   UNL     1     -10.743  17.803  66.665  1.00  0.00    -0.259 OA 
BRANCH   3   4
HETATM    4  C   UNL     1     -10.787  16.495  67.024  1.00  0.00    -0.113 A  
HETATM    5  C   UNL     1     -11.048  15.566  65.959  1.00  0.00    -0.185 A  
HETATM    6  C   UNL     1     -11.345  14.212  66.271  1.00  0.00    -0.338 A  
HETATM    7  C   UNL     1     -10.504  14.417  69.970  1.00  0.00     0.346 C  
HETATM    8  C   UNL     1     -11.303  13.772  67.625  1.00  0.00    -0.304 A  
HETATM    9  O   UNL     1      -9.890  15.528  70.454  1.00  0.00    -0.057 OA 
HETATM   10  O   UNL     1     -10.754  13.409  70.597  1.00  0.00     1.568 OA 
HETATM   11  N   UNL     1     -11.420  12.408  67.942  1.00  0.00    -0.305 NA 
HETATM   12  C   UNL     1      -9.760  16.563  69.449  1.00  0.00    -0.128 C  
HETATM   13  C   UNL     1     -10.834  14.688  68.572  1.00  0.00    -0.256 A  
HETATM   14  H2  UNL     1     -10.709  11.898  67.419  1.00  0.00     0.000 HD 
HETATM   15  H1  UNL     1     -11.390  12.093  68.912  1.00  0.00     0.000 HD 
HETATM   16  C   UNL     1     -10.518  16.002  68.282  1.00  0.00    -0.269 A  
BRANCH   5  17
HETATM   17  O   UNL     1     -10.903  15.910  64.609  1.00  0.00    -0.557 OA 
BRANCH  17  18
HETATM   18  C   UNL     1     -12.143  15.917  63.870  1.00  0.00     0.514 C  
HETATM   19  C   UNL     1     -13.361  15.391  64.599  1.00  0.00     1.771 C  
ENDBRANCH  17  18
ENDBRANCH   5  17
BRANCH   6  20
HETATM   20  O   UNL     1     -11.532  13.186  65.366  1.00  0.00    -0.295 OA 
BRANCH  20  21
HETATM   21  C   UNL     1     -10.366  12.640  64.746  1.00  0.00    -0.312 C  
HETATM   22  C   UNL     1     -10.389  11.120  64.928  1.00  0.00    -0.375 C  
ENDBRANCH  20  21
ENDBRANCH   6  20
BRANCH  12  23
HETATM   23  C   UNL     1      -8.227  16.923  69.195  1.00  0.00    -0.066 C  
HETATM   24  C   UNL     1      -7.946  17.852  66.923  1.00  0.00    -0.227 C  
HETATM   25  C   UNL     1      -8.482  19.399  68.686  1.00  0.00    -0.359 C  
HETATM   26  N   UNL     1      -7.887  18.118  68.358  1.00  0.00    -0.289 NA 
HETATM   27  C   UNL     1      -6.781  16.946  66.570  1.00  0.00    -0.236 C  
HETATM   28  C   UNL     1      -6.735  15.722  67.445  1.00  0.00    -0.228 A  
HETATM   29  C   UNL     1      -5.953  14.647  66.995  1.00  0.00     1.114 A  
HETATM   30  C   UNL     1      -5.894  13.522  67.774  1.00  0.00    -0.116 A  
HETATM   31  C   UNL     1      -6.539  13.439  68.985  1.00  0.00    -0.107 A  
HETATM   32  O   UNL     1      -6.333  12.214  69.555  1.00  0.00    -0.111 OA 
HETATM   33  C   UNL     1      -7.282  14.502  69.498  1.00  0.00    -0.095 A  
HETATM   34  C   UNL     1      -7.409  15.678  68.707  1.00  0.00    -0.144 A  
HETATM   35  O   UNL     1      -5.213  12.390  67.447  1.00  0.00    -0.101 OA 
HETATM   36  C   UNL     1      -5.633  11.520  68.508  1.00  0.00    -0.042 C  
BRANCH  33  37
HETATM   37  O   UNL     1      -7.903  14.505  70.715  1.00  0.00     1.285 OA 
HETATM   38  C   UNL     1      -7.124  14.836  71.862  1.00  0.00     2.569 C  
ENDBRANCH  33  37
ENDBRANCH  12  23
ENDBRANCH   3   4
ENDBRANCH   2   3
TORSDOF 8
ENDMDL
MODEL      161
REMARK 921   NORMALIZED FREE ENERGY PREDICTED BY IDOCK:    6.63 KCAL/MOL
REMARK 922        TOTAL FREE ENERGY PREDICTED BY IDOCK:    8.94 KCAL/MOL
REMARK 923 INTER-LIGAND FREE ENERGY PREDICTED BY IDOCK:   -3.11 KCAL/MOL
REMARK 924 INTRA-LIGAND FREE ENERGY PREDICTED BY IDOCK:   12.05 KCAL/MOL
REMARK 927      BINDING AFFINITY PREDICTED BY RF-SCORE:    0.00 PKD
ROOT
HETATM    1  C   UNL     1      -6.113   9.838  65.252  1.00  0.00    -0.083 C  
HETATM    2  C   UNL     1      -6.346   8.491  64.589  1.00  0.00    -0.065 C  
ENDROOT
BRANCH   2   3
HETATM    3  O   UNL     1      -7.722   8.184  64.612  1.00  0.00    -0.103 OA 
BRANCH   3   4
HETATM    4  C   UNL     1      -8.296   7.269  65.434  1.00  0.00    -0.122 A  
HETATM    5  C   UNL     1      -7.689   5.966  65.433  1.00  0.00    -0.093 A  
HETATM    6  C   UNL     1      -8.354   4.887  66.074  1.00  0.00    -0.113 A  
HETATM    7  C   UNL     1     -11.061   6.963  67.744  1.00  0.00    -0.146 C  
HETATM    8  C   UNL     1      -9.571   5.121  66.776  1.00  0.00    -0.151 A  
HETATM    9  O   UNL     1     -10.966   8.319  67.730  1.00  0.00    -0.057 OA 
HETATM   10  O   UNL     1     -11.907   6.314  68.320  1.00  0.00     0.581 OA 
HETATM   11  N   UNL     1     -10.155   4.112  67.560  1.00  0.00    -0.052 NA 
HETATM   12  C   UNL     1      -9.851   8.782  66.929  1.00  0.00    -0.229 C  
HETATM   13  C   UNL     1      -9.979   6.453  66.905  1.00  0.00    -0.217 A  
HETATM   14  H2  UNL     1      -9.458   3.788  68.231  1.00  0.00     0.000 HD 
HETATM   15  H1  UNL     1     -11.026   4.280  68.063  1.00  0.00     0.000 HD 
HETATM   16  C   UNL     1      -9.330   7.518  66.309  1.00  0.00    -0.176 A  
BRANCH   5  17
HETATM   17  O   UNL     1      -6.402   5.736  64.930  1.00  0.00    -0.035 OA 
BRANCH  17  18
HETATM   18  C   UNL     1      -6.277   4.510  64.179  1.00  0.00    -0.026 C  
HETATM   19  C   UNL     1      -5.139   4.447  63.183  1.00  0.00    -0.009 C  
ENDBRANCH  17  18
ENDBRANCH   5  17
BRANCH   6  20
HETATM   20  O   UNL     1      -7.866   3.604  66.235  1.00  0.00    -0.087 OA 
BRANCH  20  21
HETATM   21  C   UNL     1      -7.198   3.309  67.463  1.00  0.00    -0.058 C  
HETATM   22  C   UNL     1      -5.747   2.940  67.147  1.00  0.00    -0.022 C  
ENDBRANCH  20  21
ENDBRANCH   6  20
BRANCH  12  23
HETATM   23  C   UNL     1      -8.820   9.617  67.813  1.00  0.00    -0.125 C  
HETATM   24  C   UNL     1      -6.513   9.208  67.029  1.00  0.00    -0.064 C  
HETATM   25  C   UNL     1      -7.737  10.987  65.967  1.00  0.00    -0.059 C  
HETATM   26  N   UNL     1      -7.593  10.182  67.165  1.00  0.00    -0.092 NA 
HETATM   27  C   UNL     1      -5.967   8.922  68.415  1.00  0.00    -0.045 C  
HETATM   28  C   UNL     1      -7.058   8.536  69.380  1.00  0.00    -0.054 A  
HETATM   29  C   UNL     1      -6.661   7.901  70.567  1.00  0.00    -0.038 A  
HETATM   30  C   UNL     1      -7.633   7.541  71.461  1.00  0.00    -0.084 A  
HETATM   31  C   UNL     1      -8.962   7.821  71.245  1.00  0.00    -0.134 A  
HETATM   32  O   UNL     1      -9.725   7.348  72.276  1.00  0.00    -0.151 OA 
HETATM   33  C   UNL     1      -9.396   8.500  70.107  1.00  0.00    -0.161 A  
HETATM   34  C   UNL     1      -8.429   8.858  69.127  1.00  0.00    -0.132 A  
HETATM   35  O   UNL     1      -7.404   6.882  72.630  1.00  0.00    -0.081 OA 
HETATM   36  C   UNL     1      -8.752   6.629  73.053  1.00  0.00    -0.120 C  
BRANCH  33  37
HETATM   37  O   UNL     1     -10.691   8.855  69.857  1.00  0.00    -0.225 OA 
HETATM   38  C   UNL     1     -11.633   8.745  70.921  1.00  0.00    -0.277 C  
ENDBRANCH  33  37
ENDBRANCH  12  23
ENDBRANCH   3   4
ENDBRANCH   2   3
TORSDOF 8
ENDMDL
MODEL      162
REMARK 921   NORMALIZED FREE ENERGY PREDICTED BY IDOCK:    6.95 KCAL/MOL
REMARK 922        TOTAL FREE ENERGY PREDICTED BY IDOCK:    9.42 KCAL/MOL
REMARK 923 INTER-LIGAND FREE ENERGY PREDICTED BY IDOCK:    4.58 KCAL/MOL
REMARK 924 INTRA-LIGAND FREE ENERGY PREDICTED BY IDOCK:    4.83 KCAL/MOL
REMARK 927      BINDING AFFINITY PREDICTED BY RF-SCORE:    0.00 PKD
ROOT
HETATM    1  C   UNL     1     -12.502  10.966  66.424  1.00  0.00     4.224 C  
HETATM    2  C   UNL     1     -11.135  10.558  65.902  1.00  0.00     0.360 C  
ENDROOT
BRANCH   2   3
HETATM    3  O   UNL     1     -10.216  10.511  66.970  1.00  0.00    -0.207 OA 
BRANCH   3   4
HETATM    4  C   UNL     1      -9.110   9.726  67.004  1.00  0.00    -0.138 A  
HETATM    5  C   UNL     1      -7.932  10.284  66.398  1.00  0.00    -0.121 A  
HETATM    6  C   UNL     1      -6.801   9.453  66.176  1.00  0.00    -0.085 A  
HETATM    7  C   UNL     1      -8.065   6.453  68.134  1.00  0.00    -0.113 C  
HETATM    8  C   UNL     1      -6.816   8.102  66.626  1.00  0.00    -0.068 A  
HETATM    9  O   UNL     1      -9.181   6.578  68.899  1.00  0.00    -0.130 OA 
HETATM   10  O   UNL     1      -7.354   5.474  68.064  1.00  0.00    -0.071 OA 
HETATM   11  N   UNL     1      -5.653   7.314  66.575  1.00  0.00    -0.023 NA 
HETATM   12  C   UNL     1      -9.814   7.871  68.738  1.00  0.00    -0.167 C  
HETATM   13  C   UNL     1      -7.916   7.704  67.392  1.00  0.00    -0.119 A  
HETATM   14  H2  UNL     1      -4.913   7.808  67.074  1.00  0.00     0.000 HD 
HETATM   15  H1  UNL     1      -5.664   6.346  66.898  1.00  0.00     0.000 HD 
HETATM   16  C   UNL     1      -9.014   8.507  67.638  1.00  0.00    -0.141 A  
BRANCH   5  17
HETATM   17  O   UNL     1      -7.803  11.652  66.125  1.00  0.00     0.026 OA 
BRANCH  17  18
HETATM   18  C   UNL     1      -8.312  12.040  64.831  1.00  0.00     1.649 C  
HETATM   19  C   UNL     1      -9.762  12.473  64.783  1.00  0.00     0.025 C  
ENDBRANCH  17  18
ENDBRANCH   5  17
BRANCH   6  20
HETATM   20  O   UNL     1      -5.573   9.855  65.687  1.00  0.00    -0.051 OA 
BRANCH  20  21
HETATM   21  C   UNL     1      -5.452  11.214  65.263  1.00  0.00     0.201 C  
HETATM   22  C   UNL     1      -5.133  12.075  66.488  1.00  0.00     0.197 C  
ENDBRANCH  20  21
ENDBRANCH   6  20
BRANCH  12  23
HETATM   23  C   UNL     1      -9.866   8.658  70.124  1.00  0.00    -0.180 C  
HETATM   24  C   UNL     1      -7.577   9.008  70.983  1.00  0.00    -0.115 C  
HETATM   25  C   UNL     1      -8.457  10.674  69.488  1.00  0.00     0.026 C  
HETATM   26  N   UNL     1      -8.781   9.639  70.449  1.00  0.00    -0.213 NA 
HETATM   27  C   UNL     1      -7.896   8.500  72.377  1.00  0.00    -0.112 C  
HETATM   28  C   UNL     1      -9.129   7.636  72.392  1.00  0.00    -0.191 A  
HETATM   29  C   UNL     1      -9.320   6.820  73.517  1.00  0.00    -0.179 A  
HETATM   30  C   UNL     1     -10.435   6.026  73.556  1.00  0.00    -0.262 A  
HETATM   31  C   UNL     1     -11.376   6.041  72.554  1.00  0.00    -0.300 A  
HETATM   32  O   UNL     1     -12.379   5.154  72.825  1.00  0.00    -0.013 OA 
HETATM   33  C   UNL     1     -11.256   6.877  71.444  1.00  0.00    -0.259 A  
HETATM   34  C   UNL     1     -10.094   7.691  71.336  1.00  0.00    -0.204 A  
HETATM   35  O   UNL     1     -10.729   5.154  74.559  1.00  0.00    -0.343 OA 
HETATM   36  C   UNL     1     -11.878   4.498  74.002  1.00  0.00     1.403 C  
BRANCH  33  37
HETATM   37  O   UNL     1     -12.178   6.980  70.441  1.00  0.00    -0.239 OA 
HETATM   38  C   UNL     1     -13.555   7.045  70.803  1.00  0.00     0.516 C  
ENDBRANCH  33  37
ENDBRANCH  12  23
ENDBRANCH   3   4
ENDBRANCH   2   3
TORSDOF 8
ENDMDL
MODEL      163
REMARK 921   NORMALIZED FREE ENERGY PREDICTED BY IDOCK:    7.32 KCAL/MOL
REMARK 922        TOTAL FREE ENERGY PREDICTED BY IDOCK:    9.95 KCAL/MOL
REMARK 923 INTER-LIGAND FREE ENERGY PREDICTED BY IDOCK:    3.33 KCAL/MOL
REMARK 924 INTRA-LIGAND FREE ENERGY PREDICTED BY IDOCK:    6.63 KCAL/MOL
REMARK 927      BINDING AFFINITY PREDICTED BY RF-SCORE:    0.00 PKD
ROOT
HETATM    1  C   UNL     1     -11.075  15.867  65.285  1.00  0.00    -0.255 C  
HETATM    2  C   UNL     1     -10.029  15.467  66.312  1.00  0.00    -0.293 C  
ENDROOT
BRANCH   2   3
HETATM    3  O   UNL     1     -10.411  14.258  66.929  1.00  0.00    -0.269 OA 
BRANCH   3   4
HETATM    4  C   UNL     1      -9.994  13.027  66.540  1.00  0.00    -0.262 A  
HETATM    5  C   UNL     1      -8.792  12.998  65.752  1.00  0.00     0.788 A  
HETATM    6  C   UNL     1      -8.410  11.792  65.105  1.00  0.00     0.944 A  
HETATM    7  C   UNL     1     -10.979   9.556  66.787  1.00  0.00     0.193 C  
HETATM    8  C   UNL     1      -9.175  10.608  65.308  1.00  0.00    -0.197 A  
HETATM    9  O   UNL     1     -11.708  10.042  67.827  1.00  0.00     0.009 OA 
HETATM   10  O   UNL     1     -11.003   8.418  66.370  1.00  0.00     0.470 OA 
HETATM   11  N   UNL     1      -8.723   9.368  64.823  1.00  0.00    -0.187 NA 
HETATM   12  C   UNL     1     -11.461  11.451  68.058  1.00  0.00    -0.307 C  
HETATM   13  C   UNL     1     -10.201  10.673  66.255  1.00  0.00    -0.304 A  
HETATM   14  H2  UNL     1      -7.784   9.208  65.188  1.00  0.00     0.000 HD 
HETATM   15  H1  UNL     1      -9.270   8.520  64.969  1.00  0.00     0.000 HD 
HETATM   16  C   UNL     1     -10.570  11.832  66.912  1.00  0.00    -0.270 A  
BRANCH   5  17
HETATM   17  O   UNL     1      -7.907  14.083  65.690  1.00  0.00     2.964 OA 
BRANCH  17  18
HETATM   18  C   UNL     1      -7.547  14.619  66.980  1.00  0.00     0.105 C  
HETATM   19  C   UNL     1      -6.827  13.677  67.921  1.00  0.00    -0.155 C  
ENDBRANCH  17  18
ENDBRANCH   5  17
BRANCH   6  20
HETATM   20  O   UNL     1      -7.249  11.580  64.389  1.00  0.00     1.530 OA 
BRANCH  20  21
HETATM   21  C   UNL     1      -7.318  10.674  63.285  1.00  0.00     0.122 C  
HETATM   22  C   UNL     1      -5.893  10.263  62.909  1.00  0.00    -0.135 C  
ENDBRANCH  20  21
ENDBRANCH   6  20
BRANCH  12  23
HETATM   23  C   UNL     1     -10.880  11.697  69.522  1.00  0.00    -0.029 C  
HETATM   24  C   UNL     1     -11.532   9.837  71.011  1.00  0.00    -0.383 C  
HETATM   25  C   UNL     1      -9.495   9.580  69.758  1.00  0.00    -0.210 C  
HETATM   26  N   UNL     1     -10.432  10.522  70.337  1.00  0.00     0.030 NA 
HETATM   27  C   UNL     1     -12.037  10.744  72.118  1.00  0.00     1.050 C  
HETATM   28  C   UNL     1     -12.360  12.124  71.609  1.00  0.00     0.164 A  
HETATM   29  C   UNL     1     -13.166  12.931  72.427  1.00  0.00    -0.447 A  
HETATM   30  C   UNL     1     -13.474  14.191  71.988  1.00  0.00    -0.431 A  
HETATM   31  C   UNL     1     -12.985  14.689  70.803  1.00  0.00    -0.347 A  
HETATM   32  O   UNL     1     -13.448  15.957  70.590  1.00  0.00    -0.341 OA 
HETATM   33  C   UNL     1     -12.136  13.944  69.985  1.00  0.00    -0.345 A  
HETATM   34  C   UNL     1     -11.820  12.614  70.377  1.00  0.00    -0.238 A  
HETATM   35  O   UNL     1     -14.277  15.067  72.650  1.00  0.00    -0.407 OA 
HETATM   36  C   UNL     1     -14.377  16.115  71.676  1.00  0.00     1.288 C  
BRANCH  33  37
HETATM   37  O   UNL     1     -11.574  14.397  68.825  1.00  0.00    -0.279 OA 
HETATM   38  C   UNL     1     -10.465  15.287  68.922  1.00  0.00    -0.241 C  
ENDBRANCH  33  37
ENDBRANCH  12  23
ENDBRANCH   3   4
ENDBRANCH   2   3
TORSDOF 8
ENDMDL
MODEL      164
REMARK 921   NORMALIZED FREE ENERGY PREDICTED BY IDOCK:    7.55 KCAL/MOL
REMARK 922        TOTAL FREE ENERGY PREDICTED BY IDOCK:   10.29 KCAL/MOL
REMARK 923 INTER-LIGAND FREE ENERGY PREDICTED BY IDOCK:   -6.32 KCAL/MOL
REMARK 924 INTRA-LIGAND FREE ENERGY PREDICTED BY IDOCK:   16.62 KCAL/MOL
REMARK 927      BINDING AFFINITY PREDICTED BY RF-SCORE:    0.00 PKD
ROOT
HETATM    1  C   UNL     1      -7.001  12.530  67.232  1.00  0.00    -0.114 C  
HETATM    2  C   UNL     1      -6.808  11.061  67.572  1.00  0.00    -0.084 C  
ENDROOT
BRANCH   2   3
HETATM    3  O   UNL     1      -8.057  10.477  67.866  1.00  0.00    -0.105 OA 
BRANCH   3   4
HETATM    4  C   UNL     1      -8.245   9.169  68.173  1.00  0.00    -0.116 A  
HETATM    5  C   UNL     1      -9.077   8.912  69.317  1.00  0.00    -0.145 A  
HETATM    6  C   UNL     1      -9.139   7.598  69.852  1.00  0.00    -0.147 A  
HETATM    7  C   UNL     1      -7.248   5.883  67.040  1.00  0.00    -0.075 C  
HETATM    8  C   UNL     1      -8.443   6.536  69.206  1.00  0.00    -0.127 A  
HETATM    9  O   UNL     1      -6.969   6.576  65.903  1.00  0.00    -0.058 OA 
HETATM   10  O   UNL     1      -7.019   4.708  67.233  1.00  0.00    -0.058 OA 
HETATM   11  N   UNL     1      -8.628   5.203  69.612  1.00  0.00    -0.092 NA 
HETATM   12  C   UNL     1      -7.352   7.969  66.004  1.00  0.00    -0.073 C  
HETATM   13  C   UNL     1      -7.834   6.833  67.983  1.00  0.00    -0.113 A  
HETATM   14  H2  UNL     1      -9.626   4.996  69.579  1.00  0.00     0.000 HD 
HETATM   15  H1  UNL     1      -8.130   4.442  69.149  1.00  0.00     0.000 HD 
HETATM   16  C   UNL     1      -7.785   8.101  67.435  1.00  0.00    -0.102 A  
BRANCH   5  17
HETATM   17  O   UNL     1      -9.931   9.881  69.859  1.00  0.00    -0.230 OA 
BRANCH  17  18
HETATM   18  C   UNL     1     -10.995   9.337  70.668  1.00  0.00    -0.276 C  
HETATM   19  C   UNL     1     -12.010  10.330  71.196  1.00  0.00    -0.472 C  
ENDBRANCH  17  18
ENDBRANCH   5  17
BRANCH   6  20
HETATM   20  O   UNL     1      -9.951   7.172  70.886  1.00  0.00    -0.189 OA 
BRANCH  20  21
HETATM   21  C   UNL     1      -9.314   6.827  72.118  1.00  0.00    -0.140 C  
HETATM   22  C   UNL     1      -7.798   6.877  71.907  1.00  0.00    -0.095 C  
ENDBRANCH  20  21
ENDBRANCH   6  20
BRANCH  12  23
HETATM   23  C   UNL     1      -8.435   8.346  64.897  1.00  0.00    -0.122 C  
HETATM   24  C   UNL     1      -7.422   9.824  63.196  1.00  0.00    -0.120 C  
HETATM   25  C   UNL     1      -7.232   7.451  62.846  1.00  0.00    -0.082 C  
HETATM   26  N   UNL     1      -7.998   8.510  63.473  1.00  0.00    -0.155 NA 
HETATM   27  C   UNL     1      -8.546  10.843  63.242  1.00  0.00    -0.054 C  
HETATM   28  C   UNL     1      -9.336  10.750  64.520  1.00  0.00    -0.273 A  
HETATM   29  C   UNL     1     -10.146  11.848  64.849  1.00  0.00    -0.296 A  
HETATM   30  C   UNL     1     -10.876  11.788  66.006  1.00  0.00    -0.296 A  
HETATM   31  C   UNL     1     -10.866  10.677  66.816  1.00  0.00    -0.169 A  
HETATM   32  O   UNL     1     -11.665  10.875  67.908  1.00  0.00    -0.557 OA 
HETATM   33  C   UNL     1     -10.121   9.541  66.501  1.00  0.00    -0.256 A  
HETATM   34  C   UNL     1      -9.312   9.570  65.331  1.00  0.00    -0.324 A  
HETATM   35  O   UNL     1     -11.669  12.790  66.473  1.00  0.00    -0.361 OA 
HETATM   36  C   UNL     1     -12.032  12.256  67.755  1.00  0.00    -0.159 C  
BRANCH  33  37
HETATM   37  O   UNL     1     -10.108   8.388  67.234  1.00  0.00    -0.205 OA 
HETATM   38  C   UNL     1     -10.036   7.150  66.531  1.00  0.00    -0.084 C  
ENDBRANCH  33  37
ENDBRANCH  12  23
ENDBRANCH   3   4
ENDBRANCH   2   3
TORSDOF 8
ENDMDL
MODEL      165
REMARK 921   NORMALIZED FREE ENERGY PREDICTED BY IDOCK:    8.06 KCAL/MOL
REMARK 922        TOTAL FREE ENERGY PREDICTED BY IDOCK:   11.04 KCAL/MOL
REMARK 923 INTER-LIGAND FREE ENERGY PREDICTED BY IDOCK:    2.49 KCAL/MOL
REMARK 924 INTRA-LIGAND FREE ENERGY PREDICTED BY IDOCK:    8.54 KCAL/MOL
REMARK 927      BINDING AFFINITY PREDICTED BY RF-SCORE:    0.00 PKD
ROOT
HETATM    1  C   UNL     1     -11.328  18.397  69.128  1.00  0.00     2.476 C  
HETATM    2  C   UNL     1     -10.052  18.785  69.856  1.00  0.00     0.824 C  
ENDROOT
BRANCH   2   3
HETATM    3  O   UNL     1      -8.998  17.945  69.442  1.00  0.00     0.183 OA 
BRANCH   3   4
HETATM    4  C   UNL     1      -9.140  16.875  68.620  1.00  0.00    -0.265 A  
HETATM    5  C   UNL     1      -9.691  17.157  67.322  1.00  0.00    -0.254 A  
HETATM    6  C   UNL     1     -10.094  16.082  66.487  1.00  0.00    -0.287 A  
HETATM    7  C   UNL     1      -8.614  13.298  68.605  1.00  0.00     0.026 C  
HETATM    8  C   UNL     1      -9.875  14.738  66.907  1.00  0.00    -0.243 A  
HETATM    9  O   UNL     1      -7.794  13.612  69.643  1.00  0.00     0.517 OA 
HETATM   10  O   UNL     1      -8.875  12.179  68.216  1.00  0.00    -0.184 OA 
HETATM   11  N   UNL     1     -10.103  13.664  66.030  1.00  0.00    -0.305 NA 
HETATM   12  C   UNL     1      -7.712  15.042  69.861  1.00  0.00     0.069 C  
HETATM   13  C   UNL     1      -9.143  14.556  68.084  1.00  0.00    -0.191 A  
HETATM   14  H2  UNL     1      -9.560  13.825  65.182  1.00  0.00     0.000 HD 
HETATM   15  H1  UNL     1      -9.946  12.702  66.331  1.00  0.00     0.000 HD 
HETATM   16  C   UNL     1      -8.722  15.593  68.897  1.00  0.00    -0.215 A  
BRANCH   5  17
HETATM   17  O   UNL     1      -9.738  18.453  66.791  1.00  0.00    -0.298 OA 
BRANCH  17  18
HETATM   18  C   UNL     1     -10.540  18.566  65.596  1.00  0.00    -0.111 C  
HETATM   19  C   UNL     1     -11.225  19.898  65.372  1.00  0.00     0.375 C  
ENDBRANCH  17  18
ENDBRANCH   5  17
BRANCH   6  20
HETATM   20  O   UNL     1     -10.558  16.182  65.189  1.00  0.00    -0.538 OA 
BRANCH  20  21
HETATM   21  C   UNL     1     -10.396  15.039  64.348  1.00  0.00     0.613 C  
HETATM   22  C   UNL     1     -11.768  14.651  63.791  1.00  0.00     0.360 C  
ENDBRANCH  20  21
ENDBRANCH   6  20
BRANCH  12  23
HETATM   23  C   UNL     1      -6.213  15.561  69.693  1.00  0.00    -0.156 C  
HETATM   24  C   UNL     1      -5.712  17.260  71.415  1.00  0.00     0.775 C  
HETATM   25  C   UNL     1      -5.326  14.957  71.996  1.00  0.00     0.012 C  
HETATM   26  N   UNL     1      -5.423  15.917  70.915  1.00  0.00    -0.081 NA 
HETATM   27  C   UNL     1      -5.133  18.258  70.429  1.00  0.00    -0.240 C  
HETATM   28  C   UNL     1      -5.594  17.988  69.021  1.00  0.00    -0.197 A  
HETATM   29  C   UNL     1      -5.439  19.028  68.092  1.00  0.00    -0.185 A  
HETATM   30  C   UNL     1      -5.849  18.808  66.804  1.00  0.00    -0.157 A  
HETATM   31  C   UNL     1      -6.361  17.599  66.399  1.00  0.00    -0.230 A  
HETATM   32  O   UNL     1      -6.705  17.642  65.077  1.00  0.00     0.260 OA 
HETATM   33  C   UNL     1      -6.482  16.519  67.274  1.00  0.00    -0.181 A  
HETATM   34  C   UNL     1      -6.109  16.710  68.633  1.00  0.00    -0.140 A  
HETATM   35  O   UNL     1      -5.801  19.734  65.808  1.00  0.00    -0.167 OA 
HETATM   36  C   UNL     1      -6.493  19.030  64.766  1.00  0.00    -0.008 C  
BRANCH  33  37
HETATM   37  O   UNL     1      -6.933  15.278  66.925  1.00  0.00    -0.181 OA 
HETATM   38  C   UNL     1      -6.050  14.172  67.102  1.00  0.00     0.821 C  
ENDBRANCH  33  37
ENDBRANCH  12  23
ENDBRANCH   3   4
ENDBRANCH   2   3
TORSDOF 8
ENDMDL
MODEL      166
REMARK 921   NORMALIZED FREE ENERGY PREDICTED BY IDOCK:    9.35 KCAL/MOL
REMARK 922        TOTAL FREE ENERGY PREDICTED BY IDOCK:   12.94 KCAL/MOL
REMARK 923 INTER-LIGAND FREE ENERGY PREDICTED BY IDOCK:    7.53 KCAL/MOL
REMARK 924 INTRA-LIGAND FREE ENERGY PREDICTED BY IDOCK:    5.41 KCAL/MOL
REMARK 927      BINDING AFFINITY PREDICTED BY RF-SCORE:    0.00 PKD
ROOT
HETATM    1  C   UNL     1      -8.067  14.198  70.305  1.00  0.00     1.726 C  
HETATM    2  C   UNL     1      -8.796  12.930  69.892  1.00  0.00     2.991 C  
ENDROOT
BRANCH   2   3
HETATM    3  O   UNL     1      -7.860  11.897  69.675  1.00  0.00     0.523 OA 
BRANCH   3   4
HETATM    4  C   UNL     1      -8.019  10.887  68.783  1.00  0.00    -0.139 A  
HETATM    5  C   UNL     1      -9.245  10.145  68.896  1.00  0.00    -0.172 A  
HETATM    6  C   UNL     1      -9.396   8.933  68.171  1.00  0.00    -0.142 A  
HETATM    7  C   UNL     1      -6.254   9.283  66.065  1.00  0.00    -0.067 C  
HETATM    8  C   UNL     1      -8.368   8.508  67.281  1.00  0.00    -0.115 A  
HETATM    9  O   UNL     1      -5.569  10.457  66.078  1.00  0.00    -0.063 OA 
HETATM   10  O   UNL     1      -6.008   8.321  65.369  1.00  0.00    -0.044 OA 
HETATM   11  N   UNL     1      -8.567   7.410  66.425  1.00  0.00    -0.127 NA 
HETATM   12  C   UNL     1      -6.109  11.395  67.041  1.00  0.00    -0.120 C  
HETATM   13  C   UNL     1      -7.307   9.394  67.072  1.00  0.00    -0.087 A  
HETATM   14  H2  UNL     1      -9.410   7.582  65.879  1.00  0.00     0.000 HD 
HETATM   15  H1  UNL     1      -7.831   7.106  65.788  1.00  0.00     0.000 HD 
HETATM   16  C   UNL     1      -7.157  10.588  67.751  1.00  0.00    -0.083 A  
BRANCH   5  17
HETATM   17  O   UNL     1     -10.354  10.629  69.601  1.00  0.00    -0.216 OA 
BRANCH  17  18
HETATM   18  C   UNL     1     -11.541  10.781  68.793  1.00  0.00    -0.280 C  
HETATM   19  C   UNL     1     -11.644  12.059  67.988  1.00  0.00    -0.407 C  
ENDBRANCH  17  18
ENDBRANCH   5  17
BRANCH   6  20
HETATM   20  O   UNL     1     -10.535   8.155  68.105  1.00  0.00    -0.210 OA 
BRANCH  20  21
HETATM   21  C   UNL     1     -10.640   7.070  69.029  1.00  0.00    -0.217 C  
HETATM   22  C   UNL     1     -11.259   5.874  68.302  1.00  0.00     0.058 C  
ENDBRANCH  20  21
ENDBRANCH   6  20
BRANCH  12  23
HETATM   23  C   UNL     1      -6.605  12.729  66.323  1.00  0.00     2.446 C  
HETATM   24  C   UNL     1      -7.507  14.303  68.000  1.00  0.00    -0.142 C  
HETATM   25  C   UNL     1      -5.145  14.406  67.552  1.00  0.00     0.253 C  
HETATM   26  N   UNL     1      -6.447  14.041  67.029  1.00  0.00     0.167 NA 
HETATM   27  C   UNL     1      -8.786  14.575  67.229  1.00  0.00    -0.221 C  
HETATM   28  C   UNL     1      -9.086  13.483  66.236  1.00  0.00     0.010 A  
HETATM   29  C   UNL     1     -10.395  13.422  65.735  1.00  0.00    -0.296 A  
HETATM   30  C   UNL     1     -10.694  12.439  64.829  1.00  0.00    -0.298 A  
HETATM   31  C   UNL     1      -9.745  11.554  64.376  1.00  0.00    -0.200 A  
HETATM   32  O   UNL     1     -10.298  10.670  63.492  1.00  0.00    -0.251 OA 
HETATM   33  C   UNL     1      -8.419  11.612  64.803  1.00  0.00     0.868 A  
HETATM   34  C   UNL     1      -8.068  12.589  65.776  1.00  0.00     1.563 A  
HETATM   35  O   UNL     1     -11.926  12.230  64.292  1.00  0.00    -0.376 OA 
HETATM   36  C   UNL     1     -11.692  11.011  63.573  1.00  0.00     0.906 C  
BRANCH  33  37
HETATM   37  O   UNL     1      -7.417  10.799  64.355  1.00  0.00     0.125 OA 
HETATM   38  C   UNL     1      -7.098  10.834  62.966  1.00  0.00     0.172 C  
ENDBRANCH  33  37
ENDBRANCH  12  23
ENDBRANCH   3   4
ENDBRANCH   2   3
TORSDOF 8
ENDMDL
MODEL      167
REMARK 921   NORMALIZED FREE ENERGY PREDICTED BY IDOCK:    9.54 KCAL/MOL
REMARK 922        TOTAL FREE ENERGY PREDICTED BY IDOCK:   13.21 KCAL/MOL
REMARK 923 INTER-LIGAND FREE ENERGY PREDICTED BY IDOCK:   -1.07 KCAL/MOL
REMARK 924 INTRA-LIGAND FREE ENERGY PREDICTED BY IDOCK:   14.29 KCAL/MOL
REMARK 927      BINDING AFFINITY PREDICTED BY RF-SCORE:    0.00 PKD
ROOT
HETATM    1  C   UNL     1      -8.903   9.500  67.461  1.00  0.00    -0.130 C  
HETATM    2  C   UNL     1      -7.839  10.014  66.505  1.00  0.00    -0.112 C  
ENDROOT
BRANCH   2   3
HETATM    3  O   UNL     1      -8.010  11.400  66.310  1.00  0.00    -0.134 OA 
BRANCH   3   4
HETATM    4  C   UNL     1      -9.210  12.021  66.188  1.00  0.00    -0.179 A  
HETATM    5  C   UNL     1     -10.215  11.293  65.461  1.00  0.00    -0.260 A  
HETATM    6  C   UNL     1     -11.414  11.952  65.080  1.00  0.00    -0.243 A  
HETATM    7  C   UNL     1     -10.834  15.124  67.088  1.00  0.00    -0.320 C  
HETATM    8  C   UNL     1     -11.644  13.297  65.489  1.00  0.00    -0.326 A  
HETATM    9  O   UNL     1      -9.814  15.169  67.985  1.00  0.00    -0.211 OA 
HETATM   10  O   UNL     1     -11.661  15.992  66.904  1.00  0.00     0.207 OA 
HETATM   11  N   UNL     1     -12.891  13.911  65.276  1.00  0.00    -0.749 NA 
HETATM   12  C   UNL     1      -8.992  13.977  67.939  1.00  0.00    -0.188 C  
HETATM   13  C   UNL     1     -10.713  13.857  66.370  1.00  0.00    -0.281 A  
HETATM   14  H2  UNL     1     -13.610  13.323  65.696  1.00  0.00     0.000 HD 
HETATM   15  H1  UNL     1     -13.055  14.874  65.569  1.00  0.00     0.000 HD 
HETATM   16  C   UNL     1      -9.553  13.221  66.770  1.00  0.00    -0.258 A  
BRANCH   5  17
HETATM   17  O   UNL     1     -10.116   9.918  65.214  1.00  0.00    -0.313 OA 
BRANCH  17  18
HETATM   18  C   UNL     1      -8.995   9.552  64.383  1.00  0.00    -0.212 C  
HETATM   19  C   UNL     1      -8.568   8.100  64.434  1.00  0.00     0.109 C  
ENDBRANCH  17  18
ENDBRANCH   5  17
BRANCH   6  20
HETATM   20  O   UNL     1     -12.504  11.374  64.459  1.00  0.00     0.189 OA 
BRANCH  20  21
HETATM   21  C   UNL     1     -12.757  11.746  63.103  1.00  0.00    -0.040 C  
HETATM   22  C   UNL     1     -12.126  13.118  62.854  1.00  0.00     0.325 C  
ENDBRANCH  20  21
ENDBRANCH   6  20
BRANCH  12  23
HETATM   23  C   UNL     1      -9.001  13.222  69.344  1.00  0.00     1.147 C  
HETATM   24  C   UNL     1      -9.338  10.799  68.996  1.00  0.00    -0.156 C  
HETATM   25  C   UNL     1      -7.075  11.615  68.941  1.00  0.00    -0.115 C  
HETATM   26  N   UNL     1      -8.417  11.845  69.437  1.00  0.00     0.655 NA 
HETATM   27  C   UNL     1     -10.441  10.685  70.031  1.00  0.00    -0.063 C  
HETATM   28  C   UNL     1     -11.081  12.017  70.320  1.00  0.00     0.675 A  
HETATM   29  C   UNL     1     -12.328  11.997  70.962  1.00  0.00    -0.340 A  
HETATM   30  C   UNL     1     -12.931  13.196  71.238  1.00  0.00    -0.254 A  
HETATM   31  C   UNL     1     -12.331  14.397  70.943  1.00  0.00    -0.349 A  
HETATM   32  O   UNL     1     -13.140  15.438  71.305  1.00  0.00    -0.427 OA 
HETATM   33  C   UNL     1     -11.068  14.466  70.356  1.00  0.00     0.080 A  
HETATM   34  C   UNL     1     -10.419  13.248  70.012  1.00  0.00     1.352 A  
HETATM   35  O   UNL     1     -14.155  13.332  71.815  1.00  0.00    -0.123 OA 
HETATM   36  C   UNL     1     -14.338  14.751  71.703  1.00  0.00    -0.557 C  
BRANCH  33  37
HETATM   37  O   UNL     1     -10.394  15.624  70.085  1.00  0.00    -0.303 OA 
HETATM   38  C   UNL     1     -10.714  16.779  70.856  1.00  0.00     0.828 C  
ENDBRANCH  33  37
ENDBRANCH  12  23
ENDBRANCH   3   4
ENDBRANCH   2   3
TORSDOF 8
ENDMDL
MODEL      168
REMARK 921   NORMALIZED FREE ENERGY PREDICTED BY IDOCK:    9.75 KCAL/MOL
REMARK 922        TOTAL FREE ENERGY PREDICTED BY IDOCK:   13.53 KCAL/MOL
REMARK 923 INTER-LIGAND FREE ENERGY PREDICTED BY IDOCK:   -0.92 KCAL/MOL
REMARK 924 INTRA-LIGAND FREE ENERGY PREDICTED BY IDOCK:   14.45 KCAL/MOL
REMARK 927      BINDING AFFINITY PREDICTED BY RF-SCORE:    0.00 PKD
ROOT
HETATM    1  C   UNL     1     -12.094  10.853  66.823  1.00  0.00     1.940 C  
HETATM    2  C   UNL     1     -10.940  10.290  66.009  1.00  0.00     0.304 C  
ENDROOT
BRANCH   2   3
HETATM    3  O   UNL     1     -10.103   9.522  66.845  1.00  0.00    -0.198 OA 
BRANCH   3   4
HETATM    4  C   UNL     1     -10.356   9.248  68.150  1.00  0.00    -0.215 A  
HETATM    5  C   UNL     1      -9.686   8.094  68.684  1.00  0.00    -0.153 A  
HETATM    6  C   UNL     1     -10.066   7.595  69.959  1.00  0.00    -0.204 A  
HETATM    7  C   UNL     1     -12.322  10.497  70.915  1.00  0.00    -0.390 C  
HETATM    8  C   UNL     1     -11.047   8.287  70.726  1.00  0.00    -0.258 A  
HETATM    9  O   UNL     1     -12.328  11.619  70.148  1.00  0.00    -0.274 OA 
HETATM   10  O   UNL     1     -12.923  10.343  71.957  1.00  0.00    -0.445 OA 
HETATM   11  N   UNL     1     -11.313   7.915  72.055  1.00  0.00    -0.274 NA 
HETATM   12  C   UNL     1     -11.521  11.470  68.954  1.00  0.00    -0.289 C  
HETATM   13  C   UNL     1     -11.491   9.514  70.224  1.00  0.00    -0.256 A  
HETATM   14  H2  UNL     1     -10.434   7.932  72.572  1.00  0.00     0.000 HD 
HETATM   15  H1  UNL     1     -12.015   8.411  72.605  1.00  0.00     0.000 HD 
HETATM   16  C   UNL     1     -11.113  10.026  68.998  1.00  0.00    -0.221 A  
BRANCH   5  17
HETATM   17  O   UNL     1      -8.583   7.505  68.053  1.00  0.00    -0.123 OA 
BRANCH  17  18
HETATM   18  C   UNL     1      -7.842   6.597  68.895  1.00  0.00    -0.111 C  
HETATM   19  C   UNL     1      -7.674   5.185  68.374  1.00  0.00    -0.080 C  
ENDBRANCH  17  18
ENDBRANCH   5  17
BRANCH   6  20
HETATM   20  O   UNL     1      -9.467   6.556  70.643  1.00  0.00    -0.165 OA 
BRANCH  20  21
HETATM   21  C   UNL     1      -9.146   6.778  72.018  1.00  0.00    -0.138 C  
HETATM   22  C   UNL     1      -8.101   7.893  72.096  1.00  0.00    -0.154 C  
ENDBRANCH  20  21
ENDBRANCH   6  20
BRANCH  12  23
HETATM   23  C   UNL     1     -10.341  12.542  68.924  1.00  0.00    -0.038 C  
HETATM   24  C   UNL     1     -10.372  13.771  66.782  1.00  0.00    -0.272 C  
HETATM   25  C   UNL     1     -11.724  14.643  68.571  1.00  0.00    -0.316 C  
HETATM   26  N   UNL     1     -10.560  13.850  68.229  1.00  0.00    -0.250 NA 
HETATM   27  C   UNL     1      -8.891  13.578  66.515  1.00  0.00     0.005 C  
HETATM   28  C   UNL     1      -8.325  12.422  67.296  1.00  0.00    -0.184 A  
HETATM   29  C   UNL     1      -7.088  11.913  66.872  1.00  0.00    -0.068 A  
HETATM   30  C   UNL     1      -6.550  10.862  67.567  1.00  0.00    -0.063 A  
HETATM   31  C   UNL     1      -7.165  10.332  68.676  1.00  0.00    -0.081 A  
HETATM   32  O   UNL     1      -6.436   9.289  69.176  1.00  0.00    -0.042 OA 
HETATM   33  C   UNL     1      -8.367  10.841  69.167  1.00  0.00    -0.105 A  
HETATM   34  C   UNL     1      -8.987  11.906  68.455  1.00  0.00    -0.115 A  
HETATM   35  O   UNL     1      -5.384  10.239  67.247  1.00  0.00    -0.041 OA 
HETATM   36  C   UNL     1      -5.409   9.148  68.179  1.00  0.00    -0.034 C  
BRANCH  33  37
HETATM   37  O   UNL     1      -9.003  10.396  70.291  1.00  0.00     0.266 OA 
HETATM   38  C   UNL     1      -8.200   9.971  71.390  1.00  0.00     2.118 C  
ENDBRANCH  33  37
ENDBRANCH  12  23
ENDBRANCH   3   4
ENDBRANCH   2   3
TORSDOF 8
ENDMDL
MODEL      169
REMARK 921   NORMALIZED FREE ENERGY PREDICTED BY IDOCK:   10.65 KCAL/MOL
REMARK 922        TOTAL FREE ENERGY PREDICTED BY IDOCK:   14.84 KCAL/MOL
REMARK 923 INTER-LIGAND FREE ENERGY PREDICTED BY IDOCK:    5.44 KCAL/MOL
REMARK 924 INTRA-LIGAND FREE ENERGY PREDICTED BY IDOCK:    9.40 KCAL/MOL
REMARK 927      BINDING AFFINITY PREDICTED BY RF-SCORE:    0.00 PKD
ROOT
HETATM    1  C   UNL     1     -10.772  16.009  71.642  1.00  0.00     0.830 C  
HETATM    2  C   UNL     1     -12.016  15.930  70.772  1.00  0.00    -0.378 C  
ENDROOT
BRANCH   2   3
HETATM    3  O   UNL     1     -11.718  15.227  69.585  1.00  0.00    -0.292 OA 
BRANCH   3   4
HETATM    4  C   UNL     1     -11.328  15.807  68.422  1.00  0.00    -0.372 A  
HETATM    5  C   UNL     1     -10.444  16.933  68.554  1.00  0.00    -0.361 A  
HETATM    6  C   UNL     1     -10.173  17.743  67.419  1.00  0.00    -0.353 A  
HETATM    7  C   UNL     1     -11.838  15.487  64.856  1.00  0.00    -0.028 C  
HETATM    8  C   UNL     1     -10.713  17.387  66.149  1.00  0.00    -0.100 A  
HETATM    9  O   UNL     1     -12.240  14.241  65.225  1.00  0.00    -0.395 OA 
HETATM   10  O   UNL     1     -11.882  15.948  63.736  1.00  0.00    -0.645 OA 
HETATM   11  N   UNL     1     -10.320  18.069  64.984  1.00  0.00     0.227 NA 
HETATM   12  C   UNL     1     -12.071  14.009  66.645  1.00  0.00    -0.456 C  
HETATM   13  C   UNL     1     -11.384  16.163  66.070  1.00  0.00     0.353 A  
HETATM   14  H2  UNL     1      -9.303  18.029  64.921  1.00  0.00     0.000 HD 
HETATM   15  H1  UNL     1     -10.706  17.813  64.075  1.00  0.00     0.000 HD 
HETATM   16  C   UNL     1     -11.635  15.351  67.159  1.00  0.00    -0.058 A  
BRANCH   5  17
HETATM   17  O   UNL     1      -9.737  17.200  69.733  1.00  0.00     0.220 OA 
BRANCH  17  18
HETATM   18  C   UNL     1     -10.071  18.465  70.342  1.00  0.00     1.800 C  
HETATM   19  C   UNL     1     -10.056  19.673  69.430  1.00  0.00    -0.214 C  
ENDBRANCH  17  18
ENDBRANCH   5  17
BRANCH   6  20
HETATM   20  O   UNL     1      -9.287  18.801  67.361  1.00  0.00    -0.283 OA 
BRANCH  20  21
HETATM   21  C   UNL     1      -7.901  18.485  67.218  1.00  0.00    -0.235 C  
HETATM   22  C   UNL     1      -7.389  19.129  65.928  1.00  0.00    -0.278 C  
ENDBRANCH  20  21
ENDBRANCH   6  20
BRANCH  12  23
HETATM   23  C   UNL     1     -11.079  12.790  66.911  1.00  0.00    -0.270 C  
HETATM   24  C   UNL     1     -11.759  11.581  68.955  1.00  0.00    -0.339 C  
HETATM   25  C   UNL     1     -12.768  10.893  66.882  1.00  0.00     5.710 C  
HETATM   26  N   UNL     1     -11.620  11.524  67.502  1.00  0.00    -0.544 NA 
HETATM   27  C   UNL     1     -10.366  11.575  69.556  1.00  0.00     0.203 C  
HETATM   28  C   UNL     1      -9.490  12.643  68.957  1.00  0.00     0.415 A  
HETATM   29  C   UNL     1      -8.328  12.983  69.664  1.00  0.00     1.710 A  
HETATM   30  C   UNL     1      -7.513  13.951  69.140  1.00  0.00     0.027 A  
HETATM   31  C   UNL     1      -7.784  14.556  67.936  1.00  0.00    -0.140 A  
HETATM   32  O   UNL     1      -6.829  15.491  67.644  1.00  0.00    -0.149 OA 
HETATM   33  C   UNL     1      -8.897  14.211  67.171  1.00  0.00    -0.229 A  
HETATM   34  C   UNL     1      -9.797  13.240  67.693  1.00  0.00    -0.230 A  
HETATM   35  O   UNL     1      -6.379  14.414  69.733  1.00  0.00    -0.126 OA 
HETATM   36  C   UNL     1      -6.049  15.496  68.851  1.00  0.00    -0.099 C  
BRANCH  33  37
HETATM   37  O   UNL     1      -9.196  14.734  65.944  1.00  0.00    -0.227 OA 
HETATM   38  C   UNL     1      -9.492  13.828  64.885  1.00  0.00     0.751 C  
ENDBRANCH  33  37
ENDBRANCH  12  23
ENDBRANCH   3   4
ENDBRANCH   2   3
TORSDOF 8
ENDMDL
MODEL      170
REMARK 921   NORMALIZED FREE ENERGY PREDICTED BY IDOCK:   10.65 KCAL/MOL
REMARK 922        TOTAL FREE ENERGY PREDICTED BY IDOCK:   14.85 KCAL/MOL
REMARK 923 INTER-LIGAND FREE ENERGY PREDICTED BY IDOCK:    8.30 KCAL/MOL
REMARK 924 INTRA-LIGAND FREE ENERGY PREDICTED BY IDOCK:    6.55 KCAL/MOL
REMARK 927      BINDING AFFINITY PREDICTED BY RF-SCORE:    0.00 PKD
ROOT
HETATM    1  C   UNL     1     -12.888   5.349  68.798  1.00  0.00    12.187 C  
HETATM    2  C   UNL     1     -11.643   6.220  68.814  1.00  0.00     0.320 C  
ENDROOT
BRANCH   2   3
HETATM    3  O   UNL     1     -10.865   5.911  69.949  1.00  0.00    -0.314 OA 
BRANCH   3   4
HETATM    4  C   UNL     1      -9.578   6.300  70.131  1.00  0.00    -0.162 A  
HETATM    5  C   UNL     1      -8.591   5.264  69.995  1.00  0.00    -0.112 A  
HETATM    6  C   UNL     1      -7.252   5.519  70.396  1.00  0.00    -0.067 A  
HETATM    7  C   UNL     1      -7.662   9.254  70.955  1.00  0.00    -0.103 C  
HETATM    8  C   UNL     1      -6.885   6.818  70.853  1.00  0.00    -0.059 A  
HETATM    9  O   UNL     1      -8.805   9.868  70.549  1.00  0.00    -0.089 OA 
HETATM   10  O   UNL     1      -6.687   9.800  71.424  1.00  0.00    -0.322 OA 
HETATM   11  N   UNL     1      -5.538   7.143  71.089  1.00  0.00    -0.027 NA 
HETATM   12  C   UNL     1      -9.787   8.925  70.054  1.00  0.00    -0.174 C  
HETATM   13  C   UNL     1      -7.855   7.820  70.752  1.00  0.00    -0.099 A  
HETATM   14  H2  UNL     1      -5.009   6.942  70.240  1.00  0.00     0.000 HD 
HETATM   15  H1  UNL     1      -5.275   8.073  71.415  1.00  0.00     0.000 HD 
HETATM   16  C   UNL     1      -9.155   7.594  70.341  1.00  0.00    -0.152 A  
BRANCH   5  17
HETATM   17  O   UNL     1      -8.864   4.042  69.367  1.00  0.00    -0.080 OA 
BRANCH  17  18
HETATM   18  C   UNL     1      -7.695   3.381  68.838  1.00  0.00    -0.051 C  
HETATM   19  C   UNL     1      -7.624   1.882  69.040  1.00  0.00    -0.043 C  
ENDBRANCH  17  18
ENDBRANCH   5  17
BRANCH   6  20
HETATM   20  O   UNL     1      -6.176   4.664  70.251  1.00  0.00    -0.020 OA 
BRANCH  20  21
HETATM   21  C   UNL     1      -5.128   4.763  71.217  1.00  0.00    -0.004 C  
HETATM   22  C   UNL     1      -5.274   3.605  72.207  1.00  0.00     0.000 C  
ENDBRANCH  20  21
ENDBRANCH   6  20
BRANCH  12  23
HETATM   23  C   UNL     1     -10.150   9.225  68.531  1.00  0.00    -0.190 C  
HETATM   24  C   UNL     1      -8.281   8.541  67.068  1.00  0.00    -0.107 C  
HETATM   25  C   UNL     1      -9.929   6.871  67.601  1.00  0.00    -0.144 C  
HETATM   26  N   UNL     1      -9.664   8.290  67.466  1.00  0.00    -0.156 NA 
HETATM   27  C   UNL     1      -8.249   9.849  66.300  1.00  0.00    -0.114 C  
HETATM   28  C   UNL     1      -8.905  10.967  67.067  1.00  0.00    -0.143 A  
HETATM   29  C   UNL     1      -8.622  12.276  66.648  1.00  0.00    -0.099 A  
HETATM   30  C   UNL     1      -9.208  13.311  67.328  1.00  0.00    -0.222 A  
HETATM   31  C   UNL     1     -10.083  13.098  68.366  1.00  0.00    -0.231 A  
HETATM   32  O   UNL     1     -10.515  14.288  68.881  1.00  0.00    -0.243 OA 
HETATM   33  C   UNL     1     -10.437  11.814  68.780  1.00  0.00    -0.198 A  
HETATM   34  C   UNL     1      -9.823  10.705  68.133  1.00  0.00    -0.170 A  
HETATM   35  O   UNL     1      -8.995  14.629  67.065  1.00  0.00    -0.215 OA 
HETATM   36  C   UNL     1      -9.704  15.230  68.158  1.00  0.00    -0.212 C  
BRANCH  33  37
HETATM   37  O   UNL     1     -11.338  11.532  69.767  1.00  0.00    -0.266 OA 
HETATM   38  C   UNL     1     -12.668  11.192  69.381  1.00  0.00     0.379 C  
ENDBRANCH  33  37
ENDBRANCH  12  23
ENDBRANCH   3   4
ENDBRANCH   2   3
TORSDOF 8
ENDMDL
MODEL      171
REMARK 921   NORMALIZED FREE ENERGY PREDICTED BY IDOCK:   11.52 KCAL/MOL
REMARK 922        TOTAL FREE ENERGY PREDICTED BY IDOCK:   16.12 KCAL/MOL
REMARK 923 INTER-LIGAND FREE ENERGY PREDICTED BY IDOCK:    2.77 KCAL/MOL
REMARK 924 INTRA-LIGAND FREE ENERGY PREDICTED BY IDOCK:   13.35 KCAL/MOL
REMARK 927      BINDING AFFINITY PREDICTED BY RF-SCORE:    0.00 PKD
ROOT
HETATM    1  C   UNL     1      -5.922  10.983  70.093  1.00  0.00    -0.127 C  
HETATM    2  C   UNL     1      -5.883  10.438  68.675  1.00  0.00    -0.040 C  
ENDROOT
BRANCH   2   3
HETATM    3  O   UNL     1      -7.033  10.859  67.975  1.00  0.00    -0.071 OA 
BRANCH   3   4
HETATM    4  C   UNL     1      -8.079  11.517  68.535  1.00  0.00    -0.146 A  
HETATM    5  C   UNL     1      -8.914  10.733  69.403  1.00  0.00     0.041 A  
HETATM    6  C   UNL     1     -10.156  11.264  69.843  1.00  0.00     0.816 A  
HETATM    7  C   UNL     1      -9.616  14.791  68.539  1.00  0.00    -0.218 C  
HETATM    8  C   UNL     1     -10.523  12.594  69.488  1.00  0.00     0.559 A  
HETATM    9  O   UNL     1      -8.390  15.150  68.074  1.00  0.00    -0.141 OA 
HETATM   10  O   UNL     1     -10.575  15.523  68.661  1.00  0.00    -0.231 OA 
HETATM   11  N   UNL     1     -11.658  13.202  70.051  1.00  0.00    -0.520 NA 
HETATM   12  C   UNL     1      -7.470  14.031  68.034  1.00  0.00    -0.141 C  
HETATM   13  C   UNL     1      -9.560  13.358  68.821  1.00  0.00     0.035 A  
HETATM   14  H2  UNL     1     -11.572  13.156  71.066  1.00  0.00     0.000 HD 
HETATM   15  H1  UNL     1     -11.921  14.154  69.797  1.00  0.00     0.000 HD 
HETATM   16  C   UNL     1      -8.338  12.864  68.407  1.00  0.00    -0.116 A  
BRANCH   5  17
HETATM   17  O   UNL     1      -8.501   9.505  69.936  1.00  0.00    -0.149 OA 
BRANCH  17  18
HETATM   18  C   UNL     1      -8.040   9.586  71.302  1.00  0.00     0.461 C  
HETATM   19  C   UNL     1      -7.410   8.332  71.871  1.00  0.00    -0.111 C  
ENDBRANCH  17  18
ENDBRANCH   5  17
BRANCH   6  20
HETATM   20  O   UNL     1     -11.026  10.676  70.741  1.00  0.00    -0.082 OA 
BRANCH  20  21
HETATM   21  C   UNL     1     -10.975   9.254  70.864  1.00  0.00    -0.299 C  
HETATM   22  C   UNL     1     -11.741   8.640  69.690  1.00  0.00     0.626 C  
ENDBRANCH  20  21
ENDBRANCH   6  20
BRANCH  12  23
HETATM   23  C   UNL     1      -6.203  14.300  68.963  1.00  0.00    -0.095 C  
HETATM   24  C   UNL     1      -6.866  14.203  71.341  1.00  0.00     1.617 C  
HETATM   25  C   UNL     1      -6.222  12.135  70.293  1.00  0.00     0.008 C  
HETATM   26  N   UNL     1      -6.091  13.578  70.271  1.00  0.00    -0.138 NA 
HETATM   27  C   UNL     1      -6.187  15.510  71.705  1.00  0.00     1.359 C  
HETATM   28  C   UNL     1      -5.953  16.377  70.496  1.00  0.00     0.131 A  
HETATM   29  C   UNL     1      -5.680  17.734  70.731  1.00  0.00     0.109 A  
HETATM   30  C   UNL     1      -5.462  18.544  69.648  1.00  0.00    -0.214 A  
HETATM   31  C   UNL     1      -5.463  18.058  68.362  1.00  0.00    -0.161 A  
HETATM   32  O   UNL     1      -5.235  19.066  67.468  1.00  0.00    -0.164 OA 
HETATM   33  C   UNL     1      -5.674  16.707  68.085  1.00  0.00    -0.116 A  
HETATM   34  C   UNL     1      -5.947  15.832  69.173  1.00  0.00    -0.112 A  
HETATM   35  O   UNL     1      -5.230  19.883  69.718  1.00  0.00    -0.186 OA 
HETATM   36  C   UNL     1      -5.247  20.222  68.324  1.00  0.00    -0.203 C  
BRANCH  33  37
HETATM   37  O   UNL     1      -5.636  16.150  66.838  1.00  0.00    -0.341 OA 
HETATM   38  C   UNL     1      -6.219  16.881  65.762  1.00  0.00     1.132 C  
ENDBRANCH  33  37
ENDBRANCH  12  23
ENDBRANCH   3   4
ENDBRANCH   2   3
TORSDOF 8
ENDMDL
MODEL      172
REMARK 921   NORMALIZED FREE ENERGY PREDICTED BY IDOCK:   13.10 KCAL/MOL
REMARK 922        TOTAL FREE ENERGY PREDICTED BY IDOCK:   18.44 KCAL/MOL
REMARK 923 INTER-LIGAND FREE ENERGY PREDICTED BY IDOCK:   13.38 KCAL/MOL
REMARK 924 INTRA-LIGAND FREE ENERGY PREDICTED BY IDOCK:    5.06 KCAL/MOL
REMARK 927      BINDING AFFINITY PREDICTED BY RF-SCORE:    0.00 PKD
ROOT
HETATM    1  C   UNL     1     -10.797  18.470  68.482  1.00  0.00     0.324 C  
HETATM    2  C   UNL     1     -10.296  18.221  69.895  1.00  0.00     0.980 C  
ENDROOT
BRANCH   2   3
HETATM    3  O   UNL     1      -9.635  16.977  69.950  1.00  0.00     0.425 OA 
BRANCH   3   4
HETATM    4  C   UNL     1      -9.267  16.249  68.865  1.00  0.00    -0.249 A  
HETATM    5  C   UNL     1      -7.896  15.817  68.842  1.00  0.00    -0.190 A  
HETATM    6  C   UNL     1      -7.361  15.260  67.650  1.00  0.00    -0.178 A  
HETATM    7  C   UNL     1     -10.651  14.988  65.772  1.00  0.00    -0.339 C  
HETATM    8  C   UNL     1      -8.205  15.061  66.520  1.00  0.00     0.150 A  
HETATM    9  O   UNL     1     -11.818  15.206  66.434  1.00  0.00    -0.123 OA 
HETATM   10  O   UNL     1     -10.543  14.625  64.620  1.00  0.00    -0.392 OA 
HETATM   11  N   UNL     1      -7.746  14.354  65.395  1.00  0.00     4.806 NA 
HETATM   12  C   UNL     1     -11.600  15.654  67.795  1.00  0.00    -0.136 C  
HETATM   13  C   UNL     1      -9.569  15.311  66.699  1.00  0.00    -0.276 A  
HETATM   14  H2  UNL     1      -7.411  13.443  65.707  1.00  0.00     0.000 HD 
HETATM   15  H1  UNL     1      -8.351  14.211  64.586  1.00  0.00     0.000 HD 
HETATM   16  C   UNL     1     -10.110  15.831  67.860  1.00  0.00    -0.230 A  
BRANCH   5  17
HETATM   17  O   UNL     1      -7.090  15.810  69.987  1.00  0.00    -0.049 OA 
BRANCH  17  18
HETATM   18  C   UNL     1      -7.482  14.830  70.972  1.00  0.00     1.785 C  
HETATM   19  C   UNL     1      -7.654  13.411  70.474  1.00  0.00     2.913 C  
ENDBRANCH  17  18
ENDBRANCH   5  17
BRANCH   6  20
HETATM   20  O   UNL     1      -6.098  14.722  67.493  1.00  0.00    -0.317 OA 
BRANCH  20  21
HETATM   21  C   UNL     1      -5.617  13.868  68.533  1.00  0.00    -0.094 C  
HETATM   22  C   UNL     1      -5.758  12.417  68.069  1.00  0.00    -0.073 C  
ENDBRANCH  20  21
ENDBRANCH   6  20
BRANCH  12  23
HETATM   23  C   UNL     1     -12.240  14.635  68.841  1.00  0.00    -0.139 C  
HETATM   24  C   UNL     1     -11.162  14.903  71.047  1.00  0.00    -0.155 C  
HETATM   25  C   UNL     1     -13.057  16.307  70.571  1.00  0.00     1.855 C  
HETATM   26  N   UNL     1     -12.390  15.055  70.271  1.00  0.00    -0.331 NA 
HETATM   27  C   UNL     1     -10.911  13.419  71.236  1.00  0.00     3.878 C  
HETATM   28  C   UNL     1     -10.935  12.674  69.928  1.00  0.00     0.433 A  
HETATM   29  C   UNL     1     -10.365  11.392  69.916  1.00  0.00     0.639 A  
HETATM   30  C   UNL     1     -10.375  10.692  68.738  1.00  0.00    -0.193 A  
HETATM   31  C   UNL     1     -10.960  11.192  67.599  1.00  0.00    -0.269 A  
HETATM   32  O   UNL     1     -10.825  10.310  66.564  1.00  0.00    -0.123 OA 
HETATM   33  C   UNL     1     -11.588  12.437  67.579  1.00  0.00    -0.365 A  
HETATM   34  C   UNL     1     -11.567  13.221  68.766  1.00  0.00    -0.350 A  
HETATM   35  O   UNL     1      -9.823   9.461  68.565  1.00  0.00    -0.150 OA 
HETATM   36  C   UNL     1      -9.977   9.305  67.146  1.00  0.00    -0.216 C  
BRANCH  33  37
HETATM   37  O   UNL     1     -12.232  12.970  66.498  1.00  0.00    -0.382 OA 
HETATM   38  C   UNL     1     -12.537  12.103  65.408  1.00  0.00     0.508 C  
ENDBRANCH  33  37
ENDBRANCH  12  23
ENDBRANCH   3   4
ENDBRANCH   2   3
TORSDOF 8
ENDMDL
MODEL      173
REMARK 921   NORMALIZED FREE ENERGY PREDICTED BY IDOCK:   13.44 KCAL/MOL
REMARK 922        TOTAL FREE ENERGY PREDICTED BY IDOCK:   18.94 KCAL/MOL
REMARK 923 INTER-LIGAND FREE ENERGY PREDICTED BY IDOCK:    3.40 KCAL/MOL
REMARK 924 INTRA-LIGAND FREE ENERGY PREDICTED BY IDOCK:   15.54 KCAL/MOL
REMARK 927      BINDING AFFINITY PREDICTED BY RF-SCORE:    0.00 PKD
ROOT
HETATM    1  C   UNL     1     -12.609  11.824  65.870  1.00  0.00     1.970 C  
HETATM    2  C   UNL     1     -11.495  11.053  66.557  1.00  0.00     0.309 C  
ENDROOT
BRANCH   2   3
HETATM    3  O   UNL     1     -11.198   9.891  65.815  1.00  0.00     0.858 OA 
BRANCH   3   4
HETATM    4  C   UNL     1     -10.059   9.164  65.941  1.00  0.00    -0.048 A  
HETATM    5  C   UNL     1      -9.115   9.297  64.865  1.00  0.00    -0.170 A  
HETATM    6  C   UNL     1      -8.012   8.406  64.791  1.00  0.00    -0.138 A  
HETATM    7  C   UNL     1      -8.509   6.803  68.199  1.00  0.00    -0.121 C  
HETATM    8  C   UNL     1      -7.807   7.445  65.823  1.00  0.00    -0.108 A  
HETATM    9  O   UNL     1      -9.408   7.341  69.065  1.00  0.00    -0.148 OA 
HETATM   10  O   UNL     1      -7.761   5.877  68.431  1.00  0.00    -0.091 OA 
HETATM   11  N   UNL     1      -6.633   6.673  65.864  1.00  0.00    -0.043 NA 
HETATM   12  C   UNL     1     -10.162   8.424  68.467  1.00  0.00    -0.201 C  
HETATM   13  C   UNL     1      -8.649   7.527  66.937  1.00  0.00    -0.124 A  
HETATM   14  H2  UNL     1      -5.835   7.308  65.857  1.00  0.00     0.000 HD 
HETATM   15  H1  UNL     1      -6.486   5.986  66.604  1.00  0.00     0.000 HD 
HETATM   16  C   UNL     1      -9.712   8.404  67.036  1.00  0.00    -0.268 A  
BRANCH   5  17
HETATM   17  O   UNL     1      -9.168  10.351  63.944  1.00  0.00    -0.219 OA 
BRANCH  17  18
HETATM   18  C   UNL     1      -9.558  11.615  64.521  1.00  0.00    -0.114 C  
HETATM   19  C   UNL     1      -9.733  12.768  63.556  1.00  0.00     0.884 C  
ENDBRANCH  17  18
ENDBRANCH   5  17
BRANCH   6  20
HETATM   20  O   UNL     1      -6.978   8.456  63.875  1.00  0.00    -0.078 OA 
BRANCH  20  21
HETATM   21  C   UNL     1      -5.710   8.916  64.346  1.00  0.00    -0.064 C  
HETATM   22  C   UNL     1      -5.888   9.444  65.772  1.00  0.00    -0.054 C  
ENDBRANCH  20  21
ENDBRANCH   6  20
BRANCH  12  23
HETATM   23  C   UNL     1      -9.934   9.787  69.264  1.00  0.00    -0.192 C  
HETATM   24  C   UNL     1     -11.802  11.343  68.825  1.00  0.00    -0.323 C  
HETATM   25  C   UNL     1     -12.065   9.796  70.649  1.00  0.00    -0.230 C  
HETATM   26  N   UNL     1     -11.120  10.516  69.818  1.00  0.00    -0.275 NA 
HETATM   27  C   UNL     1     -10.900  12.519  68.500  1.00  0.00    -0.271 C  
HETATM   28  C   UNL     1      -9.513  12.075  68.117  1.00  0.00    -0.200 A  
HETATM   29  C   UNL     1      -8.708  13.011  67.451  1.00  0.00    -0.205 A  
HETATM   30  C   UNL     1      -7.441  12.633  67.093  1.00  0.00    -0.050 A  
HETATM   31  C   UNL     1      -6.936  11.392  67.403  1.00  0.00    -0.106 A  
HETATM   32  O   UNL     1      -5.662  11.260  66.926  1.00  0.00    -0.077 OA 
HETATM   33  C   UNL     1      -7.680  10.450  68.113  1.00  0.00    -0.092 A  
HETATM   34  C   UNL     1      -9.017  10.780  68.471  1.00  0.00    -0.160 A  
HETATM   35  O   UNL     1      -6.564  13.415  66.406  1.00  0.00     1.489 OA 
HETATM   36  C   UNL     1      -5.506  12.474  66.172  1.00  0.00     2.170 C  
BRANCH  33  37
HETATM   37  O   UNL     1      -7.222   9.222  68.499  1.00  0.00    -0.071 OA 
HETATM   38  C   UNL     1      -5.873   8.884  68.187  1.00  0.00    -0.042 C  
ENDBRANCH  33  37
ENDBRANCH  12  23
ENDBRANCH   3   4
ENDBRANCH   2   3
TORSDOF 8
ENDMDL
MODEL      174
REMARK 921   NORMALIZED FREE ENERGY PREDICTED BY IDOCK:   14.69 KCAL/MOL
REMARK 922        TOTAL FREE ENERGY PREDICTED BY IDOCK:   20.77 KCAL/MOL
REMARK 923 INTER-LIGAND FREE ENERGY PREDICTED BY IDOCK:   -2.46 KCAL/MOL
REMARK 924 INTRA-LIGAND FREE ENERGY PREDICTED BY IDOCK:   23.23 KCAL/MOL
REMARK 927      BINDING AFFINITY PREDICTED BY RF-SCORE:    0.00 PKD
ROOT
HETATM    1  C   UNL     1      -6.187   9.945  65.339  1.00  0.00    -0.087 C  
HETATM    2  C   UNL     1      -6.764   8.717  64.653  1.00  0.00    -0.069 C  
ENDROOT
BRANCH   2   3
HETATM    3  O   UNL     1      -8.171   8.741  64.749  1.00  0.00    -0.145 OA 
BRANCH   3   4
HETATM    4  C   UNL     1      -8.884   8.223  65.780  1.00  0.00    -0.155 A  
HETATM    5  C   UNL     1      -9.277   6.848  65.636  1.00  0.00     0.223 A  
HETATM    6  C   UNL     1     -10.217   6.292  66.544  1.00  0.00    -0.100 A  
HETATM    7  C   UNL     1     -10.270   9.216  68.969  1.00  0.00    -0.207 C  
HETATM    8  C   UNL     1     -10.698   7.075  67.633  1.00  0.00    -0.261 A  
HETATM    9  O   UNL     1      -9.353  10.211  68.835  1.00  0.00    -0.160 OA 
HETATM   10  O   UNL     1     -11.087   9.114  69.859  1.00  0.00    -0.229 OA 
HETATM   11  N   UNL     1     -11.489   6.497  68.641  1.00  0.00    -0.562 NA 
HETATM   12  C   UNL     1      -8.538  10.048  67.649  1.00  0.00    -0.118 C  
HETATM   13  C   UNL     1     -10.103   8.327  67.821  1.00  0.00    -0.262 A  
HETATM   14  H2  UNL     1     -10.984   5.698  69.022  1.00  0.00     0.000 HD 
HETATM   15  H1  UNL     1     -11.833   7.058  69.421  1.00  0.00     0.000 HD 
HETATM   16  C   UNL     1      -9.170   8.873  66.961  1.00  0.00    -0.171 A  
BRANCH   5  17
HETATM   17  O   UNL     1      -8.680   5.989  64.705  1.00  0.00     0.001 OA 
BRANCH  17  18
HETATM   18  C   UNL     1      -7.288   5.713  64.970  1.00  0.00    -0.071 C  
HETATM   19  C   UNL     1      -6.515   5.036  63.858  1.00  0.00    -0.033 C  
ENDBRANCH  17  18
ENDBRANCH   5  17
BRANCH   6  20
HETATM   20  O   UNL     1     -10.629   4.975  66.592  1.00  0.00    -0.274 OA 
BRANCH  20  21
HETATM   21  C   UNL     1      -9.994   4.126  67.550  1.00  0.00    -0.004 C  
HETATM   22  C   UNL     1      -8.675   4.778  67.973  1.00  0.00    -0.110 C  
ENDBRANCH  20  21
ENDBRANCH   6  20
BRANCH  12  23
HETATM   23  C   UNL     1      -6.997   9.902  68.031  1.00  0.00    -0.077 C  
HETATM   24  C   UNL     1      -5.812   8.625  66.280  1.00  0.00    -0.047 C  
HETATM   25  C   UNL     1      -5.977  11.007  65.982  1.00  0.00    -0.109 C  
HETATM   26  N   UNL     1      -5.970   9.919  66.940  1.00  0.00    -0.054 NA 
HETATM   27  C   UNL     1      -5.137   7.682  67.259  1.00  0.00    -0.026 C  
HETATM   28  C   UNL     1      -5.854   7.640  68.582  1.00  0.00    -0.027 A  
HETATM   29  C   UNL     1      -5.563   6.558  69.428  1.00  0.00    -0.014 A  
HETATM   30  C   UNL     1      -6.201   6.497  70.638  1.00  0.00    -0.039 A  
HETATM   31  C   UNL     1      -7.073   7.476  71.053  1.00  0.00    -0.058 A  
HETATM   32  O   UNL     1      -7.581   7.174  72.285  1.00  0.00    -0.087 OA 
HETATM   33  C   UNL     1      -7.349   8.596  70.270  1.00  0.00    -0.054 A  
HETATM   34  C   UNL     1      -6.744   8.686  68.986  1.00  0.00    -0.052 A  
HETATM   35  O   UNL     1      -6.053   5.489  71.541  1.00  0.00    -0.030 OA 
HETATM   36  C   UNL     1      -7.053   5.854  72.503  1.00  0.00    -0.085 C  
BRANCH  33  37
HETATM   37  O   UNL     1      -8.162   9.629  70.644  1.00  0.00    -0.234 OA 
HETATM   38  C   UNL     1      -8.849   9.522  71.888  1.00  0.00     1.329 C  
ENDBRANCH  33  37
ENDBRANCH  12  23
ENDBRANCH   3   4
ENDBRANCH   2   3
TORSDOF 8
ENDMDL
MODEL      175
REMARK 921   NORMALIZED FREE ENERGY PREDICTED BY IDOCK:   15.88 KCAL/MOL
REMARK 922        TOTAL FREE ENERGY PREDICTED BY IDOCK:   22.53 KCAL/MOL
REMARK 923 INTER-LIGAND FREE ENERGY PREDICTED BY IDOCK:    4.65 KCAL/MOL
REMARK 924 INTRA-LIGAND FREE ENERGY PREDICTED BY IDOCK:   17.88 KCAL/MOL
REMARK 927      BINDING AFFINITY PREDICTED BY RF-SCORE:    0.00 PKD
ROOT
HETATM    1  C   UNL     1     -12.516  10.832  67.335  1.00  0.00     3.380 C  
HETATM    2  C   UNL     1     -11.056  10.922  66.921  1.00  0.00    -0.167 C  
ENDROOT
BRANCH   2   3
HETATM    3  O   UNL     1     -10.249  10.301  67.897  1.00  0.00    -0.167 OA 
BRANCH   3   4
HETATM    4  C   UNL     1     -10.693   9.865  69.103  1.00  0.00    -0.224 A  
HETATM    5  C   UNL     1      -9.885   8.859  69.736  1.00  0.00    -0.180 A  
HETATM    6  C   UNL     1     -10.388   8.177  70.876  1.00  0.00    -0.190 A  
HETATM    7  C   UNL     1     -13.442  10.374  71.396  1.00  0.00    -0.174 C  
HETATM    8  C   UNL     1     -11.648   8.550  71.427  1.00  0.00    -0.289 A  
HETATM    9  O   UNL     1     -13.566  11.525  70.683  1.00  0.00     0.750 OA 
HETATM   10  O   UNL     1     -14.190   9.994  72.271  1.00  0.00     0.065 OA 
HETATM   11  N   UNL     1     -12.085   8.014  72.650  1.00  0.00    -0.593 NA 
HETATM   12  C   UNL     1     -12.516  11.673  69.696  1.00  0.00     0.015 C  
HETATM   13  C   UNL     1     -12.267   9.677  70.878  1.00  0.00    -0.368 A  
HETATM   14  H2  UNL     1     -11.366   8.193  73.351  1.00  0.00     0.000 HD 
HETATM   15  H1  UNL     1     -12.988   8.282  73.044  1.00  0.00     0.000 HD 
HETATM   16  C   UNL     1     -11.780  10.367  69.784  1.00  0.00    -0.310 A  
BRANCH   5  17
HETATM   17  O   UNL     1      -8.563   8.603  69.350  1.00  0.00    -0.124 OA 
BRANCH  17  18
HETATM   18  C   UNL     1      -7.725   9.778  69.315  1.00  0.00    -0.101 C  
HETATM   19  C   UNL     1      -6.701   9.903  70.423  1.00  0.00    -0.136 C  
ENDBRANCH  17  18
ENDBRANCH   5  17
BRANCH   6  20
HETATM   20  O   UNL     1      -9.706   7.253  71.645  1.00  0.00    -0.156 OA 
BRANCH  20  21
HETATM   21  C   UNL     1      -8.789   7.761  72.617  1.00  0.00    -0.159 C  
HETATM   22  C   UNL     1      -7.932   8.841  71.953  1.00  0.00    -0.079 C  
ENDBRANCH  20  21
ENDBRANCH   6  20
BRANCH  12  23
HETATM   23  C   UNL     1     -11.659  12.991  69.966  1.00  0.00    -0.124 C  
HETATM   24  C   UNL     1     -13.011  14.631  71.224  1.00  0.00    -0.339 C  
HETATM   25  C   UNL     1     -11.766  13.018  72.504  1.00  0.00     3.777 C  
HETATM   26  N   UNL     1     -11.855  13.738  71.249  1.00  0.00     0.043 NA 
HETATM   27  C   UNL     1     -12.687  15.787  70.296  1.00  0.00    -0.126 C  
HETATM   28  C   UNL     1     -12.220  15.309  68.946  1.00  0.00    -0.132 A  
HETATM   29  C   UNL     1     -12.243  16.242  67.898  1.00  0.00     1.148 A  
HETATM   30  C   UNL     1     -11.822  15.833  66.661  1.00  0.00     0.692 A  
HETATM   31  C   UNL     1     -11.347  14.563  66.436  1.00  0.00    -0.349 A  
HETATM   32  O   UNL     1     -11.005  14.405  65.122  1.00  0.00    -0.331 OA 
HETATM   33  C   UNL     1     -11.253  13.620  67.459  1.00  0.00    -0.294 A  
HETATM   34  C   UNL     1     -11.718  13.983  68.754  1.00  0.00    -0.388 A  
HETATM   35  O   UNL     1     -11.829  16.612  65.545  1.00  0.00     1.003 OA 
HETATM   36  C   UNL     1     -11.460  15.644  64.552  1.00  0.00    -0.300 C  
BRANCH  33  37
HETATM   37  O   UNL     1     -10.743  12.361  67.315  1.00  0.00    -0.224 OA 
HETATM   38  C   UNL     1      -9.331  12.223  67.176  1.00  0.00    -0.196 C  
ENDBRANCH  33  37
ENDBRANCH  12  23
ENDBRANCH   3   4
ENDBRANCH   2   3
TORSDOF 8
ENDMDL
MODEL      176
REMARK 921   NORMALIZED FREE ENERGY PREDICTED BY IDOCK:   18.55 KCAL/MOL
REMARK 922        TOTAL FREE ENERGY PREDICTED BY IDOCK:   26.45 KCAL/MOL
REMARK 923 INTER-LIGAND FREE ENERGY PREDICTED BY IDOCK:   10.22 KCAL/MOL
REMARK 924 INTRA-LIGAND FREE ENERGY PREDICTED BY IDOCK:   16.22 KCAL/MOL
REMARK 927      BINDING AFFINITY PREDICTED BY RF-SCORE:    0.00 PKD
ROOT
HETATM    1  C   UNL     1      -5.963   9.139  71.038  1.00  0.00    -0.055 C  
HETATM    2  C   UNL     1      -7.122  10.038  71.438  1.00  0.00     0.982 C  
ENDROOT
BRANCH   2   3
HETATM    3  O   UNL     1      -7.451  10.890  70.364  1.00  0.00     0.168 OA 
BRANCH   3   4
HETATM    4  C   UNL     1      -8.714  11.138  69.934  1.00  0.00     1.257 A  
HETATM    5  C   UNL     1      -9.021  12.517  69.668  1.00  0.00     2.048 A  
HETATM    6  C   UNL     1     -10.370  12.900  69.443  1.00  0.00     0.488 A  
HETATM    7  C   UNL     1     -11.799   9.387  69.234  1.00  0.00     0.754 C  
HETATM    8  C   UNL     1     -11.391  11.907  69.405  1.00  0.00    -0.261 A  
HETATM    9  O   UNL     1     -10.953   8.324  69.176  1.00  0.00    -0.082 OA 
HETATM   10  O   UNL     1     -13.008   9.342  69.144  1.00  0.00     2.803 OA 
HETATM   11  N   UNL     1     -12.701  12.237  69.013  1.00  0.00     0.617 NA 
HETATM   12  C   UNL     1      -9.569   8.718  69.338  1.00  0.00    -0.163 C  
HETATM   13  C   UNL     1     -10.977  10.573  69.462  1.00  0.00    -0.312 A  
HETATM   14  H2  UNL     1     -12.655  12.683  68.097  1.00  0.00     0.000 HD 
HETATM   15  H1  UNL     1     -13.432  11.526  68.986  1.00  0.00     0.000 HD 
HETATM   16  C   UNL     1      -9.666  10.182  69.656  1.00  0.00    -0.250 A  
BRANCH   5  17
HETATM   17  O   UNL     1      -8.027  13.489  69.498  1.00  0.00     0.496 OA 
BRANCH  17  18
HETATM   18  C   UNL     1      -6.682  12.972  69.578  1.00  0.00     0.029 C  
HETATM   19  C   UNL     1      -6.528  11.594  70.188  1.00  0.00     0.029 C  
ENDBRANCH  17  18
ENDBRANCH   5  17
BRANCH   6  20
HETATM   20  O   UNL     1     -10.816  14.159  69.092  1.00  0.00    -0.250 OA 
BRANCH  20  21
HETATM   21  C   UNL     1     -11.291  15.001  70.144  1.00  0.00    -0.269 C  
HETATM   22  C   UNL     1     -10.370  16.220  70.240  1.00  0.00     0.160 C  
ENDBRANCH  20  21
ENDBRANCH   6  20
BRANCH  12  23
HETATM   23  C   UNL     1      -8.709   8.326  68.053  1.00  0.00    -0.135 C  
HETATM   24  C   UNL     1      -6.499   9.425  68.150  1.00  0.00    -0.054 C  
HETATM   25  C   UNL     1      -6.709   7.280  69.220  1.00  0.00    -0.049 C  
HETATM   26  N   UNL     1      -7.227   8.158  68.189  1.00  0.00    -0.092 NA 
HETATM   27  C   UNL     1      -6.572   9.959  66.732  1.00  0.00    -0.071 C  
HETATM   28  C   UNL     1      -7.989  10.022  66.227  1.00  0.00    -0.111 A  
HETATM   29  C   UNL     1      -8.228  10.823  65.100  1.00  0.00    -0.034 A  
HETATM   30  C   UNL     1      -9.508  10.896  64.620  1.00  0.00    -0.244 A  
HETATM   31  C   UNL     1     -10.539  10.181  65.182  1.00  0.00     0.297 A  
HETATM   32  O   UNL     1     -11.712  10.437  64.529  1.00  0.00     2.040 OA 
HETATM   33  C   UNL     1     -10.338   9.328  66.267  1.00  0.00    -0.122 A  
HETATM   34  C   UNL     1      -9.033   9.250  66.829  1.00  0.00    -0.154 A  
HETATM   35  O   UNL     1      -9.897  11.664  63.566  1.00  0.00    -0.329 OA 
HETATM   36  C   UNL     1     -11.319  11.484  63.625  1.00  0.00    -0.318 C  
BRANCH  33  37
HETATM   37  O   UNL     1     -11.305   8.551  66.839  1.00  0.00     0.701 OA 
HETATM   38  C   UNL     1     -11.203   7.137  66.686  1.00  0.00     0.709 C  
ENDBRANCH  33  37
ENDBRANCH  12  23
ENDBRANCH   3   4
ENDBRANCH   2   3
TORSDOF 8
ENDMDL
MODEL      177
REMARK 921   NORMALIZED FREE ENERGY PREDICTED BY IDOCK:   19.07 KCAL/MOL
REMARK 922        TOTAL FREE ENERGY PREDICTED BY IDOCK:   27.21 KCAL/MOL
REMARK 923 INTER-LIGAND FREE ENERGY PREDICTED BY IDOCK:   12.03 KCAL/MOL
REMARK 924 INTRA-LIGAND FREE ENERGY PREDICTED BY IDOCK:   15.19 KCAL/MOL
REMARK 927      BINDING AFFINITY PREDICTED BY RF-SCORE:    0.00 PKD
ROOT
HETATM    1  C   UNL     1     -10.995  17.568  72.948  1.00  0.00     2.643 C  
HETATM    2  C   UNL     1     -10.958  18.133  71.538  1.00  0.00     3.027 C  
ENDROOT
BRANCH   2   3
HETATM    3  O   UNL     1     -11.090  17.083  70.605  1.00  0.00     0.128 OA 
BRANCH   3   4
HETATM    4  C   UNL     1     -10.251  16.868  69.561  1.00  0.00    -0.139 A  
HETATM    5  C   UNL     1      -8.859  16.740  69.898  1.00  0.00     1.218 A  
HETATM    6  C   UNL     1      -7.887  16.749  68.863  1.00  0.00    -0.244 A  
HETATM    7  C   UNL     1     -10.329  16.536  65.961  1.00  0.00    -0.345 C  
HETATM    8  C   UNL     1      -8.303  16.804  67.501  1.00  0.00    -0.188 A  
HETATM    9  O   UNL     1     -11.641  16.282  66.210  1.00  0.00     0.500 OA 
HETATM   10  O   UNL     1      -9.816  16.629  64.866  1.00  0.00     0.126 OA 
HETATM   11  N   UNL     1      -7.375  16.639  66.458  1.00  0.00    -0.257 NA 
HETATM   12  C   UNL     1     -11.934  16.255  67.629  1.00  0.00     0.781 C  
HETATM   13  C   UNL     1      -9.677  16.711  67.257  1.00  0.00    -0.245 A  
HETATM   14  H2  UNL     1      -6.884  15.757  66.606  1.00  0.00     0.000 HD 
HETATM   15  H1  UNL     1      -7.673  16.678  65.484  1.00  0.00     0.000 HD 
HETATM   16  C   UNL     1     -10.635  16.677  68.252  1.00  0.00    -0.338 A  
BRANCH   5  17
HETATM   17  O   UNL     1      -8.422  16.484  71.204  1.00  0.00     4.805 OA 
BRANCH  17  18
HETATM   18  C   UNL     1      -7.263  15.627  71.276  1.00  0.00     2.767 C  
HETATM   19  C   UNL     1      -6.995  14.759  70.064  1.00  0.00    -0.083 C  
ENDBRANCH  17  18
ENDBRANCH   5  17
BRANCH   6  20
HETATM   20  O   UNL     1      -6.528  16.552  69.013  1.00  0.00    -0.159 OA 
BRANCH  20  21
HETATM   21  C   UNL     1      -5.735  17.693  69.347  1.00  0.00    -0.217 C  
HETATM   22  C   UNL     1      -5.161  17.486  70.751  1.00  0.00    -0.258 C  
ENDBRANCH  20  21
ENDBRANCH   6  20
BRANCH  12  23
HETATM   23  C   UNL     1     -12.503  14.832  68.068  1.00  0.00     0.388 C  
HETATM   24  C   UNL     1     -11.716  14.275  70.343  1.00  0.00    -0.262 C  
HETATM   25  C   UNL     1     -13.757  15.537  70.162  1.00  0.00     0.997 C  
HETATM   26  N   UNL     1     -12.867  14.602  69.503  1.00  0.00     0.153 NA 
HETATM   27  C   UNL     1     -11.247  12.882  69.966  1.00  0.00     0.216 C  
HETATM   28  C   UNL     1     -11.014  12.749  68.485  1.00  0.00    -0.288 A  
HETATM   29  C   UNL     1     -10.242  11.657  68.058  1.00  0.00    -0.202 A  
HETATM   30  C   UNL     1     -10.017  11.512  66.715  1.00  0.00    -0.208 A  
HETATM   31  C   UNL     1     -10.555  12.374  65.789  1.00  0.00    -0.256 A  
HETATM   32  O   UNL     1     -10.171  12.020  64.526  1.00  0.00    -0.269 OA 
HETATM   33  C   UNL     1     -11.373  13.440  66.162  1.00  0.00    -0.303 A  
HETATM   34  C   UNL     1     -11.603  13.658  67.549  1.00  0.00    -0.384 A  
HETATM   35  O   UNL     1      -9.255  10.531  66.160  1.00  0.00    -0.162 OA 
HETATM   36  C   UNL     1      -9.234  10.962  64.791  1.00  0.00    -0.201 C  
BRANCH  33  37
HETATM   37  O   UNL     1     -11.981  14.300  65.292  1.00  0.00    -0.362 OA 
HETATM   38  C   UNL     1     -11.173  15.286  64.654  1.00  0.00    -0.356 C  
ENDBRANCH  33  37
ENDBRANCH  12  23
ENDBRANCH   3   4
ENDBRANCH   2   3
TORSDOF 8
ENDMDL
MODEL      178
REMARK 921   NORMALIZED FREE ENERGY PREDICTED BY IDOCK:   19.92 KCAL/MOL
REMARK 922        TOTAL FREE ENERGY PREDICTED BY IDOCK:   28.45 KCAL/MOL
REMARK 923 INTER-LIGAND FREE ENERGY PREDICTED BY IDOCK:   24.35 KCAL/MOL
REMARK 924 INTRA-LIGAND FREE ENERGY PREDICTED BY IDOCK:    4.10 KCAL/MOL
REMARK 927      BINDING AFFINITY PREDICTED BY RF-SCORE:    0.00 PKD
ROOT
HETATM    1  C   UNL     1     -10.631  20.525  68.875  1.00  0.00     0.326 C  
HETATM    2  C   UNL     1     -11.240  19.144  69.062  1.00  0.00     2.207 C  
ENDROOT
BRANCH   2   3
HETATM    3  O   UNL     1     -11.438  18.541  67.803  1.00  0.00     0.305 OA 
BRANCH   3   4
HETATM    4  C   UNL     1     -10.626  17.599  67.261  1.00  0.00    -0.296 A  
HETATM    5  C   UNL     1      -9.505  18.100  66.514  1.00  0.00    -0.304 A  
HETATM    6  C   UNL     1      -8.741  17.204  65.719  1.00  0.00     0.227 A  
HETATM    7  C   UNL     1     -10.336  14.004  67.001  1.00  0.00    -0.267 C  
HETATM    8  C   UNL     1      -9.040  15.811  65.735  1.00  0.00    -0.152 A  
HETATM    9  O   UNL     1     -11.168  14.056  68.075  1.00  0.00    -0.259 OA 
HETATM   10  O   UNL     1      -9.970  12.998  66.431  1.00  0.00    -0.263 OA 
HETATM   11  N   UNL     1      -8.194  14.886  65.099  1.00  0.00     3.617 NA 
HETATM   12  C   UNL     1     -11.422  15.416  68.504  1.00  0.00    -0.350 C  
HETATM   13  C   UNL     1     -10.006  15.384  66.651  1.00  0.00    -0.271 A  
HETATM   14  H2  UNL     1      -7.251  15.013  65.466  1.00  0.00     0.000 HD 
HETATM   15  H1  UNL     1      -8.409  13.889  65.110  1.00  0.00     0.000 HD 
HETATM   16  C   UNL     1     -10.743  16.239  67.449  1.00  0.00    -0.287 A  
BRANCH   5  17
HETATM   17  O   UNL     1      -9.055  19.421  66.627  1.00  0.00    -0.313 OA 
BRANCH  17  18
HETATM   18  C   UNL     1      -9.403  20.257  65.503  1.00  0.00     0.380 C  
HETATM   19  C   UNL     1     -10.873  20.321  65.145  1.00  0.00     0.342 C  
ENDBRANCH  17  18
ENDBRANCH   5  17
BRANCH   6  20
HETATM   20  O   UNL     1      -7.592  17.510  65.016  1.00  0.00     1.117 OA 
BRANCH  20  21
HETATM   21  C   UNL     1      -6.364  17.532  65.747  1.00  0.00    -0.010 C  
HETATM   22  C   UNL     1      -5.710  18.901  65.549  1.00  0.00    -0.223 C  
ENDBRANCH  20  21
ENDBRANCH   6  20
BRANCH  12  23
HETATM   23  C   UNL     1     -10.934  15.643  70.005  1.00  0.00    -0.327 C  
HETATM   24  C   UNL     1     -12.008  17.659  70.945  1.00  0.00     5.228 C  
HETATM   25  C   UNL     1     -13.191  15.576  71.169  1.00  0.00    -0.507 C  
HETATM   26  N   UNL     1     -11.894  16.204  71.009  1.00  0.00    -0.386 NA 
HETATM   27  C   UNL     1     -10.711  18.250  71.467  1.00  0.00     3.046 C  
HETATM   28  C   UNL     1      -9.509  17.673  70.767  1.00  0.00     4.346 A  
HETATM   29  C   UNL     1      -8.304  18.381  70.886  1.00  0.00     5.557 A  
HETATM   30  C   UNL     1      -7.195  17.876  70.260  1.00  0.00     1.740 A  
HETATM   31  C   UNL     1      -7.227  16.690  69.566  1.00  0.00    -0.016 A  
HETATM   32  O   UNL     1      -6.001  16.416  69.028  1.00  0.00    -0.133 OA 
HETATM   33  C   UNL     1      -8.389  15.924  69.468  1.00  0.00    -0.077 A  
HETATM   34  C   UNL     1      -9.578  16.427  70.066  1.00  0.00     0.655 A  
HETATM   35  O   UNL     1      -5.972  18.473  70.251  1.00  0.00    -0.206 OA 
HETATM   36  C   UNL     1      -5.273  17.618  69.335  1.00  0.00    -0.177 C  
BRANCH  33  37
HETATM   37  O   UNL     1      -8.476  14.714  68.840  1.00  0.00    -0.164 OA 
HETATM   38  C   UNL     1      -7.643  13.657  69.307  1.00  0.00     0.242 C  
ENDBRANCH  33  37
ENDBRANCH  12  23
ENDBRANCH   3   4
ENDBRANCH   2   3
TORSDOF 8
ENDMDL
MODEL      179
REMARK 921   NORMALIZED FREE ENERGY PREDICTED BY IDOCK:   21.88 KCAL/MOL
REMARK 922        TOTAL FREE ENERGY PREDICTED BY IDOCK:   31.33 KCAL/MOL
REMARK 923 INTER-LIGAND FREE ENERGY PREDICTED BY IDOCK:   19.04 KCAL/MOL
REMARK 924 INTRA-LIGAND FREE ENERGY PREDICTED BY IDOCK:   12.30 KCAL/MOL
REMARK 927      BINDING AFFINITY PREDICTED BY RF-SCORE:    0.00 PKD
ROOT
HETATM    1  C   UNL     1      -9.494   8.660  66.981  1.00  0.00    -0.221 C  
HETATM    2  C   UNL     1      -8.038   8.608  66.550  1.00  0.00    -0.103 C  
ENDROOT
BRANCH   2   3
HETATM    3  O   UNL     1      -7.571   9.916  66.304  1.00  0.00    -0.098 OA 
BRANCH   3   4
HETATM    4  C   UNL     1      -8.363  10.974  65.997  1.00  0.00    -0.147 A  
HETATM    5  C   UNL     1      -9.635  10.649  65.412  1.00  0.00    -0.230 A  
HETATM    6  C   UNL     1     -10.426  11.684  64.846  1.00  0.00    -0.288 A  
HETATM    7  C   UNL     1      -8.333  14.588  66.116  1.00  0.00     0.980 C  
HETATM    8  C   UNL     1      -9.991  13.038  64.935  1.00  0.00    -0.130 A  
HETATM    9  O   UNL     1      -7.346  14.353  67.022  1.00  0.00    -0.034 OA 
HETATM   10  O   UNL     1      -8.685  15.675  65.711  1.00  0.00    -0.094 OA 
HETATM   11  N   UNL     1     -10.834  14.092  64.540  1.00  0.00    -0.563 NA 
HETATM   12  C   UNL     1      -7.161  12.939  67.276  1.00  0.00    -0.067 C  
HETATM   13  C   UNL     1      -8.851  13.285  65.705  1.00  0.00     0.860 A  
HETATM   14  H2  UNL     1     -11.711  14.005  65.051  1.00  0.00     0.000 HD 
HETATM   15  H1  UNL     1     -10.522  15.061  64.604  1.00  0.00     0.000 HD 
HETATM   16  C   UNL     1      -8.083  12.292  66.283  1.00  0.00     0.418 A  
BRANCH   5  17
HETATM   17  O   UNL     1     -10.190   9.365  65.482  1.00  0.00    -0.112 OA 
BRANCH  17  18
HETATM   18  C   UNL     1     -11.543   9.338  65.984  1.00  0.00     4.389 C  
HETATM   19  C   UNL     1     -12.067   7.987  66.425  1.00  0.00     7.468 C  
ENDBRANCH  17  18
ENDBRANCH   5  17
BRANCH   6  20
HETATM   20  O   UNL     1     -11.699  11.551  64.326  1.00  0.00    -0.229 OA 
BRANCH  20  21
HETATM   21  C   UNL     1     -11.859  10.682  63.202  1.00  0.00     2.602 C  
HETATM   22  C   UNL     1     -10.522  10.604  62.460  1.00  0.00     0.785 C  
ENDBRANCH  20  21
ENDBRANCH   6  20
BRANCH  12  23
HETATM   23  C   UNL     1      -7.418  12.596  68.812  1.00  0.00    -0.044 C  
HETATM   24  C   UNL     1      -8.439  10.356  69.016  1.00  0.00    -0.155 C  
HETATM   25  C   UNL     1      -6.036  10.471  68.978  1.00  0.00    -0.040 C  
HETATM   26  N   UNL     1      -7.263  11.182  69.280  1.00  0.00    -0.121 NA 
HETATM   27  C   UNL     1      -9.548  10.818  69.943  1.00  0.00     0.458 C  
HETATM   28  C   UNL     1      -9.777  12.303  69.850  1.00  0.00     2.334 A  
HETATM   29  C   UNL     1     -10.989  12.793  70.360  1.00  0.00     1.436 A  
HETATM   30  C   UNL     1     -11.221  14.141  70.289  1.00  0.00     0.061 A  
HETATM   31  C   UNL     1     -10.291  15.014  69.775  1.00  0.00    -0.155 A  
HETATM   32  O   UNL     1     -10.769  16.294  69.805  1.00  0.00    -0.317 OA 
HETATM   33  C   UNL     1      -9.052  14.579  69.308  1.00  0.00     0.120 A  
HETATM   34  C   UNL     1      -8.779  13.183  69.321  1.00  0.00     0.880 A  
HETATM   35  O   UNL     1     -12.364  14.752  70.703  1.00  0.00    -0.295 OA 
HETATM   36  C   UNL     1     -12.123  16.090  70.243  1.00  0.00    -0.157 C  
BRANCH  33  37
HETATM   37  O   UNL     1      -8.065  15.397  68.834  1.00  0.00    -0.154 OA 
HETATM   38  C   UNL     1      -8.055  16.754  69.270  1.00  0.00    -0.001 C  
ENDBRANCH  33  37
ENDBRANCH  12  23
ENDBRANCH   3   4
ENDBRANCH   2   3
TORSDOF 8
ENDMDL
MODEL      180
REMARK 921   NORMALIZED FREE ENERGY PREDICTED BY IDOCK:   22.84 KCAL/MOL
REMARK 922        TOTAL FREE ENERGY PREDICTED BY IDOCK:   32.74 KCAL/MOL
REMARK 923 INTER-LIGAND FREE ENERGY PREDICTED BY IDOCK:   25.55 KCAL/MOL
REMARK 924 INTRA-LIGAND FREE ENERGY PREDICTED BY IDOCK:    7.20 KCAL/MOL
REMARK 927      BINDING AFFINITY PREDICTED BY RF-SCORE:    0.00 PKD
ROOT
HETATM    1  C   UNL     1     -11.919   7.286  66.795  1.00  0.00     3.715 C  
HETATM    2  C   UNL     1     -12.222   8.775  66.832  1.00  0.00     7.750 C  
ENDROOT
BRANCH   2   3
HETATM    3  O   UNL     1     -11.042   9.490  67.125  1.00  0.00    -0.078 OA 
BRANCH   3   4
HETATM    4  C   UNL     1     -10.713   9.969  68.351  1.00  0.00    -0.234 A  
HETATM    5  C   UNL     1      -9.553   9.378  68.959  1.00  0.00    -0.164 A  
HETATM    6  C   UNL     1      -9.271   9.643  70.326  1.00  0.00    -0.236 A  
HETATM    7  C   UNL     1     -11.882  12.360  70.799  1.00  0.00     0.218 C  
HETATM    8  C   UNL     1     -10.091  10.550  71.056  1.00  0.00     1.904 A  
HETATM    9  O   UNL     1     -12.534  12.856  69.714  1.00  0.00    -0.095 OA 
HETATM   10  O   UNL     1     -11.990  12.758  71.940  1.00  0.00     0.901 OA 
HETATM   11  N   UNL     1      -9.733  10.961  72.352  1.00  0.00     9.588 NA 
HETATM   12  C   UNL     1     -12.197  12.142  68.500  1.00  0.00     0.158 C  
HETATM   13  C   UNL     1     -11.068  11.241  70.331  1.00  0.00     0.278 A  
HETATM   14  H2  UNL     1      -8.789  11.345  72.313  1.00  0.00     0.000 HD 
HETATM   15  H1  UNL     1     -10.320  11.612  72.874  1.00  0.00     0.000 HD 
HETATM   16  C   UNL     1     -11.339  11.014  68.995  1.00  0.00    -0.345 A  
BRANCH   5  17
HETATM   17  O   UNL     1      -8.612   8.643  68.227  1.00  0.00    -0.136 OA 
BRANCH  17  18
HETATM   18  C   UNL     1      -8.915   8.542  66.819  1.00  0.00    -0.146 C  
HETATM   19  C   UNL     1      -9.564   7.252  66.364  1.00  0.00    -0.169 C  
ENDBRANCH  17  18
ENDBRANCH   5  17
BRANCH   6  20
HETATM   20  O   UNL     1      -8.157   9.224  71.028  1.00  0.00    -0.251 OA 
BRANCH  20  21
HETATM   21  C   UNL     1      -7.187   8.454  70.316  1.00  0.00    -0.044 C  
HETATM   22  C   UNL     1      -6.255   7.792  71.334  1.00  0.00    -0.035 C  
ENDBRANCH  20  21
ENDBRANCH   6  20
BRANCH  12  23
HETATM   23  C   UNL     1     -11.535  13.119  67.427  1.00  0.00    -0.332 C  
HETATM   24  C   UNL     1     -12.262  12.488  65.152  1.00  0.00    -0.448 C  
HETATM   25  C   UNL     1     -13.655  14.031  66.364  1.00  0.00     3.052 C  
HETATM   26  N   UNL     1     -12.316  13.498  66.206  1.00  0.00    -0.408 NA 
HETATM   27  C   UNL     1     -10.859  12.491  64.576  1.00  0.00    -0.360 C  
HETATM   28  C   UNL     1      -9.811  12.351  65.648  1.00  0.00    -0.235 A  
HETATM   29  C   UNL     1      -8.524  11.974  65.234  1.00  0.00     1.001 A  
HETATM   30  C   UNL     1      -7.552  11.841  66.189  1.00  0.00     0.387 A  
HETATM   31  C   UNL     1      -7.795  12.105  67.517  1.00  0.00    -0.162 A  
HETATM   32  O   UNL     1      -6.670  11.885  68.262  1.00  0.00    -0.057 OA 
HETATM   33  C   UNL     1      -9.042  12.535  67.966  1.00  0.00    -0.200 A  
HETATM   34  C   UNL     1     -10.097  12.648  67.018  1.00  0.00    -0.228 A  
HETATM   35  O   UNL     1      -6.274  11.443  65.944  1.00  0.00     0.024 OA 
HETATM   36  C   UNL     1      -5.778  11.323  67.285  1.00  0.00    -0.069 C  
BRANCH  33  37
HETATM   37  O   UNL     1      -9.336  12.864  69.260  1.00  0.00     0.547 OA 
HETATM   38  C   UNL     1      -9.553  14.239  69.567  1.00  0.00     0.458 C  
ENDBRANCH  33  37
ENDBRANCH  12  23
ENDBRANCH   3   4
ENDBRANCH   2   3
TORSDOF 8
ENDMDL
MODEL      181
REMARK 921   NORMALIZED FREE ENERGY PREDICTED BY IDOCK:   23.23 KCAL/MOL
REMARK 922        TOTAL FREE ENERGY PREDICTED BY IDOCK:   33.30 KCAL/MOL
REMARK 923 INTER-LIGAND FREE ENERGY PREDICTED BY IDOCK:    8.41 KCAL/MOL
REMARK 924 INTRA-LIGAND FREE ENERGY PREDICTED BY IDOCK:   24.89 KCAL/MOL
REMARK 927      BINDING AFFINITY PREDICTED BY RF-SCORE:    0.00 PKD
ROOT
HETATM    1  C   UNL     1      -9.667  15.531  70.412  1.00  0.00     0.459 C  
HETATM    2  C   UNL     1      -8.290  15.199  70.964  1.00  0.00     2.783 C  
ENDROOT
BRANCH   2   3
HETATM    3  O   UNL     1      -7.402  14.948  69.898  1.00  0.00    -0.172 OA 
BRANCH   3   4
HETATM    4  C   UNL     1      -6.962  13.718  69.532  1.00  0.00     0.058 A  
HETATM    5  C   UNL     1      -6.610  12.837  70.613  1.00  0.00     1.128 A  
HETATM    6  C   UNL     1      -5.923  11.626  70.330  1.00  0.00    -0.159 A  
HETATM    7  C   UNL     1      -6.277  11.789  66.551  1.00  0.00     0.079 C  
HETATM    8  C   UNL     1      -5.662  11.259  68.978  1.00  0.00    -0.040 A  
HETATM    9  O   UNL     1      -7.094  12.723  65.997  1.00  0.00     1.640 OA 
HETATM   10  O   UNL     1      -5.685  10.916  65.954  1.00  0.00    -0.132 OA 
HETATM   11  N   UNL     1      -5.143   9.991  68.665  1.00  0.00    -0.033 NA 
HETATM   12  C   UNL     1      -7.631  13.636  66.985  1.00  0.00     0.243 C  
HETATM   13  C   UNL     1      -6.225  12.067  67.985  1.00  0.00    -0.058 A  
HETATM   14  H2  UNL     1      -5.757   9.287  69.073  1.00  0.00     0.000 HD 
HETATM   15  H1  UNL     1      -4.956   9.728  67.697  1.00  0.00     0.000 HD 
HETATM   16  C   UNL     1      -6.917  13.235  68.243  1.00  0.00    -0.107 A  
BRANCH   5  17
HETATM   17  O   UNL     1      -7.024  13.062  71.932  1.00  0.00     3.605 OA 
BRANCH  17  18
HETATM   18  C   UNL     1      -5.977  13.547  72.799  1.00  0.00     0.983 C  
HETATM   19  C   UNL     1      -5.325  14.854  72.397  1.00  0.00     0.027 C  
ENDBRANCH  17  18
ENDBRANCH   5  17
BRANCH   6  20
HETATM   20  O   UNL     1      -5.594  10.640  71.240  1.00  0.00    -0.249 OA 
BRANCH  20  21
HETATM   21  C   UNL     1      -6.454   9.501  71.309  1.00  0.00     0.006 C  
HETATM   22  C   UNL     1      -5.853   8.503  72.302  1.00  0.00    -0.061 C  
ENDBRANCH  20  21
ENDBRANCH   6  20
BRANCH  12  23
HETATM   23  C   UNL     1      -9.224  13.568  67.021  1.00  0.00    -0.246 C  
HETATM   24  C   UNL     1     -10.110  13.358  64.724  1.00  0.00    -0.237 C  
HETATM   25  C   UNL     1      -9.549  11.322  65.877  1.00  0.00    -0.221 C  
HETATM   26  N   UNL     1      -9.940  12.711  66.023  1.00  0.00    -0.257 NA 
HETATM   27  C   UNL     1     -11.127  14.472  64.889  1.00  0.00    -0.401 C  
HETATM   28  C   UNL     1     -10.768  15.397  66.022  1.00  0.00    -0.326 A  
HETATM   29  C   UNL     1     -11.404  16.648  66.046  1.00  0.00     0.642 A  
HETATM   30  C   UNL     1     -11.096  17.508  67.067  1.00  0.00     0.256 A  
HETATM   31  C   UNL     1     -10.226  17.162  68.073  1.00  0.00    -0.332 A  
HETATM   32  O   UNL     1     -10.081  18.195  68.957  1.00  0.00    -0.377 OA 
HETATM   33  C   UNL     1      -9.614  15.910  68.120  1.00  0.00    -0.208 A  
HETATM   34  C   UNL     1      -9.868  14.996  67.060  1.00  0.00    -0.241 A  
HETATM   35  O   UNL     1     -11.598  18.766  67.197  1.00  0.00     0.602 OA 
HETATM   36  C   UNL     1     -10.824  19.241  68.308  1.00  0.00     0.146 C  
BRANCH  33  37
HETATM   37  O   UNL     1      -8.782  15.484  69.117  1.00  0.00    -0.211 OA 
HETATM   38  C   UNL     1      -7.396  15.799  69.011  1.00  0.00    -0.177 C  
ENDBRANCH  33  37
ENDBRANCH  12  23
ENDBRANCH   3   4
ENDBRANCH   2   3
TORSDOF 8
ENDMDL
MODEL      182
REMARK 921   NORMALIZED FREE ENERGY PREDICTED BY IDOCK:   23.38 KCAL/MOL
REMARK 922        TOTAL FREE ENERGY PREDICTED BY IDOCK:   33.53 KCAL/MOL
REMARK 923 INTER-LIGAND FREE ENERGY PREDICTED BY IDOCK:   13.46 KCAL/MOL
REMARK 924 INTRA-LIGAND FREE ENERGY PREDICTED BY IDOCK:   20.07 KCAL/MOL
REMARK 927      BINDING AFFINITY PREDICTED BY RF-SCORE:    0.00 PKD
ROOT
HETATM    1  C   UNL     1      -9.680  15.531  70.416  1.00  0.00     0.459 C  
HETATM    2  C   UNL     1      -8.312  15.173  70.972  1.00  0.00     2.783 C  
ENDROOT
BRANCH   2   3
HETATM    3  O   UNL     1      -7.410  14.963  69.909  1.00  0.00    -0.172 OA 
BRANCH   3   4
HETATM    4  C   UNL     1      -6.984  13.746  69.486  1.00  0.00     0.058 A  
HETATM    5  C   UNL     1      -6.675  12.800  70.524  1.00  0.00     1.182 A  
HETATM    6  C   UNL     1      -6.004  11.594  70.191  1.00  0.00    -0.161 A  
HETATM    7  C   UNL     1      -6.263  11.971  66.420  1.00  0.00     0.578 C  
HETATM    8  C   UNL     1      -5.717  11.296  68.827  1.00  0.00    -0.042 A  
HETATM    9  O   UNL     1      -7.049  12.950  65.899  1.00  0.00     2.260 OA 
HETATM   10  O   UNL     1      -5.672  11.120  65.789  1.00  0.00    -0.125 OA 
HETATM   11  N   UNL     1      -5.213  10.038  68.456  1.00  0.00    -0.036 NA 
HETATM   12  C   UNL     1      -7.592  13.818  66.924  1.00  0.00     0.477 C  
HETATM   13  C   UNL     1      -6.240  12.168  67.867  1.00  0.00    -0.079 A  
HETATM   14  H2  UNL     1      -5.850   9.324  68.810  1.00  0.00     0.000 HD 
HETATM   15  H1  UNL     1      -5.008   9.825  67.480  1.00  0.00     0.000 HD 
HETATM   16  C   UNL     1      -6.916  13.334  68.174  1.00  0.00    -0.114 A  
BRANCH   5  17
HETATM   17  O   UNL     1      -7.116  12.961  71.844  1.00  0.00     4.546 OA 
BRANCH  17  18
HETATM   18  C   UNL     1      -6.083  13.382  72.759  1.00  0.00     1.557 C  
HETATM   19  C   UNL     1      -5.404  14.699  72.445  1.00  0.00    -0.080 C  
ENDBRANCH  17  18
ENDBRANCH   5  17
BRANCH   6  20
HETATM   20  O   UNL     1      -5.715  10.553  71.052  1.00  0.00    -0.169 OA 
BRANCH  20  21
HETATM   21  C   UNL     1      -6.596   9.428  71.037  1.00  0.00    -0.081 C  
HETATM   22  C   UNL     1      -6.039   8.366  71.987  1.00  0.00    -0.057 C  
ENDBRANCH  20  21
ENDBRANCH   6  20
BRANCH  12  23
HETATM   23  C   UNL     1      -9.187  13.779  66.918  1.00  0.00    -0.255 C  
HETATM   24  C   UNL     1     -10.046  14.122  69.209  1.00  0.00     0.082 C  
HETATM   25  C   UNL     1      -9.641  16.087  67.880  1.00  0.00    -0.219 C  
HETATM   26  N   UNL     1      -9.942  14.669  67.858  1.00  0.00    -0.219 NA 
HETATM   27  C   UNL     1     -10.989  12.935  69.159  1.00  0.00    -0.184 C  
HETATM   28  C   UNL     1     -10.589  11.943  68.098  1.00  0.00    -0.233 A  
HETATM   29  C   UNL     1     -11.140  10.656  68.191  1.00  0.00    -0.343 A  
HETATM   30  C   UNL     1     -10.793   9.736  67.238  1.00  0.00    -0.177 A  
HETATM   31  C   UNL     1      -9.965  10.052  66.187  1.00  0.00    -0.256 A  
HETATM   32  O   UNL     1      -9.766   8.961  65.388  1.00  0.00    -0.079 OA 
HETATM   33  C   UNL     1      -9.439  11.334  66.024  1.00  0.00    -0.216 A  
HETATM   34  C   UNL     1      -9.735  12.314  67.011  1.00  0.00    -0.207 A  
HETATM   35  O   UNL     1     -11.213   8.442  67.222  1.00  0.00     0.233 OA 
HETATM   36  C   UNL     1     -10.427   7.927  66.138  1.00  0.00     0.881 C  
BRANCH  33  37
HETATM   37  O   UNL     1      -8.653  11.728  64.977  1.00  0.00     0.417 OA 
HETATM   38  C   UNL     1      -7.247  11.520  65.081  1.00  0.00     1.450 C  
ENDBRANCH  33  37
ENDBRANCH  12  23
ENDBRANCH   3   4
ENDBRANCH   2   3
TORSDOF 8
ENDMDL
MODEL      183
REMARK 921   NORMALIZED FREE ENERGY PREDICTED BY IDOCK:   24.35 KCAL/MOL
REMARK 922        TOTAL FREE ENERGY PREDICTED BY IDOCK:   34.95 KCAL/MOL
REMARK 923 INTER-LIGAND FREE ENERGY PREDICTED BY IDOCK:   11.42 KCAL/MOL
REMARK 924 INTRA-LIGAND FREE ENERGY PREDICTED BY IDOCK:   23.53 KCAL/MOL
REMARK 927      BINDING AFFINITY PREDICTED BY RF-SCORE:    0.00 PKD
ROOT
HETATM    1  C   UNL     1     -12.673  11.895  65.936  1.00  0.00     2.109 C  
HETATM    2  C   UNL     1     -11.667  11.896  67.075  1.00  0.00    -0.227 C  
ENDROOT
BRANCH   2   3
HETATM    3  O   UNL     1     -10.612  11.010  66.773  1.00  0.00    -0.244 OA 
BRANCH   3   4
HETATM    4  C   UNL     1      -9.408  11.000  67.400  1.00  0.00    -0.155 A  
HETATM    5  C   UNL     1      -8.303  11.505  66.632  1.00  0.00    -0.167 A  
HETATM    6  C   UNL     1      -6.979  11.318  67.111  1.00  0.00    -0.114 A  
HETATM    7  C   UNL     1      -7.930  10.017  70.550  1.00  0.00     0.276 C  
HETATM    8  C   UNL     1      -6.764  10.706  68.379  1.00  0.00    -0.060 A  
HETATM    9  O   UNL     1      -9.226  10.084  70.955  1.00  0.00     0.150 OA 
HETATM   10  O   UNL     1      -6.992   9.644  71.222  1.00  0.00    -0.322 OA 
HETATM   11  N   UNL     1      -5.480  10.668  68.951  1.00  0.00    -0.041 NA 
HETATM   12  C   UNL     1     -10.104  10.554  69.902  1.00  0.00     0.001 C  
HETATM   13  C   UNL     1      -7.898  10.440  69.152  1.00  0.00    -0.134 A  
HETATM   14  H2  UNL     1      -5.122  11.622  68.992  1.00  0.00     0.000 HD 
HETATM   15  H1  UNL     1      -5.326  10.231  69.859  1.00  0.00     0.000 HD 
HETATM   16  C   UNL     1      -9.193  10.638  68.712  1.00  0.00    -0.182 A  
BRANCH   5  17
HETATM   17  O   UNL     1      -8.480  12.285  65.483  1.00  0.00     0.649 OA 
BRANCH  17  18
HETATM   18  C   UNL     1      -9.576  13.220  65.573  1.00  0.00     0.060 C  
HETATM   19  C   UNL     1      -9.846  14.057  64.340  1.00  0.00     0.893 C  
ENDBRANCH  17  18
ENDBRANCH   5  17
BRANCH   6  20
HETATM   20  O   UNL     1      -5.824  11.814  66.538  1.00  0.00    -0.203 OA 
BRANCH  20  21
HETATM   21  C   UNL     1      -5.232  12.962  67.151  1.00  0.00     0.247 C  
HETATM   22  C   UNL     1      -6.191  13.485  68.222  1.00  0.00    -0.105 C  
ENDBRANCH  20  21
ENDBRANCH   6  20
BRANCH  12  23
HETATM   23  C   UNL     1     -10.840  11.902  70.331  1.00  0.00     1.520 C  
HETATM   24  C   UNL     1     -12.889  12.208  68.985  1.00  0.00     1.513 C  
HETATM   25  C   UNL     1     -13.085  10.927  71.012  1.00  0.00    -0.206 C  
HETATM   26  N   UNL     1     -12.336  11.954  70.314  1.00  0.00    -0.247 NA 
HETATM   27  C   UNL     1     -12.573  13.646  68.618  1.00  0.00     0.562 C  
HETATM   28  C   UNL     1     -11.108  13.957  68.770  1.00  0.00    -0.291 A  
HETATM   29  C   UNL     1     -10.632  15.109  68.126  1.00  0.00    -0.246 A  
HETATM   30  C   UNL     1      -9.303  15.415  68.250  1.00  0.00    -0.193 A  
HETATM   31  C   UNL     1      -8.449  14.655  69.013  1.00  0.00    -0.095 A  
HETATM   32  O   UNL     1      -7.181  15.162  68.962  1.00  0.00    -0.126 OA 
HETATM   33  C   UNL     1      -8.889  13.533  69.716  1.00  0.00     1.977 A  
HETATM   34  C   UNL     1     -10.252  13.150  69.585  1.00  0.00     0.965 A  
HETATM   35  O   UNL     1      -8.693  16.472  67.649  1.00  0.00    -0.188 OA 
HETATM   36  C   UNL     1      -7.323  16.204  67.981  1.00  0.00    -0.129 C  
BRANCH  33  37
HETATM   37  O   UNL     1      -8.106  12.766  70.532  1.00  0.00     3.672 OA 
HETATM   38  C   UNL     1      -6.880  12.265  70.004  1.00  0.00     0.505 C  
ENDBRANCH  33  37
ENDBRANCH  12  23
ENDBRANCH   3   4
ENDBRANCH   2   3
TORSDOF 8
ENDMDL
MODEL      184
REMARK 921   NORMALIZED FREE ENERGY PREDICTED BY IDOCK:   26.24 KCAL/MOL
REMARK 922        TOTAL FREE ENERGY PREDICTED BY IDOCK:   37.72 KCAL/MOL
REMARK 923 INTER-LIGAND FREE ENERGY PREDICTED BY IDOCK:   12.06 KCAL/MOL
REMARK 924 INTRA-LIGAND FREE ENERGY PREDICTED BY IDOCK:   25.66 KCAL/MOL
REMARK 927      BINDING AFFINITY PREDICTED BY RF-SCORE:    0.00 PKD
ROOT
HETATM    1  C   UNL     1      -6.091  10.522  70.159  1.00  0.00    -0.105 C  
HETATM    2  C   UNL     1      -5.514   9.628  69.074  1.00  0.00    -0.036 C  
ENDROOT
BRANCH   2   3
HETATM    3  O   UNL     1      -6.455   9.478  68.035  1.00  0.00    -0.060 OA 
BRANCH   3   4
HETATM    4  C   UNL     1      -7.751   9.876  68.103  1.00  0.00    -0.082 A  
HETATM    5  C   UNL     1      -8.619   9.035  68.880  1.00  0.00    -0.131 A  
HETATM    6  C   UNL     1     -10.024   9.236  68.816  1.00  0.00    -0.181 A  
HETATM    7  C   UNL     1      -9.918  12.491  66.862  1.00  0.00    -0.224 C  
HETATM    8  C   UNL     1     -10.551  10.315  68.050  1.00  0.00    -0.231 A  
HETATM    9  O   UNL     1      -8.726  13.118  66.673  1.00  0.00    -0.137 OA 
HETATM   10  O   UNL     1     -11.005  12.912  66.529  1.00  0.00    -0.267 OA 
HETATM   11  N   UNL     1     -11.918  10.641  68.111  1.00  0.00    -0.783 NA 
HETATM   12  C   UNL     1      -7.612  12.336  67.169  1.00  0.00    -0.118 C  
HETATM   13  C   UNL     1      -9.628  11.210  67.501  1.00  0.00    -0.181 A  
HETATM   14  H2  UNL     1     -12.164  10.793  69.089  1.00  0.00     0.000 HD 
HETATM   15  H1  UNL     1     -12.295  11.414  67.563  1.00  0.00     0.000 HD 
HETATM   16  C   UNL     1      -8.257  11.043  67.574  1.00  0.00    -0.117 A  
BRANCH   5  17
HETATM   17  O   UNL     1      -8.133   8.095  69.797  1.00  0.00    -0.112 OA 
BRANCH  17  18
HETATM   18  C   UNL     1      -7.738   8.664  71.064  1.00  0.00    -0.108 C  
HETATM   19  C   UNL     1      -6.372   8.263  71.581  1.00  0.00    -0.049 C  
ENDBRANCH  17  18
ENDBRANCH   5  17
BRANCH   6  20
HETATM   20  O   UNL     1     -10.981   8.574  69.561  1.00  0.00    -0.173 OA 
BRANCH  20  21
HETATM   21  C   UNL     1     -10.574   8.048  70.827  1.00  0.00    -0.214 C  
HETATM   22  C   UNL     1      -9.449   7.038  70.590  1.00  0.00    -0.165 C  
ENDBRANCH  20  21
ENDBRANCH   6  20
BRANCH  12  23
HETATM   23  C   UNL     1      -6.824  13.124  68.309  1.00  0.00    -0.103 C  
HETATM   24  C   UNL     1      -8.010  12.898  70.464  1.00  0.00     4.844 C  
HETATM   25  C   UNL     1      -6.407  11.193  69.907  1.00  0.00    -0.141 C  
HETATM   26  N   UNL     1      -6.808  12.571  69.701  1.00  0.00     0.076 NA 
HETATM   27  C   UNL     1      -7.975  14.383  70.773  1.00  0.00     2.418 C  
HETATM   28  C   UNL     1      -7.761  15.210  69.533  1.00  0.00    -0.197 A  
HETATM   29  C   UNL     1      -8.072  16.576  69.618  1.00  0.00     0.451 A  
HETATM   30  C   UNL     1      -7.885  17.351  68.505  1.00  0.00    -0.268 A  
HETATM   31  C   UNL     1      -7.369  16.837  67.339  1.00  0.00    -0.160 A  
HETATM   32  O   UNL     1      -7.294  17.808  66.379  1.00  0.00    -0.226 OA 
HETATM   33  C   UNL     1      -6.993  15.499  67.225  1.00  0.00    -0.171 A  
HETATM   34  C   UNL     1      -7.207  14.643  68.341  1.00  0.00    -0.117 A  
HETATM   35  O   UNL     1      -8.182  18.676  68.425  1.00  0.00    -0.314 OA 
HETATM   36  C   UNL     1      -7.952  18.910  67.028  1.00  0.00    -0.252 C  
BRANCH  33  37
HETATM   37  O   UNL     1      -6.427  14.938  66.116  1.00  0.00     2.829 OA 
HETATM   38  C   UNL     1      -5.324  15.612  65.514  1.00  0.00     6.870 C  
ENDBRANCH  33  37
ENDBRANCH  12  23
ENDBRANCH   3   4
ENDBRANCH   2   3
TORSDOF 8
ENDMDL
MODEL      185
REMARK 921   NORMALIZED FREE ENERGY PREDICTED BY IDOCK:   26.29 KCAL/MOL
REMARK 922        TOTAL FREE ENERGY PREDICTED BY IDOCK:   37.80 KCAL/MOL
REMARK 923 INTER-LIGAND FREE ENERGY PREDICTED BY IDOCK:   20.66 KCAL/MOL
REMARK 924 INTRA-LIGAND FREE ENERGY PREDICTED BY IDOCK:   17.14 KCAL/MOL
REMARK 927      BINDING AFFINITY PREDICTED BY RF-SCORE:    0.00 PKD
ROOT
HETATM    1  C   UNL     1      -8.302  14.624  70.436  1.00  0.00     1.439 C  
HETATM    2  C   UNL     1      -8.587  13.153  70.688  1.00  0.00     6.699 C  
ENDROOT
BRANCH   2   3
HETATM    3  O   UNL     1      -7.695  12.363  69.932  1.00  0.00     1.101 OA 
BRANCH   3   4
HETATM    4  C   UNL     1      -8.070  11.459  68.993  1.00  0.00    -0.001 A  
HETATM    5  C   UNL     1      -8.551  10.202  69.498  1.00  0.00    -0.164 A  
HETATM    6  C   UNL     1      -8.741   9.117  68.600  1.00  0.00    -0.129 A  
HETATM    7  C   UNL     1      -8.229  11.096  65.399  1.00  0.00     0.159 C  
HETATM    8  C   UNL     1      -8.532   9.308  67.204  1.00  0.00    -0.124 A  
HETATM    9  O   UNL     1      -8.161  12.452  65.456  1.00  0.00     1.309 OA 
HETATM   10  O   UNL     1      -8.222  10.423  64.390  1.00  0.00    -0.165 OA 
HETATM   11  N   UNL     1      -8.880   8.306  66.281  1.00  0.00    -0.152 NA 
HETATM   12  C   UNL     1      -8.170  12.943  66.819  1.00  0.00     0.097 C  
HETATM   13  C   UNL     1      -8.272  10.614  66.778  1.00  0.00    -0.130 A  
HETATM   14  H2  UNL     1      -9.860   8.067  66.427  1.00  0.00     0.000 HD 
HETATM   15  H1  UNL     1      -8.730   8.443  65.282  1.00  0.00     0.000 HD 
HETATM   16  C   UNL     1      -8.108  11.685  67.635  1.00  0.00    -0.140 A  
BRANCH   5  17
HETATM   17  O   UNL     1      -8.959  10.031  70.827  1.00  0.00     0.096 OA 
BRANCH  17  18
HETATM   18  C   UNL     1     -10.320   9.572  70.967  1.00  0.00    -0.283 C  
HETATM   19  C   UNL     1     -11.404  10.601  70.721  1.00  0.00    -0.195 C  
ENDBRANCH  17  18
ENDBRANCH   5  17
BRANCH   6  20
HETATM   20  O   UNL     1      -9.275   7.881  68.911  1.00  0.00    -0.144 OA 
BRANCH  20  21
HETATM   21  C   UNL     1      -8.392   6.758  68.865  1.00  0.00    -0.121 C  
HETATM   22  C   UNL     1      -7.183   7.130  68.003  1.00  0.00    -0.091 C  
ENDBRANCH  20  21
ENDBRANCH   6  20
BRANCH  12  23
HETATM   23  C   UNL     1      -9.425  13.894  67.075  1.00  0.00    -0.254 C  
HETATM   24  C   UNL     1     -10.544  13.263  69.185  1.00  0.00     0.025 C  
HETATM   25  C   UNL     1      -8.743  14.851  69.327  1.00  0.00    -0.097 C  
HETATM   26  N   UNL     1      -9.772  14.283  68.479  1.00  0.00    -0.224 NA 
HETATM   27  C   UNL     1     -11.933  13.225  68.574  1.00  0.00    -0.340 C  
HETATM   28  C   UNL     1     -11.884  13.067  67.077  1.00  0.00    -0.437 A  
HETATM   29  C   UNL     1     -13.066  12.654  66.443  1.00  0.00     2.394 A  
HETATM   30  C   UNL     1     -13.048  12.504  65.082  1.00  0.00     0.626 A  
HETATM   31  C   UNL     1     -11.931  12.785  64.332  1.00  0.00    -0.399 A  
HETATM   32  O   UNL     1     -12.169  12.543  63.008  1.00  0.00    -0.340 OA 
HETATM   33  C   UNL     1     -10.752  13.251  64.913  1.00  0.00    -0.351 A  
HETATM   34  C   UNL     1     -10.706  13.384  66.329  1.00  0.00    -0.290 A  
HETATM   35  O   UNL     1     -14.102  12.071  64.337  1.00  0.00     0.816 OA 
HETATM   36  C   UNL     1     -13.478  11.950  63.051  1.00  0.00     1.334 C  
BRANCH  33  37
HETATM   37  O   UNL     1      -9.625  13.598  64.223  1.00  0.00     0.263 OA 
HETATM   38  C   UNL     1      -9.744  13.831  62.821  1.00  0.00     8.872 C  
ENDBRANCH  33  37
ENDBRANCH  12  23
ENDBRANCH   3   4
ENDBRANCH   2   3
TORSDOF 8
ENDMDL
MODEL      186
REMARK 921   NORMALIZED FREE ENERGY PREDICTED BY IDOCK:   29.83 KCAL/MOL
REMARK 922        TOTAL FREE ENERGY PREDICTED BY IDOCK:   42.99 KCAL/MOL
REMARK 923 INTER-LIGAND FREE ENERGY PREDICTED BY IDOCK:   24.18 KCAL/MOL
REMARK 924 INTRA-LIGAND FREE ENERGY PREDICTED BY IDOCK:   18.82 KCAL/MOL
REMARK 927      BINDING AFFINITY PREDICTED BY RF-SCORE:    0.00 PKD
ROOT
HETATM    1  C   UNL     1      -5.397  15.599  68.360  1.00  0.00    -0.104 C  
HETATM    2  C   UNL     1      -6.487  14.737  68.976  1.00  0.00    -0.096 C  
ENDROOT
BRANCH   2   3
HETATM    3  O   UNL     1      -6.130  13.377  68.871  1.00  0.00    -0.077 OA 
BRANCH   3   4
HETATM    4  C   UNL     1      -6.996  12.370  68.593  1.00  0.00    -0.091 A  
HETATM    5  C   UNL     1      -7.546  11.690  69.734  1.00  0.00     0.745 A  
HETATM    6  C   UNL     1      -8.270  10.483  69.545  1.00  0.00    -0.079 A  
HETATM    7  C   UNL     1      -8.450  10.666  65.755  1.00  0.00    -0.178 C  
HETATM    8  C   UNL     1      -8.512  10.002  68.226  1.00  0.00    -0.111 A  
HETATM    9  O   UNL     1      -8.063  11.805  65.122  1.00  0.00     0.795 OA 
HETATM   10  O   UNL     1      -8.940   9.689  65.229  1.00  0.00    -0.175 OA 
HETATM   11  N   UNL     1      -9.370   8.911  68.005  1.00  0.00    -0.142 NA 
HETATM   12  C   UNL     1      -7.496  12.774  66.038  1.00  0.00     2.387 C  
HETATM   13  C   UNL     1      -8.127  10.834  67.170  1.00  0.00    -0.124 A  
HETATM   14  H2  UNL     1     -10.269   9.121  68.437  1.00  0.00     0.000 HD 
HETATM   15  H1  UNL     1      -9.544   8.567  67.060  1.00  0.00     0.000 HD 
HETATM   16  C   UNL     1      -7.443  12.024  67.337  1.00  0.00    -0.152 A  
BRANCH   5  17
HETATM   17  O   UNL     1      -7.503  12.232  71.025  1.00  0.00     3.800 OA 
BRANCH  17  18
HETATM   18  C   UNL     1      -6.907  13.546  71.089  1.00  0.00     2.089 C  
HETATM   19  C   UNL     1      -5.463  13.650  70.646  1.00  0.00    -0.150 C  
ENDBRANCH  17  18
ENDBRANCH   5  17
BRANCH   6  20
HETATM   20  O   UNL     1      -8.929   9.761  70.521  1.00  0.00    -0.187 OA 
BRANCH  20  21
HETATM   21  C   UNL     1     -10.356   9.734  70.463  1.00  0.00    -0.283 C  
HETATM   22  C   UNL     1     -10.857   8.644  71.413  1.00  0.00    -0.339 C  
ENDBRANCH  20  21
ENDBRANCH   6  20
BRANCH  12  23
HETATM   23  C   UNL     1      -8.340  14.127  66.033  1.00  0.00     1.457 C  
HETATM   24  C   UNL     1      -7.641  15.563  67.917  1.00  0.00    -0.133 C  
HETATM   25  C   UNL     1      -6.425  15.786  65.853  1.00  0.00     4.070 C  
HETATM   26  N   UNL     1      -7.681  15.400  66.466  1.00  0.00     0.091 NA 
HETATM   27  C   UNL     1      -9.057  15.828  68.394  1.00  0.00    -0.188 C  
HETATM   28  C   UNL     1     -10.022  14.785  67.895  1.00  0.00    -0.213 A  
HETATM   29  C   UNL     1     -11.261  14.700  68.549  1.00  0.00    -0.288 A  
HETATM   30  C   UNL     1     -12.157  13.761  68.113  1.00  0.00    -0.281 A  
HETATM   31  C   UNL     1     -11.891  12.942  67.042  1.00  0.00    -0.374 A  
HETATM   32  O   UNL     1     -12.936  12.090  66.819  1.00  0.00     1.908 OA 
HETATM   33  C   UNL     1     -10.697  13.029  66.327  1.00  0.00    -0.276 A  
HETATM   34  C   UNL     1      -9.715  13.960  66.766  1.00  0.00    -0.282 A  
HETATM   35  O   UNL     1     -13.376  13.535  68.675  1.00  0.00     2.368 OA 
HETATM   36  C   UNL     1     -13.785  12.369  67.945  1.00  0.00     9.304 C  
BRANCH  33  37
HETATM   37  O   UNL     1     -10.391  12.283  65.223  1.00  0.00    -0.268 OA 
HETATM   38  C   UNL     1     -11.469  11.743  64.462  1.00  0.00    -0.250 C  
ENDBRANCH  33  37
ENDBRANCH  12  23
ENDBRANCH   3   4
ENDBRANCH   2   3
TORSDOF 8
ENDMDL
MODEL      187
REMARK 921   NORMALIZED FREE ENERGY PREDICTED BY IDOCK:   37.28 KCAL/MOL
REMARK 922        TOTAL FREE ENERGY PREDICTED BY IDOCK:   53.93 KCAL/MOL
REMARK 923 INTER-LIGAND FREE ENERGY PREDICTED BY IDOCK:   17.16 KCAL/MOL
REMARK 924 INTRA-LIGAND FREE ENERGY PREDICTED BY IDOCK:   36.78 KCAL/MOL
REMARK 927      BINDING AFFINITY PREDICTED BY RF-SCORE:    0.00 PKD
ROOT
HETATM    1  C   UNL     1      -8.944  15.877  65.816  1.00  0.00    -0.095 C  
HETATM    2  C   UNL     1      -7.712  15.098  66.247  1.00  0.00     1.289 C  
ENDROOT
BRANCH   2   3
HETATM    3  O   UNL     1      -7.795  14.806  67.624  1.00  0.00    -0.144 OA 
BRANCH   3   4
HETATM    4  C   UNL     1      -8.952  14.579  68.297  1.00  0.00    -0.184 A  
HETATM    5  C   UNL     1      -9.894  15.665  68.297  1.00  0.00    -0.209 A  
HETATM    6  C   UNL     1     -11.019  15.612  69.162  1.00  0.00    -0.259 A  
HETATM    7  C   UNL     1     -10.555  12.009  70.271  1.00  0.00     1.855 C  
HETATM    8  C   UNL     1     -11.246  14.453  69.959  1.00  0.00    -0.141 A  
HETATM    9  O   UNL     1      -9.641  11.227  69.636  1.00  0.00     0.331 OA 
HETATM   10  O   UNL     1     -11.325  11.647  71.135  1.00  0.00     1.037 OA 
HETATM   11  N   UNL     1     -12.438  14.304  70.688  1.00  0.00    -0.337 NA 
HETATM   12  C   UNL     1      -8.862  11.972  68.669  1.00  0.00    -0.021 C  
HETATM   13  C   UNL     1     -10.400  13.361  69.740  1.00  0.00     0.929 A  
HETATM   14  H2  UNL     1     -13.220  14.404  70.042  1.00  0.00     0.000 HD 
HETATM   15  H1  UNL     1     -12.600  13.473  71.259  1.00  0.00     0.000 HD 
HETATM   16  C   UNL     1      -9.315  13.387  68.884  1.00  0.00     0.211 A  
BRANCH   5  17
HETATM   17  O   UNL     1      -9.817  16.728  67.387  1.00  0.00    -0.243 OA 
BRANCH  17  18
HETATM   18  C   UNL     1     -10.825  17.741  67.584  1.00  0.00    -0.224 C  
HETATM   19  C   UNL     1     -11.567  17.702  68.904  1.00  0.00     1.775 C  
ENDBRANCH  17  18
ENDBRANCH   5  17
BRANCH   6  20
HETATM   20  O   UNL     1     -12.052  16.527  69.219  1.00  0.00     0.146 OA 
BRANCH  20  21
HETATM   21  C   UNL     1     -11.720  17.902  69.012  1.00  0.00     2.985 C  
HETATM   22  C   UNL     1     -11.087  18.443  70.296  1.00  0.00     3.063 C  
ENDBRANCH  20  21
ENDBRANCH   6  20
BRANCH  12  23
HETATM   23  C   UNL     1      -9.055  11.380  67.201  1.00  0.00    -0.164 C  
HETATM   24  C   UNL     1      -7.038  11.817  65.844  1.00  0.00     0.900 C  
HETATM   25  C   UNL     1      -7.068   9.797  67.150  1.00  0.00    -0.086 C  
HETATM   26  N   UNL     1      -7.872  10.804  66.485  1.00  0.00    -0.139 NA 
HETATM   27  C   UNL     1      -7.811  12.377  64.664  1.00  0.00     4.370 C  
HETATM   28  C   UNL     1      -9.187  12.841  65.062  1.00  0.00     0.705 A  
HETATM   29  C   UNL     1      -9.851  13.698  64.171  1.00  0.00     1.085 A  
HETATM   30  C   UNL     1     -11.105  14.133  64.509  1.00  0.00    -0.330 A  
HETATM   31  C   UNL     1     -11.732  13.723  65.661  1.00  0.00    -0.347 A  
HETATM   32  O   UNL     1     -12.963  14.308  65.771  1.00  0.00    -0.436 OA 
HETATM   33  C   UNL     1     -11.133  12.829  66.548  1.00  0.00    -0.286 A  
HETATM   34  C   UNL     1      -9.814  12.380  66.263  1.00  0.00    -0.257 A  
HETATM   35  O   UNL     1     -11.849  14.998  63.768  1.00  0.00    -0.215 OA 
HETATM   36  C   UNL     1     -12.952  15.220  64.659  1.00  0.00     0.835 C  
BRANCH  33  37
HETATM   37  O   UNL     1     -11.721  12.341  67.681  1.00  0.00    -0.340 OA 
HETATM   38  C   UNL     1     -11.804  10.927  67.835  1.00  0.00     0.100 C  
ENDBRANCH  33  37
ENDBRANCH  12  23
ENDBRANCH   3   4
ENDBRANCH   2   3
TORSDOF 8
ENDMDL
MODEL      188
REMARK 921   NORMALIZED FREE ENERGY PREDICTED BY IDOCK:   41.32 KCAL/MOL
REMARK 922        TOTAL FREE ENERGY PREDICTED BY IDOCK:   59.86 KCAL/MOL
REMARK 923 INTER-LIGAND FREE ENERGY PREDICTED BY IDOCK:   30.88 KCAL/MOL
REMARK 924 INTRA-LIGAND FREE ENERGY PREDICTED BY IDOCK:   28.98 KCAL/MOL
REMARK 927      BINDING AFFINITY PREDICTED BY RF-SCORE:    0.00 PKD
ROOT
HETATM    1  C   UNL     1     -10.175  20.331  70.103  1.00  0.00     0.664 C  
HETATM    2  C   UNL     1     -11.004  19.057  70.123  1.00  0.00     2.878 C  
ENDROOT
BRANCH   2   3
HETATM    3  O   UNL     1     -11.314  18.675  68.801  1.00  0.00     1.328 OA 
BRANCH   3   4
HETATM    4  C   UNL     1     -10.522  17.903  68.015  1.00  0.00    -0.382 A  
HETATM    5  C   UNL     1      -9.288  18.507  67.591  1.00  0.00    -0.281 A  
HETATM    6  C   UNL     1      -8.511  17.874  66.584  1.00  0.00    -0.258 A  
HETATM    7  C   UNL     1     -10.488  14.632  66.473  1.00  0.00    -0.290 C  
HETATM    8  C   UNL     1      -8.920  16.612  66.064  1.00  0.00    -0.213 A  
HETATM    9  O   UNL     1     -11.429  14.391  67.425  1.00  0.00    -0.323 OA 
HETATM   10  O   UNL     1     -10.140  13.862  65.603  1.00  0.00    -0.310 OA 
HETATM   11  N   UNL     1      -8.083  15.886  65.198  1.00  0.00     2.526 NA 
HETATM   12  C   UNL     1     -11.623  15.526  68.303  1.00  0.00    -0.334 C  
HETATM   13  C   UNL     1     -10.014  15.998  66.681  1.00  0.00    -0.277 A  
HETATM   14  H2  UNL     1      -7.180  15.765  65.658  1.00  0.00     0.000 HD 
HETATM   15  H1  UNL     1      -8.375  14.983  64.826  1.00  0.00     0.000 HD 
HETATM   16  C   UNL     1     -10.766  16.589  67.679  1.00  0.00    -0.311 A  
BRANCH   5  17
HETATM   17  O   UNL     1      -8.751  19.639  68.217  1.00  0.00    -0.326 OA 
BRANCH  17  18
HETATM   18  C   UNL     1      -8.534  20.753  67.325  1.00  0.00    -0.127 C  
HETATM   19  C   UNL     1      -9.759  21.299  66.623  1.00  0.00     1.012 C  
ENDBRANCH  17  18
ENDBRANCH   5  17
BRANCH   6  20
HETATM   20  O   UNL     1      -7.270  18.278  66.132  1.00  0.00    -0.235 OA 
BRANCH  20  21
HETATM   21  C   UNL     1      -6.648  17.476  65.126  1.00  0.00     1.297 C  
HETATM   22  C   UNL     1      -5.338  16.923  65.691  1.00  0.00     1.379 C  
ENDBRANCH  20  21
ENDBRANCH   6  20
BRANCH  12  23
HETATM   23  C   UNL     1     -11.290  15.143  69.815  1.00  0.00    -0.285 C  
HETATM   24  C   UNL     1     -13.349  15.228  71.177  1.00  0.00    -0.498 C  
HETATM   25  C   UNL     1     -12.848  13.152  70.069  1.00  0.00     0.390 C  
HETATM   26  N   UNL     1     -12.302  14.379  70.613  1.00  0.00    -0.328 NA 
HETATM   27  C   UNL     1     -12.726  16.066  72.278  1.00  0.00    -0.477 C  
HETATM   28  C   UNL     1     -11.500  16.798  71.802  1.00  0.00     0.237 A  
HETATM   29  C   UNL     1     -11.053  17.870  72.589  1.00  0.00     2.523 A  
HETATM   30  C   UNL     1      -9.939  18.552  72.178  1.00  0.00     5.919 A  
HETATM   31  C   UNL     1      -9.236  18.188  71.054  1.00  0.00     5.979 A  
HETATM   32  O   UNL     1      -8.178  19.032  70.856  1.00  0.00     2.978 OA 
HETATM   33  C   UNL     1      -9.610  17.096  70.272  1.00  0.00     1.942 A  
HETATM   34  C   UNL     1     -10.786  16.381  70.633  1.00  0.00     0.188 A  
HETATM   35  O   UNL     1      -9.416  19.635  72.813  1.00  0.00     2.686 OA 
HETATM   36  C   UNL     1      -8.400  20.020  71.876  1.00  0.00     2.632 C  
BRANCH  33  37
HETATM   37  O   UNL     1      -8.928  16.650  69.175  1.00  0.00    -0.239 OA 
HETATM   38  C   UNL     1      -7.534  16.938  69.092  1.00  0.00    -0.180 C  
ENDBRANCH  33  37
ENDBRANCH  12  23
ENDBRANCH   3   4
ENDBRANCH   2   3
TORSDOF 8
ENDMDL
MODEL      189
REMARK 921   NORMALIZED FREE ENERGY PREDICTED BY IDOCK:   42.61 KCAL/MOL
REMARK 922        TOTAL FREE ENERGY PREDICTED BY IDOCK:   61.76 KCAL/MOL
REMARK 923 INTER-LIGAND FREE ENERGY PREDICTED BY IDOCK:   26.30 KCAL/MOL
REMARK 924 INTRA-LIGAND FREE ENERGY PREDICTED BY IDOCK:   35.46 KCAL/MOL
REMARK 927      BINDING AFFINITY PREDICTED BY RF-SCORE:    0.00 PKD
ROOT
HETATM    1  C   UNL     1     -12.640  10.972  66.352  1.00  0.00     4.593 C  
HETATM    2  C   UNL     1     -11.302  10.747  65.667  1.00  0.00     0.567 C  
ENDROOT
BRANCH   2   3
HETATM    3  O   UNL     1     -10.261  10.888  66.608  1.00  0.00    -0.218 OA 
BRANCH   3   4
HETATM    4  C   UNL     1      -9.042  10.301  66.504  1.00  0.00    -0.148 A  
HETATM    5  C   UNL     1      -8.073  11.015  65.718  1.00  0.00    -0.038 A  
HETATM    6  C   UNL     1      -6.857  10.374  65.359  1.00  0.00    -0.120 A  
HETATM    7  C   UNL     1      -7.301   7.315  67.568  1.00  0.00    -0.092 C  
HETATM    8  C   UNL     1      -6.576   9.065  65.847  1.00  0.00    -0.064 A  
HETATM    9  O   UNL     1      -8.306   7.293  68.483  1.00  0.00    -0.124 OA 
HETATM   10  O   UNL     1      -6.448   6.466  67.425  1.00  0.00    -0.045 OA 
HETATM   11  N   UNL     1      -5.313   8.481  65.652  1.00  0.00    -0.034 NA 
HETATM   12  C   UNL     1      -9.169   8.452  68.377  1.00  0.00    -0.135 C  
HETATM   13  C   UNL     1      -7.475   8.531  66.776  1.00  0.00    -0.083 A  
HETATM   14  H2  UNL     1      -4.608   9.117  66.023  1.00  0.00     0.000 HD 
HETATM   15  H1  UNL     1      -5.111   7.544  66.001  1.00  0.00     0.000 HD 
HETATM   16  C   UNL     1      -8.650   9.152  67.154  1.00  0.00    -0.122 A  
BRANCH   5  17
HETATM   17  O   UNL     1      -8.222  12.368  65.388  1.00  0.00     1.320 OA 
BRANCH  17  18
HETATM   18  C   UNL     1      -7.780  13.275  66.420  1.00  0.00     1.407 C  
HETATM   19  C   UNL     1      -6.638  14.200  66.055  1.00  0.00     6.141 C  
ENDBRANCH  17  18
ENDBRANCH   5  17
BRANCH   6  20
HETATM   20  O   UNL     1      -5.796  10.948  64.686  1.00  0.00    -0.011 OA 
BRANCH  20  21
HETATM   21  C   UNL     1      -6.003  12.247  64.127  1.00  0.00     6.760 C  
HETATM   22  C   UNL     1      -5.899  13.278  65.253  1.00  0.00    10.165 C  
ENDBRANCH  20  21
ENDBRANCH   6  20
BRANCH  12  23
HETATM   23  C   UNL     1      -9.166   9.293  69.732  1.00  0.00    -0.181 C  
HETATM   24  C   UNL     1     -10.724   8.278  71.357  1.00  0.00    -0.227 C  
HETATM   25  C   UNL     1      -8.464   7.453  71.337  1.00  0.00    -0.113 C  
HETATM   26  N   UNL     1      -9.330   8.576  71.036  1.00  0.00    -0.170 NA 
HETATM   27  C   UNL     1     -11.415   9.587  71.690  1.00  0.00    -0.433 C  
HETATM   28  C   UNL     1     -11.215  10.618  70.611  1.00  0.00    -0.182 A  
HETATM   29  C   UNL     1     -12.086  11.719  70.614  1.00  0.00    -0.407 A  
HETATM   30  C   UNL     1     -11.924  12.672  69.644  1.00  0.00    -0.286 A  
HETATM   31  C   UNL     1     -10.919  12.596  68.709  1.00  0.00    -0.249 A  
HETATM   32  O   UNL     1     -10.982  13.658  67.851  1.00  0.00    -0.249 OA 
HETATM   33  C   UNL     1      -9.997  11.550  68.702  1.00  0.00    -0.199 A  
HETATM   34  C   UNL     1     -10.148  10.513  69.663  1.00  0.00    -0.177 A  
HETATM   35  O   UNL     1     -12.716  13.768  69.496  1.00  0.00    -0.065 OA 
HETATM   36  C   UNL     1     -12.204  14.294  68.263  1.00  0.00    -0.146 C  
BRANCH  33  37
HETATM   37  O   UNL     1      -8.945  11.442  67.836  1.00  0.00    -0.143 OA 
HETATM   38  C   UNL     1      -8.422  12.640  67.267  1.00  0.00    -0.193 C  
ENDBRANCH  33  37
ENDBRANCH  12  23
ENDBRANCH   3   4
ENDBRANCH   2   3
TORSDOF 8
ENDMDL
MODEL      190
REMARK 921   NORMALIZED FREE ENERGY PREDICTED BY IDOCK:   49.07 KCAL/MOL
REMARK 922        TOTAL FREE ENERGY PREDICTED BY IDOCK:   71.23 KCAL/MOL
REMARK 923 INTER-LIGAND FREE ENERGY PREDICTED BY IDOCK:   46.65 KCAL/MOL
REMARK 924 INTRA-LIGAND FREE ENERGY PREDICTED BY IDOCK:   24.58 KCAL/MOL
REMARK 927      BINDING AFFINITY PREDICTED BY RF-SCORE:    0.00 PKD
ROOT
HETATM    1  C   UNL     1     -12.542  16.244  70.974  1.00  0.00     0.543 C  
HETATM    2  C   UNL     1     -11.973  15.587  72.221  1.00  0.00    -0.450 C  
ENDROOT
BRANCH   2   3
HETATM    3  O   UNL     1     -11.438  14.326  71.889  1.00  0.00     0.318 OA 
BRANCH   3   4
HETATM    4  C   UNL     1     -10.960  13.988  70.665  1.00  0.00     0.813 A  
HETATM    5  C   UNL     1      -9.956  14.865  70.126  1.00  0.00     0.258 A  
HETATM    6  C   UNL     1      -9.570  14.730  68.766  1.00  0.00    -0.215 A  
HETATM    7  C   UNL     1     -11.426  11.484  68.098  1.00  0.00    -0.315 C  
HETATM    8  C   UNL     1     -10.119  13.681  67.974  1.00  0.00    -0.250 A  
HETATM    9  O   UNL     1     -11.976  10.803  69.139  1.00  0.00    -0.304 OA 
HETATM   10  O   UNL     1     -11.394  11.117  66.943  1.00  0.00    -0.369 OA 
HETATM   11  N   UNL     1      -9.626  13.419  66.684  1.00  0.00    -0.264 NA 
HETATM   12  C   UNL     1     -11.866  11.530  70.387  1.00  0.00    -0.320 C  
HETATM   13  C   UNL     1     -10.924  12.747  68.634  1.00  0.00    -0.295 A  
HETATM   14  H2  UNL     1      -8.619  13.273  66.752  1.00  0.00     0.000 HD 
HETATM   15  H1  UNL     1     -10.020  12.668  66.117  1.00  0.00     0.000 HD 
HETATM   16  C   UNL     1     -11.290  12.850  69.963  1.00  0.00     0.052 A  
BRANCH   5  17
HETATM   17  O   UNL     1      -9.248  15.776  70.920  1.00  0.00     1.592 OA 
BRANCH  17  18
HETATM   18  C   UNL     1      -9.293  17.134  70.435  1.00  0.00     2.754 C  
HETATM   19  C   UNL     1      -8.012  17.674  69.834  1.00  0.00     1.513 C  
ENDBRANCH  17  18
ENDBRANCH   5  17
BRANCH   6  20
HETATM   20  O   UNL     1      -8.567  15.432  68.126  1.00  0.00    -0.149 OA 
BRANCH  20  21
HETATM   21  C   UNL     1      -8.209  16.703  68.671  1.00  0.00    -0.245 C  
HETATM   22  C   UNL     1      -9.493  17.493  68.937  1.00  0.00    -0.189 C  
ENDBRANCH  20  21
ENDBRANCH   6  20
BRANCH  12  23
HETATM   23  C   UNL     1     -11.026  10.700  71.459  1.00  0.00     1.849 C  
HETATM   24  C   UNL     1      -8.642  10.660  70.814  1.00  0.00     2.770 C  
HETATM   25  C   UNL     1      -9.386  12.509  72.162  1.00  0.00    20.965 C  
HETATM   26  N   UNL     1      -9.629  11.130  71.783  1.00  0.00     8.582 NA 
HETATM   27  C   UNL     1      -8.499   9.159  70.986  1.00  0.00    -0.221 C  
HETATM   28  C   UNL     1      -9.831   8.458  70.932  1.00  0.00    -0.223 A  
HETATM   29  C   UNL     1      -9.811   7.073  70.710  1.00  0.00    -0.190 A  
HETATM   30  C   UNL     1     -11.009   6.411  70.658  1.00  0.00    -0.298 A  
HETATM   31  C   UNL     1     -12.207   7.056  70.858  1.00  0.00    -0.342 A  
HETATM   32  O   UNL     1     -13.249   6.179  70.742  1.00  0.00     1.226 OA 
HETATM   33  C   UNL     1     -12.271   8.421  71.137  1.00  0.00    -0.226 A  
HETATM   34  C   UNL     1     -11.057   9.161  71.160  1.00  0.00    -0.393 A  
HETATM   35  O   UNL     1     -11.149   5.081  70.408  1.00  0.00     0.217 OA 
HETATM   36  C   UNL     1     -12.577   4.985  70.307  1.00  0.00     8.608 C  
BRANCH  33  37
HETATM   37  O   UNL     1     -13.421   9.112  71.397  1.00  0.00    -0.350 OA 
HETATM   38  C   UNL     1     -13.559  10.415  70.836  1.00  0.00     0.199 C  
ENDBRANCH  33  37
ENDBRANCH  12  23
ENDBRANCH   3   4
ENDBRANCH   2   3
TORSDOF 8
ENDMDL
MODEL      191
REMARK 921   NORMALIZED FREE ENERGY PREDICTED BY IDOCK:   49.89 KCAL/MOL
REMARK 922        TOTAL FREE ENERGY PREDICTED BY IDOCK:   72.43 KCAL/MOL
REMARK 923 INTER-LIGAND FREE ENERGY PREDICTED BY IDOCK:   50.34 KCAL/MOL
REMARK 924 INTRA-LIGAND FREE ENERGY PREDICTED BY IDOCK:   22.09 KCAL/MOL
REMARK 927      BINDING AFFINITY PREDICTED BY RF-SCORE:    0.00 PKD
ROOT
HETATM    1  C   UNL     1      -9.427   9.122  67.077  1.00  0.00    -0.201 C  
HETATM    2  C   UNL     1      -8.262   8.353  67.678  1.00  0.00    -0.126 C  
ENDROOT
BRANCH   2   3
HETATM    3  O   UNL     1      -7.439   9.237  68.406  1.00  0.00    -0.077 OA 
BRANCH   3   4
HETATM    4  C   UNL     1      -7.451  10.588  68.277  1.00  0.00    -0.090 A  
HETATM    5  C   UNL     1      -7.187  11.088  66.955  1.00  0.00    -0.123 A  
HETATM    6  C   UNL     1      -6.947  12.475  66.769  1.00  0.00     0.386 A  
HETATM    7  C   UNL     1      -7.903  13.563  70.281  1.00  0.00     2.481 C  
HETATM    8  C   UNL     1      -7.049  13.366  67.877  1.00  0.00    -0.137 A  
HETATM    9  O   UNL     1      -8.495  12.671  71.118  1.00  0.00     8.842 OA 
HETATM   10  O   UNL     1      -7.708  14.737  70.512  1.00  0.00     0.561 OA 
HETATM   11  N   UNL     1      -6.988  14.757  67.688  1.00  0.00    -0.173 NA 
HETATM   12  C   UNL     1      -8.556  11.341  70.547  1.00  0.00     3.865 C  
HETATM   13  C   UNL     1      -7.517  12.827  69.079  1.00  0.00     0.103 A  
HETATM   14  H2  UNL     1      -7.699  15.017  67.004  1.00  0.00     0.000 HD 
HETATM   15  H1  UNL     1      -7.062  15.395  68.481  1.00  0.00     0.000 HD 
HETATM   16  C   UNL     1      -7.779  11.483  69.270  1.00  0.00     0.105 A  
BRANCH   5  17
HETATM   17  O   UNL     1      -7.275  10.280  65.814  1.00  0.00    -0.121 OA 
BRANCH  17  18
HETATM   18  C   UNL     1      -7.951  10.907  64.704  1.00  0.00     0.284 C  
HETATM   19  C   UNL     1      -8.347   9.997  63.559  1.00  0.00    -0.171 C  
ENDBRANCH  17  18
ENDBRANCH   5  17
BRANCH   6  20
HETATM   20  O   UNL     1      -6.765  13.120  65.561  1.00  0.00     5.205 OA 
BRANCH  20  21
HETATM   21  C   UNL     1      -6.044  12.417  64.547  1.00  0.00     7.508 C  
HETATM   22  C   UNL     1      -5.349  11.216  65.194  1.00  0.00     0.212 C  
ENDBRANCH  20  21
ENDBRANCH   6  20
BRANCH  12  23
HETATM   23  C   UNL     1     -10.066  10.848  70.408  1.00  0.00     1.255 C  
HETATM   24  C   UNL     1     -10.477  10.026  68.115  1.00  0.00    -0.211 C  
HETATM   25  C   UNL     1      -9.634   8.442  69.717  1.00  0.00    -0.170 C  
HETATM   26  N   UNL     1     -10.373   9.675  69.529  1.00  0.00    -0.207 NA 
HETATM   27  C   UNL     1     -11.749  10.832  67.928  1.00  0.00    -0.059 C  
HETATM   28  C   UNL     1     -11.823  11.995  68.882  1.00  0.00    -0.356 A  
HETATM   29  C   UNL     1     -12.742  13.011  68.576  1.00  0.00     1.127 A  
HETATM   30  C   UNL     1     -12.830  14.079  69.429  1.00  0.00     0.633 A  
HETATM   31  C   UNL     1     -12.082  14.155  70.580  1.00  0.00    -0.350 A  
HETATM   32  O   UNL     1     -12.344  15.320  71.245  1.00  0.00    -0.304 OA 
HETATM   33  C   UNL     1     -11.198  13.143  70.953  1.00  0.00     1.867 A  
HETATM   34  C   UNL     1     -11.039  12.032  70.079  1.00  0.00     0.259 A  
HETATM   35  O   UNL     1     -13.640  15.155  69.240  1.00  0.00     1.725 OA 
HETATM   36  C   UNL     1     -13.202  16.001  70.313  1.00  0.00     1.219 C  
BRANCH  33  37
HETATM   37  O   UNL     1     -10.465  13.132  72.106  1.00  0.00     7.752 OA 
HETATM   38  C   UNL     1      -9.589  14.229  72.352  1.00  0.00     7.832 C  
ENDBRANCH  33  37
ENDBRANCH  12  23
ENDBRANCH   3   4
ENDBRANCH   2   3
TORSDOF 8
ENDMDL
MODEL      192
REMARK 921   NORMALIZED FREE ENERGY PREDICTED BY IDOCK:   50.01 KCAL/MOL
REMARK 922        TOTAL FREE ENERGY PREDICTED BY IDOCK:   72.62 KCAL/MOL
REMARK 923 INTER-LIGAND FREE ENERGY PREDICTED BY IDOCK:   51.39 KCAL/MOL
REMARK 924 INTRA-LIGAND FREE ENERGY PREDICTED BY IDOCK:   21.23 KCAL/MOL
REMARK 927      BINDING AFFINITY PREDICTED BY RF-SCORE:    0.00 PKD
ROOT
HETATM    1  C   UNL     1     -11.063  17.729  73.080  1.00  0.00     2.233 C  
HETATM    2  C   UNL     1     -10.748  18.608  71.882  1.00  0.00     3.500 C  
ENDROOT
BRANCH   2   3
HETATM    3  O   UNL     1     -10.736  17.823  70.710  1.00  0.00     1.088 OA 
BRANCH   3   4
HETATM    4  C   UNL     1      -9.618  17.481  70.021  1.00  0.00     1.381 A  
HETATM    5  C   UNL     1      -8.609  16.790  70.776  1.00  0.00     4.696 A  
HETATM    6  C   UNL     1      -7.320  16.603  70.209  1.00  0.00     1.600 A  
HETATM    7  C   UNL     1      -8.198  17.791  66.710  1.00  0.00    -0.250 C  
HETATM    8  C   UNL     1      -7.065  17.029  68.874  1.00  0.00    -0.233 A  
HETATM    9  O   UNL     1      -9.501  18.009  66.386  1.00  0.00    -0.294 OA 
HETATM   10  O   UNL     1      -7.254  17.862  65.953  1.00  0.00    -0.399 OA 
HETATM   11  N   UNL     1      -5.858  16.700  68.232  1.00  0.00    -0.115 NA 
HETATM   12  C   UNL     1     -10.380  17.864  67.528  1.00  0.00    -0.377 C  
HETATM   13  C   UNL     1      -8.159  17.497  68.141  1.00  0.00    -0.249 A  
HETATM   14  H2  UNL     1      -5.743  15.688  68.271  1.00  0.00     0.000 HD 
HETATM   15  H1  UNL     1      -5.676  17.005  67.276  1.00  0.00     0.000 HD 
HETATM   16  C   UNL     1      -9.426  17.663  68.669  1.00  0.00    -0.284 A  
BRANCH   5  17
HETATM   17  O   UNL     1      -8.877  16.181  72.008  1.00  0.00     7.382 OA 
BRANCH  17  18
HETATM   18  C   UNL     1      -7.977  15.101  72.336  1.00  0.00     6.843 C  
HETATM   19  C   UNL     1      -8.096  14.530  73.734  1.00  0.00     8.469 C  
ENDBRANCH  17  18
ENDBRANCH   5  17
BRANCH   6  20
HETATM   20  O   UNL     1      -6.276  15.889  70.766  1.00  0.00     0.194 OA 
BRANCH  20  21
HETATM   21  C   UNL     1      -5.494  16.548  71.764  1.00  0.00     0.565 C  
HETATM   22  C   UNL     1      -5.737  15.851  73.105  1.00  0.00     1.796 C  
ENDBRANCH  20  21
ENDBRANCH   6  20
BRANCH  12  23
HETATM   23  C   UNL     1     -11.448  16.706  67.283  1.00  0.00     0.495 C  
HETATM   24  C   UNL     1     -12.938  16.505  69.243  1.00  0.00     3.040 C  
HETATM   25  C   UNL     1     -13.576  18.072  67.533  1.00  0.00     9.619 C  
HETATM   26  N   UNL     1     -12.834  16.863  67.831  1.00  0.00     3.147 NA 
HETATM   27  C   UNL     1     -12.782  15.000  69.354  1.00  0.00     0.172 C  
HETATM   28  C   UNL     1     -11.537  14.511  68.662  1.00  0.00    -0.346 A  
HETATM   29  C   UNL     1     -11.088  13.224  68.996  1.00  0.00    -0.291 A  
HETATM   30  C   UNL     1      -9.958  12.755  68.380  1.00  0.00    -0.210 A  
HETATM   31  C   UNL     1      -9.292  13.488  67.426  1.00  0.00    -0.228 A  
HETATM   32  O   UNL     1      -8.196  12.805  66.977  1.00  0.00    -0.169 OA 
HETATM   33  C   UNL     1      -9.734  14.747  67.022  1.00  0.00    -0.237 A  
HETATM   34  C   UNL     1     -10.879  15.296  67.663  1.00  0.00    -0.295 A  
HETATM   35  O   UNL     1      -9.382  11.549  68.633  1.00  0.00    -0.189 OA 
HETATM   36  C   UNL     1      -8.182  11.666  67.855  1.00  0.00    -0.141 C  
BRANCH  33  37
HETATM   37  O   UNL     1      -9.150  15.504  66.045  1.00  0.00    -0.326 OA 
HETATM   38  C   UNL     1      -9.482  16.888  65.984  1.00  0.00    -0.195 C  
ENDBRANCH  33  37
ENDBRANCH  12  23
ENDBRANCH   3   4
ENDBRANCH   2   3
TORSDOF 8
ENDMDL
MODEL      193
REMARK 921   NORMALIZED FREE ENERGY PREDICTED BY IDOCK:   51.18 KCAL/MOL
REMARK 922        TOTAL FREE ENERGY PREDICTED BY IDOCK:   74.34 KCAL/MOL
REMARK 923 INTER-LIGAND FREE ENERGY PREDICTED BY IDOCK:   55.12 KCAL/MOL
REMARK 924 INTRA-LIGAND FREE ENERGY PREDICTED BY IDOCK:   19.22 KCAL/MOL
REMARK 927      BINDING AFFINITY PREDICTED BY RF-SCORE:    0.00 PKD
ROOT
HETATM    1  C   UNL     1      -9.141  17.060  73.058  1.00  0.00    15.738 C  
HETATM    2  C   UNL     1      -8.638  16.556  71.715  1.00  0.00     9.790 C  
ENDROOT
BRANCH   2   3
HETATM    3  O   UNL     1      -9.735  16.284  70.872  1.00  0.00     1.650 OA 
BRANCH   3   4
HETATM    4  C   UNL     1     -10.126  15.042  70.489  1.00  0.00     0.406 A  
HETATM    5  C   UNL     1     -11.322  14.547  71.113  1.00  0.00     0.090 A  
HETATM    6  C   UNL     1     -11.676  13.180  70.956  1.00  0.00     0.709 A  
HETATM    7  C   UNL     1      -9.072  12.348  68.319  1.00  0.00    -0.183 C  
HETATM    8  C   UNL     1     -10.889  12.336  70.121  1.00  0.00     1.118 A  
HETATM    9  O   UNL     1      -8.359  13.353  67.745  1.00  0.00    -0.151 OA 
HETATM   10  O   UNL     1      -9.023  11.175  68.015  1.00  0.00    -0.139 OA 
HETATM   11  N   UNL     1     -11.313  11.032  69.812  1.00  0.00    -0.275 NA 
HETATM   12  C   UNL     1      -8.635  14.638  68.354  1.00  0.00    -0.169 C  
HETATM   13  C   UNL     1      -9.869  12.949  69.386  1.00  0.00     0.880 A  
HETATM   14  H2  UNL     1     -12.250  11.089  69.414  1.00  0.00     0.000 HD 
HETATM   15  H1  UNL     1     -10.750  10.428  69.213  1.00  0.00     0.000 HD 
HETATM   16  C   UNL     1      -9.527  14.282  69.508  1.00  0.00     0.469 A  
BRANCH   5  17
HETATM   17  O   UNL     1     -12.228  15.386  71.775  1.00  0.00    -0.315 OA 
BRANCH  17  18
HETATM   18  C   UNL     1     -12.215  15.244  73.211  1.00  0.00    -0.463 C  
HETATM   19  C   UNL     1     -11.331  14.148  73.769  1.00  0.00     2.389 C  
ENDBRANCH  17  18
ENDBRANCH   5  17
BRANCH   6  20
HETATM   20  O   UNL     1     -12.829  12.574  71.417  1.00  0.00    -0.366 OA 
BRANCH  20  21
HETATM   21  C   UNL     1     -13.381  11.527  70.617  1.00  0.00     0.701 C  
HETATM   22  C   UNL     1     -14.214  10.617  71.523  1.00  0.00     1.283 C  
ENDBRANCH  20  21
ENDBRANCH   6  20
BRANCH  12  23
HETATM   23  C   UNL     1      -9.230  15.661  67.286  1.00  0.00    -0.204 C  
HETATM   24  C   UNL     1      -7.397  16.936  66.229  1.00  0.00    -0.213 C  
HETATM   25  C   UNL     1      -7.999  14.836  65.222  1.00  0.00     6.130 C  
HETATM   26  N   UNL     1      -8.453  15.946  66.037  1.00  0.00    -0.161 NA 
HETATM   27  C   UNL     1      -8.057  18.286  66.440  1.00  0.00    -0.285 C  
HETATM   28  C   UNL     1      -9.095  18.240  67.529  1.00  0.00    -0.256 A  
HETATM   29  C   UNL     1      -9.507  19.469  68.067  1.00  0.00    -0.424 A  
HETATM   30  C   UNL     1     -10.452  19.455  69.059  1.00  0.00     0.152 A  
HETATM   31  C   UNL     1     -11.026  18.287  69.501  1.00  0.00     1.651 A  
HETATM   32  O   UNL     1     -11.924  18.543  70.499  1.00  0.00     6.928 OA 
HETATM   33  C   UNL     1     -10.689  17.048  68.957  1.00  0.00    -0.271 A  
HETATM   34  C   UNL     1      -9.681  17.005  67.954  1.00  0.00    -0.263 A  
HETATM   35  O   UNL     1     -10.914  20.561  69.703  1.00  0.00     0.576 OA 
HETATM   36  C   UNL     1     -11.725  19.950  70.717  1.00  0.00     8.710 C  
BRANCH  33  37
HETATM   37  O   UNL     1     -11.257  15.858  69.314  1.00  0.00    -0.288 OA 
HETATM   38  C   UNL     1     -12.575  15.882  69.856  1.00  0.00     0.175 C  
ENDBRANCH  33  37
ENDBRANCH  12  23
ENDBRANCH   3   4
ENDBRANCH   2   3
TORSDOF 8
ENDMDL
MODEL      194
REMARK 921   NORMALIZED FREE ENERGY PREDICTED BY IDOCK:   51.19 KCAL/MOL
REMARK 922        TOTAL FREE ENERGY PREDICTED BY IDOCK:   74.35 KCAL/MOL
REMARK 923 INTER-LIGAND FREE ENERGY PREDICTED BY IDOCK:   69.25 KCAL/MOL
REMARK 924 INTRA-LIGAND FREE ENERGY PREDICTED BY IDOCK:    5.11 KCAL/MOL
REMARK 927      BINDING AFFINITY PREDICTED BY RF-SCORE:    0.00 PKD
ROOT
HETATM    1  C   UNL     1     -10.471  14.415  63.384  1.00  0.00     4.030 C  
HETATM    2  C   UNL     1      -9.848  13.114  62.905  1.00  0.00     4.183 C  
ENDROOT
BRANCH   2   3
HETATM    3  O   UNL     1     -10.274  12.054  63.732  1.00  0.00    -0.357 OA 
BRANCH   3   4
HETATM    4  C   UNL     1     -10.337  12.108  65.086  1.00  0.00    -0.279 A  
HETATM    5  C   UNL     1     -11.348  11.288  65.695  1.00  0.00     0.093 A  
HETATM    6  C   UNL     1     -11.646  11.456  67.074  1.00  0.00    -0.051 A  
HETATM    7  C   UNL     1      -8.746  13.776  67.872  1.00  0.00    -0.183 C  
HETATM    8  C   UNL     1     -10.887  12.374  67.855  1.00  0.00    -0.222 A  
HETATM    9  O   UNL     1      -7.770  13.969  66.945  1.00  0.00     0.064 OA 
HETATM   10  O   UNL     1      -8.754  14.218  69.001  1.00  0.00    -0.080 OA 
HETATM   11  N   UNL     1     -11.043  12.431  69.251  1.00  0.00    -0.413 NA 
HETATM   12  C   UNL     1      -8.076  13.320  65.687  1.00  0.00     3.032 C  
HETATM   13  C   UNL     1      -9.786  12.972  67.234  1.00  0.00    -0.227 A  
HETATM   14  H2  UNL     1     -10.894  11.495  69.626  1.00  0.00     0.000 HD 
HETATM   15  H1  UNL     1     -10.499  13.089  69.810  1.00  0.00     0.000 HD 
HETATM   16  C   UNL     1      -9.468  12.801  65.900  1.00  0.00    -0.076 A  
BRANCH   5  17
HETATM   17  O   UNL     1     -11.976  10.238  65.013  1.00  0.00     2.913 OA 
BRANCH  17  18
HETATM   18  C   UNL     1     -12.497  10.609  63.719  1.00  0.00     3.788 C  
HETATM   19  C   UNL     1     -12.052   9.757  62.548  1.00  0.00     8.502 C  
ENDBRANCH  17  18
ENDBRANCH   5  17
BRANCH   6  20
HETATM   20  O   UNL     1     -12.522  10.693  67.821  1.00  0.00     0.988 OA 
BRANCH  20  21
HETATM   21  C   UNL     1     -13.919  10.891  67.593  1.00  0.00    15.396 C  
HETATM   22  C   UNL     1     -14.285  12.306  68.048  1.00  0.00    14.889 C  
ENDBRANCH  20  21
ENDBRANCH   6  20
BRANCH  12  23
HETATM   23  C   UNL     1      -6.964  12.238  65.317  1.00  0.00     4.260 C  
HETATM   24  C   UNL     1      -7.846  10.667  63.627  1.00  0.00     0.100 C  
HETATM   25  C   UNL     1      -6.800  12.678  62.820  1.00  0.00     6.954 C  
HETATM   26  N   UNL     1      -6.882  11.727  63.911  1.00  0.00     2.822 NA 
HETATM   27  C   UNL     1      -7.409   9.425  64.382  1.00  0.00    -0.109 C  
HETATM   28  C   UNL     1      -7.183   9.707  65.844  1.00  0.00    -0.099 A  
HETATM   29  C   UNL     1      -7.139   8.601  66.705  1.00  0.00    -0.078 A  
HETATM   30  C   UNL     1      -6.933   8.830  68.040  1.00  0.00    -0.078 A  
HETATM   31  C   UNL     1      -6.730  10.095  68.539  1.00  0.00    -0.057 A  
HETATM   32  O   UNL     1      -6.562  10.053  69.895  1.00  0.00    -0.064 OA 
HETATM   33  C   UNL     1      -6.709  11.218  67.713  1.00  0.00    -0.069 A  
HETATM   34  C   UNL     1      -6.960  11.037  66.324  1.00  0.00    -0.095 A  
HETATM   35  O   UNL     1      -6.909   7.863  68.996  1.00  0.00    -0.054 OA 
HETATM   36  C   UNL     1      -6.833   8.670  70.180  1.00  0.00    -0.039 C  
BRANCH  33  37
HETATM   37  O   UNL     1      -6.462  12.494  68.135  1.00  0.00    -0.063 OA 
HETATM   38  C   UNL     1      -6.431  12.739  69.539  1.00  0.00    -0.077 C  
ENDBRANCH  33  37
ENDBRANCH  12  23
ENDBRANCH   3   4
ENDBRANCH   2   3
TORSDOF 8
ENDMDL
MODEL      195
REMARK 921   NORMALIZED FREE ENERGY PREDICTED BY IDOCK:   61.75 KCAL/MOL
REMARK 922        TOTAL FREE ENERGY PREDICTED BY IDOCK:   89.84 KCAL/MOL
REMARK 923 INTER-LIGAND FREE ENERGY PREDICTED BY IDOCK:   37.02 KCAL/MOL
REMARK 924 INTRA-LIGAND FREE ENERGY PREDICTED BY IDOCK:   52.82 KCAL/MOL
REMARK 927      BINDING AFFINITY PREDICTED BY RF-SCORE:    0.00 PKD
ROOT
HETATM    1  C   UNL     1     -12.673  15.488  69.638  1.00  0.00     0.092 C  
HETATM    2  C   UNL     1     -11.320  14.796  69.667  1.00  0.00    -0.283 C  
ENDROOT
BRANCH   2   3
HETATM    3  O   UNL     1     -10.725  14.870  68.390  1.00  0.00    -0.235 OA 
BRANCH   3   4
HETATM    4  C   UNL     1      -9.561  15.511  68.116  1.00  0.00    -0.199 A  
HETATM    5  C   UNL     1      -8.960  16.208  69.221  1.00  0.00    -0.200 A  
HETATM    6  C   UNL     1      -7.877  17.095  68.980  1.00  0.00    -0.151 A  
HETATM    7  C   UNL     1      -7.330  16.147  65.343  1.00  0.00     4.171 C  
HETATM    8  C   UNL     1      -7.347  17.223  67.664  1.00  0.00    -0.166 A  
HETATM    9  O   UNL     1      -7.980  15.069  64.829  1.00  0.00     6.273 OA 
HETATM   10  O   UNL     1      -6.501  16.820  64.768  1.00  0.00     3.284 OA 
HETATM   11  N   UNL     1      -6.170  17.957  67.431  1.00  0.00    -0.150 NA 
HETATM   12  C   UNL     1      -8.923  14.499  65.769  1.00  0.00     0.585 C  
HETATM   13  C   UNL     1      -7.849  16.352  66.693  1.00  0.00    -0.316 A  
HETATM   14  H2  UNL     1      -5.438  17.583  68.035  1.00  0.00     0.000 HD 
HETATM   15  H1  UNL     1      -5.790  18.049  66.489  1.00  0.00     0.000 HD 
HETATM   16  C   UNL     1      -8.886  15.466  66.916  1.00  0.00    -0.281 A  
BRANCH   5  17
HETATM   17  O   UNL     1      -9.319  15.959  70.552  1.00  0.00     0.787 OA 
BRANCH  17  18
HETATM   18  C   UNL     1      -8.693  16.847  71.503  1.00  0.00     9.267 C  
HETATM   19  C   UNL     1      -7.243  16.560  71.833  1.00  0.00     7.258 C  
ENDBRANCH  17  18
ENDBRANCH   5  17
BRANCH   6  20
HETATM   20  O   UNL     1      -7.142  17.769  69.936  1.00  0.00     0.270 OA 
BRANCH  20  21
HETATM   21  C   UNL     1      -5.726  17.580  69.923  1.00  0.00    -0.250 C  
HETATM   22  C   UNL     1      -5.164  18.058  71.264  1.00  0.00    -0.161 C  
ENDBRANCH  20  21
ENDBRANCH   6  20
BRANCH  12  23
HETATM   23  C   UNL     1      -8.551  12.985  66.104  1.00  0.00     0.607 C  
HETATM   24  C   UNL     1      -9.462  11.488  64.363  1.00  0.00    -0.080 C  
HETATM   25  C   UNL     1      -7.273  12.412  63.984  1.00  0.00     7.172 C  
HETATM   26  N   UNL     1      -8.258  12.039  64.981  1.00  0.00     1.450 NA 
HETATM   27  C   UNL     1     -10.095  10.528  65.354  1.00  0.00    -0.358 C  
HETATM   28  C   UNL     1     -10.304  11.168  66.701  1.00  0.00    -0.286 A  
HETATM   29  C   UNL     1     -11.197  10.530  67.576  1.00  0.00    -0.299 A  
HETATM   30  C   UNL     1     -11.404  11.091  68.808  1.00  0.00    -0.283 A  
HETATM   31  C   UNL     1     -10.736  12.222  69.215  1.00  0.00     0.039 A  
HETATM   32  O   UNL     1     -11.128  12.583  70.473  1.00  0.00     0.827 OA 
HETATM   33  C   UNL     1      -9.799  12.857  68.401  1.00  0.00    -0.197 A  
HETATM   34  C   UNL     1      -9.579  12.337  67.095  1.00  0.00    -0.200 A  
HETATM   35  O   UNL     1     -12.269  10.611  69.741  1.00  0.00    -0.305 OA 
HETATM   36  C   UNL     1     -12.199  11.656  70.722  1.00  0.00    -0.344 C  
BRANCH  33  37
HETATM   37  O   UNL     1      -9.063  13.950  68.763  1.00  0.00    -0.127 OA 
HETATM   38  C   UNL     1      -9.228  15.147  68.006  1.00  0.00    -0.185 C  
ENDBRANCH  33  37
ENDBRANCH  12  23
ENDBRANCH   3   4
ENDBRANCH   2   3
TORSDOF 8
ENDMDL
MODEL      196
REMARK 921   NORMALIZED FREE ENERGY PREDICTED BY IDOCK:   67.91 KCAL/MOL
REMARK 922        TOTAL FREE ENERGY PREDICTED BY IDOCK:   98.88 KCAL/MOL
REMARK 923 INTER-LIGAND FREE ENERGY PREDICTED BY IDOCK:   58.84 KCAL/MOL
REMARK 924 INTRA-LIGAND FREE ENERGY PREDICTED BY IDOCK:   40.04 KCAL/MOL
REMARK 927      BINDING AFFINITY PREDICTED BY RF-SCORE:    0.00 PKD
ROOT
HETATM    1  C   UNL     1      -9.283  16.036  70.795  1.00  0.00     2.445 C  
HETATM    2  C   UNL     1      -8.267  15.491  71.786  1.00  0.00     5.919 C  
ENDROOT
BRANCH   2   3
HETATM    3  O   UNL     1      -7.217  14.861  71.087  1.00  0.00     0.922 OA 
BRANCH   3   4
HETATM    4  C   UNL     1      -7.203  13.553  70.728  1.00  0.00     2.380 A  
HETATM    5  C   UNL     1      -7.441  12.614  71.791  1.00  0.00     9.404 A  
HETATM    6  C   UNL     1      -7.214  11.231  71.563  1.00  0.00     5.195 A  
HETATM    7  C   UNL     1      -6.683  11.482  67.810  1.00  0.00    -0.072 C  
HETATM    8  C   UNL     1      -6.833  10.780  70.266  1.00  0.00     0.034 A  
HETATM    9  O   UNL     1      -6.955  12.652  67.174  1.00  0.00    -0.130 OA 
HETATM   10  O   UNL     1      -6.349  10.443  67.281  1.00  0.00    -0.060 OA 
HETATM   11  N   UNL     1      -6.773   9.407  69.972  1.00  0.00    -0.056 NA 
HETATM   12  C   UNL     1      -7.305  13.709  68.100  1.00  0.00    -0.121 C  
HETATM   13  C   UNL     1      -6.831  11.732  69.242  1.00  0.00    -0.093 A  
HETATM   14  H2  UNL     1      -7.676   8.993  70.199  1.00  0.00     0.000 HD 
HETATM   15  H1  UNL     1      -6.500   9.084  69.043  1.00  0.00     0.000 HD 
HETATM   16  C   UNL     1      -7.073  13.078  69.442  1.00  0.00     0.179 A  
BRANCH   5  17
HETATM   17  O   UNL     1      -8.006  12.992  73.015  1.00  0.00    11.199 OA 
BRANCH  17  18
HETATM   18  C   UNL     1      -7.459  14.211  73.562  1.00  0.00     5.954 C  
HETATM   19  C   UNL     1      -5.951  14.342  73.529  1.00  0.00     0.234 C  
ENDBRANCH  17  18
ENDBRANCH   5  17
BRANCH   6  20
HETATM   20  O   UNL     1      -7.476  10.202  72.447  1.00  0.00     2.194 OA 
BRANCH  20  21
HETATM   21  C   UNL     1      -6.808  10.239  73.709  1.00  0.00     3.134 C  
HETATM   22  C   UNL     1      -7.293   9.054  74.547  1.00  0.00     0.156 C  
ENDBRANCH  20  21
ENDBRANCH   6  20
BRANCH  12  23
HETATM   23  C   UNL     1      -8.777  14.253  67.816  1.00  0.00    -0.179 C  
HETATM   24  C   UNL     1      -8.881  16.680  68.269  1.00  0.00    -0.214 C  
HETATM   25  C   UNL     1      -8.220  16.000  66.057  1.00  0.00     0.206 C  
HETATM   26  N   UNL     1      -8.951  15.631  67.254  1.00  0.00    -0.192 NA 
HETATM   27  C   UNL     1     -10.133  16.586  69.121  1.00  0.00    -0.287 C  
HETATM   28  C   UNL     1     -10.346  15.195  69.655  1.00  0.00    -0.238 A  
HETATM   29  C   UNL     1     -11.235  15.056  70.732  1.00  0.00    -0.273 A  
HETATM   30  C   UNL     1     -11.448  13.801  71.236  1.00  0.00     1.072 A  
HETATM   31  C   UNL     1     -10.853  12.687  70.692  1.00  0.00     2.667 A  
HETATM   32  O   UNL     1     -11.217  11.564  71.381  1.00  0.00     1.762 OA 
HETATM   33  C   UNL     1     -10.007  12.770  69.586  1.00  0.00     1.403 A  
HETATM   34  C   UNL     1      -9.720  14.057  69.053  1.00  0.00     0.046 A  
HETATM   35  O   UNL     1     -12.246  13.519  72.301  1.00  0.00     0.226 OA 
HETATM   36  C   UNL     1     -11.962  12.124  72.476  1.00  0.00     3.957 C  
BRANCH  33  37
HETATM   37  O   UNL     1      -9.426  11.700  68.966  1.00  0.00    -0.037 OA 
HETATM   38  C   UNL     1      -8.032  11.485  69.170  1.00  0.00     0.108 C  
ENDBRANCH  33  37
ENDBRANCH  12  23
ENDBRANCH   3   4
ENDBRANCH   2   3
TORSDOF 8
ENDMDL
MODEL      197
REMARK 921   NORMALIZED FREE ENERGY PREDICTED BY IDOCK:   73.05 KCAL/MOL
REMARK 922        TOTAL FREE ENERGY PREDICTED BY IDOCK:  106.43 KCAL/MOL
REMARK 923 INTER-LIGAND FREE ENERGY PREDICTED BY IDOCK:   81.15 KCAL/MOL
REMARK 924 INTRA-LIGAND FREE ENERGY PREDICTED BY IDOCK:   25.28 KCAL/MOL
REMARK 927      BINDING AFFINITY PREDICTED BY RF-SCORE:    0.00 PKD
ROOT
HETATM    1  C   UNL     1      -6.992  13.213  72.785  1.00  0.00     6.394 C  
HETATM    2  C   UNL     1      -5.987  13.539  71.693  1.00  0.00     0.369 C  
ENDROOT
BRANCH   2   3
HETATM    3  O   UNL     1      -6.601  13.402  70.430  1.00  0.00     0.118 OA 
BRANCH   3   4
HETATM    4  C   UNL     1      -7.885  13.743  70.155  1.00  0.00     1.738 A  
HETATM    5  C   UNL     1      -8.863  13.305  71.113  1.00  0.00    10.522 A  
HETATM    6  C   UNL     1     -10.244  13.407  70.795  1.00  0.00     4.459 A  
HETATM    7  C   UNL     1      -9.819  15.454  67.624  1.00  0.00    -0.220 C  
HETATM    8  C   UNL     1     -10.646  14.013  69.570  1.00  0.00     0.095 A  
HETATM    9  O   UNL     1      -8.599  15.974  67.323  1.00  0.00    -0.171 OA 
HETATM   10  O   UNL     1     -10.846  15.644  67.009  1.00  0.00    -0.318 OA 
HETATM   11  N   UNL     1     -12.001  14.283  69.312  1.00  0.00    -0.331 NA 
HETATM   12  C   UNL     1      -7.574  15.534  68.248  1.00  0.00    -0.115 C  
HETATM   13  C   UNL     1      -9.641  14.602  68.797  1.00  0.00    -0.210 A  
HETATM   14  H2  UNL     1     -12.365  14.846  70.081  1.00  0.00     0.000 HD 
HETATM   15  H1  UNL     1     -12.289  14.718  68.435  1.00  0.00     0.000 HD 
HETATM   16  C   UNL     1      -8.295  14.533  69.104  1.00  0.00    -0.001 A  
BRANCH   5  17
HETATM   17  O   UNL     1      -8.518  12.889  72.405  1.00  0.00    15.104 OA 
BRANCH  17  18
HETATM   18  C   UNL     1      -8.869  13.834  73.438  1.00  0.00    12.541 C  
HETATM   19  C   UNL     1      -8.062  15.115  73.477  1.00  0.00     9.937 C  
ENDBRANCH  17  18
ENDBRANCH   5  17
BRANCH   6  20
HETATM   20  O   UNL     1     -11.301  13.111  71.634  1.00  0.00     2.240 OA 
BRANCH  20  21
HETATM   21  C   UNL     1     -12.619  13.347  71.133  1.00  0.00    -0.345 C  
HETATM   22  C   UNL     1     -13.182  14.592  71.823  1.00  0.00    -0.429 C  
ENDBRANCH  20  21
ENDBRANCH   6  20
BRANCH  12  23
HETATM   23  C   UNL     1      -6.917  16.774  69.005  1.00  0.00    -0.218 C  
HETATM   24  C   UNL     1      -7.119  16.473  71.448  1.00  0.00     4.730 C  
HETATM   25  C   UNL     1      -5.184  15.524  70.379  1.00  0.00    -0.137 C  
HETATM   26  N   UNL     1      -6.211  16.545  70.306  1.00  0.00    -0.004 NA 
HETATM   27  C   UNL     1      -7.670  17.866  71.692  1.00  0.00     9.024 C  
HETATM   28  C   UNL     1      -8.262  18.463  70.443  1.00  0.00     3.132 A  
HETATM   29  C   UNL     1      -9.116  19.564  70.608  1.00  0.00     1.965 A  
HETATM   30  C   UNL     1      -9.667  20.126  69.487  1.00  0.00     0.254 A  
HETATM   31  C   UNL     1      -9.372  19.671  68.224  1.00  0.00    -0.349 A  
HETATM   32  O   UNL     1     -10.057  20.389  67.284  1.00  0.00    -0.425 OA 
HETATM   33  C   UNL     1      -8.485  18.617  68.009  1.00  0.00    -0.291 A  
HETATM   34  C   UNL     1      -7.919  17.971  69.143  1.00  0.00     0.041 A  
HETATM   35  O   UNL     1     -10.544  21.166  69.494  1.00  0.00     0.580 OA 
HETATM   36  C   UNL     1     -10.901  21.214  68.105  1.00  0.00     1.958 C  
BRANCH  33  37
HETATM   37  O   UNL     1      -8.109  18.150  66.781  1.00  0.00    -0.230 OA 
HETATM   38  C   UNL     1      -8.837  17.055  66.230  1.00  0.00    -0.254 C  
ENDBRANCH  33  37
ENDBRANCH  12  23
ENDBRANCH   3   4
ENDBRANCH   2   3
TORSDOF 8
ENDMDL
MODEL      198
REMARK 921   NORMALIZED FREE ENERGY PREDICTED BY IDOCK:   85.76 KCAL/MOL
REMARK 922        TOTAL FREE ENERGY PREDICTED BY IDOCK:  125.09 KCAL/MOL
REMARK 923 INTER-LIGAND FREE ENERGY PREDICTED BY IDOCK:   99.13 KCAL/MOL
REMARK 924 INTRA-LIGAND FREE ENERGY PREDICTED BY IDOCK:   25.96 KCAL/MOL
REMARK 927      BINDING AFFINITY PREDICTED BY RF-SCORE:    0.00 PKD
ROOT
HETATM    1  C   UNL     1      -9.473  12.325  70.524  1.00  0.00     6.046 C  
HETATM    2  C   UNL     1      -9.882  12.036  71.959  1.00  0.00    16.225 C  
ENDROOT
BRANCH   2   3
HETATM    3  O   UNL     1     -10.807  13.009  72.392  1.00  0.00     6.839 OA 
BRANCH   3   4
HETATM    4  C   UNL     1     -10.936  14.246  71.850  1.00  0.00     2.198 A  
HETATM    5  C   UNL     1      -9.841  15.146  72.089  1.00  0.00     3.918 A  
HETATM    6  C   UNL     1      -9.987  16.523  71.768  1.00  0.00     4.893 A  
HETATM    7  C   UNL     1     -13.290  16.197  69.920  1.00  0.00     2.275 C  
HETATM    8  C   UNL     1     -11.182  16.980  71.141  1.00  0.00     0.859 A  
HETATM    9  O   UNL     1     -13.768  14.960  69.621  1.00  0.00     1.376 OA 
HETATM   10  O   UNL     1     -13.780  17.253  69.580  1.00  0.00     7.671 OA 
HETATM   11  N   UNL     1     -11.281  18.296  70.657  1.00  0.00     2.416 NA 
HETATM   12  C   UNL     1     -12.959  13.906  70.197  1.00  0.00     0.161 C  
HETATM   13  C   UNL     1     -12.105  16.004  70.753  1.00  0.00    -0.296 A  
HETATM   14  H2  UNL     1     -10.504  18.459  70.018  1.00  0.00     0.000 HD 
HETATM   15  H1  UNL     1     -12.137  18.624  70.208  1.00  0.00     0.000 HD 
HETATM   16  C   UNL     1     -11.967  14.658  71.036  1.00  0.00    -0.399 A  
BRANCH   5  17
HETATM   17  O   UNL     1      -8.583  14.704  72.516  1.00  0.00     5.118 OA 
BRANCH  17  18
HETATM   18  C   UNL     1      -8.391  13.279  72.394  1.00  0.00    15.041 C  
HETATM   19  C   UNL     1      -7.317  12.827  71.427  1.00  0.00     6.586 C  
ENDBRANCH  17  18
ENDBRANCH   5  17
BRANCH   6  20
HETATM   20  O   UNL     1      -9.008  17.493  71.856  1.00  0.00    10.585 OA 
BRANCH  20  21
HETATM   21  C   UNL     1      -9.313  18.780  71.316  1.00  0.00     5.320 C  
HETATM   22  C   UNL     1      -8.353  19.056  70.156  1.00  0.00     1.530 C  
ENDBRANCH  20  21
ENDBRANCH   6  20
BRANCH  12  23
HETATM   23  C   UNL     1     -12.356  12.963  69.061  1.00  0.00     0.156 C  
HETATM   24  C   UNL     1     -11.282  10.989  70.086  1.00  0.00    -0.183 C  
HETATM   25  C   UNL     1     -13.633  10.833  69.599  1.00  0.00     2.187 C  
HETATM   26  N   UNL     1     -12.380  11.478  69.256  1.00  0.00    -0.257 NA 
HETATM   27  C   UNL     1      -9.999  11.127  69.288  1.00  0.00    -0.034 C  
HETATM   28  C   UNL     1      -9.819  12.521  68.748  1.00  0.00     0.008 A  
HETATM   29  C   UNL     1      -8.531  12.876  68.319  1.00  0.00    -0.161 A  
HETATM   30  C   UNL     1      -8.342  14.138  67.822  1.00  0.00    -0.174 A  
HETATM   31  C   UNL     1      -9.377  15.034  67.697  1.00  0.00    -0.194 A  
HETATM   32  O   UNL     1      -8.924  16.220  67.190  1.00  0.00    -0.188 OA 
HETATM   33  C   UNL     1     -10.683  14.707  68.058  1.00  0.00    -0.246 A  
HETATM   34  C   UNL     1     -10.924  13.422  68.619  1.00  0.00    -0.288 A  
HETATM   35  O   UNL     1      -7.145  14.636  67.410  1.00  0.00    -0.190 OA 
HETATM   36  C   UNL     1      -7.503  16.003  67.165  1.00  0.00    -0.218 C  
BRANCH  33  37
HETATM   37  O   UNL     1     -11.764  15.530  67.912  1.00  0.00    -0.293 OA 
HETATM   38  C   UNL     1     -11.584  16.748  67.193  1.00  0.00     0.839 C  
ENDBRANCH  33  37
ENDBRANCH  12  23
ENDBRANCH   3   4
ENDBRANCH   2   3
TORSDOF 8
ENDMDL
