MODEL        1
REMARK 921   NORMALIZED FREE ENERGY PREDICTED BY IDOCK:   -3.95 KCAL/MOL
REMARK 922        TOTAL FREE ENERGY PREDICTED BY IDOCK:   -9.10 KCAL/MOL
REMARK 923 INTER-LIGAND FREE ENERGY PREDICTED BY IDOCK:   -6.72 KCAL/MOL
REMARK 924 INTRA-LIGAND FREE ENERGY PREDICTED BY IDOCK:   -2.38 KCAL/MOL
REMARK 927      BINDING AFFINITY PREDICTED BY RF-SCORE:    0.00 PKD
ROOT
HETATM    1  C   UNL     1     -13.605  12.499  72.182  1.00  0.00    -0.360 C  
HETATM    2  O   UNL     1     -12.676  11.423  72.120  1.00  0.00    -0.162 OA 
ENDROOT
BRANCH   2   3
HETATM    3  C   UNL     1     -13.212  10.298  71.410  1.00  0.00    -0.370 C  
HETATM    4  C   UNL     1     -13.333  10.654  69.911  1.00  0.00     0.749 C  
HETATM    5  C   UNL     1     -11.972  10.697  69.216  1.00  0.00    -0.197 C  
HETATM    6  O   UNL     1     -11.389   9.433  69.458  1.00  0.00    -0.104 OA 
HETATM    7  C   UNL     1      -9.874   9.833  71.356  1.00  0.00     0.613 C  
HETATM    8  C   UNL     1     -11.083   9.077  70.807  1.00  0.00    -0.272 C  
HETATM    9  C   UNL     1     -12.321   9.080  71.694  1.00  0.00    -0.347 C  
BRANCH   5  10
HETATM   10  O   UNL     1     -12.149  10.975  67.778  1.00  0.00    -0.534 OA 
BRANCH  10  11
HETATM   11  C   UNL     1     -11.066  11.743  67.192  1.00  0.00    -0.296 C  
HETATM   12  C   UNL     1      -9.829  10.808  66.824  1.00  0.00    -0.233 C  
HETATM   13  C   UNL     1     -11.211  12.368  64.537  1.00  0.00    -0.371 C  
HETATM   14  C   UNL     1     -10.341   9.410  66.452  1.00  0.00    -0.237 C  
HETATM   15  C   UNL     1      -8.677  11.060  67.886  1.00  0.00    -0.133 C  
HETATM   16  C   UNL     1     -11.394  12.752  66.020  1.00  0.00    -0.363 C  
HETATM   17  O   UNL     1     -13.739  13.378  66.001  1.00  0.00     0.685 OA 
HETATM   18  C   UNL     1      -7.618  12.139  67.563  1.00  0.00    -0.151 C  
HETATM   19  C   UNL     1      -8.143  13.189  66.629  1.00  0.00     0.366 C  
HETATM   20  C   UNL     1      -7.123  12.780  68.902  1.00  0.00    -0.067 C  
HETATM   21  C   UNL     1     -12.575  13.704  66.203  1.00  0.00    -0.335 C  
HETATM   22  C   UNL     1     -12.100  16.030  68.514  1.00  0.00     0.218 C  
HETATM   23  O   UNL     1     -12.213  15.033  66.331  1.00  0.00    -0.008 OA 
HETATM   24  C   UNL     1      -6.513  14.170  68.770  1.00  0.00    -0.091 C  
HETATM   25  C   UNL     1      -9.725  16.262  65.406  1.00  0.00     0.089 C  
HETATM   26  C   UNL     1      -7.415  15.379  68.988  1.00  0.00    -0.165 C  
HETATM   27  C   UNL     1     -11.266  15.485  67.350  1.00  0.00    -0.248 C  
HETATM   28  C   UNL     1      -5.159  14.258  68.091  1.00  0.00    -0.116 C  
HETATM   29  C   UNL     1     -10.287  16.584  66.806  1.00  0.00    -0.296 C  
HETATM   30  C   UNL     1      -9.165  17.002  67.861  1.00  0.00    -0.239 C  
HETATM   31  O   UNL     1      -5.273  14.256  69.511  1.00  0.00    -0.090 OA 
HETATM   32  C   UNL     1      -7.831  16.198  67.734  1.00  0.00    -0.157 C  
HETATM   33  O   UNL     1      -7.922  15.539  70.089  1.00  0.00     0.137 OA 
HETATM   34  C   UNL     1      -6.650  16.912  67.080  1.00  0.00    -0.241 C  
BRANCH  15  35
HETATM   35  O   UNL     1      -8.071  10.013  68.609  1.00  0.00    -0.096 OA 
BRANCH  35  36
HETATM   36  C   UNL     1      -7.095   9.138  68.064  1.00  0.00    -0.078 C  
HETATM   37  C   UNL     1      -6.575   8.418  65.816  1.00  0.00    -0.053 C  
HETATM   38  C   UNL     1      -7.352   6.612  67.390  1.00  0.00    -0.095 C  
HETATM   39  C   UNL     1      -6.706   8.971  64.396  1.00  0.00    -0.079 C  
HETATM   40  C   UNL     1      -7.706   7.741  68.393  1.00  0.00    -0.119 C  
HETATM   41  O   UNL     1      -6.967   9.444  66.698  1.00  0.00    -0.079 OA 
HETATM   42  C   UNL     1      -7.498   7.233  65.984  1.00  0.00    -0.080 C  
BRANCH  38  43
HETATM   43  N   UNL     1      -8.254   5.418  67.451  1.00  0.00    -0.101 NA 
HETATM   44  C   UNL     1      -9.617   5.729  66.998  1.00  0.00    -0.135 C  
HETATM   45  C   UNL     1      -7.758   4.265  66.705  1.00  0.00    -0.093 C  
ENDBRANCH  38  43
BRANCH  40  46
HETATM   46  O   UNL     1      -7.577   7.417  69.807  1.00  0.00    -0.090 OA 
BRANCH  46  47
HETATM   47  C   UNL     1      -6.372   7.449  70.421  1.00  0.00    -0.038 C  
HETATM   48  C   UNL     1      -6.134   6.179  71.173  1.00  0.00    -0.035 C  
HETATM   49  O   UNL     1      -5.607   8.405  70.404  1.00  0.00    -0.025 OA 
ENDBRANCH  46  47
ENDBRANCH  40  46
ENDBRANCH  35  36
ENDBRANCH  15  35
BRANCH  30  50
HETATM   50  O   UNL     1      -8.907  18.406  67.605  1.00  0.00    -0.259 OA 
BRANCH  50  51
HETATM   51  C   UNL     1      -9.105  19.258  68.646  1.00  0.00    -0.380 C  
HETATM   52  O   UNL     1     -10.185  19.521  69.150  1.00  0.00    -0.375 OA 
HETATM   53  C   UNL     1      -7.796  19.765  69.167  1.00  0.00    -0.134 C  
ENDBRANCH  50  51
ENDBRANCH  30  50
ENDBRANCH  10  11
ENDBRANCH   5  10
BRANCH   9  54
HETATM   54  O   UNL     1     -13.090   7.880  71.383  1.00  0.00    -0.313 OA 
BRANCH  54  55
HETATM   55  C   UNL     1     -12.394   6.720  71.232  1.00  0.00    -0.344 C  
HETATM   56  C   UNL     1     -12.282   5.986  72.538  1.00  0.00    -0.044 C  
HETATM   57  O   UNL     1     -11.910   6.309  70.187  1.00  0.00    -0.349 OA 
ENDBRANCH  54  55
ENDBRANCH   9  54
ENDBRANCH   2   3
TORSDOF 12
ENDMDL
MODEL        2
REMARK 921   NORMALIZED FREE ENERGY PREDICTED BY IDOCK:   -1.15 KCAL/MOL
REMARK 922        TOTAL FREE ENERGY PREDICTED BY IDOCK:   -4.34 KCAL/MOL
REMARK 923 INTER-LIGAND FREE ENERGY PREDICTED BY IDOCK:   -4.01 KCAL/MOL
REMARK 924 INTRA-LIGAND FREE ENERGY PREDICTED BY IDOCK:   -0.33 KCAL/MOL
REMARK 927      BINDING AFFINITY PREDICTED BY RF-SCORE:    0.00 PKD
ROOT
HETATM    1  C   UNL     1      -6.657   8.661  69.346  1.00  0.00    -0.045 C  
HETATM    2  O   UNL     1      -5.928   7.909  70.309  1.00  0.00    -0.029 OA 
ENDROOT
BRANCH   2   3
HETATM    3  C   UNL     1      -6.370   8.188  71.646  1.00  0.00    -0.045 C  
HETATM    4  C   UNL     1      -7.718   8.940  71.589  1.00  0.00    -0.061 C  
HETATM    5  C   UNL     1      -8.874   8.024  71.185  1.00  0.00    -0.140 C  
HETATM    6  O   UNL     1      -8.851   6.961  72.116  1.00  0.00    -0.131 OA 
HETATM    7  C   UNL     1      -7.666   5.159  70.929  1.00  0.00    -0.088 C  
HETATM    8  C   UNL     1      -7.711   6.101  72.132  1.00  0.00    -0.101 C  
HETATM    9  C   UNL     1      -6.424   6.863  72.421  1.00  0.00    -0.057 C  
BRANCH   5  10
HETATM   10  O   UNL     1     -10.144   8.774  71.210  1.00  0.00    -0.218 OA 
BRANCH  10  11
HETATM   11  C   UNL     1     -10.625   9.157  69.896  1.00  0.00    -0.230 C  
HETATM   12  C   UNL     1     -10.875   7.878  68.978  1.00  0.00    -0.029 C  
HETATM   13  C   UNL     1     -13.282   9.720  69.602  1.00  0.00     1.808 C  
HETATM   14  C   UNL     1     -11.293   6.693  69.859  1.00  0.00    -0.422 C  
HETATM   15  C   UNL     1      -9.709   7.796  67.905  1.00  0.00    -0.153 C  
HETATM   16  C   UNL     1     -11.823  10.184  69.791  1.00  0.00    -0.158 C  
HETATM   17  O   UNL     1     -12.063  11.496  71.819  1.00  0.00     0.249 OA 
HETATM   18  C   UNL     1      -9.930   8.489  66.541  1.00  0.00    -0.350 C  
HETATM   19  C   UNL     1     -10.908   9.622  66.632  1.00  0.00     0.001 C  
HETATM   20  C   UNL     1      -8.549   8.987  65.996  1.00  0.00    -0.158 C  
HETATM   21  C   UNL     1     -11.752  11.455  70.634  1.00  0.00    -0.097 C  
HETATM   22  C   UNL     1      -9.406  13.591  69.678  1.00  0.00     1.488 C  
HETATM   23  O   UNL     1     -11.590  12.614  69.894  1.00  0.00    -0.263 OA 
HETATM   24  C   UNL     1      -8.623  10.119  64.979  1.00  0.00    -0.167 C  
HETATM   25  C   UNL     1     -12.275  12.996  67.077  1.00  0.00    -0.217 C  
HETATM   26  C   UNL     1      -8.491  11.552  65.482  1.00  0.00     0.263 C  
HETATM   27  C   UNL     1     -10.486  12.784  68.950  1.00  0.00    -0.078 C  
HETATM   28  C   UNL     1      -9.171   9.769  63.608  1.00  0.00    -0.183 C  
HETATM   29  C   UNL     1     -10.934  13.515  67.636  1.00  0.00    -0.280 C  
HETATM   30  C   UNL     1      -9.778  13.599  66.540  1.00  0.00    -0.292 C  
HETATM   31  O   UNL     1      -7.768   9.844  63.844  1.00  0.00    -0.131 OA 
HETATM   32  C   UNL     1      -9.779  12.423  65.512  1.00  0.00    -0.150 C  
HETATM   33  O   UNL     1      -7.443  11.891  66.012  1.00  0.00     0.397 OA 
HETATM   34  C   UNL     1     -10.318  12.721  64.114  1.00  0.00    -0.401 C  
BRANCH  15  35
HETATM   35  O   UNL     1      -8.932   6.635  67.718  1.00  0.00    -0.115 OA 
BRANCH  35  36
HETATM   36  C   UNL     1      -9.443   5.417  67.197  1.00  0.00    -0.124 C  
HETATM   37  C   UNL     1      -9.419   3.132  67.982  1.00  0.00    -0.160 C  
HETATM   38  C   UNL     1      -8.183   3.562  65.831  1.00  0.00    -0.097 C  
HETATM   39  C   UNL     1      -9.362   2.401  69.324  1.00  0.00    -0.177 C  
HETATM   40  C   UNL     1      -8.386   5.076  66.101  1.00  0.00    -0.113 C  
HETATM   41  O   UNL     1      -9.537   4.507  68.264  1.00  0.00    -0.142 OA 
HETATM   42  C   UNL     1      -8.139   2.884  67.217  1.00  0.00    -0.078 C  
BRANCH  38  43
HETATM   43  N   UNL     1      -6.907   3.222  65.123  1.00  0.00    -0.044 NA 
HETATM   44  C   UNL     1      -5.936   2.570  66.012  1.00  0.00    -0.023 C  
HETATM   45  C   UNL     1      -7.094   2.392  63.936  1.00  0.00    -0.041 C  
ENDBRANCH  38  43
BRANCH  40  46
HETATM   46  O   UNL     1      -8.528   5.931  64.932  1.00  0.00    -0.143 OA 
BRANCH  46  47
HETATM   47  C   UNL     1      -7.470   6.199  64.132  1.00  0.00    -0.081 C  
HETATM   48  C   UNL     1      -7.916   6.384  62.718  1.00  0.00    -0.096 C  
HETATM   49  O   UNL     1      -6.305   6.234  64.508  1.00  0.00    -0.029 OA 
ENDBRANCH  46  47
ENDBRANCH  40  46
ENDBRANCH  35  36
ENDBRANCH  15  35
BRANCH  30  50
HETATM   50  O   UNL     1     -10.008  14.849  65.841  1.00  0.00    -0.292 OA 
BRANCH  50  51
HETATM   51  C   UNL     1      -9.202  15.890  66.180  1.00  0.00    -0.349 C  
HETATM   52  O   UNL     1      -9.415  17.064  65.920  1.00  0.00    -0.492 OA 
HETATM   53  C   UNL     1      -8.051  15.416  67.012  1.00  0.00    -0.265 C  
ENDBRANCH  50  51
ENDBRANCH  30  50
ENDBRANCH  10  11
ENDBRANCH   5  10
BRANCH   9  54
HETATM   54  O   UNL     1      -6.407   7.177  73.845  1.00  0.00    -0.065 OA 
BRANCH  54  55
HETATM   55  C   UNL     1      -6.606   8.477  74.196  1.00  0.00    -0.119 C  
HETATM   56  C   UNL     1      -5.303   9.219  74.273  1.00  0.00    -0.132 C  
HETATM   57  O   UNL     1      -7.690   8.995  74.426  1.00  0.00    -0.364 OA 
ENDBRANCH  54  55
ENDBRANCH   9  54
ENDBRANCH   2   3
TORSDOF 12
ENDMDL
MODEL        3
REMARK 921   NORMALIZED FREE ENERGY PREDICTED BY IDOCK:    0.34 KCAL/MOL
REMARK 922        TOTAL FREE ENERGY PREDICTED BY IDOCK:   -1.81 KCAL/MOL
REMARK 923 INTER-LIGAND FREE ENERGY PREDICTED BY IDOCK:   -2.88 KCAL/MOL
REMARK 924 INTRA-LIGAND FREE ENERGY PREDICTED BY IDOCK:    1.07 KCAL/MOL
REMARK 927      BINDING AFFINITY PREDICTED BY RF-SCORE:    0.00 PKD
ROOT
HETATM    1  C   UNL     1      -9.607   5.270  71.310  1.00  0.00    -0.159 C  
HETATM    2  O   UNL     1      -9.127   6.121  72.344  1.00  0.00    -0.137 OA 
ENDROOT
BRANCH   2   3
HETATM    3  C   UNL     1     -10.023   7.216  72.589  1.00  0.00    -0.177 C  
HETATM    4  C   UNL     1      -9.274   8.547  72.355  1.00  0.00    -0.328 C  
HETATM    5  C   UNL     1      -9.029   8.819  70.871  1.00  0.00    -0.201 C  
HETATM    6  O   UNL     1     -10.304   8.767  70.266  1.00  0.00    -0.192 OA 
HETATM    7  C   UNL     1     -10.419   6.498  69.319  1.00  0.00    -0.259 C  
HETATM    8  C   UNL     1     -11.011   7.526  70.283  1.00  0.00    -0.250 C  
HETATM    9  C   UNL     1     -11.262   7.031  71.701  1.00  0.00    -0.245 C  
BRANCH   5  10
HETATM   10  O   UNL     1      -8.372  10.129  70.701  1.00  0.00     0.047 OA 
BRANCH  10  11
HETATM   11  C   UNL     1      -7.835  10.347  69.370  1.00  0.00    -0.161 C  
HETATM   12  C   UNL     1      -7.941  11.881  68.950  1.00  0.00     0.040 C  
HETATM   13  C   UNL     1      -5.129  10.596  69.090  1.00  0.00    -0.041 C  
HETATM   14  C   UNL     1      -7.823  12.761  70.202  1.00  0.00     2.815 C  
HETATM   15  C   UNL     1      -9.110  12.030  67.888  1.00  0.00    -0.183 C  
HETATM   16  C   UNL     1      -6.416   9.749  69.013  1.00  0.00    -0.045 C  
HETATM   17  O   UNL     1      -5.806   7.930  70.500  1.00  0.00    -0.029 OA 
HETATM   18  C   UNL     1      -8.745  11.918  66.390  1.00  0.00    -0.118 C  
HETATM   19  C   UNL     1      -7.507  11.103  66.165  1.00  0.00    -0.022 C  
HETATM   20  C   UNL     1      -9.962  11.309  65.616  1.00  0.00    -0.292 C  
HETATM   21  C   UNL     1      -6.141   8.291  69.377  1.00  0.00    -0.037 C  
HETATM   22  C   UNL     1      -7.878   6.095  67.605  1.00  0.00    -0.105 C  
HETATM   23  O   UNL     1      -6.014   7.451  68.285  1.00  0.00    -0.031 OA 
HETATM   24  C   UNL     1      -9.621  10.645  64.288  1.00  0.00    -0.296 C  
HETATM   25  C   UNL     1      -5.311   8.231  65.555  1.00  0.00    -0.032 C  
HETATM   26  C   UNL     1      -9.369   9.142  64.274  1.00  0.00     0.372 C  
HETATM   27  C   UNL     1      -7.056   7.343  67.264  1.00  0.00    -0.084 C  
HETATM   28  C   UNL     1      -9.209  11.564  63.152  1.00  0.00    -0.174 C  
HETATM   29  C   UNL     1      -6.461   7.237  65.816  1.00  0.00    -0.045 C  
HETATM   30  C   UNL     1      -7.579   7.245  64.677  1.00  0.00    -0.106 C  
HETATM   31  O   UNL     1     -10.540  11.068  63.253  1.00  0.00    -0.312 OA 
HETATM   32  C   UNL     1      -7.901   8.662  64.102  1.00  0.00    -0.141 C  
HETATM   33  O   UNL     1     -10.284   8.394  64.588  1.00  0.00     2.795 OA 
HETATM   34  C   UNL     1      -7.331   8.999  62.725  1.00  0.00    -0.098 C  
BRANCH  15  35
HETATM   35  O   UNL     1     -10.162  12.953  68.044  1.00  0.00    -0.217 OA 
BRANCH  35  36
HETATM   36  C   UNL     1     -10.103  14.082  68.904  1.00  0.00    -0.126 C  
HETATM   37  C   UNL     1     -11.781  15.382  70.061  1.00  0.00    -0.326 C  
HETATM   38  C   UNL     1     -10.455  16.616  68.311  1.00  0.00    -0.321 C  
HETATM   39  C   UNL     1     -13.181  15.161  70.634  1.00  0.00    -0.354 C  
HETATM   40  C   UNL     1      -9.874  15.242  67.887  1.00  0.00    -0.216 C  
HETATM   41  O   UNL     1     -11.309  14.128  69.625  1.00  0.00    -0.258 OA 
HETATM   42  C   UNL     1     -11.860  16.325  68.883  1.00  0.00    -0.060 C  
BRANCH  38  43
HETATM   43  N   UNL     1     -10.620  17.595  67.190  1.00  0.00    -0.316 NA 
HETATM   44  C   UNL     1      -9.724  18.751  67.326  1.00  0.00    -0.302 C  
HETATM   45  C   UNL     1     -10.441  17.010  65.864  1.00  0.00    -0.274 C  
ENDBRANCH  38  43
BRANCH  40  46
HETATM   46  O   UNL     1      -8.512  15.244  67.371  1.00  0.00    -0.156 OA 
BRANCH  46  47
HETATM   47  C   UNL     1      -7.468  15.580  68.164  1.00  0.00    -0.114 C  
HETATM   48  C   UNL     1      -6.338  16.112  67.342  1.00  0.00    -0.210 C  
HETATM   49  O   UNL     1      -7.436  15.422  69.377  1.00  0.00    -0.188 OA 
ENDBRANCH  46  47
ENDBRANCH  40  46
ENDBRANCH  35  36
ENDBRANCH  15  35
BRANCH  30  50
HETATM   50  O   UNL     1      -7.049   6.405  63.620  1.00  0.00    -0.048 OA 
BRANCH  50  51
HETATM   51  C   UNL     1      -7.224   5.065  63.765  1.00  0.00    -0.050 C  
HETATM   52  O   UNL     1      -6.348   4.221  63.660  1.00  0.00    -0.028 OA 
HETATM   53  C   UNL     1      -8.631   4.759  64.175  1.00  0.00    -0.137 C  
ENDBRANCH  50  51
ENDBRANCH  30  50
ENDBRANCH  10  11
ENDBRANCH   5  10
BRANCH   9  54
HETATM   54  O   UNL     1     -12.340   7.835  72.265  1.00  0.00    -0.287 OA 
BRANCH  54  55
HETATM   55  C   UNL     1     -13.540   7.801  71.621  1.00  0.00    -0.357 C  
HETATM   56  C   UNL     1     -14.097   9.185  71.449  1.00  0.00    -0.194 C  
HETATM   57  O   UNL     1     -14.110   6.793  71.229  1.00  0.00    -0.109 OA 
ENDBRANCH  54  55
ENDBRANCH   9  54
ENDBRANCH   2   3
TORSDOF 12
ENDMDL
MODEL        4
REMARK 921   NORMALIZED FREE ENERGY PREDICTED BY IDOCK:    0.48 KCAL/MOL
REMARK 922        TOTAL FREE ENERGY PREDICTED BY IDOCK:   -1.56 KCAL/MOL
REMARK 923 INTER-LIGAND FREE ENERGY PREDICTED BY IDOCK:   -4.24 KCAL/MOL
REMARK 924 INTRA-LIGAND FREE ENERGY PREDICTED BY IDOCK:    2.68 KCAL/MOL
REMARK 927      BINDING AFFINITY PREDICTED BY RF-SCORE:    0.00 PKD
ROOT
HETATM    1  C   UNL     1      -6.528   9.174  71.129  1.00  0.00    -0.084 C  
HETATM    2  O   UNL     1      -6.217   8.012  71.890  1.00  0.00    -0.039 OA 
ENDROOT
BRANCH   2   3
HETATM    3  C   UNL     1      -7.159   7.808  72.954  1.00  0.00    -0.079 C  
HETATM    4  C   UNL     1      -8.356   8.766  72.764  1.00  0.00     0.159 C  
HETATM    5  C   UNL     1      -9.263   8.334  71.611  1.00  0.00    -0.185 C  
HETATM    6  O   UNL     1      -9.636   7.004  71.907  1.00  0.00    -0.152 OA 
HETATM    7  C   UNL     1      -8.101   5.642  70.549  1.00  0.00    -0.105 C  
HETATM    8  C   UNL     1      -8.614   6.007  71.942  1.00  0.00    -0.137 C  
HETATM    9  C   UNL     1      -7.543   6.322  72.977  1.00  0.00    -0.096 C  
BRANCH   5  10
HETATM   10  O   UNL     1     -10.423   9.242  71.516  1.00  0.00    -0.334 OA 
BRANCH  10  11
HETATM   11  C   UNL     1     -10.818   9.546  70.153  1.00  0.00    -0.258 C  
HETATM   12  C   UNL     1     -10.959   8.219  69.283  1.00  0.00     0.031 C  
HETATM   13  C   UNL     1     -13.463  10.002  69.643  1.00  0.00     1.872 C  
HETATM   14  C   UNL     1     -11.403   7.062  70.188  1.00  0.00    -0.321 C  
HETATM   15  C   UNL     1      -9.716   8.129  68.302  1.00  0.00    -0.161 C  
HETATM   16  C   UNL     1     -12.037  10.525  69.914  1.00  0.00    -0.318 C  
HETATM   17  O   UNL     1     -12.466  11.920  71.853  1.00  0.00    -0.030 OA 
HETATM   18  C   UNL     1      -9.858   8.750  66.893  1.00  0.00    -0.295 C  
HETATM   19  C   UNL     1     -10.876   9.851  66.859  1.00  0.00    -0.137 C  
HETATM   20  C   UNL     1      -8.458   9.270  66.425  1.00  0.00    -0.128 C  
HETATM   21  C   UNL     1     -12.068  11.836  70.696  1.00  0.00    -0.311 C  
HETATM   22  C   UNL     1      -9.727  14.006  69.808  1.00  0.00     0.979 C  
HETATM   23  O   UNL     1     -11.889  12.964  69.915  1.00  0.00    -0.323 OA 
HETATM   24  C   UNL     1      -8.493  10.351  65.352  1.00  0.00    -0.168 C  
HETATM   25  C   UNL     1     -12.378  13.191  67.040  1.00  0.00    -0.119 C  
HETATM   26  C   UNL     1      -8.444  11.809  65.792  1.00  0.00     0.296 C  
HETATM   27  C   UNL     1     -10.725  13.129  69.045  1.00  0.00    -0.107 C  
HETATM   28  C   UNL     1      -8.928   9.919  63.963  1.00  0.00    -0.243 C  
HETATM   29  C   UNL     1     -11.099  13.782  67.668  1.00  0.00    -0.292 C  
HETATM   30  C   UNL     1      -9.869  13.857  66.655  1.00  0.00    -0.284 C  
HETATM   31  O   UNL     1      -7.549  10.053  64.296  1.00  0.00    -0.136 OA 
HETATM   32  C   UNL     1      -9.757  12.634  65.688  1.00  0.00    -0.149 C  
HETATM   33  O   UNL     1      -7.449  12.208  66.379  1.00  0.00     0.200 OA 
HETATM   34  C   UNL     1     -10.202  12.849  64.242  1.00  0.00    -0.337 C  
BRANCH  15  35
HETATM   35  O   UNL     1      -8.891   6.988  68.227  1.00  0.00    -0.127 OA 
BRANCH  35  36
HETATM   36  C   UNL     1      -8.555   6.333  67.013  1.00  0.00    -0.104 C  
HETATM   37  C   UNL     1      -9.738   4.797  65.569  1.00  0.00    -0.152 C  
HETATM   38  C   UNL     1      -7.658   3.890  66.662  1.00  0.00    -0.088 C  
HETATM   39  C   UNL     1     -11.189   4.483  65.204  1.00  0.00     0.251 C  
HETATM   40  C   UNL     1      -7.634   5.181  67.521  1.00  0.00    -0.088 C  
HETATM   41  O   UNL     1      -9.756   5.934  66.401  1.00  0.00    -0.157 OA 
HETATM   42  C   UNL     1      -9.143   3.631  66.324  1.00  0.00    -0.157 C  
BRANCH  38  43
HETATM   43  N   UNL     1      -7.136   2.670  67.357  1.00  0.00    -0.052 NA 
HETATM   44  C   UNL     1      -8.215   1.843  67.913  1.00  0.00    -0.060 C  
HETATM   45  C   UNL     1      -6.282   1.833  66.518  1.00  0.00    -0.023 C  
ENDBRANCH  38  43
BRANCH  40  46
HETATM   46  O   UNL     1      -6.322   5.675  67.914  1.00  0.00    -0.038 OA 
BRANCH  46  47
HETATM   47  C   UNL     1      -5.986   6.974  67.739  1.00  0.00    -0.029 C  
HETATM   48  C   UNL     1      -5.288   7.162  66.430  1.00  0.00    -0.023 C  
HETATM   49  O   UNL     1      -6.182   7.861  68.560  1.00  0.00    -0.041 OA 
ENDBRANCH  46  47
ENDBRANCH  40  46
ENDBRANCH  35  36
ENDBRANCH  15  35
BRANCH  30  50
HETATM   50  O   UNL     1     -10.086  15.064  65.882  1.00  0.00    -0.279 OA 
BRANCH  50  51
HETATM   51  C   UNL     1      -9.919  16.243  66.538  1.00  0.00    -0.277 C  
HETATM   52  O   UNL     1     -10.740  17.144  66.596  1.00  0.00    -0.221 OA 
HETATM   53  C   UNL     1      -8.616  16.254  67.275  1.00  0.00    -0.199 C  
ENDBRANCH  50  51
ENDBRANCH  30  50
ENDBRANCH  10  11
ENDBRANCH   5  10
BRANCH   9  54
HETATM   54  O   UNL     1      -8.100   6.024  74.292  1.00  0.00    -0.103 OA 
BRANCH  54  55
HETATM   55  C   UNL     1      -8.904   4.930  74.391  1.00  0.00    -0.112 C  
HETATM   56  C   UNL     1     -10.346   5.331  74.512  1.00  0.00    -0.286 C  
HETATM   57  O   UNL     1      -8.529   3.766  74.387  1.00  0.00    -0.087 OA 
ENDBRANCH  54  55
ENDBRANCH   9  54
ENDBRANCH   2   3
TORSDOF 12
ENDMDL
MODEL        5
REMARK 921   NORMALIZED FREE ENERGY PREDICTED BY IDOCK:    2.63 KCAL/MOL
REMARK 922        TOTAL FREE ENERGY PREDICTED BY IDOCK:    2.09 KCAL/MOL
REMARK 923 INTER-LIGAND FREE ENERGY PREDICTED BY IDOCK:   -0.66 KCAL/MOL
REMARK 924 INTRA-LIGAND FREE ENERGY PREDICTED BY IDOCK:    2.75 KCAL/MOL
REMARK 927      BINDING AFFINITY PREDICTED BY RF-SCORE:    0.00 PKD
ROOT
HETATM    1  C   UNL     1      -6.965  10.710  64.030  1.00  0.00     0.254 C  
HETATM    2  O   UNL     1      -8.290  10.281  63.741  1.00  0.00    -0.160 OA 
ENDROOT
BRANCH   2   3
HETATM    3  C   UNL     1      -9.268  11.076  64.429  1.00  0.00    -0.158 C  
HETATM    4  C   UNL     1     -10.335  10.146  65.047  1.00  0.00    -0.059 C  
HETATM    5  C   UNL     1      -9.805   9.387  66.264  1.00  0.00    -0.281 C  
HETATM    6  O   UNL     1      -9.332  10.382  67.148  1.00  0.00    -0.155 OA 
HETATM    7  C   UNL     1      -6.905  10.428  66.744  1.00  0.00    -0.091 C  
HETATM    8  C   UNL     1      -8.231  11.189  66.731  1.00  0.00    -0.154 C  
HETATM    9  C   UNL     1      -8.537  11.957  65.452  1.00  0.00     0.588 C  
BRANCH   5  10
HETATM   10  O   UNL     1     -10.880   8.566  66.853  1.00  0.00    -0.190 OA 
BRANCH  10  11
HETATM   11  C   UNL     1     -10.542   7.998  68.145  1.00  0.00    -0.116 C  
HETATM   12  C   UNL     1     -11.205   8.829  69.332  1.00  0.00     0.163 C  
HETATM   13  C   UNL     1     -11.978   5.848  69.029  1.00  0.00     2.135 C  
HETATM   14  C   UNL     1     -12.533   9.432  68.853  1.00  0.00     2.940 C  
HETATM   15  C   UNL     1     -10.069   9.680  70.043  1.00  0.00    -0.252 C  
HETATM   16  C   UNL     1     -10.719   6.442  68.363  1.00  0.00    -0.349 C  
HETATM   17  O   UNL     1     -10.755   5.236  66.257  1.00  0.00    -0.294 OA 
HETATM   18  C   UNL     1      -9.338   9.046  71.249  1.00  0.00    -0.324 C  
HETATM   19  C   UNL     1      -9.359   7.548  71.202  1.00  0.00    -0.155 C  
HETATM   20  C   UNL     1      -7.868   9.583  71.289  1.00  0.00     0.338 C  
HETATM   21  C   UNL     1     -10.162   5.501  67.296  1.00  0.00    -0.212 C  
HETATM   22  C   UNL     1      -6.853   5.436  67.135  1.00  0.00    -0.063 C  
HETATM   23  O   UNL     1      -9.080   4.748  67.718  1.00  0.00    -0.109 OA 
HETATM   24  C   UNL     1      -6.877   8.704  72.040  1.00  0.00    -0.068 C  
HETATM   25  C   UNL     1      -8.383   4.088  70.481  1.00  0.00    -0.085 C  
HETATM   26  C   UNL     1      -6.062   7.689  71.245  1.00  0.00    -0.035 C  
HETATM   27  C   UNL     1      -7.876   5.363  68.274  1.00  0.00    -0.088 C  
HETATM   28  C   UNL     1      -7.022   8.649  73.550  1.00  0.00     0.052 C  
HETATM   29  C   UNL     1      -7.299   4.552  69.487  1.00  0.00    -0.051 C  
HETATM   30  C   UNL     1      -6.059   5.271  70.189  1.00  0.00    -0.018 C  
HETATM   31  O   UNL     1      -6.061   9.500  72.932  1.00  0.00    -0.297 OA 
HETATM   32  C   UNL     1      -6.445   6.190  71.392  1.00  0.00    -0.050 C  
HETATM   33  O   UNL     1      -5.288   8.101  70.394  1.00  0.00    -0.023 OA 
HETATM   34  C   UNL     1      -6.172   5.649  72.795  1.00  0.00    -0.048 C  
BRANCH  15  35
HETATM   35  O   UNL     1     -10.177  11.071  70.240  1.00  0.00     0.529 OA 
BRANCH  35  36
HETATM   36  C   UNL     1     -11.056  11.909  69.505  1.00  0.00    -0.102 C  
HETATM   37  C   UNL     1     -10.906  14.185  68.707  1.00  0.00    -0.258 C  
HETATM   38  C   UNL     1     -12.712  13.738  70.405  1.00  0.00    -0.178 C  
HETATM   39  C   UNL     1      -9.808  15.163  68.288  1.00  0.00    -0.223 C  
HETATM   40  C   UNL     1     -12.075  12.338  70.606  1.00  0.00    -0.237 C  
HETATM   41  O   UNL     1     -10.286  12.943  68.945  1.00  0.00    -0.163 OA 
HETATM   42  C   UNL     1     -11.558  14.673  69.980  1.00  0.00    -0.335 C  
BRANCH  38  43
HETATM   43  N   UNL     1     -13.334  14.322  71.636  1.00  0.00    -0.345 NA 
HETATM   44  C   UNL     1     -12.328  14.811  72.588  1.00  0.00    -0.287 C  
HETATM   45  C   UNL     1     -14.289  15.392  71.364  1.00  0.00    -0.389 C  
ENDBRANCH  38  43
BRANCH  40  46
HETATM   46  O   UNL     1     -12.985  11.254  70.949  1.00  0.00    -0.273 OA 
BRANCH  46  47
HETATM   47  C   UNL     1     -13.521  11.160  72.188  1.00  0.00    -0.088 C  
HETATM   48  C   UNL     1     -13.780   9.730  72.538  1.00  0.00    -0.176 C  
HETATM   49  O   UNL     1     -13.799  12.116  72.900  1.00  0.00     0.237 OA 
ENDBRANCH  46  47
ENDBRANCH  40  46
ENDBRANCH  35  36
ENDBRANCH  15  35
BRANCH  30  50
HETATM   50  O   UNL     1      -5.212   4.192  70.660  1.00  0.00    -0.003 OA 
BRANCH  50  51
HETATM   51  C   UNL     1      -5.430   2.967  70.111  1.00  0.00    -0.016 C  
HETATM   52  O   UNL     1      -5.679   2.752  68.936  1.00  0.00    -0.021 OA 
HETATM   53  C   UNL     1      -5.223   1.890  71.130  1.00  0.00    -0.004 C  
ENDBRANCH  50  51
ENDBRANCH  30  50
ENDBRANCH  10  11
ENDBRANCH   5  10
BRANCH   9  54
HETATM   54  O   UNL     1      -9.420  13.063  65.802  1.00  0.00    -0.125 OA 
BRANCH  54  55
HETATM   55  C   UNL     1     -10.460  13.317  64.960  1.00  0.00    -0.353 C  
HETATM   56  C   UNL     1     -11.773  13.226  65.684  1.00  0.00    -0.389 C  
HETATM   57  O   UNL     1     -10.365  13.581  63.770  1.00  0.00    -0.046 OA 
ENDBRANCH  54  55
ENDBRANCH   9  54
ENDBRANCH   2   3
TORSDOF 12
ENDMDL
MODEL        6
REMARK 921   NORMALIZED FREE ENERGY PREDICTED BY IDOCK:    2.67 KCAL/MOL
REMARK 922        TOTAL FREE ENERGY PREDICTED BY IDOCK:    2.17 KCAL/MOL
REMARK 923 INTER-LIGAND FREE ENERGY PREDICTED BY IDOCK:    0.05 KCAL/MOL
REMARK 924 INTRA-LIGAND FREE ENERGY PREDICTED BY IDOCK:    2.12 KCAL/MOL
REMARK 927      BINDING AFFINITY PREDICTED BY RF-SCORE:    0.00 PKD
ROOT
HETATM    1  C   UNL     1      -7.327   1.722  67.770  1.00  0.00    -0.050 C  
HETATM    2  O   UNL     1      -6.844   3.025  68.078  1.00  0.00    -0.047 OA 
ENDROOT
BRANCH   2   3
HETATM    3  C   UNL     1      -6.809   3.256  69.494  1.00  0.00    -0.037 C  
HETATM    4  C   UNL     1      -6.799   4.778  69.760  1.00  0.00    -0.051 C  
HETATM    5  C   UNL     1      -8.160   5.420  69.489  1.00  0.00    -0.096 C  
HETATM    6  O   UNL     1      -9.077   4.705  70.291  1.00  0.00    -0.098 OA 
HETATM    7  C   UNL     1     -10.089   3.088  68.735  1.00  0.00     0.852 C  
HETATM    8  C   UNL     1      -9.282   3.319  70.013  1.00  0.00    -0.151 C  
HETATM    9  C   UNL     1      -7.993   2.516  70.132  1.00  0.00    -0.042 C  
BRANCH   5  10
HETATM   10  O   UNL     1      -8.114   6.857  69.821  1.00  0.00    -0.121 OA 
BRANCH  10  11
HETATM   11  C   UNL     1      -9.041   7.666  69.051  1.00  0.00    -0.144 C  
HETATM   12  C   UNL     1      -8.666   7.656  67.502  1.00  0.00    -0.125 C  
HETATM   13  C   UNL     1     -11.439   6.568  68.340  1.00  0.00     0.036 C  
HETATM   14  C   UNL     1      -8.021   6.310  67.143  1.00  0.00    -0.109 C  
HETATM   15  C   UNL     1      -8.019   9.057  67.134  1.00  0.00    -0.102 C  
HETATM   16  C   UNL     1     -10.593   7.464  69.270  1.00  0.00    -0.220 C  
HETATM   17  O   UNL     1     -11.073   6.417  71.406  1.00  0.00    -0.255 OA 
HETATM   18  C   UNL     1      -8.957  10.177  66.628  1.00  0.00    -0.156 C  
HETATM   19  C   UNL     1     -10.363  10.006  67.120  1.00  0.00    -0.300 C  
HETATM   20  C   UNL     1      -8.376  11.562  67.069  1.00  0.00    -0.165 C  
HETATM   21  C   UNL     1     -11.116   7.421  70.704  1.00  0.00    -0.266 C  
HETATM   22  C   UNL     1     -10.935  10.318  72.303  1.00  0.00     3.299 C  
HETATM   23  O   UNL     1     -11.899   8.508  71.051  1.00  0.00    -0.284 OA 
HETATM   24  C   UNL     1      -9.388  12.698  67.138  1.00  0.00    -0.210 C  
HETATM   25  C   UNL     1     -13.356  10.265  69.223  1.00  0.00     2.622 C  
HETATM   26  C   UNL     1     -10.051  12.998  68.478  1.00  0.00    -0.192 C  
HETATM   27  C   UNL     1     -11.422   9.884  70.917  1.00  0.00    -0.376 C  
HETATM   28  C   UNL     1      -9.925  13.214  65.815  1.00  0.00    -0.252 C  
HETATM   29  C   UNL     1     -12.540  10.852  70.392  1.00  0.00    -0.376 C  
HETATM   30  C   UNL     1     -12.008  12.332  70.118  1.00  0.00    -0.298 C  
HETATM   31  O   UNL     1      -8.868  13.886  66.494  1.00  0.00    -0.141 OA 
HETATM   32  C   UNL     1     -11.540  12.585  68.649  1.00  0.00    -0.357 C  
HETATM   33  O   UNL     1      -9.348  13.363  69.408  1.00  0.00     0.622 OA 
HETATM   34  C   UNL     1     -12.478  13.386  67.748  1.00  0.00     0.260 C  
BRANCH  15  35
HETATM   35  O   UNL     1      -6.770   9.169  66.491  1.00  0.00    -0.073 OA 
BRANCH  35  36
HETATM   36  C   UNL     1      -6.603   9.167  65.081  1.00  0.00    -0.072 C  
HETATM   37  C   UNL     1      -8.118   9.492  63.226  1.00  0.00    -0.151 C  
HETATM   38  C   UNL     1      -7.051   7.216  63.381  1.00  0.00    -0.066 C  
HETATM   39  C   UNL     1      -9.426  10.237  62.956  1.00  0.00    -0.331 C  
HETATM   40  C   UNL     1      -6.523   7.639  64.776  1.00  0.00    -0.044 C  
HETATM   41  O   UNL     1      -7.700   9.846  64.524  1.00  0.00    -0.132 OA 
HETATM   42  C   UNL     1      -8.363   8.002  63.167  1.00  0.00     0.016 C  
BRANCH  38  43
HETATM   43  N   UNL     1      -7.374   5.759  63.252  1.00  0.00    -0.056 NA 
HETATM   44  C   UNL     1      -8.551   5.524  62.405  1.00  0.00    -0.068 C  
HETATM   45  C   UNL     1      -6.264   4.951  62.756  1.00  0.00    -0.021 C  
ENDBRANCH  38  43
BRANCH  40  46
HETATM   46  O   UNL     1      -5.243   7.075  65.184  1.00  0.00    -0.026 OA 
BRANCH  46  47
HETATM   47  C   UNL     1      -5.185   5.973  65.967  1.00  0.00    -0.012 C  
HETATM   48  C   UNL     1      -5.133   6.360  67.410  1.00  0.00    -0.005 C  
HETATM   49  O   UNL     1      -5.133   4.824  65.549  1.00  0.00    -0.008 OA 
ENDBRANCH  46  47
ENDBRANCH  40  46
ENDBRANCH  35  36
ENDBRANCH  15  35
BRANCH  30  50
HETATM   50  O   UNL     1     -13.130  13.200  70.421  1.00  0.00     0.153 OA 
BRANCH  50  51
HETATM   51  C   UNL     1     -13.144  13.761  71.659  1.00  0.00    -0.375 C  
HETATM   52  O   UNL     1     -13.553  13.224  72.676  1.00  0.00    -0.626 OA 
HETATM   53  C   UNL     1     -12.492  15.109  71.634  1.00  0.00    -0.418 C  
ENDBRANCH  50  51
ENDBRANCH  30  50
ENDBRANCH  10  11
ENDBRANCH   5  10
BRANCH   9  54
HETATM   54  O   UNL     1      -7.706   2.352  71.553  1.00  0.00    -0.040 OA 
BRANCH  54  55
HETATM   55  C   UNL     1      -8.710   2.643  72.425  1.00  0.00    -0.070 C  
HETATM   56  C   UNL     1      -8.306   3.744  73.363  1.00  0.00    -0.088 C  
HETATM   57  O   UNL     1      -9.802   2.094  72.464  1.00  0.00    -0.106 OA 
ENDBRANCH  54  55
ENDBRANCH   9  54
ENDBRANCH   2   3
TORSDOF 12
ENDMDL
MODEL        7
REMARK 921   NORMALIZED FREE ENERGY PREDICTED BY IDOCK:    3.05 KCAL/MOL
REMARK 922        TOTAL FREE ENERGY PREDICTED BY IDOCK:    2.81 KCAL/MOL
REMARK 923 INTER-LIGAND FREE ENERGY PREDICTED BY IDOCK:   -2.63 KCAL/MOL
REMARK 924 INTRA-LIGAND FREE ENERGY PREDICTED BY IDOCK:    5.43 KCAL/MOL
REMARK 927      BINDING AFFINITY PREDICTED BY RF-SCORE:    0.00 PKD
ROOT
HETATM    1  C   UNL     1      -8.153   8.116  62.331  1.00  0.00    -0.167 C  
HETATM    2  O   UNL     1      -8.647   7.196  63.299  1.00  0.00     0.234 OA 
ENDROOT
BRANCH   2   3
HETATM    3  C   UNL     1      -7.692   6.965  64.346  1.00  0.00    -0.113 C  
HETATM    4  C   UNL     1      -7.898   8.014  65.461  1.00  0.00    -0.106 C  
HETATM    5  C   UNL     1      -9.160   7.747  66.281  1.00  0.00    -0.178 C  
HETATM    6  O   UNL     1      -9.022   6.424  66.758  1.00  0.00    -0.122 OA 
HETATM    7  C   UNL     1     -10.361   5.084  65.187  1.00  0.00     0.278 C  
HETATM    8  C   UNL     1      -8.991   5.361  65.806  1.00  0.00    -0.158 C  
HETATM    9  C   UNL     1      -7.841   5.512  64.819  1.00  0.00    -0.106 C  
BRANCH   5  10
HETATM   10  O   UNL     1      -9.273   8.736  67.370  1.00  0.00    -0.134 OA 
BRANCH  10  11
HETATM   11  C   UNL     1      -8.583   9.984  67.102  1.00  0.00    -0.128 C  
HETATM   12  C   UNL     1      -7.028   9.866  67.430  1.00  0.00    -0.083 C  
HETATM   13  C   UNL     1      -7.861  10.538  64.527  1.00  0.00     0.007 C  
HETATM   14  C   UNL     1      -6.563   8.425  67.178  1.00  0.00    -0.058 C  
HETATM   15  C   UNL     1      -6.739  10.651  68.778  1.00  0.00    -0.055 C  
HETATM   16  C   UNL     1      -8.827  10.708  65.718  1.00  0.00    -0.198 C  
HETATM   17  O   UNL     1     -10.899   9.990  64.679  1.00  0.00     0.798 OA 
HETATM   18  C   UNL     1      -6.334  12.139  68.677  1.00  0.00    -0.063 C  
HETATM   19  C   UNL     1      -6.849  12.784  67.424  1.00  0.00    -0.137 C  
HETATM   20  C   UNL     1      -6.852  12.893  69.947  1.00  0.00     0.369 C  
HETATM   21  C   UNL     1     -10.268  10.877  65.242  1.00  0.00    -0.288 C  
HETATM   22  C   UNL     1     -12.054  13.008  67.044  1.00  0.00    -0.330 C  
HETATM   23  O   UNL     1     -10.707  12.189  65.230  1.00  0.00    -0.270 OA 
HETATM   24  C   UNL     1      -7.023  14.398  69.784  1.00  0.00    -0.051 C  
HETATM   25  C   UNL     1      -9.039  14.588  65.103  1.00  0.00     1.556 C  
HETATM   26  C   UNL     1      -8.396  14.933  69.394  1.00  0.00    -0.069 C  
HETATM   27  C   UNL     1     -10.654  13.036  66.421  1.00  0.00    -0.284 C  
HETATM   28  C   UNL     1      -5.752  15.220  69.671  1.00  0.00    -0.113 C  
HETATM   29  C   UNL     1     -10.225  14.508  66.086  1.00  0.00    -0.317 C  
HETATM   30  C   UNL     1     -10.037  15.417  67.384  1.00  0.00    -0.233 C  
HETATM   31  O   UNL     1      -6.448  15.103  70.909  1.00  0.00     0.164 OA 
HETATM   32  C   UNL     1      -8.577  15.452  67.940  1.00  0.00    -0.156 C  
HETATM   33  O   UNL     1      -9.331  14.755  70.161  1.00  0.00     0.368 OA 
HETATM   34  C   UNL     1      -7.757  16.710  67.659  1.00  0.00    -0.183 C  
BRANCH  15  35
HETATM   35  O   UNL     1      -6.074  10.060  69.871  1.00  0.00    -0.042 OA 
BRANCH  35  36
HETATM   36  C   UNL     1      -6.724   9.650  71.065  1.00  0.00    -0.013 C  
HETATM   37  C   UNL     1      -6.403   7.796  72.582  1.00  0.00    -0.063 C  
HETATM   38  C   UNL     1      -8.610   7.849  71.370  1.00  0.00    -0.123 C  
HETATM   39  C   UNL     1      -5.254   6.895  73.033  1.00  0.00    -0.037 C  
HETATM   40  C   UNL     1      -8.026   8.997  70.507  1.00  0.00    -0.139 C  
HETATM   41  O   UNL     1      -5.849   8.787  71.748  1.00  0.00    -0.047 OA 
HETATM   42  C   UNL     1      -7.405   6.982  71.796  1.00  0.00    -0.086 C  
BRANCH  38  43
HETATM   43  N   UNL     1      -9.573   6.956  70.649  1.00  0.00    -0.169 NA 
HETATM   44  C   UNL     1      -8.889   5.957  69.818  1.00  0.00    -0.128 C  
HETATM   45  C   UNL     1     -10.518   6.275  71.530  1.00  0.00    -0.223 C  
ENDBRANCH  38  43
BRANCH  40  46
HETATM   46  O   UNL     1      -8.970  10.000  70.035  1.00  0.00    -0.195 OA 
BRANCH  46  47
HETATM   47  C   UNL     1     -10.231  10.054  70.524  1.00  0.00    -0.092 C  
HETATM   48  C   UNL     1     -11.226  10.026  69.409  1.00  0.00    -0.235 C  
HETATM   49  O   UNL     1     -10.514  10.162  71.710  1.00  0.00     0.957 OA 
ENDBRANCH  46  47
ENDBRANCH  40  46
ENDBRANCH  35  36
ENDBRANCH  15  35
BRANCH  30  50
HETATM   50  O   UNL     1     -10.427  16.752  66.971  1.00  0.00    -0.313 OA 
BRANCH  50  51
HETATM   51  C   UNL     1     -10.637  17.656  67.965  1.00  0.00    -0.376 C  
HETATM   52  O   UNL     1     -10.580  17.419  69.161  1.00  0.00    -0.321 OA 
HETATM   53  C   UNL     1     -10.855  19.023  67.395  1.00  0.00    -0.496 C  
ENDBRANCH  50  51
ENDBRANCH  30  50
ENDBRANCH  10  11
ENDBRANCH   5  10
BRANCH   9  54
HETATM   54  O   UNL     1      -6.613   5.139  65.513  1.00  0.00    -0.039 OA 
BRANCH  54  55
HETATM   55  C   UNL     1      -6.633   3.981  66.228  1.00  0.00    -0.038 C  
HETATM   56  C   UNL     1      -6.576   2.786  65.319  1.00  0.00    -0.035 C  
HETATM   57  O   UNL     1      -6.692   3.896  67.446  1.00  0.00    -0.045 OA 
ENDBRANCH  54  55
ENDBRANCH   9  54
ENDBRANCH   2   3
TORSDOF 12
ENDMDL
MODEL        8
REMARK 921   NORMALIZED FREE ENERGY PREDICTED BY IDOCK:    3.33 KCAL/MOL
REMARK 922        TOTAL FREE ENERGY PREDICTED BY IDOCK:    3.29 KCAL/MOL
REMARK 923 INTER-LIGAND FREE ENERGY PREDICTED BY IDOCK:   -2.96 KCAL/MOL
REMARK 924 INTRA-LIGAND FREE ENERGY PREDICTED BY IDOCK:    6.25 KCAL/MOL
REMARK 927      BINDING AFFINITY PREDICTED BY RF-SCORE:    0.00 PKD
ROOT
HETATM    1  C   UNL     1      -8.370   3.462  74.565  1.00  0.00    -0.080 C  
HETATM    2  O   UNL     1      -7.978   4.012  73.312  1.00  0.00    -0.086 OA 
ENDROOT
BRANCH   2   3
HETATM    3  C   UNL     1      -8.792   5.136  72.948  1.00  0.00    -0.117 C  
HETATM    4  C   UNL     1      -8.088   5.931  71.826  1.00  0.00    -0.118 C  
HETATM    5  C   UNL     1      -8.141   5.204  70.482  1.00  0.00    -0.095 C  
HETATM    6  O   UNL     1      -9.512   4.966  70.240  1.00  0.00    -0.145 OA 
HETATM    7  C   UNL     1      -9.843   2.632  70.950  1.00  0.00    -0.014 C  
HETATM    8  C   UNL     1     -10.217   4.103  71.134  1.00  0.00     0.030 C  
HETATM    9  C   UNL     1     -10.186   4.617  72.567  1.00  0.00    -0.185 C  
BRANCH   5  10
HETATM   10  O   UNL     1      -7.515   6.034  69.435  1.00  0.00    -0.084 OA 
BRANCH  10  11
HETATM   11  C   UNL     1      -8.355   7.120  68.967  1.00  0.00    -0.126 C  
HETATM   12  C   UNL     1      -9.620   6.569  68.169  1.00  0.00    -0.123 C  
HETATM   13  C   UNL     1     -10.122   8.240  70.724  1.00  0.00    -0.218 C  
HETATM   14  C   UNL     1     -10.025   5.203  68.738  1.00  0.00    -0.237 C  
HETATM   15  C   UNL     1      -9.389   6.834  66.621  1.00  0.00    -0.165 C  
HETATM   16  C   UNL     1      -8.768   8.258  69.985  1.00  0.00    -0.133 C  
HETATM   17  O   UNL     1      -7.259   8.358  71.883  1.00  0.00    -0.084 OA 
HETATM   18  C   UNL     1      -9.923   8.157  66.026  1.00  0.00     0.149 C  
HETATM   19  C   UNL     1     -10.028   9.242  67.056  1.00  0.00    -0.286 C  
HETATM   20  C   UNL     1      -8.990   8.595  64.847  1.00  0.00    -0.007 C  
HETATM   21  C   UNL     1      -7.672   8.875  70.852  1.00  0.00    -0.122 C  
HETATM   22  C   UNL     1      -5.486  10.715  69.174  1.00  0.00    -0.041 C  
HETATM   23  O   UNL     1      -7.388  10.194  70.546  1.00  0.00    -0.292 OA 
HETATM   24  C   UNL     1      -9.029  10.079  64.506  1.00  0.00    -0.226 C  
HETATM   25  C   UNL     1      -9.154  12.092  69.191  1.00  0.00     0.565 C  
HETATM   26  C   UNL     1      -7.990  10.996  65.143  1.00  0.00     0.250 C  
HETATM   27  C   UNL     1      -7.015  10.616  69.196  1.00  0.00    -0.085 C  
HETATM   28  C   UNL     1     -10.296  10.595  63.849  1.00  0.00    -0.152 C  
HETATM   29  C   UNL     1      -7.666  11.987  68.800  1.00  0.00    -0.054 C  
HETATM   30  C   UNL     1      -7.374  12.405  67.288  1.00  0.00    -0.127 C  
HETATM   31  O   UNL     1      -9.144  10.272  63.077  1.00  0.00    -0.215 OA 
HETATM   32  C   UNL     1      -8.471  11.949  66.272  1.00  0.00     0.031 C  
HETATM   33  O   UNL     1      -6.810  10.809  64.883  1.00  0.00     0.057 OA 
HETATM   34  C   UNL     1      -9.436  13.020  65.764  1.00  0.00     0.015 C  
BRANCH  15  35
HETATM   35  O   UNL     1      -9.491   5.813  65.655  1.00  0.00    -0.057 OA 
BRANCH  35  36
HETATM   36  C   UNL     1      -8.483   5.529  64.696  1.00  0.00    -0.108 C  
HETATM   37  C   UNL     1      -8.146   3.727  63.121  1.00  0.00    -0.080 C  
HETATM   38  C   UNL     1      -6.403   3.942  64.925  1.00  0.00    -0.027 C  
HETATM   39  C   UNL     1      -9.010   2.738  62.338  1.00  0.00    -0.081 C  
HETATM   40  C   UNL     1      -7.334   4.984  65.599  1.00  0.00    -0.077 C  
HETATM   41  O   UNL     1      -9.023   4.617  63.773  1.00  0.00    -0.143 OA 
HETATM   42  C   UNL     1      -7.330   2.981  64.151  1.00  0.00    -0.066 C  
BRANCH  38  43
HETATM   43  N   UNL     1      -5.596   3.117  65.880  1.00  0.00    -0.017 NA 
HETATM   44  C   UNL     1      -5.947   3.388  67.281  1.00  0.00    -0.024 C  
HETATM   45  C   UNL     1      -5.684   1.680  65.639  1.00  0.00    -0.013 C  
ENDBRANCH  38  43
BRANCH  40  46
HETATM   46  O   UNL     1      -6.682   6.052  66.343  1.00  0.00    -0.056 OA 
BRANCH  46  47
HETATM   47  C   UNL     1      -5.812   6.893  65.737  1.00  0.00    -0.035 C  
HETATM   48  C   UNL     1      -5.320   7.922  66.703  1.00  0.00    -0.028 C  
HETATM   49  O   UNL     1      -5.510   6.846  64.552  1.00  0.00    -0.030 OA 
ENDBRANCH  46  47
ENDBRANCH  40  46
ENDBRANCH  35  36
ENDBRANCH  15  35
BRANCH  30  50
HETATM   50  O   UNL     1      -7.303  13.854  67.301  1.00  0.00    -0.146 OA 
BRANCH  50  51
HETATM   51  C   UNL     1      -6.544  14.414  68.279  1.00  0.00    -0.116 C  
HETATM   52  O   UNL     1      -5.426  14.047  68.605  1.00  0.00    -0.080 OA 
HETATM   53  C   UNL     1      -7.224  15.620  68.849  1.00  0.00    -0.146 C  
ENDBRANCH  50  51
ENDBRANCH  30  50
ENDBRANCH  10  11
ENDBRANCH   5  10
BRANCH   9  54
HETATM   54  O   UNL     1     -11.120   5.734  72.656  1.00  0.00    -0.248 OA 
BRANCH  54  55
HETATM   55  C   UNL     1     -12.446   5.441  72.562  1.00  0.00     0.521 C  
HETATM   56  C   UNL     1     -13.212   6.594  71.979  1.00  0.00    -0.033 C  
HETATM   57  O   UNL     1     -12.970   4.390  72.903  1.00  0.00     0.640 OA 
ENDBRANCH  54  55
ENDBRANCH   9  54
ENDBRANCH   2   3
TORSDOF 12
ENDMDL
MODEL        9
REMARK 921   NORMALIZED FREE ENERGY PREDICTED BY IDOCK:    3.43 KCAL/MOL
REMARK 922        TOTAL FREE ENERGY PREDICTED BY IDOCK:    3.45 KCAL/MOL
REMARK 923 INTER-LIGAND FREE ENERGY PREDICTED BY IDOCK:   -4.21 KCAL/MOL
REMARK 924 INTRA-LIGAND FREE ENERGY PREDICTED BY IDOCK:    7.65 KCAL/MOL
REMARK 927      BINDING AFFINITY PREDICTED BY RF-SCORE:    0.00 PKD
ROOT
HETATM    1  C   UNL     1      -9.884  16.269  65.893  1.00  0.00    -0.334 C  
HETATM    2  O   UNL     1     -10.843  15.434  66.531  1.00  0.00    -0.309 OA 
ENDROOT
BRANCH   2   3
HETATM    3  C   UNL     1     -11.092  14.239  65.776  1.00  0.00    -0.310 C  
HETATM    4  C   UNL     1      -9.860  13.311  65.873  1.00  0.00    -0.241 C  
HETATM    5  C   UNL     1      -9.738  12.656  67.249  1.00  0.00    -0.207 C  
HETATM    6  O   UNL     1     -10.969  11.995  67.459  1.00  0.00    -0.229 OA 
HETATM    7  C   UNL     1     -12.246  13.556  68.869  1.00  0.00    -0.194 C  
HETATM    8  C   UNL     1     -12.154  12.786  67.552  1.00  0.00    -0.150 C  
HETATM    9  C   UNL     1     -12.393  13.607  66.291  1.00  0.00    -0.412 C  
BRANCH   5  10
HETATM   10  O   UNL     1      -8.587  11.733  67.267  1.00  0.00    -0.149 OA 
BRANCH  10  11
HETATM   11  C   UNL     1      -8.932  10.372  67.635  1.00  0.00    -0.138 C  
HETATM   12  C   UNL     1      -9.232  10.256  69.196  1.00  0.00    -0.203 C  
HETATM   13  C   UNL     1     -11.496   9.527  67.216  1.00  0.00     1.194 C  
HETATM   14  C   UNL     1      -9.824  11.579  69.701  1.00  0.00     0.794 C  
HETATM   15  C   UNL     1      -8.003   9.531  69.890  1.00  0.00    -0.149 C  
HETATM   16  C   UNL     1     -10.017   9.603  66.781  1.00  0.00    -0.289 C  
HETATM   17  O   UNL     1     -10.282  10.577  64.574  1.00  0.00    -0.348 OA 
HETATM   18  C   UNL     1      -8.058   7.993  70.035  1.00  0.00    -0.116 C  
HETATM   19  C   UNL     1      -8.930   7.355  68.995  1.00  0.00    -0.131 C  
HETATM   20  C   UNL     1      -6.600   7.425  69.965  1.00  0.00    -0.046 C  
HETATM   21  C   UNL     1      -9.890   9.639  65.260  1.00  0.00    -0.199 C  
HETATM   22  C   UNL     1      -7.290   7.963  64.072  1.00  0.00    -0.101 C  
HETATM   23  O   UNL     1      -9.566   8.420  64.691  1.00  0.00     0.964 OA 
HETATM   24  C   UNL     1      -6.493   5.961  69.559  1.00  0.00    -0.042 C  
HETATM   25  C   UNL     1     -10.003   5.776  65.864  1.00  0.00     0.097 C  
HETATM   26  C   UNL     1      -6.264   5.633  68.088  1.00  0.00    -0.033 C  
HETATM   27  C   UNL     1      -8.385   7.661  65.101  1.00  0.00    -0.093 C  
HETATM   28  C   UNL     1      -6.969   4.936  70.572  1.00  0.00    -0.044 C  
HETATM   29  C   UNL     1      -8.665   6.120  65.178  1.00  0.00     0.011 C  
HETATM   30  C   UNL     1      -7.428   5.285  65.744  1.00  0.00    -0.082 C  
HETATM   31  O   UNL     1      -5.586   5.252  70.437  1.00  0.00    -0.011 OA 
HETATM   32  C   UNL     1      -7.464   5.050  67.289  1.00  0.00    -0.083 C  
HETATM   33  O   UNL     1      -5.231   6.016  67.558  1.00  0.00    -0.004 OA 
HETATM   34  C   UNL     1      -7.868   3.658  67.771  1.00  0.00    -0.077 C  
BRANCH  15  35
HETATM   35  O   UNL     1      -7.327  10.080  70.998  1.00  0.00    -0.260 OA 
BRANCH  35  36
HETATM   36  C   UNL     1      -6.129  10.835  70.898  1.00  0.00     0.074 C  
HETATM   37  C   UNL     1      -5.142  12.577  72.253  1.00  0.00     0.136 C  
HETATM   38  C   UNL     1      -5.786  13.244  69.912  1.00  0.00    -0.122 C  
HETATM   39  C   UNL     1      -5.159  13.010  73.719  1.00  0.00     0.079 C  
HETATM   40  C   UNL     1      -6.501  11.873  69.795  1.00  0.00    -0.077 C  
HETATM   41  O   UNL     1      -5.855  11.364  72.172  1.00  0.00     0.330 OA 
HETATM   42  C   UNL     1      -5.832  13.622  71.408  1.00  0.00    -0.067 C  
BRANCH  38  43
HETATM   43  N   UNL     1      -6.439  14.354  69.147  1.00  0.00    -0.101 NA 
HETATM   44  C   UNL     1      -6.447  15.616  69.899  1.00  0.00    -0.137 C  
HETATM   45  C   UNL     1      -5.851  14.590  67.832  1.00  0.00    -0.125 C  
ENDBRANCH  38  43
BRANCH  40  46
HETATM   46  O   UNL     1      -6.529  11.266  68.472  1.00  0.00    -0.049 OA 
BRANCH  46  47
HETATM   47  C   UNL     1      -5.664  10.279  68.140  1.00  0.00    -0.037 C  
HETATM   48  C   UNL     1      -5.364  10.318  66.676  1.00  0.00    -0.042 C  
HETATM   49  O   UNL     1      -5.229   9.443  68.921  1.00  0.00    -0.037 OA 
ENDBRANCH  46  47
ENDBRANCH  40  46
ENDBRANCH  35  36
ENDBRANCH  15  35
BRANCH  30  50
HETATM   50  O   UNL     1      -7.488   4.007  65.062  1.00  0.00    -0.074 OA 
BRANCH  50  51
HETATM   51  C   UNL     1      -6.759   3.895  63.920  1.00  0.00    -0.043 C  
HETATM   52  O   UNL     1      -7.204   3.610  62.820  1.00  0.00    -0.046 OA 
HETATM   53  C   UNL     1      -5.330   4.268  64.169  1.00  0.00    -0.013 C  
ENDBRANCH  50  51
ENDBRANCH  30  50
ENDBRANCH  10  11
ENDBRANCH   5  10
BRANCH   9  54
HETATM   54  O   UNL     1     -12.889  12.700  65.262  1.00  0.00    -0.656 OA 
BRANCH  54  55
HETATM   55  C   UNL     1     -12.635  13.034  63.967  1.00  0.00    -0.209 C  
HETATM   56  C   UNL     1     -12.057  11.871  63.214  1.00  0.00    -0.466 C  
HETATM   57  O   UNL     1     -12.838  14.129  63.460  1.00  0.00    -0.600 OA 
ENDBRANCH  54  55
ENDBRANCH   9  54
ENDBRANCH   2   3
TORSDOF 12
ENDMDL
MODEL       10
REMARK 921   NORMALIZED FREE ENERGY PREDICTED BY IDOCK:    3.61 KCAL/MOL
REMARK 922        TOTAL FREE ENERGY PREDICTED BY IDOCK:    3.77 KCAL/MOL
REMARK 923 INTER-LIGAND FREE ENERGY PREDICTED BY IDOCK:    0.21 KCAL/MOL
REMARK 924 INTRA-LIGAND FREE ENERGY PREDICTED BY IDOCK:    3.56 KCAL/MOL
REMARK 927      BINDING AFFINITY PREDICTED BY RF-SCORE:    0.00 PKD
ROOT
HETATM    1  C   UNL     1      -8.220  10.523  63.116  1.00  0.00    -0.125 C  
HETATM    2  O   UNL     1      -9.631  10.485  62.934  1.00  0.00    -0.310 OA 
ENDROOT
BRANCH   2   3
HETATM    3  C   UNL     1     -10.297  11.468  63.740  1.00  0.00    -0.399 C  
HETATM    4  C   UNL     1     -11.240  10.755  64.735  1.00  0.00     0.469 C  
HETATM    5  C   UNL     1     -10.473  10.062  65.862  1.00  0.00    -0.045 C  
HETATM    6  O   UNL     1      -9.679  11.072  66.449  1.00  0.00    -0.191 OA 
HETATM    7  C   UNL     1      -7.464  10.757  65.423  1.00  0.00     0.053 C  
HETATM    8  C   UNL     1      -8.661  11.680  65.654  1.00  0.00     0.203 C  
HETATM    9  C   UNL     1      -9.230  12.346  64.408  1.00  0.00     0.703 C  
BRANCH   5  10
HETATM   10  O   UNL     1     -11.419   9.455  66.817  1.00  0.00     0.805 OA 
BRANCH  10  11
HETATM   11  C   UNL     1     -10.796   8.982  68.039  1.00  0.00    -0.041 C  
HETATM   12  C   UNL     1     -11.081   9.974  69.254  1.00  0.00    -0.248 C  
HETATM   13  C   UNL     1     -12.083   7.055  69.486  1.00  0.00     0.555 C  
HETATM   14  C   UNL     1     -12.449  10.641  69.055  1.00  0.00     0.436 C  
HETATM   15  C   UNL     1      -9.753  10.785  69.560  1.00  0.00     0.017 C  
HETATM   16  C   UNL     1     -11.004   7.474  68.466  1.00  0.00     0.062 C  
HETATM   17  O   UNL     1     -11.651   6.086  66.583  1.00  0.00     0.253 OA 
HETATM   18  C   UNL     1      -8.776  10.206  70.609  1.00  0.00     0.868 C  
HETATM   19  C   UNL     1      -8.898   8.716  70.737  1.00  0.00    -0.206 C  
HETATM   20  C   UNL     1      -7.316  10.615  70.222  1.00  0.00     0.330 C  
HETATM   21  C   UNL     1     -10.796   6.394  67.406  1.00  0.00    -0.375 C  
HETATM   22  C   UNL     1      -7.649   6.029  66.435  1.00  0.00    -0.094 C  
HETATM   23  O   UNL     1      -9.690   5.593  67.626  1.00  0.00    -0.115 OA 
HETATM   24  C   UNL     1      -6.219   9.727  70.796  1.00  0.00    -0.096 C  
HETATM   25  C   UNL     1      -8.348   5.133  70.184  1.00  0.00    -0.093 C  
HETATM   26  C   UNL     1      -5.698   8.577  69.942  1.00  0.00    -0.028 C  
HETATM   27  C   UNL     1      -8.348   6.151  67.793  1.00  0.00    -0.116 C  
HETATM   28  C   UNL     1      -5.975   9.825  72.291  1.00  0.00     0.374 C  
HETATM   29  C   UNL     1      -7.529   5.409  68.907  1.00  0.00    -0.075 C  
HETATM   30  C   UNL     1      -6.110   6.080  69.194  1.00  0.00    -0.029 C  
HETATM   31  O   UNL     1      -5.156  10.529  71.363  1.00  0.00    -0.083 OA 
HETATM   32  C   UNL     1      -6.119   7.136  70.345  1.00  0.00    -0.027 C  
HETATM   33  O   UNL     1      -5.144   8.840  68.884  1.00  0.00    -0.032 OA 
HETATM   34  C   UNL     1      -5.529   6.707  71.687  1.00  0.00    -0.028 C  
BRANCH  15  35
HETATM   35  O   UNL     1      -9.723  12.193  69.622  1.00  0.00     0.948 OA 
BRANCH  35  36
HETATM   36  C   UNL     1      -9.855  13.037  68.488  1.00  0.00    -0.151 C  
HETATM   37  C   UNL     1      -8.399  14.661  67.445  1.00  0.00    -0.206 C  
HETATM   38  C   UNL     1     -10.544  15.570  68.402  1.00  0.00    -0.252 C  
HETATM   39  C   UNL     1      -6.896  14.905  67.310  1.00  0.00    -0.000 C  
HETATM   40  C   UNL     1     -10.761  14.177  69.049  1.00  0.00    -0.231 C  
HETATM   41  O   UNL     1      -8.561  13.421  68.094  1.00  0.00    -0.162 OA 
HETATM   42  C   UNL     1      -9.015  15.753  68.289  1.00  0.00    -0.182 C  
BRANCH  38  43
HETATM   43  N   UNL     1     -11.076  16.718  69.204  1.00  0.00    -0.219 NA 
HETATM   44  C   UNL     1     -10.806  16.565  70.640  1.00  0.00     0.132 C  
HETATM   45  C   UNL     1     -10.585  18.022  68.766  1.00  0.00    -0.028 C  
ENDBRANCH  38  43
BRANCH  40  46
HETATM   46  O   UNL     1     -12.141  13.740  69.201  1.00  0.00    -0.346 OA 
BRANCH  46  47
HETATM   47  C   UNL     1     -12.708  13.636  70.426  1.00  0.00    -0.141 C  
HETATM   48  C   UNL     1     -13.366  14.923  70.808  1.00  0.00    -0.338 C  
HETATM   49  O   UNL     1     -12.645  12.644  71.141  1.00  0.00    -0.366 OA 
ENDBRANCH  46  47
ENDBRANCH  40  46
ENDBRANCH  35  36
ENDBRANCH  15  35
BRANCH  30  50
HETATM   50  O   UNL     1      -5.237   4.980  69.556  1.00  0.00     0.000 OA 
BRANCH  50  51
HETATM   51  C   UNL     1      -5.464   3.794  68.932  1.00  0.00    -0.013 C  
HETATM   52  O   UNL     1      -5.860   2.774  69.473  1.00  0.00    -0.021 OA 
HETATM   53  C   UNL     1      -5.258   3.929  67.455  1.00  0.00    -0.011 C  
ENDBRANCH  50  51
ENDBRANCH  30  50
ENDBRANCH  10  11
ENDBRANCH   5  10
BRANCH   9  54
HETATM   54  O   UNL     1      -9.869  13.589  64.825  1.00  0.00    -0.177 OA 
BRANCH  54  55
HETATM   55  C   UNL     1     -10.929  14.019  64.086  1.00  0.00     0.013 C  
HETATM   56  C   UNL     1     -11.332  15.410  64.482  1.00  0.00    -0.321 C  
HETATM   57  O   UNL     1     -11.498  13.377  63.215  1.00  0.00    -0.090 OA 
ENDBRANCH  54  55
ENDBRANCH   9  54
ENDBRANCH   2   3
TORSDOF 12
ENDMDL
MODEL       11
REMARK 921   NORMALIZED FREE ENERGY PREDICTED BY IDOCK:    3.67 KCAL/MOL
REMARK 922        TOTAL FREE ENERGY PREDICTED BY IDOCK:    3.87 KCAL/MOL
REMARK 923 INTER-LIGAND FREE ENERGY PREDICTED BY IDOCK:   -1.76 KCAL/MOL
REMARK 924 INTRA-LIGAND FREE ENERGY PREDICTED BY IDOCK:    5.63 KCAL/MOL
REMARK 927      BINDING AFFINITY PREDICTED BY RF-SCORE:    0.00 PKD
ROOT
HETATM    1  C   UNL     1     -12.153   6.277  73.875  1.00  0.00     3.435 C  
HETATM    2  O   UNL     1     -11.254   6.895  72.962  1.00  0.00    -0.257 OA 
ENDROOT
BRANCH   2   3
HETATM    3  C   UNL     1     -10.982   6.052  71.832  1.00  0.00    -0.264 C  
HETATM    4  C   UNL     1     -10.143   6.840  70.802  1.00  0.00    -0.208 C  
HETATM    5  C   UNL     1      -8.696   7.030  71.260  1.00  0.00    -0.130 C  
HETATM    6  O   UNL     1      -8.211   5.729  71.517  1.00  0.00    -0.116 OA 
HETATM    7  C   UNL     1      -8.426   5.488  73.957  1.00  0.00    -0.115 C  
HETATM    8  C   UNL     1      -8.817   4.978  72.570  1.00  0.00    -0.123 C  
HETATM    9  C   UNL     1     -10.308   4.770  72.340  1.00  0.00    -0.201 C  
BRANCH   5  10
HETATM   10  O   UNL     1      -7.924   7.728  70.214  1.00  0.00    -0.097 OA 
BRANCH  10  11
HETATM   11  C   UNL     1      -8.659   7.928  68.979  1.00  0.00    -0.135 C  
HETATM   12  C   UNL     1      -8.783   6.570  68.154  1.00  0.00    -0.117 C  
HETATM   13  C   UNL     1     -11.388   7.956  69.084  1.00  0.00     0.454 C  
HETATM   14  C   UNL     1      -8.825   5.385  69.129  1.00  0.00    -0.110 C  
HETATM   15  C   UNL     1      -7.794   6.644  66.916  1.00  0.00    -0.108 C  
HETATM   16  C   UNL     1     -10.038   8.700  69.028  1.00  0.00    -0.207 C  
HETATM   17  O   UNL     1     -10.233  10.068  71.023  1.00  0.00    -0.034 OA 
HETATM   18  C   UNL     1      -8.345   7.195  65.581  1.00  0.00    -0.138 C  
HETATM   19  C   UNL     1      -9.504   8.124  65.785  1.00  0.00     0.020 C  
HETATM   20  C   UNL     1      -7.185   7.910  64.810  1.00  0.00    -0.074 C  
HETATM   21  C   UNL     1     -10.097  10.013  69.806  1.00  0.00    -0.248 C  
HETATM   22  C   UNL     1      -8.385  12.491  68.425  1.00  0.00    -0.132 C  
HETATM   23  O   UNL     1     -10.277  11.132  69.012  1.00  0.00    -0.209 OA 
HETATM   24  C   UNL     1      -7.629   8.941  63.780  1.00  0.00    -0.121 C  
HETATM   25  C   UNL     1     -11.430  11.198  66.325  1.00  0.00     0.197 C  
HETATM   26  C   UNL     1      -7.711  10.402  64.208  1.00  0.00    -0.038 C  
HETATM   27  C   UNL     1      -9.380  11.449  67.902  1.00  0.00    -0.164 C  
HETATM   28  C   UNL     1      -8.292   8.408  62.524  1.00  0.00    -0.165 C  
HETATM   29  C   UNL     1     -10.151  11.996  66.651  1.00  0.00    -0.220 C  
HETATM   30  C   UNL     1      -9.207  12.230  65.385  1.00  0.00     0.238 C  
HETATM   31  O   UNL     1      -6.912   8.762  62.536  1.00  0.00    -0.095 OA 
HETATM   32  C   UNL     1      -9.126  11.012  64.410  1.00  0.00    -0.119 C  
HETATM   33  O   UNL     1      -6.684  10.966  64.557  1.00  0.00     0.238 OA 
HETATM   34  C   UNL     1      -9.913  11.114  63.104  1.00  0.00    -0.393 C  
BRANCH  15  35
HETATM   35  O   UNL     1      -6.839   5.642  66.648  1.00  0.00    -0.059 OA 
BRANCH  35  36
HETATM   36  C   UNL     1      -7.159   4.269  66.480  1.00  0.00    -0.067 C  
HETATM   37  C   UNL     1      -6.085   2.214  67.162  1.00  0.00    -0.020 C  
HETATM   38  C   UNL     1      -6.257   2.585  64.678  1.00  0.00    -0.019 C  
HETATM   39  C   UNL     1      -5.164   1.744  68.288  1.00  0.00    -0.012 C  
HETATM   40  C   UNL     1      -6.733   4.027  64.999  1.00  0.00    -0.048 C  
HETATM   41  O   UNL     1      -6.444   3.546  67.450  1.00  0.00    -0.036 OA 
HETATM   42  C   UNL     1      -5.341   2.169  65.848  1.00  0.00    -0.005 C  
BRANCH  38  43
HETATM   43  N   UNL     1      -5.461   2.459  63.415  1.00  0.00    -0.008 NA 
HETATM   44  C   UNL     1      -6.124   1.602  62.424  1.00  0.00    -0.008 C  
HETATM   45  C   UNL     1      -5.135   3.740  62.793  1.00  0.00    -0.005 C  
ENDBRANCH  38  43
BRANCH  40  46
HETATM   46  O   UNL     1      -7.675   4.623  64.063  1.00  0.00    -0.073 OA 
BRANCH  46  47
HETATM   47  C   UNL     1      -8.689   3.898  63.538  1.00  0.00    -0.102 C  
HETATM   48  C   UNL     1      -9.883   3.942  64.436  1.00  0.00    -0.188 C  
HETATM   49  O   UNL     1      -8.621   3.255  62.498  1.00  0.00    -0.077 OA 
ENDBRANCH  46  47
ENDBRANCH  40  46
ENDBRANCH  35  36
ENDBRANCH  15  35
BRANCH  30  50
HETATM   50  O   UNL     1      -9.780  13.366  64.689  1.00  0.00    -0.039 OA 
BRANCH  50  51
HETATM   51  C   UNL     1      -9.955  14.499  65.421  1.00  0.00    -0.318 C  
HETATM   52  O   UNL     1      -9.185  14.921  66.268  1.00  0.00    -0.287 OA 
HETATM   53  C   UNL     1     -11.186  15.226  64.977  1.00  0.00    -0.409 C  
ENDBRANCH  50  51
ENDBRANCH  30  50
ENDBRANCH  10  11
ENDBRANCH   5  10
BRANCH   9  54
HETATM   54  O   UNL     1     -10.457   3.748  71.310  1.00  0.00     0.184 OA 
BRANCH  54  55
HETATM   55  C   UNL     1      -9.731   2.606  71.461  1.00  0.00    -0.152 C  
HETATM   56  C   UNL     1      -9.058   2.223  70.174  1.00  0.00    -0.175 C  
HETATM   57  O   UNL     1      -9.626   1.959  72.493  1.00  0.00    -0.080 OA 
ENDBRANCH  54  55
ENDBRANCH   9  54
ENDBRANCH   2   3
TORSDOF 12
ENDMDL
MODEL       12
REMARK 921   NORMALIZED FREE ENERGY PREDICTED BY IDOCK:    4.63 KCAL/MOL
REMARK 922        TOTAL FREE ENERGY PREDICTED BY IDOCK:    5.50 KCAL/MOL
REMARK 923 INTER-LIGAND FREE ENERGY PREDICTED BY IDOCK:   -2.50 KCAL/MOL
REMARK 924 INTRA-LIGAND FREE ENERGY PREDICTED BY IDOCK:    8.00 KCAL/MOL
REMARK 927      BINDING AFFINITY PREDICTED BY RF-SCORE:    0.00 PKD
ROOT
HETATM    1  C   UNL     1      -9.583  15.051  65.842  1.00  0.00    -0.321 C  
HETATM    2  O   UNL     1      -8.352  14.815  66.515  1.00  0.00    -0.086 OA 
ENDROOT
BRANCH   2   3
HETATM    3  C   UNL     1      -8.332  15.424  67.814  1.00  0.00    -0.147 C  
HETATM    4  C   UNL     1      -8.656  14.355  68.881  1.00  0.00    -0.064 C  
HETATM    5  C   UNL     1      -7.494  13.385  69.099  1.00  0.00     0.151 C  
HETATM    6  O   UNL     1      -6.385  14.198  69.422  1.00  0.00    -0.101 OA 
HETATM    7  C   UNL     1      -5.161  14.402  67.297  1.00  0.00     0.625 C  
HETATM    8  C   UNL     1      -5.902  15.107  68.433  1.00  0.00    -0.107 C  
HETATM    9  C   UNL     1      -6.969  16.105  68.004  1.00  0.00    -0.128 C  
BRANCH   5  10
HETATM   10  O   UNL     1      -7.831  12.429  70.171  1.00  0.00     1.792 OA 
BRANCH  10  11
HETATM   11  C   UNL     1      -8.421  11.193  69.691  1.00  0.00     0.642 C  
HETATM   12  C   UNL     1      -9.849  11.453  69.034  1.00  0.00    -0.056 C  
HETATM   13  C   UNL     1      -7.625  10.237  67.259  1.00  0.00    -0.095 C  
HETATM   14  C   UNL     1      -9.871  12.851  68.400  1.00  0.00    -0.197 C  
HETATM   15  C   UNL     1     -10.964  10.934  70.036  1.00  0.00    -0.151 C  
HETATM   16  C   UNL     1      -7.544  10.225  68.800  1.00  0.00    -0.093 C  
HETATM   17  O   UNL     1      -5.170  10.634  69.095  1.00  0.00    -0.042 OA 
HETATM   18  C   UNL     1     -11.453   9.476  69.883  1.00  0.00    -0.100 C  
HETATM   19  C   UNL     1     -10.420   8.594  69.248  1.00  0.00    -0.226 C  
HETATM   20  C   UNL     1     -11.865   8.929  71.291  1.00  0.00    -0.371 C  
HETATM   21  C   UNL     1      -6.131   9.895  69.278  1.00  0.00    -0.040 C  
HETATM   22  C   UNL     1      -6.021   8.018  72.005  1.00  0.00    -0.042 C  
HETATM   23  O   UNL     1      -5.962   8.579  69.670  1.00  0.00    -0.032 OA 
HETATM   24  C   UNL     1     -11.856   7.412  71.425  1.00  0.00    -0.300 C  
HETATM   25  C   UNL     1      -7.593   6.291  68.859  1.00  0.00    -0.092 C  
HETATM   26  C   UNL     1     -10.601   6.741  71.973  1.00  0.00    -0.213 C  
HETATM   27  C   UNL     1      -6.806   7.958  70.690  1.00  0.00    -0.041 C  
HETATM   28  C   UNL     1     -12.942   6.655  70.684  1.00  0.00     0.615 C  
HETATM   29  C   UNL     1      -7.179   6.477  70.333  1.00  0.00    -0.080 C  
HETATM   30  C   UNL     1      -8.202   5.822  71.368  1.00  0.00    -0.126 C  
HETATM   31  O   UNL     1     -13.064   6.948  72.072  1.00  0.00    -0.249 OA 
HETATM   32  C   UNL     1      -9.705   5.966  70.966  1.00  0.00    -0.209 C  
HETATM   33  O   UNL     1     -10.253   6.999  73.116  1.00  0.00    -0.205 OA 
HETATM   34  C   UNL     1     -10.396   4.726  70.401  1.00  0.00    -0.183 C  
BRANCH  15  35
HETATM   35  O   UNL     1     -12.036  11.744  70.461  1.00  0.00    -0.363 OA 
BRANCH  35  36
HETATM   36  C   UNL     1     -12.818  12.544  69.587  1.00  0.00     0.881 C  
HETATM   37  C   UNL     1     -12.528  13.285  67.304  1.00  0.00     0.157 C  
HETATM   38  C   UNL     1     -12.571  15.103  69.047  1.00  0.00     0.264 C  
HETATM   39  C   UNL     1     -11.825  12.791  66.040  1.00  0.00    -0.495 C  
HETATM   40  C   UNL     1     -12.510  13.980  70.115  1.00  0.00    -0.319 C  
HETATM   41  O   UNL     1     -12.397  12.271  68.274  1.00  0.00    -0.209 OA 
HETATM   42  C   UNL     1     -11.853  14.543  67.800  1.00  0.00    -0.390 C  
BRANCH  38  43
HETATM   43  N   UNL     1     -11.875  16.371  69.436  1.00  0.00    -0.012 NA 
HETATM   44  C   UNL     1     -10.544  16.121  70.005  1.00  0.00    -0.269 C  
HETATM   45  C   UNL     1     -11.751  17.334  68.345  1.00  0.00     1.083 C  
ENDBRANCH  38  43
BRANCH  40  46
HETATM   46  O   UNL     1     -13.188  14.246  71.376  1.00  0.00    -0.325 OA 
BRANCH  46  47
HETATM   47  C   UNL     1     -12.624  15.040  72.316  1.00  0.00    -0.340 C  
HETATM   48  C   UNL     1     -13.615  16.041  72.817  1.00  0.00    -0.462 C  
HETATM   49  O   UNL     1     -11.453  14.980  72.668  1.00  0.00    -0.337 OA 
ENDBRANCH  46  47
ENDBRANCH  40  46
ENDBRANCH  35  36
ENDBRANCH  15  35
BRANCH  30  50
HETATM   50  O   UNL     1      -7.848   4.416  71.411  1.00  0.00    -0.077 OA 
BRANCH  50  51
HETATM   51  C   UNL     1      -6.587   4.120  71.825  1.00  0.00    -0.022 C  
HETATM   52  O   UNL     1      -6.104   4.433  72.901  1.00  0.00    -0.015 OA 
HETATM   53  C   UNL     1      -5.889   3.264  70.815  1.00  0.00    -0.014 C  
ENDBRANCH  50  51
ENDBRANCH  30  50
ENDBRANCH  10  11
ENDBRANCH   5  10
BRANCH   9  54
HETATM   54  O   UNL     1      -7.106  17.090  69.072  1.00  0.00    -0.220 OA 
BRANCH  54  55
HETATM   55  C   UNL     1      -6.816  18.384  68.762  1.00  0.00    -0.271 C  
HETATM   56  C   UNL     1      -5.563  18.835  69.457  1.00  0.00    -0.227 C  
HETATM   57  O   UNL     1      -7.471  19.105  68.024  1.00  0.00    -0.250 OA 
ENDBRANCH  54  55
ENDBRANCH   9  54
ENDBRANCH   2   3
TORSDOF 12
ENDMDL
MODEL       13
REMARK 921   NORMALIZED FREE ENERGY PREDICTED BY IDOCK:    5.46 KCAL/MOL
REMARK 922        TOTAL FREE ENERGY PREDICTED BY IDOCK:    6.91 KCAL/MOL
REMARK 923 INTER-LIGAND FREE ENERGY PREDICTED BY IDOCK:    7.81 KCAL/MOL
REMARK 924 INTRA-LIGAND FREE ENERGY PREDICTED BY IDOCK:   -0.90 KCAL/MOL
REMARK 927      BINDING AFFINITY PREDICTED BY RF-SCORE:    0.00 PKD
ROOT
HETATM    1  C   UNL     1      -8.248   3.624  69.559  1.00  0.00    -0.052 C  
HETATM    2  O   UNL     1      -8.129   4.997  69.913  1.00  0.00    -0.073 OA 
ENDROOT
BRANCH   2   3
HETATM    3  C   UNL     1      -8.597   5.244  71.248  1.00  0.00    -0.128 C  
HETATM    4  C   UNL     1      -8.451   6.748  71.567  1.00  0.00    -0.119 C  
HETATM    5  C   UNL     1      -9.489   7.598  70.833  1.00  0.00    -0.164 C  
HETATM    6  O   UNL     1     -10.741   7.055  71.198  1.00  0.00    -0.227 OA 
HETATM    7  C   UNL     1     -11.328   5.597  69.304  1.00  0.00     0.427 C  
HETATM    8  C   UNL     1     -11.039   5.716  70.800  1.00  0.00    -0.126 C  
HETATM    9  C   UNL     1     -10.034   4.717  71.358  1.00  0.00    -0.197 C  
BRANCH   5  10
HETATM   10  O   UNL     1      -9.348   9.014  71.224  1.00  0.00    -0.240 OA 
BRANCH  10  11
HETATM   11  C   UNL     1     -10.043   9.936  70.345  1.00  0.00    -0.195 C  
HETATM   12  C   UNL     1      -9.518   9.811  68.846  1.00  0.00    -0.161 C  
HETATM   13  C   UNL     1     -12.504   9.220  69.400  1.00  0.00     1.899 C  
HETATM   14  C   UNL     1      -9.072   8.366  68.582  1.00  0.00    -0.140 C  
HETATM   15  C   UNL     1      -8.612  11.074  68.525  1.00  0.00    -0.158 C  
HETATM   16  C   UNL     1     -11.622   9.997  70.399  1.00  0.00    -0.379 C  
HETATM   17  O   UNL     1     -12.487   9.118  72.489  1.00  0.00    -0.308 OA 
HETATM   18  C   UNL     1      -9.294  12.313  67.902  1.00  0.00    -0.190 C  
HETATM   19  C   UNL     1     -10.752  12.391  68.243  1.00  0.00    -0.250 C  
HETATM   20  C   UNL     1      -8.540  13.600  68.379  1.00  0.00    -0.151 C  
HETATM   21  C   UNL     1     -12.289  10.091  71.769  1.00  0.00    -0.345 C  
HETATM   22  C   UNL     1     -11.796  12.973  73.328  1.00  0.00     5.434 C  
HETATM   23  O   UNL     1     -12.913  11.302  72.011  1.00  0.00    -0.445 OA 
HETATM   24  C   UNL     1      -9.351  14.888  68.319  1.00  0.00    -0.195 C  
HETATM   25  C   UNL     1     -13.862  13.209  70.007  1.00  0.00     3.322 C  
HETATM   26  C   UNL     1     -10.090  15.338  69.574  1.00  0.00    -0.256 C  
HETATM   27  C   UNL     1     -12.203  12.576  71.905  1.00  0.00     0.888 C  
HETATM   28  C   UNL     1      -9.656  15.437  66.937  1.00  0.00    -0.226 C  
HETATM   29  C   UNL     1     -13.084  13.695  71.247  1.00  0.00    -0.357 C  
HETATM   30  C   UNL     1     -12.289  15.058  71.006  1.00  0.00    -0.332 C  
HETATM   31  O   UNL     1      -8.578  15.951  67.713  1.00  0.00    -0.158 OA 
HETATM   32  C   UNL     1     -11.636  15.179  69.591  1.00  0.00    -0.335 C  
HETATM   33  O   UNL     1      -9.435  15.616  70.568  1.00  0.00     0.459 OA 
HETATM   34  C   UNL     1     -12.331  16.091  68.581  1.00  0.00     0.587 C  
BRANCH  15  35
HETATM   35  O   UNL     1      -7.303  10.958  68.019  1.00  0.00    -0.085 OA 
BRANCH  35  36
HETATM   36  C   UNL     1      -7.000  10.756  66.646  1.00  0.00    -0.129 C  
HETATM   37  C   UNL     1      -8.358  10.535  64.659  1.00  0.00    -0.114 C  
HETATM   38  C   UNL     1      -6.995   8.511  65.282  1.00  0.00    -0.078 C  
HETATM   39  C   UNL     1      -9.727  11.010  64.170  1.00  0.00    -0.332 C  
HETATM   40  C   UNL     1      -6.672   9.231  66.617  1.00  0.00    -0.076 C  
HETATM   41  O   UNL     1      -8.125  11.155  65.902  1.00  0.00    -0.123 OA 
HETATM   42  C   UNL     1      -8.380   9.035  64.841  1.00  0.00    -0.178 C  
BRANCH  38  43
HETATM   43  N   UNL     1      -7.091   7.020  65.385  1.00  0.00    -0.066 NA 
HETATM   44  C   UNL     1      -8.457   6.571  65.684  1.00  0.00    -0.144 C  
HETATM   45  C   UNL     1      -6.608   6.315  64.201  1.00  0.00    -0.034 C  
ENDBRANCH  38  43
BRANCH  40  46
HETATM   46  O   UNL     1      -5.371   8.950  67.207  1.00  0.00    -0.033 OA 
BRANCH  46  47
HETATM   47  C   UNL     1      -5.256   8.148  68.292  1.00  0.00    -0.033 C  
HETATM   48  C   UNL     1      -5.203   8.965  69.542  1.00  0.00    -0.034 C  
HETATM   49  O   UNL     1      -5.159   6.929  68.249  1.00  0.00    -0.010 OA 
ENDBRANCH  46  47
ENDBRANCH  40  46
ENDBRANCH  35  36
ENDBRANCH  15  35
BRANCH  30  50
HETATM   50  O   UNL     1     -13.276  16.107  71.172  1.00  0.00    -0.153 OA 
BRANCH  50  51
HETATM   51  C   UNL     1     -13.367  16.664  72.409  1.00  0.00     1.761 C  
HETATM   52  O   UNL     1     -14.383  16.731  73.082  1.00  0.00     0.526 OA 
HETATM   53  C   UNL     1     -12.019  17.103  72.888  1.00  0.00     0.608 C  
ENDBRANCH  50  51
ENDBRANCH  30  50
ENDBRANCH  10  11
ENDBRANCH   5  10
BRANCH   9  54
HETATM   54  O   UNL     1     -10.336   4.532  72.774  1.00  0.00    -0.174 OA 
BRANCH  54  55
HETATM   55  C   UNL     1     -10.174   3.280  73.284  1.00  0.00    -0.147 C  
HETATM   56  C   UNL     1      -8.765   3.071  73.761  1.00  0.00    -0.073 C  
HETATM   57  O   UNL     1     -11.041   2.421  73.353  1.00  0.00    -0.176 OA 
ENDBRANCH  54  55
ENDBRANCH   9  54
ENDBRANCH   2   3
TORSDOF 12
ENDMDL
MODEL       14
REMARK 921   NORMALIZED FREE ENERGY PREDICTED BY IDOCK:    6.11 KCAL/MOL
REMARK 922        TOTAL FREE ENERGY PREDICTED BY IDOCK:    8.02 KCAL/MOL
REMARK 923 INTER-LIGAND FREE ENERGY PREDICTED BY IDOCK:   -1.27 KCAL/MOL
REMARK 924 INTRA-LIGAND FREE ENERGY PREDICTED BY IDOCK:    9.28 KCAL/MOL
REMARK 927      BINDING AFFINITY PREDICTED BY RF-SCORE:    0.00 PKD
ROOT
HETATM    1  C   UNL     1     -11.055  13.738  63.762  1.00  0.00     0.334 C  
HETATM    2  O   UNL     1      -9.977  14.304  64.498  1.00  0.00    -0.178 OA 
ENDROOT
BRANCH   2   3
HETATM    3  C   UNL     1     -10.396  14.748  65.797  1.00  0.00    -0.340 C  
HETATM    4  C   UNL     1      -9.946  13.716  66.856  1.00  0.00    -0.260 C  
HETATM    5  C   UNL     1      -8.439  13.766  67.106  1.00  0.00    -0.175 C  
HETATM    6  O   UNL     1      -8.163  15.106  67.460  1.00  0.00    -0.152 OA 
HETATM    7  C   UNL     1      -7.344  16.113  65.369  1.00  0.00     4.136 C  
HETATM    8  C   UNL     1      -8.390  16.123  66.483  1.00  0.00    -0.317 C  
HETATM    9  C   UNL     1      -9.842  16.161  66.024  1.00  0.00    -0.347 C  
BRANCH   5  10
HETATM   10  O   UNL     1      -8.073  12.811  68.170  1.00  0.00    -0.141 OA 
BRANCH  10  11
HETATM   11  C   UNL     1      -8.706  11.513  68.035  1.00  0.00    -0.151 C  
HETATM   12  C   UNL     1     -10.282  11.614  68.251  1.00  0.00    -0.206 C  
HETATM   13  C   UNL     1      -9.246  10.590  65.521  1.00  0.00    -0.223 C  
HETATM   14  C   UNL     1     -10.774  12.988  67.778  1.00  0.00    -0.242 C  
HETATM   15  C   UNL     1     -10.632  11.006  69.675  1.00  0.00    -0.083 C  
HETATM   16  C   UNL     1      -8.354  10.619  66.779  1.00  0.00    -0.132 C  
HETATM   17  O   UNL     1      -6.242  11.270  65.776  1.00  0.00     0.008 OA 
HETATM   18  C   UNL     1     -10.985   9.503  69.754  1.00  0.00    -0.245 C  
HETATM   19  C   UNL     1     -10.372   8.717  68.634  1.00  0.00    -0.219 C  
HETATM   20  C   UNL     1     -10.525   8.947  71.143  1.00  0.00    -0.336 C  
HETATM   21  C   UNL     1      -6.881  10.443  66.416  1.00  0.00    -0.112 C  
HETATM   22  C   UNL     1      -5.149   8.644  68.594  1.00  0.00    -0.030 C  
HETATM   23  O   UNL     1      -6.402   9.159  66.610  1.00  0.00    -0.064 OA 
HETATM   24  C   UNL     1     -10.299   7.442  71.197  1.00  0.00    -0.201 C  
HETATM   25  C   UNL     1      -7.985   6.702  66.713  1.00  0.00    -0.108 C  
HETATM   26  C   UNL     1      -8.888   6.913  70.965  1.00  0.00    -0.140 C  
HETATM   27  C   UNL     1      -6.505   8.478  67.900  1.00  0.00    -0.057 C  
HETATM   28  C   UNL     1     -11.535   6.564  71.124  1.00  0.00    -0.326 C  
HETATM   29  C   UNL     1      -6.868   6.960  67.744  1.00  0.00    -0.081 C  
HETATM   30  C   UNL     1      -7.109   6.226  69.140  1.00  0.00    -0.077 C  
HETATM   31  O   UNL     1     -10.923   6.873  72.372  1.00  0.00    -0.228 OA 
HETATM   32  C   UNL     1      -8.600   6.210  69.609  1.00  0.00    -0.128 C  
HETATM   33  O   UNL     1      -8.010   7.228  71.755  1.00  0.00    -0.094 OA 
HETATM   34  C   UNL     1      -9.363   4.895  69.455  1.00  0.00    -0.190 C  
BRANCH  15  35
HETATM   35  O   UNL     1     -11.383  11.713  70.636  1.00  0.00     0.192 OA 
BRANCH  35  36
HETATM   36  C   UNL     1     -12.137  12.881  70.347  1.00  0.00    -0.306 C  
HETATM   37  C   UNL     1     -11.562  15.216  70.107  1.00  0.00    -0.292 C  
HETATM   38  C   UNL     1     -13.105  14.661  72.018  1.00  0.00    -0.337 C  
HETATM   39  C   UNL     1     -10.342  16.039  69.692  1.00  0.00    -0.283 C  
HETATM   40  C   UNL     1     -12.814  13.166  71.724  1.00  0.00    -0.258 C  
HETATM   41  O   UNL     1     -11.241  13.861  69.890  1.00  0.00    -0.165 OA 
HETATM   42  C   UNL     1     -11.844  15.435  71.575  1.00  0.00    -0.450 C  
BRANCH  38  43
HETATM   43  N   UNL     1     -13.342  14.976  73.463  1.00  0.00    -0.403 NA 
HETATM   44  C   UNL     1     -12.116  14.861  74.265  1.00  0.00    -0.145 C  
HETATM   45  C   UNL     1     -13.935  16.291  73.690  1.00  0.00     0.889 C  
ENDBRANCH  38  43
BRANCH  40  46
HETATM   46  O   UNL     1     -13.893  12.228  71.998  1.00  0.00    -0.176 OA 
BRANCH  46  47
HETATM   47  C   UNL     1     -13.696  10.893  71.903  1.00  0.00     0.127 C  
HETATM   48  C   UNL     1     -14.196  10.382  70.590  1.00  0.00     1.874 C  
HETATM   49  O   UNL     1     -13.221  10.194  72.790  1.00  0.00     0.133 OA 
ENDBRANCH  46  47
ENDBRANCH  40  46
ENDBRANCH  35  36
ENDBRANCH  15  35
BRANCH  30  50
HETATM   50  O   UNL     1      -6.654   4.865  68.938  1.00  0.00    -0.042 OA 
BRANCH  50  51
HETATM   51  C   UNL     1      -6.087   4.249  70.009  1.00  0.00    -0.019 C  
HETATM   52  O   UNL     1      -6.070   3.045  70.207  1.00  0.00    -0.022 OA 
HETATM   53  C   UNL     1      -5.388   5.247  70.880  1.00  0.00    -0.005 C  
ENDBRANCH  50  51
ENDBRANCH  30  50
ENDBRANCH  10  11
ENDBRANCH   5  10
BRANCH   9  54
HETATM   54  O   UNL     1     -10.624  16.784  67.087  1.00  0.00    -0.315 OA 
BRANCH  54  55
HETATM   55  C   UNL     1     -10.771  18.136  67.036  1.00  0.00    -0.253 C  
HETATM   56  C   UNL     1     -11.126  18.587  65.648  1.00  0.00     0.469 C  
HETATM   57  O   UNL     1     -10.636  18.904  67.978  1.00  0.00    -0.375 OA 
ENDBRANCH  54  55
ENDBRANCH   9  54
ENDBRANCH   2   3
TORSDOF 12
ENDMDL
MODEL       15
REMARK 921   NORMALIZED FREE ENERGY PREDICTED BY IDOCK:    7.91 KCAL/MOL
REMARK 922        TOTAL FREE ENERGY PREDICTED BY IDOCK:   11.07 KCAL/MOL
REMARK 923 INTER-LIGAND FREE ENERGY PREDICTED BY IDOCK:   11.92 KCAL/MOL
REMARK 924 INTRA-LIGAND FREE ENERGY PREDICTED BY IDOCK:   -0.85 KCAL/MOL
REMARK 927      BINDING AFFINITY PREDICTED BY RF-SCORE:    0.00 PKD
ROOT
HETATM    1  C   UNL     1     -11.347  11.987  70.440  1.00  0.00     0.511 C  
HETATM    2  O   UNL     1     -11.081  12.652  71.669  1.00  0.00     3.804 OA 
ENDROOT
BRANCH   2   3
HETATM    3  C   UNL     1     -11.383  14.053  71.592  1.00  0.00     1.500 C  
HETATM    4  C   UNL     1     -11.487  14.468  70.107  1.00  0.00    -0.297 C  
HETATM    5  C   UNL     1     -12.767  13.952  69.451  1.00  0.00     0.394 C  
HETATM    6  O   UNL     1     -13.822  14.438  70.255  1.00  0.00     0.552 OA 
HETATM    7  C   UNL     1     -14.390  12.531  71.704  1.00  0.00     1.773 C  
HETATM    8  C   UNL     1     -13.910  13.980  71.604  1.00  0.00    -0.325 C  
HETATM    9  C   UNL     1     -12.658  14.315  72.405  1.00  0.00    -0.233 C  
BRANCH   5  10
HETATM   10  O   UNL     1     -12.848  14.431  68.057  1.00  0.00     0.605 OA 
BRANCH  10  11
HETATM   11  C   UNL     1     -11.556  14.702  67.455  1.00  0.00    -0.375 C  
HETATM   12  C   UNL     1     -10.989  13.417  66.702  1.00  0.00    -0.297 C  
HETATM   13  C   UNL     1     -11.495  15.978  65.040  1.00  0.00    -0.036 C  
HETATM   14  C   UNL     1     -12.160  12.589  66.157  1.00  0.00    -0.357 C  
HETATM   15  C   UNL     1      -9.818  12.800  67.577  1.00  0.00    -0.211 C  
HETATM   16  C   UNL     1     -11.382  16.007  66.579  1.00  0.00     0.286 C  
HETATM   17  O   UNL     1     -13.077  17.667  67.090  1.00  0.00     6.137 OA 
HETATM   18  C   UNL     1      -8.375  13.275  67.294  1.00  0.00    -0.182 C  
HETATM   19  C   UNL     1      -8.337  14.647  66.690  1.00  0.00     0.043 C  
HETATM   20  C   UNL     1      -7.555  13.229  68.627  1.00  0.00    -0.094 C  
HETATM   21  C   UNL     1     -11.901  17.326  67.147  1.00  0.00     1.918 C  
HETATM   22  C   UNL     1     -10.191  18.452  69.752  1.00  0.00     0.682 C  
HETATM   23  O   UNL     1     -10.906  18.232  67.469  1.00  0.00    -0.399 OA 
HETATM   24  C   UNL     1      -6.330  14.133  68.667  1.00  0.00    -0.089 C  
HETATM   25  C   UNL     1      -8.189  18.299  66.387  1.00  0.00    -0.276 C  
HETATM   26  C   UNL     1      -6.476  15.525  69.271  1.00  0.00    -0.141 C  
HETATM   27  C   UNL     1      -9.811  17.892  68.377  1.00  0.00    -0.355 C  
HETATM   28  C   UNL     1      -5.156  13.728  67.794  1.00  0.00    -0.009 C  
HETATM   29  C   UNL     1      -8.437  18.480  67.899  1.00  0.00    -0.292 C  
HETATM   30  C   UNL     1      -7.208  18.017  68.805  1.00  0.00    -0.278 C  
HETATM   31  O   UNL     1      -5.183  13.417  69.184  1.00  0.00    -0.073 OA 
HETATM   32  C   UNL     1      -6.479  16.733  68.293  1.00  0.00    -0.141 C  
HETATM   33  O   UNL     1      -6.775  15.620  70.452  1.00  0.00     0.080 OA 
HETATM   34  C   UNL     1      -5.133  16.929  67.597  1.00  0.00    -0.138 C  
BRANCH  15  35
HETATM   35  O   UNL     1      -9.796  11.445  67.964  1.00  0.00    -0.174 OA 
BRANCH  35  36
HETATM   36  C   UNL     1      -8.780  10.530  67.581  1.00  0.00    -0.121 C  
HETATM   37  C   UNL     1      -8.282   9.363  65.524  1.00  0.00    -0.126 C  
HETATM   38  C   UNL     1      -8.886   7.908  67.488  1.00  0.00    -0.128 C  
HETATM   39  C   UNL     1      -8.493   9.579  64.025  1.00  0.00    -0.192 C  
HETATM   40  C   UNL     1      -9.285   9.207  68.235  1.00  0.00    -0.132 C  
HETATM   41  O   UNL     1      -8.715  10.534  66.177  1.00  0.00    -0.148 OA 
HETATM   42  C   UNL     1      -9.116   8.192  65.988  1.00  0.00    -0.218 C  
BRANCH  38  43
HETATM   43  N   UNL     1      -9.704   6.706  67.849  1.00  0.00    -0.122 NA 
HETATM   44  C   UNL     1     -11.025   6.720  67.208  1.00  0.00    -0.363 C  
HETATM   45  C   UNL     1      -9.048   5.435  67.554  1.00  0.00    -0.107 C  
ENDBRANCH  38  43
BRANCH  40  46
HETATM   46  O   UNL     1      -9.091   9.212  69.678  1.00  0.00    -0.145 OA 
BRANCH  46  47
HETATM   47  C   UNL     1      -9.943   8.555  70.498  1.00  0.00    -0.188 C  
HETATM   48  C   UNL     1      -9.276   8.233  71.797  1.00  0.00    -0.261 C  
HETATM   49  O   UNL     1     -11.084   8.226  70.198  1.00  0.00    -0.252 OA 
ENDBRANCH  46  47
ENDBRANCH  40  46
ENDBRANCH  35  36
ENDBRANCH  15  35
BRANCH  30  50
HETATM   50  O   UNL     1      -6.283  19.134  68.789  1.00  0.00    -0.228 OA 
BRANCH  50  51
HETATM   51  C   UNL     1      -6.135  19.815  69.956  1.00  0.00    -0.316 C  
HETATM   52  O   UNL     1      -6.212  21.027  70.084  1.00  0.00    -0.087 OA 
HETATM   53  C   UNL     1      -5.960  18.866  71.101  1.00  0.00     0.276 C  
ENDBRANCH  50  51
ENDBRANCH  30  50
ENDBRANCH  10  11
ENDBRANCH   5  10
BRANCH   9  54
HETATM   54  O   UNL     1     -12.705  15.739  72.719  1.00  0.00    -0.381 OA 
BRANCH  54  55
HETATM   55  C   UNL     1     -12.044  16.149  73.836  1.00  0.00    -0.404 C  
HETATM   56  C   UNL     1     -12.315  17.599  74.120  1.00  0.00     1.040 C  
HETATM   57  O   UNL     1     -11.319  15.453  74.532  1.00  0.00     1.011 OA 
ENDBRANCH  54  55
ENDBRANCH   9  54
ENDBRANCH   2   3
TORSDOF 12
ENDMDL
MODEL       16
REMARK 921   NORMALIZED FREE ENERGY PREDICTED BY IDOCK:   11.27 KCAL/MOL
REMARK 922        TOTAL FREE ENERGY PREDICTED BY IDOCK:   16.80 KCAL/MOL
REMARK 923 INTER-LIGAND FREE ENERGY PREDICTED BY IDOCK:    3.76 KCAL/MOL
REMARK 924 INTRA-LIGAND FREE ENERGY PREDICTED BY IDOCK:   13.04 KCAL/MOL
REMARK 927      BINDING AFFINITY PREDICTED BY RF-SCORE:    0.00 PKD
ROOT
HETATM    1  C   UNL     1     -10.949   4.864  67.071  1.00  0.00     0.739 C  
HETATM    2  O   UNL     1     -10.359   4.434  65.849  1.00  0.00    -0.256 OA 
ENDROOT
BRANCH   2   3
HETATM    3  C   UNL     1     -10.036   5.543  64.997  1.00  0.00     0.940 C  
HETATM    4  C   UNL     1     -10.471   6.856  65.686  1.00  0.00     2.058 C  
HETATM    5  C   UNL     1      -9.554   7.228  66.851  1.00  0.00    -0.174 C  
HETATM    6  O   UNL     1      -8.253   7.273  66.303  1.00  0.00    -0.112 OA 
HETATM    7  C   UNL     1      -7.286   5.087  66.893  1.00  0.00    -0.077 C  
HETATM    8  C   UNL     1      -7.693   6.064  65.789  1.00  0.00    -0.097 C  
HETATM    9  C   UNL     1      -8.538   5.475  64.667  1.00  0.00    -0.067 C  
BRANCH   5  10
HETATM   10  O   UNL     1      -9.972   8.519  67.429  1.00  0.00    -0.180 OA 
BRANCH  10  11
HETATM   11  C   UNL     1      -9.026   9.596  67.205  1.00  0.00    -0.134 C  
HETATM   12  C   UNL     1      -7.535   9.129  67.522  1.00  0.00    -0.088 C  
HETATM   13  C   UNL     1      -8.189  10.074  64.649  1.00  0.00    -0.163 C  
HETATM   14  C   UNL     1      -7.395   7.632  67.215  1.00  0.00    -0.091 C  
HETATM   15  C   UNL     1      -7.088   9.782  68.897  1.00  0.00    -0.067 C  
HETATM   16  C   UNL     1      -9.100  10.406  65.849  1.00  0.00    -0.192 C  
HETATM   17  O   UNL     1     -11.274  10.196  64.792  1.00  0.00     1.324 OA 
HETATM   18  C   UNL     1      -6.368  11.149  68.850  1.00  0.00    -0.050 C  
HETATM   19  C   UNL     1      -6.724  11.936  67.624  1.00  0.00    -0.105 C  
HETATM   20  C   UNL     1      -6.715  11.951  70.149  1.00  0.00     0.393 C  
HETATM   21  C   UNL     1     -10.467  10.903  65.385  1.00  0.00    -0.223 C  
HETATM   22  C   UNL     1     -11.753  13.305  67.272  1.00  0.00    -0.424 C  
HETATM   23  O   UNL     1     -10.610  12.279  65.424  1.00  0.00    -0.259 OA 
HETATM   24  C   UNL     1      -6.553  13.461  70.042  1.00  0.00     0.139 C  
HETATM   25  C   UNL     1      -8.458  14.260  65.379  1.00  0.00     3.175 C  
HETATM   26  C   UNL     1      -7.775  14.297  69.677  1.00  0.00     0.307 C  
HETATM   27  C   UNL     1     -10.378  13.050  66.645  1.00  0.00    -0.260 C  
HETATM   28  C   UNL     1      -5.132  13.990  69.956  1.00  0.00    -0.089 C  
HETATM   29  C   UNL     1      -9.637  14.403  66.363  1.00  0.00    -0.320 C  
HETATM   30  C   UNL     1      -9.261  15.201  67.693  1.00  0.00    -0.181 C  
HETATM   31  O   UNL     1      -5.842  13.982  71.190  1.00  0.00    -0.209 OA 
HETATM   32  C   UNL     1      -7.831  14.896  68.244  1.00  0.00    -0.122 C  
HETATM   33  O   UNL     1      -8.729  14.299  70.441  1.00  0.00     1.612 OA 
HETATM   34  C   UNL     1      -6.755  15.955  68.008  1.00  0.00    -0.140 C  
BRANCH  15  35
HETATM   35  O   UNL     1      -6.573   9.020  69.965  1.00  0.00    -0.040 OA 
BRANCH  35  36
HETATM   36  C   UNL     1      -7.016   7.710  70.288  1.00  0.00    -0.051 C  
HETATM   37  C   UNL     1      -9.191   6.657  70.347  1.00  0.00    -0.156 C  
HETATM   38  C   UNL     1      -7.998   6.826  72.558  1.00  0.00    -0.101 C  
HETATM   39  C   UNL     1     -10.540   6.818  69.646  1.00  0.00    -0.267 C  
HETATM   40  C   UNL     1      -6.962   7.736  71.847  1.00  0.00    -0.066 C  
HETATM   41  O   UNL     1      -8.291   7.543  69.722  1.00  0.00    -0.130 OA 
HETATM   42  C   UNL     1      -9.330   7.029  71.805  1.00  0.00    -0.150 C  
BRANCH  38  43
HETATM   43  N   UNL     1      -8.239   7.163  73.997  1.00  0.00    -0.126 NA 
HETATM   44  C   UNL     1      -8.269   8.612  74.230  1.00  0.00     0.230 C  
HETATM   45  C   UNL     1      -9.454   6.569  74.547  1.00  0.00    -0.260 C  
ENDBRANCH  38  43
BRANCH  40  46
HETATM   46  O   UNL     1      -5.593   7.669  72.339  1.00  0.00    -0.036 OA 
BRANCH  46  47
HETATM   47  C   UNL     1      -5.325   7.742  73.664  1.00  0.00    -0.045 C  
HETATM   48  C   UNL     1      -5.135   9.165  74.081  1.00  0.00    -0.113 C  
HETATM   49  O   UNL     1      -5.204   6.775  74.404  1.00  0.00    -0.045 OA 
ENDBRANCH  46  47
ENDBRANCH  40  46
ENDBRANCH  35  36
ENDBRANCH  15  35
BRANCH  30  50
HETATM   50  O   UNL     1      -9.349  16.603  67.332  1.00  0.00    -0.220 OA 
BRANCH  50  51
HETATM   51  C   UNL     1     -10.473  17.260  67.722  1.00  0.00    -0.371 C  
HETATM   52  O   UNL     1     -11.265  16.870  68.565  1.00  0.00    -0.289 OA 
HETATM   53  C   UNL     1     -10.566  18.592  67.044  1.00  0.00    -0.448 C  
ENDBRANCH  50  51
ENDBRANCH  30  50
ENDBRANCH  10  11
ENDBRANCH   5  10
BRANCH   9  54
HETATM   54  O   UNL     1      -8.306   6.278  63.472  1.00  0.00    -0.029 OA 
BRANCH  54  55
HETATM   55  C   UNL     1      -7.100   6.138  62.856  1.00  0.00    -0.051 C  
HETATM   56  C   UNL     1      -6.457   7.475  62.621  1.00  0.00    -0.066 C  
HETATM   57  O   UNL     1      -6.587   5.078  62.525  1.00  0.00    -0.025 OA 
ENDBRANCH  54  55
ENDBRANCH   9  54
ENDBRANCH   2   3
TORSDOF 12
ENDMDL
MODEL       17
REMARK 921   NORMALIZED FREE ENERGY PREDICTED BY IDOCK:   13.05 KCAL/MOL
REMARK 922        TOTAL FREE ENERGY PREDICTED BY IDOCK:   19.82 KCAL/MOL
REMARK 923 INTER-LIGAND FREE ENERGY PREDICTED BY IDOCK:    2.30 KCAL/MOL
REMARK 924 INTRA-LIGAND FREE ENERGY PREDICTED BY IDOCK:   17.52 KCAL/MOL
REMARK 927      BINDING AFFINITY PREDICTED BY RF-SCORE:    0.00 PKD
ROOT
HETATM    1  C   UNL     1      -7.671   3.050  73.013  1.00  0.00    -0.055 C  
HETATM    2  O   UNL     1      -7.144   3.815  71.935  1.00  0.00    -0.041 OA 
ENDROOT
BRANCH   2   3
HETATM    3  C   UNL     1      -8.175   4.531  71.239  1.00  0.00    -0.095 C  
HETATM    4  C   UNL     1      -7.658   5.942  70.879  1.00  0.00    -0.096 C  
HETATM    5  C   UNL     1      -6.637   5.911  69.742  1.00  0.00    -0.047 C  
HETATM    6  O   UNL     1      -7.285   5.249  68.675  1.00  0.00    -0.060 OA 
HETATM    7  C   UNL     1      -6.453   2.937  68.818  1.00  0.00    -0.029 C  
HETATM    8  C   UNL     1      -7.655   3.882  68.853  1.00  0.00    -0.054 C  
HETATM    9  C   UNL     1      -8.607   3.694  70.027  1.00  0.00    -0.061 C  
BRANCH   5  10
HETATM   10  O   UNL     1      -6.227   7.285  69.394  1.00  0.00    -0.030 OA 
BRANCH  10  11
HETATM   11  C   UNL     1      -7.337   8.208  69.248  1.00  0.00    -0.077 C  
HETATM   12  C   UNL     1      -8.707   7.430  69.010  1.00  0.00    -0.133 C  
HETATM   13  C   UNL     1      -8.471   9.240  71.508  1.00  0.00     0.217 C  
HETATM   14  C   UNL     1      -8.657   6.078  69.734  1.00  0.00    -0.130 C  
HETATM   15  C   UNL     1      -9.113   7.585  67.484  1.00  0.00    -0.125 C  
HETATM   16  C   UNL     1      -7.510   9.367  70.309  1.00  0.00    -0.131 C  
HETATM   17  O   UNL     1      -5.437   9.828  71.484  1.00  0.00    -0.073 OA 
HETATM   18  C   UNL     1     -10.026   8.770  67.094  1.00  0.00    -0.295 C  
HETATM   19  C   UNL     1      -9.905   9.919  68.052  1.00  0.00    -0.170 C  
HETATM   20  C   UNL     1      -9.678   9.220  65.636  1.00  0.00    -0.302 C  
HETATM   21  C   UNL     1      -6.279  10.195  70.672  1.00  0.00    -0.103 C  
HETATM   22  C   UNL     1      -5.184  12.148  68.229  1.00  0.00    -0.054 C  
HETATM   23  O   UNL     1      -6.335  11.508  70.239  1.00  0.00    -0.190 OA 
HETATM   24  C   UNL     1     -10.067  10.651  65.288  1.00  0.00    -0.297 C  
HETATM   25  C   UNL     1      -8.746  13.035  69.599  1.00  0.00     1.927 C  
HETATM   26  C   UNL     1      -9.020  11.747  65.450  1.00  0.00     0.158 C  
HETATM   27  C   UNL     1      -6.560  11.854  68.836  1.00  0.00    -0.087 C  
HETATM   28  C   UNL     1     -11.551  10.939  65.147  1.00  0.00     0.885 C  
HETATM   29  C   UNL     1      -7.513  13.090  68.674  1.00  0.00    -0.093 C  
HETATM   30  C   UNL     1      -7.874  13.407  67.152  1.00  0.00    -0.019 C  
HETATM   31  O   UNL     1     -10.735  10.702  64.005  1.00  0.00    -0.168 OA 
HETATM   32  C   UNL     1      -9.186  12.726  66.646  1.00  0.00    -0.212 C  
HETATM   33  O   UNL     1      -8.009  11.693  64.766  1.00  0.00     1.005 OA 
HETATM   34  C   UNL     1     -10.422  13.613  66.510  1.00  0.00    -0.281 C  
BRANCH  15  35
HETATM   35  O   UNL     1      -9.409   6.479  66.662  1.00  0.00    -0.150 OA 
BRANCH  35  36
HETATM   36  C   UNL     1      -9.303   6.494  65.247  1.00  0.00     0.617 C  
HETATM   37  C   UNL     1      -9.925   4.927  63.515  1.00  0.00     0.651 C  
HETATM   38  C   UNL     1      -7.461   5.399  63.729  1.00  0.00    -0.060 C  
HETATM   39  C   UNL     1     -10.967   3.827  63.311  1.00  0.00    -0.042 C  
HETATM   40  C   UNL     1      -7.794   6.157  65.041  1.00  0.00    -0.110 C  
HETATM   41  O   UNL     1     -10.216   5.551  64.744  1.00  0.00     0.931 OA 
HETATM   42  C   UNL     1      -8.546   4.311  63.579  1.00  0.00    -0.110 C  
BRANCH  38  43
HETATM   43  N   UNL     1      -6.131   4.710  63.729  1.00  0.00    -0.018 NA 
HETATM   44  C   UNL     1      -6.258   3.258  63.906  1.00  0.00    -0.019 C  
HETATM   45  C   UNL     1      -5.330   4.974  62.537  1.00  0.00    -0.013 C  
ENDBRANCH  38  43
BRANCH  40  46
HETATM   46  O   UNL     1      -6.940   7.289  65.371  1.00  0.00    -0.057 OA 
BRANCH  46  47
HETATM   47  C   UNL     1      -5.829   7.127  66.126  1.00  0.00    -0.035 C  
HETATM   48  C   UNL     1      -5.285   8.454  66.548  1.00  0.00    -0.028 C  
HETATM   49  O   UNL     1      -5.315   6.046  66.385  1.00  0.00    -0.009 OA 
ENDBRANCH  46  47
ENDBRANCH  40  46
ENDBRANCH  35  36
ENDBRANCH  15  35
BRANCH  30  50
HETATM   50  O   UNL     1      -8.026  14.848  67.091  1.00  0.00    -0.200 OA 
BRANCH  50  51
HETATM   51  C   UNL     1      -7.021  15.587  67.632  1.00  0.00    -0.179 C  
HETATM   52  O   UNL     1      -5.835  15.471  67.366  1.00  0.00    -0.305 OA 
HETATM   53  C   UNL     1      -7.573  16.645  68.536  1.00  0.00    -0.212 C  
ENDBRANCH  50  51
ENDBRANCH  30  50
ENDBRANCH  10  11
ENDBRANCH   5  10
BRANCH   9  54
HETATM   54  O   UNL     1      -9.923   4.162  69.606  1.00  0.00    -0.195 OA 
BRANCH  54  55
HETATM   55  C   UNL     1     -10.759   4.618  70.579  1.00  0.00     0.513 C  
HETATM   56  C   UNL     1     -11.607   5.749  70.073  1.00  0.00     0.441 C  
HETATM   57  O   UNL     1     -10.827   4.186  71.721  1.00  0.00     0.208 OA 
ENDBRANCH  54  55
ENDBRANCH   9  54
ENDBRANCH   2   3
TORSDOF 12
ENDMDL
MODEL       18
REMARK 921   NORMALIZED FREE ENERGY PREDICTED BY IDOCK:   13.11 KCAL/MOL
REMARK 922        TOTAL FREE ENERGY PREDICTED BY IDOCK:   19.93 KCAL/MOL
REMARK 923 INTER-LIGAND FREE ENERGY PREDICTED BY IDOCK:    4.08 KCAL/MOL
REMARK 924 INTRA-LIGAND FREE ENERGY PREDICTED BY IDOCK:   15.85 KCAL/MOL
REMARK 927      BINDING AFFINITY PREDICTED BY RF-SCORE:    0.00 PKD
ROOT
HETATM    1  C   UNL     1      -6.027   7.476  70.116  1.00  0.00    -0.023 C  
HETATM    2  O   UNL     1      -6.388   6.485  71.071  1.00  0.00    -0.045 OA 
ENDROOT
BRANCH   2   3
HETATM    3  C   UNL     1      -7.355   6.980  72.010  1.00  0.00    -0.082 C  
HETATM    4  C   UNL     1      -7.671   8.457  71.681  1.00  0.00    -0.140 C  
HETATM    5  C   UNL     1      -8.526   8.598  70.422  1.00  0.00    -0.140 C  
HETATM    6  O   UNL     1      -9.673   7.807  70.658  1.00  0.00    -0.177 OA 
HETATM    7  C   UNL     1      -9.187   5.696  69.488  1.00  0.00    -0.154 C  
HETATM    8  C   UNL     1      -9.502   6.397  70.810  1.00  0.00    -0.169 C  
HETATM    9  C   UNL     1      -8.579   6.055  71.972  1.00  0.00    -0.136 C  
BRANCH   5  10
HETATM   10  O   UNL     1      -8.854  10.018  70.192  1.00  0.00    -0.165 OA 
BRANCH  10  11
HETATM   11  C   UNL     1      -9.839  10.231  69.148  1.00  0.00    -0.216 C  
HETATM   12  C   UNL     1     -10.336   8.848  68.532  1.00  0.00    -0.229 C  
HETATM   13  C   UNL     1     -12.431  10.678  69.886  1.00  0.00    -0.241 C  
HETATM   14  C   UNL     1     -10.286   7.761  69.615  1.00  0.00    -0.212 C  
HETATM   15  C   UNL     1      -9.682   8.676  67.097  1.00  0.00    -0.190 C  
HETATM   16  C   UNL     1     -11.053  11.203  69.433  1.00  0.00    -0.314 C  
HETATM   17  O   UNL     1     -10.572  12.735  71.253  1.00  0.00     4.792 OA 
HETATM   18  C   UNL     1     -10.471   9.199  65.875  1.00  0.00     0.484 C  
HETATM   19  C   UNL     1     -11.416  10.305  66.240  1.00  0.00     1.201 C  
HETATM   20  C   UNL     1      -9.457   9.669  64.779  1.00  0.00    -0.256 C  
HETATM   21  C   UNL     1     -10.750  12.566  70.052  1.00  0.00     1.135 C  
HETATM   22  C   UNL     1      -9.131  14.644  68.041  1.00  0.00    -0.189 C  
HETATM   23  O   UNL     1     -10.977  13.634  69.203  1.00  0.00    -0.246 OA 
HETATM   24  C   UNL     1     -10.006  10.673  63.774  1.00  0.00    -0.317 C  
HETATM   25  C   UNL     1     -12.740  13.666  66.869  1.00  0.00     0.249 C  
HETATM   26  C   UNL     1      -9.793  12.158  64.043  1.00  0.00    -0.191 C  
HETATM   27  C   UNL     1     -10.349  13.726  67.885  1.00  0.00    -0.244 C  
HETATM   28  C   UNL     1     -11.022  10.150  62.775  1.00  0.00     2.858 C  
HETATM   29  C   UNL     1     -11.329  14.286  66.796  1.00  0.00    -0.357 C  
HETATM   30  C   UNL     1     -10.706  14.276  65.327  1.00  0.00    -0.366 C  
HETATM   31  O   UNL     1      -9.649  10.292  62.424  1.00  0.00    -0.278 OA 
HETATM   32  C   UNL     1     -11.025  12.988  64.501  1.00  0.00    -0.381 C  
HETATM   33  O   UNL     1      -8.649  12.586  64.077  1.00  0.00     1.737 OA 
HETATM   34  C   UNL     1     -12.090  13.106  63.413  1.00  0.00    -0.558 C  
BRANCH  15  35
HETATM   35  O   UNL     1      -8.959   7.524  66.727  1.00  0.00    -0.132 OA 
BRANCH  35  36
HETATM   36  C   UNL     1      -8.865   7.043  65.394  1.00  0.00     0.116 C  
HETATM   37  C   UNL     1      -9.312   4.904  64.362  1.00  0.00     0.090 C  
HETATM   38  C   UNL     1      -6.918   5.681  64.276  1.00  0.00    -0.051 C  
HETATM   39  C   UNL     1     -10.221   3.700  64.611  1.00  0.00    -0.142 C  
HETATM   40  C   UNL     1      -7.329   6.818  65.248  1.00  0.00    -0.084 C  
HETATM   41  O   UNL     1      -9.666   5.891  65.302  1.00  0.00     0.364 OA 
HETATM   42  C   UNL     1      -7.871   4.502  64.573  1.00  0.00    -0.089 C  
BRANCH  38  43
HETATM   43  N   UNL     1      -5.517   5.183  64.456  1.00  0.00    -0.013 NA 
HETATM   44  C   UNL     1      -5.264   4.722  65.827  1.00  0.00    -0.009 C  
HETATM   45  C   UNL     1      -5.143   4.124  63.523  1.00  0.00    -0.005 C  
ENDBRANCH  38  43
BRANCH  40  46
HETATM   46  O   UNL     1      -6.610   8.077  65.115  1.00  0.00    -0.051 OA 
BRANCH  46  47
HETATM   47  C   UNL     1      -5.734   8.483  66.063  1.00  0.00    -0.043 C  
HETATM   48  C   UNL     1      -5.402   7.355  66.985  1.00  0.00    -0.023 C  
HETATM   49  O   UNL     1      -5.313   9.627  66.177  1.00  0.00    -0.038 OA 
ENDBRANCH  46  47
ENDBRANCH  40  46
ENDBRANCH  35  36
ENDBRANCH  15  35
BRANCH  30  50
HETATM   50  O   UNL     1     -11.283  15.428  64.662  1.00  0.00    -0.407 OA 
BRANCH  50  51
HETATM   51  C   UNL     1     -11.010  16.643  65.209  1.00  0.00    -0.120 C  
HETATM   52  O   UNL     1     -11.246  17.722  64.690  1.00  0.00    -0.764 OA 
HETATM   53  C   UNL     1     -10.466  16.486  66.595  1.00  0.00    -0.266 C  
ENDBRANCH  50  51
ENDBRANCH  30  50
ENDBRANCH  10  11
ENDBRANCH   5  10
BRANCH   9  54
HETATM   54  O   UNL     1      -9.331   6.257  73.206  1.00  0.00    -0.132 OA 
BRANCH  54  55
HETATM   55  C   UNL     1      -9.782   5.143  73.846  1.00  0.00    -0.148 C  
HETATM   56  C   UNL     1      -8.683   4.131  74.004  1.00  0.00    -0.096 C  
HETATM   57  O   UNL     1     -10.923   4.963  74.246  1.00  0.00    -0.322 OA 
ENDBRANCH  54  55
ENDBRANCH   9  54
ENDBRANCH   2   3
TORSDOF 12
ENDMDL
MODEL       19
REMARK 921   NORMALIZED FREE ENERGY PREDICTED BY IDOCK:   13.24 KCAL/MOL
REMARK 922        TOTAL FREE ENERGY PREDICTED BY IDOCK:   20.15 KCAL/MOL
REMARK 923 INTER-LIGAND FREE ENERGY PREDICTED BY IDOCK:   16.75 KCAL/MOL
REMARK 924 INTRA-LIGAND FREE ENERGY PREDICTED BY IDOCK:    3.40 KCAL/MOL
REMARK 927      BINDING AFFINITY PREDICTED BY RF-SCORE:    0.00 PKD
ROOT
HETATM    1  C   UNL     1      -8.300   3.674  69.580  1.00  0.00    -0.052 C  
HETATM    2  O   UNL     1      -8.331   5.073  69.836  1.00  0.00    -0.079 OA 
ENDROOT
BRANCH   2   3
HETATM    3  C   UNL     1      -9.019   5.373  71.060  1.00  0.00    -0.139 C  
HETATM    4  C   UNL     1      -8.780   6.855  71.426  1.00  0.00    -0.126 C  
HETATM    5  C   UNL     1      -9.561   7.807  70.520  1.00  0.00    -0.167 C  
HETATM    6  O   UNL     1     -10.910   7.403  70.627  1.00  0.00    -0.233 OA 
HETATM    7  C   UNL     1     -11.271   6.008  68.632  1.00  0.00    -0.169 C  
HETATM    8  C   UNL     1     -11.265   6.102  70.158  1.00  0.00    -0.382 C  
HETATM    9  C   UNL     1     -10.498   5.003  70.883  1.00  0.00    -0.142 C  
BRANCH   5  10
HETATM   10  O   UNL     1      -9.350   9.202  70.953  1.00  0.00    -0.237 OA 
BRANCH  10  11
HETATM   11  C   UNL     1     -10.222  10.158  70.297  1.00  0.00    -0.120 C  
HETATM   12  C   UNL     1      -9.839  10.327  68.759  1.00  0.00    -0.184 C  
HETATM   13  C   UNL     1     -12.676   9.307  69.453  1.00  0.00     2.520 C  
HETATM   14  C   UNL     1      -9.273   9.004  68.227  1.00  0.00    -0.139 C  
HETATM   15  C   UNL     1      -9.107  11.724  68.576  1.00  0.00    -0.144 C  
HETATM   16  C   UNL     1     -11.785  10.022  70.490  1.00  0.00    -0.400 C  
HETATM   17  O   UNL     1     -12.339   8.737  72.472  1.00  0.00    -0.372 OA 
HETATM   18  C   UNL     1      -9.974  12.954  68.222  1.00  0.00    -0.234 C  
HETATM   19  C   UNL     1     -11.391  12.804  68.689  1.00  0.00    -0.333 C  
HETATM   20  C   UNL     1      -9.315  14.233  68.839  1.00  0.00    -0.054 C  
HETATM   21  C   UNL     1     -12.318   9.825  71.907  1.00  0.00    -0.335 C  
HETATM   22  C   UNL     1     -11.976  12.472  73.870  1.00  0.00    10.745 C  
HETATM   23  O   UNL     1     -13.038  10.901  72.394  1.00  0.00    -0.227 OA 
HETATM   24  C   UNL     1     -10.258  15.409  69.056  1.00  0.00    -0.233 C  
HETATM   25  C   UNL     1     -14.376  12.965  70.812  1.00  0.00     3.667 C  
HETATM   26  C   UNL     1     -10.911  15.570  70.424  1.00  0.00    -0.335 C  
HETATM   27  C   UNL     1     -12.479  12.252  72.439  1.00  0.00     1.254 C  
HETATM   28  C   UNL     1     -10.755  16.122  67.812  1.00  0.00    -0.325 C  
HETATM   29  C   UNL     1     -13.534  13.345  72.047  1.00  0.00    -0.584 C  
HETATM   30  C   UNL     1     -12.915  14.814  71.967  1.00  0.00    -0.330 C  
HETATM   31  O   UNL     1      -9.665  16.636  68.571  1.00  0.00    -0.227 OA 
HETATM   32  C   UNL     1     -12.422  15.228  70.543  1.00  0.00    -0.454 C  
HETATM   33  O   UNL     1     -10.193  15.769  71.393  1.00  0.00     0.804 OA 
HETATM   34  C   UNL     1     -13.306  16.194  69.755  1.00  0.00     2.310 C  
BRANCH  15  35
HETATM   35  O   UNL     1      -7.850  11.843  67.951  1.00  0.00    -0.121 OA 
BRANCH  35  36
HETATM   36  C   UNL     1      -7.668  12.305  66.621  1.00  0.00     0.186 C  
HETATM   37  C   UNL     1      -8.893  13.839  65.211  1.00  0.00     2.003 C  
HETATM   38  C   UNL     1      -8.816  11.450  64.419  1.00  0.00     0.308 C  
HETATM   39  C   UNL     1      -9.794  15.062  65.391  1.00  0.00    -0.312 C  
HETATM   40  C   UNL     1      -8.192  11.091  65.793  1.00  0.00    -0.064 C  
HETATM   41  O   UNL     1      -8.396  13.500  66.485  1.00  0.00     0.147 OA 
HETATM   42  C   UNL     1      -9.706  12.688  64.666  1.00  0.00     0.061 C  
BRANCH  38  43
HETATM   43  N   UNL     1      -9.686  10.381  63.831  1.00  0.00    -0.312 NA 
HETATM   44  C   UNL     1     -11.026  10.879  63.493  1.00  0.00     0.269 C  
HETATM   45  C   UNL     1      -9.111   9.733  62.656  1.00  0.00    -0.279 C  
ENDBRANCH  38  43
BRANCH  40  46
HETATM   46  O   UNL     1      -7.249   9.982  65.808  1.00  0.00    -0.104 OA 
BRANCH  46  47
HETATM   47  C   UNL     1      -5.987  10.136  65.345  1.00  0.00    -0.101 C  
HETATM   48  C   UNL     1      -5.767   9.287  64.134  1.00  0.00    -0.070 C  
HETATM   49  O   UNL     1      -5.131  10.833  65.874  1.00  0.00    -0.075 OA 
ENDBRANCH  46  47
ENDBRANCH  40  46
ENDBRANCH  35  36
ENDBRANCH  15  35
BRANCH  30  50
HETATM   50  O   UNL     1     -13.984  15.700  72.383  1.00  0.00    -0.530 OA 
BRANCH  50  51
HETATM   51  C   UNL     1     -13.774  16.412  73.522  1.00  0.00     0.410 C  
HETATM   52  O   UNL     1     -14.359  17.436  73.836  1.00  0.00     1.995 OA 
HETATM   53  C   UNL     1     -12.785  15.714  74.403  1.00  0.00    -0.509 C  
ENDBRANCH  50  51
ENDBRANCH  30  50
ENDBRANCH  10  11
ENDBRANCH   5  10
BRANCH   9  54
HETATM   54  O   UNL     1     -11.086   4.858  72.210  1.00  0.00    -0.115 OA 
BRANCH  54  55
HETATM   55  C   UNL     1     -10.570   3.888  73.013  1.00  0.00    -0.171 C  
HETATM   56  C   UNL     1     -10.141   2.695  72.208  1.00  0.00    -0.230 C  
HETATM   57  O   UNL     1     -10.461   3.952  74.229  1.00  0.00    -0.186 OA 
ENDBRANCH  54  55
ENDBRANCH   9  54
ENDBRANCH   2   3
TORSDOF 12
ENDMDL
MODEL       20
REMARK 921   NORMALIZED FREE ENERGY PREDICTED BY IDOCK:   17.78 KCAL/MOL
REMARK 922        TOTAL FREE ENERGY PREDICTED BY IDOCK:   27.87 KCAL/MOL
REMARK 923 INTER-LIGAND FREE ENERGY PREDICTED BY IDOCK:   17.31 KCAL/MOL
REMARK 924 INTRA-LIGAND FREE ENERGY PREDICTED BY IDOCK:   10.56 KCAL/MOL
REMARK 927      BINDING AFFINITY PREDICTED BY RF-SCORE:    0.00 PKD
ROOT
HETATM    1  C   UNL     1     -13.982  10.895  62.908  1.00  0.00     5.469 C  
HETATM    2  O   UNL     1     -13.019  10.791  63.951  1.00  0.00     2.341 OA 
ENDROOT
BRANCH   2   3
HETATM    3  C   UNL     1     -11.898  11.659  63.727  1.00  0.00    -0.279 C  
HETATM    4  C   UNL     1     -11.821  12.695  64.870  1.00  0.00    -0.436 C  
HETATM    5  C   UNL     1     -11.334  12.075  66.180  1.00  0.00    -0.351 C  
HETATM    6  O   UNL     1     -10.094  11.473  65.869  1.00  0.00    -0.215 OA 
HETATM    7  C   UNL     1     -10.654   9.100  65.535  1.00  0.00     1.570 C  
HETATM    8  C   UNL     1     -10.082  10.388  64.942  1.00  0.00    -0.312 C  
HETATM    9  C   UNL     1     -10.640  10.791  63.583  1.00  0.00    -0.002 C  
BRANCH   5  10
HETATM   10  O   UNL     1     -11.216  13.117  67.218  1.00  0.00    -0.267 OA 
BRANCH  10  11
HETATM   11  C   UNL     1     -10.007  13.913  67.114  1.00  0.00    -0.239 C  
HETATM   12  C   UNL     1      -8.709  13.031  67.394  1.00  0.00    -0.205 C  
HETATM   13  C   UNL     1      -8.981  14.393  64.629  1.00  0.00     3.850 C  
HETATM   14  C   UNL     1      -8.965  11.590  66.935  1.00  0.00    -0.179 C  
HETATM   15  C   UNL     1      -8.153  13.401  68.833  1.00  0.00     0.147 C  
HETATM   16  C   UNL     1      -9.811  14.841  65.849  1.00  0.00    -0.363 C  
HETATM   17  O   UNL     1     -11.923  15.333  64.758  1.00  0.00    -0.293 OA 
HETATM   18  C   UNL     1      -7.091  14.519  68.933  1.00  0.00    -0.118 C  
HETATM   19  C   UNL     1      -7.178  15.489  67.793  1.00  0.00    -0.177 C  
HETATM   20  C   UNL     1      -7.257  15.254  70.306  1.00  0.00     0.266 C  
HETATM   21  C   UNL     1     -10.977  15.733  65.428  1.00  0.00    -0.309 C  
HETATM   22  C   UNL     1     -11.637  18.198  67.542  1.00  0.00     1.284 C  
HETATM   23  O   UNL     1     -10.746  17.086  65.608  1.00  0.00    -0.379 OA 
HETATM   24  C   UNL     1      -6.690  16.668  70.357  1.00  0.00     1.007 C  
HETATM   25  C   UNL     1      -8.141  18.403  65.786  1.00  0.00     0.187 C  
HETATM   26  C   UNL     1      -7.628  17.835  70.071  1.00  0.00     1.551 C  
HETATM   27  C   UNL     1     -10.360  17.642  66.904  1.00  0.00    -0.329 C  
HETATM   28  C   UNL     1      -5.178  16.797  70.338  1.00  0.00    -0.218 C  
HETATM   29  C   UNL     1      -9.272  18.765  66.770  1.00  0.00    -0.321 C  
HETATM   30  C   UNL     1      -8.745  19.297  68.179  1.00  0.00    -0.331 C  
HETATM   31  O   UNL     1      -5.908  16.861  71.560  1.00  0.00     0.705 OA 
HETATM   32  C   UNL     1      -7.470  18.564  68.707  1.00  0.00    -0.309 C  
HETATM   33  O   UNL     1      -8.574  18.021  70.823  1.00  0.00     4.443 OA 
HETATM   34  C   UNL     1      -6.141  19.308  68.591  1.00  0.00    -0.251 C  
BRANCH  15  35
HETATM   35  O   UNL     1      -7.901  12.428  69.820  1.00  0.00     0.979 OA 
BRANCH  35  36
HETATM   36  C   UNL     1      -6.904  11.424  69.704  1.00  0.00    -0.068 C  
HETATM   37  C   UNL     1      -5.689  10.494  67.832  1.00  0.00    -0.043 C  
HETATM   38  C   UNL     1      -7.193   8.893  69.063  1.00  0.00    -0.072 C  
HETATM   39  C   UNL     1      -5.227  10.953  66.448  1.00  0.00    -0.095 C  
HETATM   40  C   UNL     1      -7.753  10.121  69.828  1.00  0.00    -0.168 C  
HETATM   41  O   UNL     1      -6.251  11.616  68.474  1.00  0.00    -0.049 OA 
HETATM   42  C   UNL     1      -6.742   9.420  67.684  1.00  0.00    -0.068 C  
BRANCH  38  43
HETATM   43  N   UNL     1      -8.189   7.801  68.824  1.00  0.00    -0.126 NA 
HETATM   44  C   UNL     1      -9.570   8.254  69.035  1.00  0.00    -0.156 C  
HETATM   45  C   UNL     1      -8.088   7.189  67.501  1.00  0.00    -0.113 C  
ENDBRANCH  38  43
BRANCH  40  46
HETATM   46  O   UNL     1      -8.187   9.890  71.198  1.00  0.00     0.041 OA 
BRANCH  46  47
HETATM   47  C   UNL     1      -7.575   8.966  71.976  1.00  0.00     0.122 C  
HETATM   48  C   UNL     1      -8.589   8.112  72.668  1.00  0.00    -0.262 C  
HETATM   49  O   UNL     1      -6.364   8.877  72.130  1.00  0.00    -0.122 OA 
ENDBRANCH  46  47
ENDBRANCH  40  46
ENDBRANCH  35  36
ENDBRANCH  15  35
BRANCH  30  50
HETATM   50  O   UNL     1      -8.439  20.698  67.964  1.00  0.00    -0.006 OA 
BRANCH  50  51
HETATM   51  C   UNL     1      -7.893  21.023  66.762  1.00  0.00     0.176 C  
HETATM   52  O   UNL     1      -8.506  21.125  65.711  1.00  0.00     1.227 OA 
HETATM   53  C   UNL     1      -6.438  21.339  66.912  1.00  0.00    -0.374 C  
ENDBRANCH  50  51
ENDBRANCH  30  50
ENDBRANCH  10  11
ENDBRANCH   5  10
BRANCH   9  54
HETATM   54  O   UNL     1      -9.621  11.588  62.907  1.00  0.00    -0.380 OA 
BRANCH  54  55
HETATM   55  C   UNL     1      -8.437  10.975  62.633  1.00  0.00    -0.172 C  
HETATM   56  C   UNL     1      -8.632   9.504  62.406  1.00  0.00    -0.216 C  
HETATM   57  O   UNL     1      -7.346  11.525  62.576  1.00  0.00     0.324 OA 
ENDBRANCH  54  55
ENDBRANCH   9  54
ENDBRANCH   2   3
TORSDOF 12
ENDMDL
MODEL       21
REMARK 921   NORMALIZED FREE ENERGY PREDICTED BY IDOCK:   18.47 KCAL/MOL
REMARK 922        TOTAL FREE ENERGY PREDICTED BY IDOCK:   29.06 KCAL/MOL
REMARK 923 INTER-LIGAND FREE ENERGY PREDICTED BY IDOCK:   16.72 KCAL/MOL
REMARK 924 INTRA-LIGAND FREE ENERGY PREDICTED BY IDOCK:   12.34 KCAL/MOL
REMARK 927      BINDING AFFINITY PREDICTED BY RF-SCORE:    0.00 PKD
ROOT
HETATM    1  C   UNL     1      -7.250   5.911  63.561  1.00  0.00    -0.058 C  
HETATM    2  O   UNL     1      -7.160   5.818  64.979  1.00  0.00    -0.061 OA 
ENDROOT
BRANCH   2   3
HETATM    3  C   UNL     1      -7.966   4.747  65.492  1.00  0.00    -0.095 C  
HETATM    4  C   UNL     1      -8.027   4.851  67.032  1.00  0.00    -0.103 C  
HETATM    5  C   UNL     1      -8.914   6.007  67.498  1.00  0.00    -0.111 C  
HETATM    6  O   UNL     1     -10.169   5.784  66.889  1.00  0.00    -0.172 OA 
HETATM    7  C   UNL     1     -10.142   7.257  64.918  1.00  0.00     3.688 C  
HETATM    8  C   UNL     1     -10.248   5.833  65.464  1.00  0.00     0.691 C  
HETATM    9  C   UNL     1      -9.337   4.805  64.805  1.00  0.00    -0.058 C  
BRANCH   5  10
HETATM   10  O   UNL     1      -8.991   6.021  68.971  1.00  0.00    -0.123 OA 
BRANCH  10  11
HETATM   11  C   UNL     1      -9.164   7.346  69.537  1.00  0.00    -0.146 C  
HETATM   12  C   UNL     1     -10.231   8.192  68.709  1.00  0.00    -0.221 C  
HETATM   13  C   UNL     1     -10.814   7.627  71.695  1.00  0.00    -0.260 C  
HETATM   14  C   UNL     1     -11.282   7.244  68.116  1.00  0.00     0.185 C  
HETATM   15  C   UNL     1      -9.454   9.277  67.851  1.00  0.00    -0.137 C  
HETATM   16  C   UNL     1      -9.401   7.485  71.094  1.00  0.00    -0.155 C  
HETATM   17  O   UNL     1      -8.630   5.525  72.301  1.00  0.00    -0.125 OA 
HETATM   18  C   UNL     1      -9.230  10.671  68.479  1.00  0.00    -0.170 C  
HETATM   19  C   UNL     1      -9.223  10.625  69.978  1.00  0.00     0.604 C  
HETATM   20  C   UNL     1      -7.887  11.263  67.933  1.00  0.00    -0.116 C  
HETATM   21  C   UNL     1      -8.476   6.711  72.031  1.00  0.00    -0.116 C  
HETATM   22  C   UNL     1      -5.352   7.814  72.076  1.00  0.00    -0.035 C  
HETATM   23  O   UNL     1      -7.630   7.513  72.777  1.00  0.00    -0.081 OA 
HETATM   24  C   UNL     1      -7.249  12.336  68.806  1.00  0.00    -0.098 C  
HETATM   25  C   UNL     1      -8.027  10.336  73.432  1.00  0.00     7.386 C  
HETATM   26  C   UNL     1      -6.188  11.912  69.815  1.00  0.00    -0.137 C  
HETATM   27  C   UNL     1      -6.729   8.482  72.154  1.00  0.00    -0.081 C  
HETATM   28  C   UNL     1      -7.954  13.679  68.861  1.00  0.00     0.061 C  
HETATM   29  C   UNL     1      -6.650   9.825  72.961  1.00  0.00     1.351 C  
HETATM   30  C   UNL     1      -5.772  10.942  72.234  1.00  0.00     0.964 C  
HETATM   31  O   UNL     1      -6.836  13.468  68.004  1.00  0.00    -0.101 OA 
HETATM   32  C   UNL     1      -6.589  11.907  71.317  1.00  0.00     2.684 C  
HETATM   33  O   UNL     1      -5.152  11.416  69.399  1.00  0.00    -0.045 OA 
HETATM   34  C   UNL     1      -6.865  13.310  71.855  1.00  0.00     4.205 C  
BRANCH  15  35
HETATM   35  O   UNL     1      -9.636   9.415  66.461  1.00  0.00    -0.175 OA 
BRANCH  35  36
HETATM   36  C   UNL     1      -9.492  10.643  65.763  1.00  0.00    -0.200 C  
HETATM   37  C   UNL     1     -10.663  11.645  63.900  1.00  0.00    -0.398 C  
HETATM   38  C   UNL     1      -8.235  11.107  63.504  1.00  0.00     0.422 C  
HETATM   39  C   UNL     1     -12.063  11.593  63.290  1.00  0.00    -0.255 C  
HETATM   40  C   UNL     1      -8.257  10.347  64.856  1.00  0.00    -0.145 C  
HETATM   41  O   UNL     1     -10.701  10.891  65.090  1.00  0.00    -0.240 OA 
HETATM   42  C   UNL     1      -9.671  11.023  62.944  1.00  0.00    -0.353 C  
BRANCH  38  43
HETATM   43  N   UNL     1      -7.316  10.522  62.476  1.00  0.00    -0.141 NA 
HETATM   44  C   UNL     1      -5.971  11.110  62.534  1.00  0.00     0.116 C  
HETATM   45  C   UNL     1      -7.201   9.068  62.547  1.00  0.00    -0.098 C  
ENDBRANCH  38  43
BRANCH  40  46
HETATM   46  O   UNL     1      -7.018  10.343  65.619  1.00  0.00    -0.128 OA 
BRANCH  46  47
HETATM   47  C   UNL     1      -6.404   9.181  65.944  1.00  0.00    -0.060 C  
HETATM   48  C   UNL     1      -6.703   8.810  67.361  1.00  0.00    -0.066 C  
HETATM   49  O   UNL     1      -5.666   8.551  65.198  1.00  0.00    -0.046 OA 
ENDBRANCH  46  47
ENDBRANCH  40  46
ENDBRANCH  35  36
ENDBRANCH  15  35
BRANCH  30  50
HETATM   50  O   UNL     1      -5.160  11.701  73.307  1.00  0.00    -0.324 OA 
BRANCH  50  51
HETATM   51  C   UNL     1      -5.590  12.982  73.466  1.00  0.00     0.782 C  
HETATM   52  O   UNL     1      -6.192  13.411  74.437  1.00  0.00    -0.142 OA 
HETATM   53  C   UNL     1      -5.137  13.834  72.321  1.00  0.00    -0.190 C  
ENDBRANCH  50  51
ENDBRANCH  30  50
ENDBRANCH  10  11
ENDBRANCH   5  10
BRANCH   9  54
HETATM   54  O   UNL     1      -9.969   3.498  64.954  1.00  0.00    -0.160 OA 
BRANCH  54  55
HETATM   55  C   UNL     1     -10.182   2.780  63.817  1.00  0.00    -0.166 C  
HETATM   56  C   UNL     1     -10.612   3.674  62.689  1.00  0.00    -0.202 C  
HETATM   57  O   UNL     1     -10.052   1.570  63.702  1.00  0.00    -0.127 OA 
ENDBRANCH  54  55
ENDBRANCH   9  54
ENDBRANCH   2   3
TORSDOF 12
ENDMDL
MODEL       22
REMARK 921   NORMALIZED FREE ENERGY PREDICTED BY IDOCK:   24.45 KCAL/MOL
REMARK 922        TOTAL FREE ENERGY PREDICTED BY IDOCK:   39.21 KCAL/MOL
REMARK 923 INTER-LIGAND FREE ENERGY PREDICTED BY IDOCK:   16.33 KCAL/MOL
REMARK 924 INTRA-LIGAND FREE ENERGY PREDICTED BY IDOCK:   22.88 KCAL/MOL
REMARK 927      BINDING AFFINITY PREDICTED BY RF-SCORE:    0.00 PKD
ROOT
HETATM    1  C   UNL     1      -6.492   8.924  63.583  1.00  0.00    -0.088 C  
HETATM    2  O   UNL     1      -7.740   8.285  63.340  1.00  0.00    -0.127 OA 
ENDROOT
BRANCH   2   3
HETATM    3  C   UNL     1      -8.844   9.105  63.748  1.00  0.00    -0.063 C  
HETATM    4  C   UNL     1      -9.858   8.240  64.531  1.00  0.00     2.770 C  
HETATM    5  C   UNL     1      -9.352   7.880  65.928  1.00  0.00     0.009 C  
HETATM    6  O   UNL     1      -9.055   9.114  66.547  1.00  0.00    -0.142 OA 
HETATM    7  C   UNL     1      -6.621   9.346  66.271  1.00  0.00    -0.070 C  
HETATM    8  C   UNL     1      -8.012   9.916  65.993  1.00  0.00    -0.114 C  
HETATM    9  C   UNL     1      -8.291  10.295  64.545  1.00  0.00    -0.168 C  
BRANCH   5  10
HETATM   10  O   UNL     1     -10.382   7.112  66.654  1.00  0.00    -0.229 OA 
BRANCH  10  11
HETATM   11  C   UNL     1     -10.346   7.298  68.092  1.00  0.00    -0.194 C  
HETATM   12  C   UNL     1     -10.769   8.781  68.493  1.00  0.00    -0.108 C  
HETATM   13  C   UNL     1     -12.480   6.436  69.563  1.00  0.00     2.131 C  
HETATM   14  C   UNL     1     -11.779   9.317  67.469  1.00  0.00     2.349 C  
HETATM   15  C   UNL     1      -9.465   9.574  68.927  1.00  0.00    -0.155 C  
HETATM   16  C   UNL     1     -11.052   6.228  69.017  1.00  0.00    -0.446 C  
HETATM   17  O   UNL     1     -11.348   4.107  67.875  1.00  0.00     3.672 OA 
HETATM   18  C   UNL     1      -9.076   9.565  70.423  1.00  0.00    -0.296 C  
HETATM   19  C   UNL     1      -9.599   8.355  71.138  1.00  0.00    -0.226 C  
HETATM   20  C   UNL     1      -7.518   9.654  70.542  1.00  0.00    -0.147 C  
HETATM   21  C   UNL     1     -10.774   4.751  68.746  1.00  0.00     0.724 C  
HETATM   22  C   UNL     1      -7.679   3.799  69.450  1.00  0.00    -0.052 C  
HETATM   23  O   UNL     1     -10.042   4.124  69.738  1.00  0.00    -0.137 OA 
HETATM   24  C   UNL     1      -6.936   9.131  71.849  1.00  0.00     0.189 C  
HETATM   25  C   UNL     1      -9.802   4.968  72.529  1.00  0.00    -0.200 C  
HETATM   26  C   UNL     1      -6.459   7.684  71.903  1.00  0.00    -0.042 C  
HETATM   27  C   UNL     1      -8.742   4.627  70.180  1.00  0.00    -0.081 C  
HETATM   28  C   UNL     1      -7.195   9.964  73.091  1.00  0.00     2.917 C  
HETATM   29  C   UNL     1      -8.558   4.518  71.735  1.00  0.00    -0.125 C  
HETATM   30  C   UNL     1      -7.200   5.175  72.253  1.00  0.00    -0.090 C  
HETATM   31  O   UNL     1      -5.963  10.061  72.383  1.00  0.00    -0.214 OA 
HETATM   32  C   UNL     1      -7.335   6.670  72.690  1.00  0.00    -0.088 C  
HETATM   33  O   UNL     1      -5.534   7.348  71.179  1.00  0.00    -0.027 OA 
HETATM   34  C   UNL     1      -7.359   6.956  74.191  1.00  0.00    -0.101 C  
BRANCH  15  35
HETATM   35  O   UNL     1      -9.110  10.815  68.360  1.00  0.00    -0.149 OA 
BRANCH  35  36
HETATM   36  C   UNL     1      -9.812  11.425  67.288  1.00  0.00    -0.189 C  
HETATM   37  C   UNL     1      -9.318  13.277  65.816  1.00  0.00     0.174 C  
HETATM   38  C   UNL     1     -11.310  13.582  67.327  1.00  0.00    -0.315 C  
HETATM   39  C   UNL     1      -8.077  13.961  65.241  1.00  0.00     5.451 C  
HETATM   40  C   UNL     1     -10.867  12.284  68.052  1.00  0.00    -0.220 C  
HETATM   41  O   UNL     1      -8.876  12.141  66.522  1.00  0.00    -0.204 OA 
HETATM   42  C   UNL     1     -10.019  14.219  66.768  1.00  0.00    -0.266 C  
BRANCH  38  43
HETATM   43  N   UNL     1     -11.965  14.597  68.212  1.00  0.00    -0.287 NA 
HETATM   44  C   UNL     1     -11.121  14.963  69.357  1.00  0.00    -0.280 C  
HETATM   45  C   UNL     1     -12.371  15.814  67.514  1.00  0.00     1.265 C  
ENDBRANCH  38  43
BRANCH  40  46
HETATM   46  O   UNL     1     -11.928  11.460  68.613  1.00  0.00    -0.452 OA 
BRANCH  46  47
HETATM   47  C   UNL     1     -11.952  11.159  69.932  1.00  0.00    -0.363 C  
HETATM   48  C   UNL     1     -13.316  10.703  70.340  1.00  0.00     0.220 C  
HETATM   49  O   UNL     1     -11.003  11.291  70.694  1.00  0.00     0.454 OA 
ENDBRANCH  46  47
ENDBRANCH  40  46
ENDBRANCH  35  36
ENDBRANCH  15  35
BRANCH  30  50
HETATM   50  O   UNL     1      -6.802   4.375  73.395  1.00  0.00    -0.055 OA 
BRANCH  50  51
HETATM   51  C   UNL     1      -7.772   3.615  73.970  1.00  0.00    -0.070 C  
HETATM   52  O   UNL     1      -8.784   4.043  74.503  1.00  0.00    -0.094 OA 
HETATM   53  C   UNL     1      -7.485   2.159  73.776  1.00  0.00    -0.037 C  
ENDBRANCH  50  51
ENDBRANCH  30  50
ENDBRANCH  10  11
ENDBRANCH   5  10
BRANCH   9  54
HETATM   54  O   UNL     1      -9.308  11.341  64.551  1.00  0.00    -0.206 OA 
BRANCH  54  55
HETATM   55  C   UNL     1     -10.595  10.955  64.334  1.00  0.00    -0.273 C  
HETATM   56  C   UNL     1     -11.235  11.793  63.264  1.00  0.00    -0.357 C  
HETATM   57  O   UNL     1     -11.178  10.054  64.920  1.00  0.00     1.554 OA 
ENDBRANCH  54  55
ENDBRANCH   9  54
ENDBRANCH   2   3
TORSDOF 12
ENDMDL
MODEL       23
REMARK 921   NORMALIZED FREE ENERGY PREDICTED BY IDOCK:   25.94 KCAL/MOL
REMARK 922        TOTAL FREE ENERGY PREDICTED BY IDOCK:   41.76 KCAL/MOL
REMARK 923 INTER-LIGAND FREE ENERGY PREDICTED BY IDOCK:    3.03 KCAL/MOL
REMARK 924 INTRA-LIGAND FREE ENERGY PREDICTED BY IDOCK:   38.74 KCAL/MOL
REMARK 927      BINDING AFFINITY PREDICTED BY RF-SCORE:    0.00 PKD
ROOT
HETATM    1  C   UNL     1      -9.185   5.491  70.903  1.00  0.00    -0.151 C  
HETATM    2  O   UNL     1      -8.656   6.107  72.072  1.00  0.00    -0.131 OA 
ENDROOT
BRANCH   2   3
HETATM    3  C   UNL     1      -9.586   7.036  72.649  1.00  0.00    -0.143 C  
HETATM    4  C   UNL     1      -8.988   8.459  72.585  1.00  0.00    -0.304 C  
HETATM    5  C   UNL     1      -8.998   9.026  71.165  1.00  0.00    -0.235 C  
HETATM    6  O   UNL     1     -10.343   8.951  70.742  1.00  0.00    -0.199 OA 
HETATM    7  C   UNL     1     -10.426   6.898  69.387  1.00  0.00    -0.237 C  
HETATM    8  C   UNL     1     -10.940   7.661  70.609  1.00  0.00    -0.249 C  
HETATM    9  C   UNL     1     -10.929   6.887  71.921  1.00  0.00    -0.235 C  
BRANCH   5  10
HETATM   10  O   UNL     1      -8.479  10.407  71.171  1.00  0.00     1.414 OA 
BRANCH  10  11
HETATM   11  C   UNL     1      -8.374  11.000  69.851  1.00  0.00     0.917 C  
HETATM   12  C   UNL     1      -7.018  11.821  69.693  1.00  0.00     0.094 C  
HETATM   13  C   UNL     1      -7.506   9.428  67.792  1.00  0.00    -0.087 C  
HETATM   14  C   UNL     1      -5.927  11.173  70.557  1.00  0.00    -0.114 C  
HETATM   15  C   UNL     1      -7.361  13.369  69.740  1.00  0.00     0.684 C  
HETATM   16  C   UNL     1      -8.650  10.093  68.584  1.00  0.00    -0.123 C  
HETATM   17  O   UNL     1      -9.960   8.130  69.150  1.00  0.00    -0.182 OA 
HETATM   18  C   UNL     1      -7.643  14.090  68.402  1.00  0.00    -0.129 C  
HETATM   19  C   UNL     1      -8.146  13.151  67.346  1.00  0.00    -0.181 C  
HETATM   20  C   UNL     1      -8.667  15.246  68.655  1.00  0.00    -0.182 C  
HETATM   21  C   UNL     1      -9.902   9.218  68.588  1.00  0.00    -0.162 C  
HETATM   22  C   UNL     1     -12.745  10.910  68.405  1.00  0.00     2.112 C  
HETATM   23  O   UNL     1     -10.864   9.606  67.673  1.00  0.00    -0.282 OA 
HETATM   24  C   UNL     1      -9.450  15.699  67.429  1.00  0.00    -0.215 C  
HETATM   25  C   UNL     1     -10.433  11.192  65.254  1.00  0.00    -0.326 C  
HETATM   26  C   UNL     1     -10.819  15.079  67.175  1.00  0.00    -0.314 C  
HETATM   27  C   UNL     1     -11.412  10.962  67.650  1.00  0.00    -0.200 C  
HETATM   28  C   UNL     1      -8.675  16.460  66.368  1.00  0.00    -0.319 C  
HETATM   29  C   UNL     1     -11.622  11.494  66.189  1.00  0.00     0.014 C  
HETATM   30  C   UNL     1     -12.099  13.016  66.139  1.00  0.00    -0.409 C  
HETATM   31  O   UNL     1      -9.465  17.143  67.337  1.00  0.00    -0.242 OA 
HETATM   32  C   UNL     1     -10.936  14.052  66.014  1.00  0.00    -0.298 C  
HETATM   33  O   UNL     1     -11.704  15.261  67.998  1.00  0.00    -0.342 OA 
HETATM   34  C   UNL     1     -10.718  14.689  64.642  1.00  0.00    -0.309 C  
BRANCH  15  35
HETATM   35  O   UNL     1      -6.720  14.260  70.624  1.00  0.00    -0.003 OA 
BRANCH  35  36
HETATM   36  C   UNL     1      -5.862  15.311  70.203  1.00  0.00    -0.140 C  
HETATM   37  C   UNL     1      -5.359  17.503  71.088  1.00  0.00    -0.058 C  
HETATM   38  C   UNL     1      -6.463  17.465  68.826  1.00  0.00    -0.201 C  
HETATM   39  C   UNL     1      -5.345  18.191  72.454  1.00  0.00     1.622 C  
HETATM   40  C   UNL     1      -6.689  15.945  69.042  1.00  0.00    -0.151 C  
HETATM   41  O   UNL     1      -5.631  16.139  71.315  1.00  0.00     0.104 OA 
HETATM   42  C   UNL     1      -6.455  18.098  70.234  1.00  0.00     0.462 C  
BRANCH  38  43
HETATM   43  N   UNL     1      -7.536  18.146  68.032  1.00  0.00    -0.234 NA 
HETATM   44  C   UNL     1      -8.516  18.823  68.892  1.00  0.00    -0.198 C  
HETATM   45  C   UNL     1      -7.027  19.101  67.051  1.00  0.00    -0.199 C  
ENDBRANCH  38  43
BRANCH  40  46
HETATM   46  O   UNL     1      -6.670  15.110  67.849  1.00  0.00    -0.122 OA 
BRANCH  46  47
HETATM   47  C   UNL     1      -5.647  15.179  66.966  1.00  0.00     0.954 C  
HETATM   48  C   UNL     1      -5.176  13.808  66.603  1.00  0.00     2.408 C  
HETATM   49  O   UNL     1      -5.145  16.220  66.562  1.00  0.00    -0.238 OA 
ENDBRANCH  46  47
ENDBRANCH  40  46
ENDBRANCH  35  36
ENDBRANCH  15  35
BRANCH  30  50
HETATM   50  O   UNL     1     -12.953  13.108  64.971  1.00  0.00    -0.729 OA 
BRANCH  50  51
HETATM   51  C   UNL     1     -12.594  12.355  63.897  1.00  0.00    -0.427 C  
HETATM   52  O   UNL     1     -11.521  12.413  63.319  1.00  0.00    -0.441 OA 
HETATM   53  C   UNL     1     -13.664  11.359  63.571  1.00  0.00     1.893 C  
ENDBRANCH  50  51
ENDBRANCH  30  50
ENDBRANCH  10  11
ENDBRANCH   5  10
BRANCH   9  54
HETATM   54  O   UNL     1     -11.967   7.454  72.775  1.00  0.00    -0.140 OA 
BRANCH  54  55
HETATM   55  C   UNL     1     -13.183   7.679  72.205  1.00  0.00     0.052 C  
HETATM   56  C   UNL     1     -13.854   6.386  71.841  1.00  0.00     0.265 C  
HETATM   57  O   UNL     1     -13.684   8.776  72.003  1.00  0.00    -0.389 OA 
ENDBRANCH  54  55
ENDBRANCH   9  54
ENDBRANCH   2   3
TORSDOF 12
ENDMDL
MODEL       24
REMARK 921   NORMALIZED FREE ENERGY PREDICTED BY IDOCK:   27.23 KCAL/MOL
REMARK 922        TOTAL FREE ENERGY PREDICTED BY IDOCK:   43.95 KCAL/MOL
REMARK 923 INTER-LIGAND FREE ENERGY PREDICTED BY IDOCK:   25.33 KCAL/MOL
REMARK 924 INTRA-LIGAND FREE ENERGY PREDICTED BY IDOCK:   18.62 KCAL/MOL
REMARK 927      BINDING AFFINITY PREDICTED BY RF-SCORE:    0.00 PKD
ROOT
HETATM    1  C   UNL     1      -8.015   8.578  63.120  1.00  0.00    -0.164 C  
HETATM    2  O   UNL     1      -7.320   7.372  63.413  1.00  0.00    -0.074 OA 
ENDROOT
BRANCH   2   3
HETATM    3  C   UNL     1      -7.328   7.081  64.818  1.00  0.00    -0.085 C  
HETATM    4  C   UNL     1      -8.223   8.111  65.544  1.00  0.00    -0.144 C  
HETATM    5  C   UNL     1      -9.710   7.870  65.283  1.00  0.00     1.288 C  
HETATM    6  O   UNL     1      -9.946   6.533  65.672  1.00  0.00     0.489 OA 
HETATM    7  C   UNL     1      -9.882   5.279  63.555  1.00  0.00     1.127 C  
HETATM    8  C   UNL     1      -9.289   5.492  64.948  1.00  0.00     0.333 C  
HETATM    9  C   UNL     1      -7.773   5.624  65.006  1.00  0.00    -0.094 C  
BRANCH   5  10
HETATM   10  O   UNL     1     -10.519   8.837  66.049  1.00  0.00     0.106 OA 
BRANCH  10  11
HETATM   11  C   UNL     1      -9.800  10.042  66.418  1.00  0.00    -0.224 C  
HETATM   12  C   UNL     1      -8.519   9.701  67.304  1.00  0.00    -0.132 C  
HETATM   13  C   UNL     1      -8.081  11.133  64.596  1.00  0.00     0.515 C  
HETATM   14  C   UNL     1      -7.970   8.327  66.897  1.00  0.00    -0.099 C  
HETATM   15  C   UNL     1      -8.829  10.105  68.807  1.00  0.00    -0.146 C  
HETATM   16  C   UNL     1      -9.457  11.100  65.294  1.00  0.00    -0.257 C  
HETATM   17  O   UNL     1     -10.900  10.855  63.357  1.00  0.00    -0.170 OA 
HETATM   18  C   UNL     1      -8.441  11.528  69.269  1.00  0.00     0.359 C  
HETATM   19  C   UNL     1      -8.399  12.503  68.130  1.00  0.00    -0.175 C  
HETATM   20  C   UNL     1      -9.452  11.997  70.368  1.00  0.00     4.818 C  
HETATM   21  C   UNL     1     -10.573  11.515  64.337  1.00  0.00    -0.334 C  
HETATM   22  C   UNL     1     -12.978  13.305  65.748  1.00  0.00     0.065 C  
HETATM   23  O   UNL     1     -10.988  12.826  64.490  1.00  0.00    -0.306 OA 
HETATM   24  C   UNL     1      -9.562  13.506  70.547  1.00  0.00     4.543 C  
HETATM   25  C   UNL     1      -9.454  15.016  65.677  1.00  0.00    -0.179 C  
HETATM   26  C   UNL     1     -10.657  14.247  69.788  1.00  0.00     0.151 C  
HETATM   27  C   UNL     1     -11.446  13.350  65.776  1.00  0.00    -0.320 C  
HETATM   28  C   UNL     1      -8.372  14.206  71.177  1.00  0.00     5.019 C  
HETATM   29  C   UNL     1     -10.939  14.812  66.038  1.00  0.00    -0.328 C  
HETATM   30  C   UNL     1     -11.322  15.357  67.488  1.00  0.00    -0.269 C  
HETATM   31  O   UNL     1      -9.517  13.859  71.950  1.00  0.00     7.012 OA 
HETATM   32  C   UNL     1     -10.226  15.118  68.575  1.00  0.00    -0.231 C  
HETATM   33  O   UNL     1     -11.823  13.978  70.036  1.00  0.00    -0.288 OA 
HETATM   34  C   UNL     1      -9.382  16.323  68.989  1.00  0.00    -0.254 C  
BRANCH  15  35
HETATM   35  O   UNL     1      -8.669   9.206  69.880  1.00  0.00    -0.137 OA 
BRANCH  35  36
HETATM   36  C   UNL     1      -9.563   9.121  70.980  1.00  0.00    -0.280 C  
HETATM   37  C   UNL     1      -9.251   9.024  73.375  1.00  0.00     1.673 C  
HETATM   38  C   UNL     1     -10.306   6.992  72.327  1.00  0.00    -0.193 C  
HETATM   39  C   UNL     1      -8.219   9.502  74.397  1.00  0.00     2.687 C  
HETATM   40  C   UNL     1      -9.957   7.611  70.948  1.00  0.00    -0.180 C  
HETATM   41  O   UNL     1      -8.868   9.549  72.125  1.00  0.00     0.328 OA 
HETATM   42  C   UNL     1      -9.236   7.514  73.311  1.00  0.00    -0.256 C  
BRANCH  38  43
HETATM   43  N   UNL     1     -10.260   5.495  72.366  1.00  0.00    -0.190 NA 
HETATM   44  C   UNL     1      -9.728   4.989  73.638  1.00  0.00    -0.138 C  
HETATM   45  C   UNL     1     -11.549   4.859  72.105  1.00  0.00     0.515 C  
ENDBRANCH  38  43
BRANCH  40  46
HETATM   46  O   UNL     1     -10.872   7.317  69.854  1.00  0.00    -0.242 OA 
BRANCH  46  47
HETATM   47  C   UNL     1     -10.536   6.436  68.883  1.00  0.00    -0.252 C  
HETATM   48  C   UNL     1     -10.029   5.165  69.484  1.00  0.00    -0.301 C  
HETATM   49  O   UNL     1     -10.593   6.668  67.683  1.00  0.00    -0.198 OA 
ENDBRANCH  46  47
ENDBRANCH  40  46
ENDBRANCH  35  36
ENDBRANCH  15  35
BRANCH  30  50
HETATM   50  O   UNL     1     -11.525  16.783  67.315  1.00  0.00     0.244 OA 
BRANCH  50  51
HETATM   51  C   UNL     1     -10.625  17.433  66.532  1.00  0.00    -0.184 C  
HETATM   52  O   UNL     1      -9.418  17.462  66.714  1.00  0.00    -0.255 OA 
HETATM   53  C   UNL     1     -11.302  18.038  65.341  1.00  0.00     1.299 C  
ENDBRANCH  50  51
ENDBRANCH  30  50
ENDBRANCH  10  11
ENDBRANCH   5  10
BRANCH   9  54
HETATM   54  O   UNL     1      -7.343   5.191  66.331  1.00  0.00    -0.082 OA 
BRANCH  54  55
HETATM   55  C   UNL     1      -6.314   5.875  66.902  1.00  0.00    -0.042 C  
HETATM   56  C   UNL     1      -5.198   6.089  65.919  1.00  0.00    -0.013 C  
HETATM   57  O   UNL     1      -6.276   6.271  68.058  1.00  0.00    -0.029 OA 
ENDBRANCH  54  55
ENDBRANCH   9  54
ENDBRANCH   2   3
TORSDOF 12
ENDMDL
MODEL       25
REMARK 921   NORMALIZED FREE ENERGY PREDICTED BY IDOCK:   27.81 KCAL/MOL
REMARK 922        TOTAL FREE ENERGY PREDICTED BY IDOCK:   44.93 KCAL/MOL
REMARK 923 INTER-LIGAND FREE ENERGY PREDICTED BY IDOCK:   29.75 KCAL/MOL
REMARK 924 INTRA-LIGAND FREE ENERGY PREDICTED BY IDOCK:   15.18 KCAL/MOL
REMARK 927      BINDING AFFINITY PREDICTED BY RF-SCORE:    0.00 PKD
ROOT
HETATM    1  C   UNL     1      -7.573  16.952  64.594  1.00  0.00     6.842 C  
HETATM    2  O   UNL     1      -8.563  16.827  65.609  1.00  0.00    -0.415 OA 
ENDROOT
BRANCH   2   3
HETATM    3  C   UNL     1      -9.616  15.935  65.216  1.00  0.00     0.211 C  
HETATM    4  C   UNL     1      -9.106  14.479  65.299  1.00  0.00     1.251 C  
HETATM    5  C   UNL     1      -8.966  13.997  66.743  1.00  0.00    -0.197 C  
HETATM    6  O   UNL     1     -10.238  14.191  67.326  1.00  0.00    -0.252 OA 
HETATM    7  C   UNL     1     -10.015  16.320  68.541  1.00  0.00    -0.234 C  
HETATM    8  C   UNL     1     -10.730  15.526  67.448  1.00  0.00    -0.301 C  
HETATM    9  C   UNL     1     -10.841  16.219  66.096  1.00  0.00    -0.105 C  
BRANCH   5  10
HETATM   10  O   UNL     1      -8.540  12.585  66.764  1.00  0.00    -0.183 OA 
BRANCH  10  11
HETATM   11  C   UNL     1      -9.508  11.690  67.370  1.00  0.00    -0.167 C  
HETATM   12  C   UNL     1     -10.138  12.327  68.688  1.00  0.00    -0.153 C  
HETATM   13  C   UNL     1     -12.041  11.638  66.348  1.00  0.00     0.683 C  
HETATM   14  C   UNL     1     -10.184  13.854  68.543  1.00  0.00    -0.240 C  
HETATM   15  C   UNL     1      -9.513  11.590  69.947  1.00  0.00     1.732 C  
HETATM   16  C   UNL     1     -10.623  11.040  66.455  1.00  0.00    -0.310 C  
HETATM   17  O   UNL     1      -9.987  11.055  64.113  1.00  0.00    -0.271 OA 
HETATM   18  C   UNL     1     -10.258  10.357  70.507  1.00  0.00     0.323 C  
HETATM   19  C   UNL     1     -11.091   9.674  69.463  1.00  0.00    -0.198 C  
HETATM   20  C   UNL     1      -9.211   9.368  71.121  1.00  0.00    -0.100 C  
HETATM   21  C   UNL     1     -10.188  10.408  65.135  1.00  0.00    -0.256 C  
HETATM   22  C   UNL     1      -8.394   7.643  65.477  1.00  0.00    -0.139 C  
HETATM   23  O   UNL     1     -10.319   9.031  65.099  1.00  0.00     0.957 OA 
HETATM   24  C   UNL     1      -9.671   7.919  71.225  1.00  0.00    -0.157 C  
HETATM   25  C   UNL     1     -12.087   7.401  66.764  1.00  0.00     4.840 C  
HETATM   26  C   UNL     1      -9.316   6.964  70.091  1.00  0.00    -0.159 C  
HETATM   27  C   UNL     1      -9.694   8.165  66.099  1.00  0.00    -0.084 C  
HETATM   28  C   UNL     1     -10.738   7.615  72.260  1.00  0.00    -0.260 C  
HETATM   29  C   UNL     1     -10.625   6.975  66.521  1.00  0.00    -0.008 C  
HETATM   30  C   UNL     1     -10.016   6.091  67.701  1.00  0.00    -0.135 C  
HETATM   31  O   UNL     1      -9.360   7.377  72.531  1.00  0.00    -0.139 OA 
HETATM   32  C   UNL     1     -10.461   6.533  69.132  1.00  0.00    -0.260 C  
HETATM   33  O   UNL     1      -8.136   6.734  69.869  1.00  0.00    -0.121 OA 
HETATM   34  C   UNL     1     -11.518   5.676  69.827  1.00  0.00     0.571 C  
BRANCH  15  35
HETATM   35  O   UNL     1      -8.905  12.289  71.009  1.00  0.00     8.329 OA 
BRANCH  35  36
HETATM   36  C   UNL     1      -7.531  12.646  71.037  1.00  0.00     5.731 C  
HETATM   37  C   UNL     1      -6.255  14.429  70.019  1.00  0.00    -0.158 C  
HETATM   38  C   UNL     1      -5.659  12.097  69.278  1.00  0.00    -0.069 C  
HETATM   39  C   UNL     1      -6.500  15.860  69.542  1.00  0.00    -0.186 C  
HETATM   40  C   UNL     1      -6.917  11.610  70.045  1.00  0.00     0.432 C  
HETATM   41  O   UNL     1      -7.437  13.995  70.651  1.00  0.00     1.114 OA 
HETATM   42  C   UNL     1      -5.967  13.542  68.830  1.00  0.00    -0.084 C  
BRANCH  38  43
HETATM   43  N   UNL     1      -5.334  11.304  68.050  1.00  0.00    -0.043 NA 
HETATM   44  C   UNL     1      -5.271   9.862  68.320  1.00  0.00    -0.036 C  
HETATM   45  C   UNL     1      -6.249  11.538  66.936  1.00  0.00    -0.143 C  
ENDBRANCH  38  43
BRANCH  40  46
HETATM   46  O   UNL     1      -6.845  10.280  70.632  1.00  0.00    -0.309 OA 
BRANCH  46  47
HETATM   47  C   UNL     1      -6.457  10.106  71.917  1.00  0.00     1.053 C  
HETATM   48  C   UNL     1      -7.285   9.050  72.575  1.00  0.00     0.324 C  
HETATM   49  O   UNL     1      -5.584  10.758  72.475  1.00  0.00    -0.077 OA 
ENDBRANCH  46  47
ENDBRANCH  40  46
ENDBRANCH  35  36
ENDBRANCH  15  35
BRANCH  30  50
HETATM   50  O   UNL     1     -10.486   4.743  67.446  1.00  0.00    -0.085 OA 
BRANCH  50  51
HETATM   51  C   UNL     1      -9.587   3.880  66.901  1.00  0.00    -0.200 C  
HETATM   52  O   UNL     1      -9.082   2.928  67.474  1.00  0.00    -0.149 OA 
HETATM   53  C   UNL     1      -9.367   4.195  65.454  1.00  0.00    -0.163 C  
ENDBRANCH  50  51
ENDBRANCH  30  50
ENDBRANCH  10  11
ENDBRANCH   5  10
BRANCH   9  54
HETATM   54  O   UNL     1     -12.015  15.679  65.419  1.00  0.00     0.267 OA 
BRANCH  54  55
HETATM   55  C   UNL     1     -12.045  15.774  64.061  1.00  0.00     0.206 C  
HETATM   56  C   UNL     1     -12.822  14.638  63.460  1.00  0.00     1.343 C  
HETATM   57  O   UNL     1     -11.517  16.653  63.396  1.00  0.00     0.087 OA 
ENDBRANCH  54  55
ENDBRANCH   9  54
ENDBRANCH   2   3
TORSDOF 12
ENDMDL
MODEL       26
REMARK 921   NORMALIZED FREE ENERGY PREDICTED BY IDOCK:   28.89 KCAL/MOL
REMARK 922        TOTAL FREE ENERGY PREDICTED BY IDOCK:   46.78 KCAL/MOL
REMARK 923 INTER-LIGAND FREE ENERGY PREDICTED BY IDOCK:   33.57 KCAL/MOL
REMARK 924 INTRA-LIGAND FREE ENERGY PREDICTED BY IDOCK:   13.21 KCAL/MOL
REMARK 927      BINDING AFFINITY PREDICTED BY RF-SCORE:    0.00 PKD
ROOT
HETATM    1  C   UNL     1     -12.592   9.432  63.014  1.00  0.00    14.468 C  
HETATM    2  O   UNL     1     -11.749   9.272  64.148  1.00  0.00     9.138 OA 
ENDROOT
BRANCH   2   3
HETATM    3  C   UNL     1     -10.579  10.099  64.062  1.00  0.00     1.242 C  
HETATM    4  C   UNL     1     -10.571  11.093  65.244  1.00  0.00    -0.303 C  
HETATM    5  C   UNL     1     -10.234  10.411  66.570  1.00  0.00    -0.229 C  
HETATM    6  O   UNL     1      -8.994   9.769  66.355  1.00  0.00    -0.146 OA 
HETATM    7  C   UNL     1      -9.610   7.433  65.884  1.00  0.00     0.198 C  
HETATM    8  C   UNL     1      -8.936   8.714  65.393  1.00  0.00    -0.130 C  
HETATM    9  C   UNL     1      -9.347   9.185  64.004  1.00  0.00     0.493 C  
BRANCH   5  10
HETATM   10  O   UNL     1     -10.175  11.412  67.652  1.00  0.00    -0.177 OA 
BRANCH  10  11
HETATM   11  C   UNL     1      -9.241  12.494  67.399  1.00  0.00    -0.186 C  
HETATM   12  C   UNL     1      -7.744  12.052  67.721  1.00  0.00    -0.139 C  
HETATM   13  C   UNL     1      -8.420  12.921  64.829  1.00  0.00     3.386 C  
HETATM   14  C   UNL     1      -7.588  10.549  67.448  1.00  0.00    -0.094 C  
HETATM   15  C   UNL     1      -7.299  12.741  69.078  1.00  0.00     0.056 C  
HETATM   16  C   UNL     1      -9.329  13.272  66.025  1.00  0.00    -0.016 C  
HETATM   17  O   UNL     1     -11.506  13.013  64.982  1.00  0.00    -0.301 OA 
HETATM   18  C   UNL     1      -6.594  14.114  68.996  1.00  0.00    -0.104 C  
HETATM   19  C   UNL     1      -6.964  14.869  67.754  1.00  0.00    -0.193 C  
HETATM   20  C   UNL     1      -6.946  14.942  70.277  1.00  0.00     0.081 C  
HETATM   21  C   UNL     1     -10.704  13.742  65.555  1.00  0.00    -0.302 C  
HETATM   22  C   UNL     1     -12.009  16.173  67.390  1.00  0.00     0.870 C  
HETATM   23  O   UNL     1     -10.862  15.117  65.562  1.00  0.00    -0.325 OA 
HETATM   24  C   UNL     1      -6.801  16.452  70.134  1.00  0.00     0.540 C  
HETATM   25  C   UNL     1      -8.733  17.120  65.462  1.00  0.00     0.849 C  
HETATM   26  C   UNL     1      -8.033  17.265  69.755  1.00  0.00     1.086 C  
HETATM   27  C   UNL     1     -10.634  15.919  66.764  1.00  0.00    -0.309 C  
HETATM   28  C   UNL     1      -5.387  16.994  70.030  1.00  0.00    -0.201 C  
HETATM   29  C   UNL     1      -9.909  17.273  66.447  1.00  0.00    -0.310 C  
HETATM   30  C   UNL     1      -9.538  18.107  67.756  1.00  0.00    -0.286 C  
HETATM   31  O   UNL     1      -6.092  17.007  71.268  1.00  0.00     0.974 OA 
HETATM   32  C   UNL     1      -8.102  17.830  68.309  1.00  0.00    -0.283 C  
HETATM   33  O   UNL     1      -8.984  17.275  70.523  1.00  0.00     2.961 OA 
HETATM   34  C   UNL     1      -7.038  18.894  68.043  1.00  0.00    -0.259 C  
BRANCH  15  35
HETATM   35  O   UNL     1      -6.771  12.010  70.161  1.00  0.00     0.029 OA 
BRANCH  35  36
HETATM   36  C   UNL     1      -5.662  11.130  70.056  1.00  0.00    -0.098 C  
HETATM   37  C   UNL     1      -5.146   9.272  68.598  1.00  0.00    -0.034 C  
HETATM   38  C   UNL     1      -5.390   8.711  71.041  1.00  0.00    -0.028 C  
HETATM   39  C   UNL     1      -5.492   8.823  67.178  1.00  0.00    -0.038 C  
HETATM   40  C   UNL     1      -5.921  10.154  71.245  1.00  0.00     0.068 C  
HETATM   41  O   UNL     1      -5.698  10.557  68.773  1.00  0.00    -0.041 OA 
HETATM   42  C   UNL     1      -5.765   8.320  69.595  1.00  0.00    -0.026 C  
BRANCH  38  43
HETATM   43  N   UNL     1      -5.995   7.690  71.954  1.00  0.00    -0.036 NA 
HETATM   44  C   UNL     1      -7.314   7.241  71.489  1.00  0.00    -0.080 C  
HETATM   45  C   UNL     1      -5.148   6.521  72.177  1.00  0.00    -0.027 C  
ENDBRANCH  38  43
BRANCH  40  46
HETATM   46  O   UNL     1      -5.627  10.778  72.527  1.00  0.00    -0.077 OA 
BRANCH  46  47
HETATM   47  C   UNL     1      -5.507  12.122  72.636  1.00  0.00     0.979 C  
HETATM   48  C   UNL     1      -5.559  12.536  74.071  1.00  0.00     0.930 C  
HETATM   49  O   UNL     1      -5.418  12.892  71.689  1.00  0.00    -0.371 OA 
ENDBRANCH  46  47
ENDBRANCH  40  46
ENDBRANCH  35  36
ENDBRANCH  15  35
BRANCH  30  50
HETATM   50  O   UNL     1      -9.642  19.498  67.363  1.00  0.00    -0.313 OA 
BRANCH  50  51
HETATM   51  C   UNL     1     -10.852  19.907  66.896  1.00  0.00    -0.235 C  
HETATM   52  O   UNL     1     -11.736  20.413  67.569  1.00  0.00     1.387 OA 
HETATM   53  C   UNL     1     -10.925  19.745  65.410  1.00  0.00    -0.014 C  
ENDBRANCH  50  51
ENDBRANCH  30  50
ENDBRANCH  10  11
ENDBRANCH   5  10
BRANCH   9  54
HETATM   54  O   UNL     1      -8.239   9.960  63.456  1.00  0.00    -0.142 OA 
BRANCH  54  55
HETATM   55  C   UNL     1      -7.053   9.314  63.291  1.00  0.00    -0.089 C  
HETATM   56  C   UNL     1      -5.935  10.062  63.959  1.00  0.00    -0.131 C  
HETATM   57  O   UNL     1      -6.890   8.265  62.683  1.00  0.00    -0.089 OA 
ENDBRANCH  54  55
ENDBRANCH   9  54
ENDBRANCH   2   3
TORSDOF 12
ENDMDL
MODEL       27
REMARK 921   NORMALIZED FREE ENERGY PREDICTED BY IDOCK:   34.49 KCAL/MOL
REMARK 922        TOTAL FREE ENERGY PREDICTED BY IDOCK:   56.31 KCAL/MOL
REMARK 923 INTER-LIGAND FREE ENERGY PREDICTED BY IDOCK:   31.56 KCAL/MOL
REMARK 924 INTRA-LIGAND FREE ENERGY PREDICTED BY IDOCK:   24.75 KCAL/MOL
REMARK 927      BINDING AFFINITY PREDICTED BY RF-SCORE:    0.00 PKD
ROOT
HETATM    1  C   UNL     1      -7.250   5.911  63.561  1.00  0.00    -0.058 C  
HETATM    2  O   UNL     1      -7.263   5.822  64.982  1.00  0.00    -0.062 OA 
ENDROOT
BRANCH   2   3
HETATM    3  C   UNL     1      -8.176   4.814  65.441  1.00  0.00    -0.118 C  
HETATM    4  C   UNL     1      -8.336   4.934  66.973  1.00  0.00    -0.106 C  
HETATM    5  C   UNL     1      -9.168   6.153  67.373  1.00  0.00    -0.112 C  
HETATM    6  O   UNL     1     -10.391   6.013  66.679  1.00  0.00    -0.205 OA 
HETATM    7  C   UNL     1     -10.125   7.465  64.710  1.00  0.00     4.124 C  
HETATM    8  C   UNL     1     -10.368   6.057  65.252  1.00  0.00     1.691 C  
HETATM    9  C   UNL     1      -9.489   4.962  64.661  1.00  0.00     0.089 C  
BRANCH   5  10
HETATM   10  O   UNL     1      -9.346   6.184  68.837  1.00  0.00    -0.124 OA 
BRANCH  10  11
HETATM   11  C   UNL     1      -9.465   7.522  69.385  1.00  0.00    -0.155 C  
HETATM   12  C   UNL     1     -10.359   8.451  68.449  1.00  0.00    -0.239 C  
HETATM   13  C   UNL     1     -11.312   7.957  71.351  1.00  0.00    -0.285 C  
HETATM   14  C   UNL     1     -11.416   7.593  67.741  1.00  0.00     0.954 C  
HETATM   15  C   UNL     1      -9.403   9.461  67.685  1.00  0.00    -0.127 C  
HETATM   16  C   UNL     1      -9.858   7.690  70.908  1.00  0.00    -0.179 C  
HETATM   17  O   UNL     1      -9.395   5.679  72.184  1.00  0.00    -0.146 OA 
HETATM   18  C   UNL     1      -9.130  10.835  68.338  1.00  0.00    -0.164 C  
HETATM   19  C   UNL     1      -9.291  10.797  69.829  1.00  0.00     0.365 C  
HETATM   20  C   UNL     1      -7.690  11.307  67.944  1.00  0.00    -0.110 C  
HETATM   21  C   UNL     1      -9.111   6.846  71.938  1.00  0.00    -0.141 C  
HETATM   22  C   UNL     1      -5.928   7.677  72.328  1.00  0.00    -0.039 C  
HETATM   23  O   UNL     1      -8.286   7.576  72.775  1.00  0.00    -0.107 OA 
HETATM   24  C   UNL     1      -7.061  12.326  68.885  1.00  0.00    -0.088 C  
HETATM   25  C   UNL     1      -8.508  10.427  73.392  1.00  0.00    10.100 C  
HETATM   26  C   UNL     1      -6.158  11.818  70.003  1.00  0.00    -0.158 C  
HETATM   27  C   UNL     1      -7.243   8.461  72.257  1.00  0.00    -0.092 C  
HETATM   28  C   UNL     1      -7.651  13.724  68.868  1.00  0.00    -0.040 C  
HETATM   29  C   UNL     1      -7.137   9.797  73.073  1.00  0.00     2.128 C  
HETATM   30  C   UNL     1      -6.092  10.830  72.450  1.00  0.00     1.830 C  
HETATM   31  O   UNL     1      -6.468  13.414  68.138  1.00  0.00    -0.091 OA 
HETATM   32  C   UNL     1      -6.719  11.857  71.452  1.00  0.00     3.574 C  
HETATM   33  O   UNL     1      -5.128  11.233  69.701  1.00  0.00    -0.041 OA 
HETATM   34  C   UNL     1      -6.931  13.281  71.962  1.00  0.00     5.110 C  
BRANCH  15  35
HETATM   35  O   UNL     1      -9.419   9.606  66.283  1.00  0.00    -0.170 OA 
BRANCH  35  36
HETATM   36  C   UNL     1      -9.449  10.860  65.618  1.00  0.00    -0.215 C  
HETATM   37  C   UNL     1      -8.276  12.947  65.950  1.00  0.00     1.594 C  
HETATM   38  C   UNL     1     -10.771  13.032  66.275  1.00  0.00    -0.276 C  
HETATM   39  C   UNL     1      -6.932  13.407  66.516  1.00  0.00     2.092 C  
HETATM   40  C   UNL     1     -10.763  11.484  66.182  1.00  0.00    -0.274 C  
HETATM   41  O   UNL     1      -8.261  11.538  65.941  1.00  0.00    -0.006 OA 
HETATM   42  C   UNL     1      -9.393  13.431  66.845  1.00  0.00    -0.253 C  
BRANCH  38  43
HETATM   43  N   UNL     1     -11.816  13.596  67.188  1.00  0.00    -0.380 NA 
HETATM   44  C   UNL     1     -12.139  12.683  68.293  1.00  0.00    -0.085 C  
HETATM   45  C   UNL     1     -11.475  14.905  67.739  1.00  0.00    -0.338 C  
ENDBRANCH  38  43
BRANCH  40  46
HETATM   46  O   UNL     1     -11.945  10.862  65.603  1.00  0.00     0.770 OA 
BRANCH  46  47
HETATM   47  C   UNL     1     -12.528  11.372  64.493  1.00  0.00     0.901 C  
HETATM   48  C   UNL     1     -11.553  11.406  63.360  1.00  0.00    -0.063 C  
HETATM   49  O   UNL     1     -13.676  11.792  64.439  1.00  0.00     0.069 OA 
ENDBRANCH  46  47
ENDBRANCH  40  46
ENDBRANCH  35  36
ENDBRANCH  15  35
BRANCH  30  50
HETATM   50  O   UNL     1      -5.539  11.541  73.587  1.00  0.00     0.393 OA 
BRANCH  50  51
HETATM   51  C   UNL     1      -5.843  12.863  73.682  1.00  0.00     1.447 C  
HETATM   52  O   UNL     1      -6.534  13.369  74.552  1.00  0.00     0.134 OA 
HETATM   53  C   UNL     1      -5.132  13.645  72.622  1.00  0.00    -0.158 C  
ENDBRANCH  50  51
ENDBRANCH  30  50
ENDBRANCH  10  11
ENDBRANCH   5  10
BRANCH   9  54
HETATM   54  O   UNL     1     -10.220   3.704  64.769  1.00  0.00    -0.168 OA 
BRANCH  54  55
HETATM   55  C   UNL     1     -10.054   2.803  63.762  1.00  0.00    -0.165 C  
HETATM   56  C   UNL     1      -8.706   2.146  63.844  1.00  0.00    -0.090 C  
HETATM   57  O   UNL     1     -10.875   2.547  62.893  1.00  0.00    -0.176 OA 
ENDBRANCH  54  55
ENDBRANCH   9  54
ENDBRANCH   2   3
TORSDOF 12
ENDMDL
MODEL       28
REMARK 921   NORMALIZED FREE ENERGY PREDICTED BY IDOCK:   38.09 KCAL/MOL
REMARK 922        TOTAL FREE ENERGY PREDICTED BY IDOCK:   62.44 KCAL/MOL
REMARK 923 INTER-LIGAND FREE ENERGY PREDICTED BY IDOCK:   28.59 KCAL/MOL
REMARK 924 INTRA-LIGAND FREE ENERGY PREDICTED BY IDOCK:   33.84 KCAL/MOL
REMARK 927      BINDING AFFINITY PREDICTED BY RF-SCORE:    0.00 PKD
ROOT
HETATM    1  C   UNL     1     -12.342  11.437  73.329  1.00  0.00     7.473 C  
HETATM    2  O   UNL     1     -11.363  10.414  73.182  1.00  0.00     5.308 OA 
ENDROOT
BRANCH   2   3
HETATM    3  C   UNL     1     -11.955   9.167  72.789  1.00  0.00     0.551 C  
HETATM    4  C   UNL     1     -12.085   9.131  71.249  1.00  0.00    -0.392 C  
HETATM    5  C   UNL     1     -10.734   8.936  70.560  1.00  0.00    -0.230 C  
HETATM    6  O   UNL     1     -10.197   7.754  71.117  1.00  0.00    -0.195 OA 
HETATM    7  C   UNL     1      -8.638   8.566  72.840  1.00  0.00    -0.141 C  
HETATM    8  C   UNL     1      -9.884   7.744  72.510  1.00  0.00    -0.212 C  
HETATM    9  C   UNL     1     -11.107   8.028  73.373  1.00  0.00     0.417 C  
BRANCH   5  10
HETATM   10  O   UNL     1     -10.922   8.842  69.100  1.00  0.00    -0.124 OA 
BRANCH  10  11
HETATM   11  C   UNL     1     -10.792  10.111  68.409  1.00  0.00    -0.242 C  
HETATM   12  C   UNL     1      -9.942   9.955  67.070  1.00  0.00    -0.254 C  
HETATM   13  C   UNL     1     -12.863  10.949  66.836  1.00  0.00     6.613 C  
HETATM   14  C   UNL     1     -10.159   8.551  66.490  1.00  0.00    -0.328 C  
HETATM   15  C   UNL     1      -8.506  10.584  67.313  1.00  0.00    -0.122 C  
HETATM   16  C   UNL     1     -12.088  10.986  68.170  1.00  0.00     0.135 C  
HETATM   17  O   UNL     1     -13.871  10.391  69.705  1.00  0.00     0.921 OA 
HETATM   18  C   UNL     1      -8.298  12.074  66.956  1.00  0.00    -0.178 C  
HETATM   19  C   UNL     1      -9.577  12.855  67.014  1.00  0.00    -0.231 C  
HETATM   20  C   UNL     1      -7.228  12.682  67.923  1.00  0.00    -0.116 C  
HETATM   21  C   UNL     1     -13.029  11.209  69.351  1.00  0.00     0.945 C  
HETATM   22  C   UNL     1     -11.777  13.129  71.744  1.00  0.00     1.936 C  
HETATM   23  O   UNL     1     -13.061  12.515  69.808  1.00  0.00     0.836 OA 
HETATM   24  C   UNL     1      -7.283  14.196  68.083  1.00  0.00    -0.128 C  
HETATM   25  C   UNL     1     -12.328  14.911  68.298  1.00  0.00     0.142 C  
HETATM   26  C   UNL     1      -8.082  14.774  69.245  1.00  0.00    -0.088 C  
HETATM   27  C   UNL     1     -11.848  13.224  70.216  1.00  0.00    -0.234 C  
HETATM   28  C   UNL     1      -6.844  15.024  66.888  1.00  0.00     0.726 C  
HETATM   29  C   UNL     1     -11.851  14.723  69.753  1.00  0.00    -0.362 C  
HETATM   30  C   UNL     1     -10.485  15.482  70.077  1.00  0.00    -0.309 C  
HETATM   31  O   UNL     1      -5.959  14.770  67.975  1.00  0.00    -0.128 OA 
HETATM   32  C   UNL     1      -9.441  15.452  68.915  1.00  0.00    -0.219 C  
HETATM   33  O   UNL     1      -7.725  14.513  70.385  1.00  0.00     0.543 OA 
HETATM   34  C   UNL     1      -9.274  16.732  68.097  1.00  0.00    -0.224 C  
BRANCH  15  35
HETATM   35  O   UNL     1      -7.315   9.874  67.060  1.00  0.00    -0.090 OA 
BRANCH  35  36
HETATM   36  C   UNL     1      -7.274   8.497  66.716  1.00  0.00    -0.075 C  
HETATM   37  C   UNL     1      -7.880   7.259  64.731  1.00  0.00    -0.126 C  
HETATM   38  C   UNL     1      -9.212   6.727  66.801  1.00  0.00    -0.150 C  
HETATM   39  C   UNL     1      -7.970   7.515  63.226  1.00  0.00    -0.093 C  
HETATM   40  C   UNL     1      -8.525   7.947  67.468  1.00  0.00    -0.123 C  
HETATM   41  O   UNL     1      -7.314   8.410  65.314  1.00  0.00    -0.080 OA 
HETATM   42  C   UNL     1      -9.267   7.044  65.291  1.00  0.00     0.532 C  
BRANCH  38  43
HETATM   43  N   UNL     1     -10.616   6.475  67.259  1.00  0.00    -0.270 NA 
HETATM   44  C   UNL     1     -11.222   7.666  67.870  1.00  0.00     0.446 C  
HETATM   45  C   UNL     1     -11.500   5.979  66.208  1.00  0.00     1.116 C  
ENDBRANCH  38  43
BRANCH  40  46
HETATM   46  O   UNL     1      -8.294   7.857  68.903  1.00  0.00    -0.125 OA 
BRANCH  46  47
HETATM   47  C   UNL     1      -7.286   8.543  69.490  1.00  0.00    -0.060 C  
HETATM   48  C   UNL     1      -7.770   9.227  70.728  1.00  0.00    -0.164 C  
HETATM   49  O   UNL     1      -6.150   8.631  69.042  1.00  0.00    -0.042 OA 
ENDBRANCH  46  47
ENDBRANCH  40  46
ENDBRANCH  35  36
ENDBRANCH  15  35
BRANCH  30  50
HETATM   50  O   UNL     1     -10.868  16.854  70.345  1.00  0.00    -0.071 OA 
BRANCH  50  51
HETATM   51  C   UNL     1      -9.885  17.789  70.242  1.00  0.00     1.765 C  
HETATM   52  O   UNL     1      -8.693  17.582  70.403  1.00  0.00     2.750 OA 
HETATM   53  C   UNL     1     -10.452  19.103  69.803  1.00  0.00     0.882 C  
ENDBRANCH  50  51
ENDBRANCH  30  50
ENDBRANCH  10  11
ENDBRANCH   5  10
BRANCH   9  54
HETATM   54  O   UNL     1     -11.927   6.821  73.385  1.00  0.00     0.761 OA 
BRANCH  54  55
HETATM   55  C   UNL     1     -12.065   6.153  72.207  1.00  0.00    -0.184 C  
HETATM   56  C   UNL     1     -11.324   4.847  72.240  1.00  0.00     0.103 C  
HETATM   57  O   UNL     1     -12.697   6.543  71.236  1.00  0.00    -0.198 OA 
ENDBRANCH  54  55
ENDBRANCH   9  54
ENDBRANCH   2   3
TORSDOF 12
ENDMDL
MODEL       29
REMARK 921   NORMALIZED FREE ENERGY PREDICTED BY IDOCK:   39.01 KCAL/MOL
REMARK 922        TOTAL FREE ENERGY PREDICTED BY IDOCK:   64.00 KCAL/MOL
REMARK 923 INTER-LIGAND FREE ENERGY PREDICTED BY IDOCK:   27.05 KCAL/MOL
REMARK 924 INTRA-LIGAND FREE ENERGY PREDICTED BY IDOCK:   36.95 KCAL/MOL
REMARK 927      BINDING AFFINITY PREDICTED BY RF-SCORE:    0.00 PKD
ROOT
HETATM    1  C   UNL     1     -11.191  14.683  63.093  1.00  0.00     3.219 C  
HETATM    2  O   UNL     1     -11.884  15.374  64.126  1.00  0.00    -0.437 OA 
ENDROOT
BRANCH   2   3
HETATM    3  C   UNL     1     -11.922  14.612  65.341  1.00  0.00    -0.275 C  
HETATM    4  C   UNL     1     -11.222  13.254  65.111  1.00  0.00    -0.322 C  
HETATM    5  C   UNL     1      -9.703  13.397  65.014  1.00  0.00     0.096 C  
HETATM    6  O   UNL     1      -9.311  14.048  66.205  1.00  0.00    -0.225 OA 
HETATM    7  C   UNL     1      -9.075  16.406  65.542  1.00  0.00     0.390 C  
HETATM    8  C   UNL     1      -9.775  15.379  66.432  1.00  0.00    -0.288 C  
HETATM    9  C   UNL     1     -11.295  15.458  66.459  1.00  0.00    -0.098 C  
BRANCH   5  10
HETATM   10  O   UNL     1      -9.080  12.068  64.861  1.00  0.00     0.201 OA 
BRANCH  10  11
HETATM   11  C   UNL     1      -9.777  11.010  65.568  1.00  0.00    -0.229 C  
HETATM   12  C   UNL     1     -10.650  11.594  66.766  1.00  0.00    -0.280 C  
HETATM   13  C   UNL     1     -12.110  10.062  64.508  1.00  0.00     7.260 C  
HETATM   14  C   UNL     1     -11.137  13.003  66.402  1.00  0.00    -0.313 C  
HETATM   15  C   UNL     1      -9.919  11.251  68.132  1.00  0.00    -0.181 C  
HETATM   16  C   UNL     1     -10.589   9.940  64.732  1.00  0.00     1.133 C  
HETATM   17  O   UNL     1      -9.836   9.840  62.427  1.00  0.00     0.093 OA 
HETATM   18  C   UNL     1     -10.300   9.935  68.847  1.00  0.00    -0.221 C  
HETATM   19  C   UNL     1     -10.825   8.902  67.894  1.00  0.00    -0.096 C  
HETATM   20  C   UNL     1      -9.049   9.397  69.620  1.00  0.00    -0.190 C  
HETATM   21  C   UNL     1      -9.902   9.302  63.527  1.00  0.00     1.847 C  
HETATM   22  C   UNL     1      -7.397   7.277  64.303  1.00  0.00    -0.086 C  
HETATM   23  O   UNL     1      -9.617   7.957  63.687  1.00  0.00     2.480 OA 
HETATM   24  C   UNL     1      -9.065   7.904  69.922  1.00  0.00    -0.146 C  
HETATM   25  C   UNL     1     -10.928   6.102  65.529  1.00  0.00     2.316 C  
HETATM   26  C   UNL     1      -8.371   6.961  68.946  1.00  0.00    -0.121 C  
HETATM   27  C   UNL     1      -8.830   7.459  64.814  1.00  0.00     0.497 C  
HETATM   28  C   UNL     1     -10.059   7.431  70.966  1.00  0.00    -0.190 C  
HETATM   29  C   UNL     1      -9.393   6.109  65.383  1.00  0.00     0.307 C  
HETATM   30  C   UNL     1      -8.626   5.612  66.691  1.00  0.00    -0.117 C  
HETATM   31  O   UNL     1      -8.693   7.657  71.298  1.00  0.00    -0.129 OA 
HETATM   32  C   UNL     1      -9.273   6.083  68.033  1.00  0.00    -0.115 C  
HETATM   33  O   UNL     1      -7.165   7.072  68.785  1.00  0.00    -0.085 OA 
HETATM   34  C   UNL     1     -10.072   5.046  68.821  1.00  0.00    -0.200 C  
BRANCH  15  35
HETATM   35  O   UNL     1      -9.614  12.234  69.095  1.00  0.00     0.234 OA 
BRANCH  35  36
HETATM   36  C   UNL     1      -9.877  13.619  68.922  1.00  0.00     0.030 C  
HETATM   37  C   UNL     1      -8.855  15.627  69.797  1.00  0.00     0.020 C  
HETATM   38  C   UNL     1     -11.248  15.233  70.475  1.00  0.00    -0.310 C  
HETATM   39  C   UNL     1      -7.478  16.067  70.294  1.00  0.00     1.069 C  
HETATM   40  C   UNL     1     -11.118  13.821  69.846  1.00  0.00     0.103 C  
HETATM   41  O   UNL     1      -8.716  14.319  69.293  1.00  0.00     0.079 OA 
HETATM   42  C   UNL     1      -9.831  15.619  70.951  1.00  0.00     1.243 C  
BRANCH  38  43
HETATM   43  N   UNL     1     -12.156  15.303  71.664  1.00  0.00    -0.328 NA 
HETATM   44  C   UNL     1     -13.494  15.798  71.312  1.00  0.00    -0.139 C  
HETATM   45  C   UNL     1     -12.292  14.037  72.379  1.00  0.00     0.060 C  
ENDBRANCH  38  43
BRANCH  40  46
HETATM   46  O   UNL     1     -12.324  13.259  69.257  1.00  0.00    -0.207 OA 
BRANCH  46  47
HETATM   47  C   UNL     1     -13.001  12.262  69.872  1.00  0.00     0.900 C  
HETATM   48  C   UNL     1     -13.554  11.306  68.865  1.00  0.00     5.223 C  
HETATM   49  O   UNL     1     -13.177  12.182  71.081  1.00  0.00    -0.127 OA 
ENDBRANCH  46  47
ENDBRANCH  40  46
ENDBRANCH  35  36
ENDBRANCH  15  35
BRANCH  30  50
HETATM   50  O   UNL     1      -8.659   4.164  66.623  1.00  0.00    -0.111 OA 
BRANCH  50  51
HETATM   51  C   UNL     1      -8.553   3.613  65.385  1.00  0.00    -0.112 C  
HETATM   52  O   UNL     1      -7.867   4.047  64.473  1.00  0.00    -0.083 OA 
HETATM   53  C   UNL     1      -9.320   2.330  65.312  1.00  0.00    -0.027 C  
ENDBRANCH  50  51
ENDBRANCH  30  50
ENDBRANCH  10  11
ENDBRANCH   5  10
BRANCH   9  54
HETATM   54  O   UNL     1     -11.743  14.915  67.737  1.00  0.00    -0.347 OA 
BRANCH  54  55
HETATM   55  C   UNL     1     -12.542  15.708  68.501  1.00  0.00     0.905 C  
HETATM   56  C   UNL     1     -13.412  14.882  69.406  1.00  0.00     2.034 C  
HETATM   57  O   UNL     1     -12.572  16.930  68.473  1.00  0.00     1.440 OA 
ENDBRANCH  54  55
ENDBRANCH   9  54
ENDBRANCH   2   3
TORSDOF 12
ENDMDL
MODEL       30
REMARK 921   NORMALIZED FREE ENERGY PREDICTED BY IDOCK:   45.13 KCAL/MOL
REMARK 922        TOTAL FREE ENERGY PREDICTED BY IDOCK:   74.41 KCAL/MOL
REMARK 923 INTER-LIGAND FREE ENERGY PREDICTED BY IDOCK:   53.86 KCAL/MOL
REMARK 924 INTRA-LIGAND FREE ENERGY PREDICTED BY IDOCK:   20.55 KCAL/MOL
REMARK 927      BINDING AFFINITY PREDICTED BY RF-SCORE:    0.00 PKD
ROOT
HETATM    1  C   UNL     1     -11.212   3.332  69.194  1.00  0.00     7.532 C  
HETATM    2  O   UNL     1     -10.286   4.411  69.248  1.00  0.00     0.050 OA 
ENDROOT
BRANCH   2   3
HETATM    3  C   UNL     1     -10.562   5.398  68.243  1.00  0.00    -0.074 C  
HETATM    4  C   UNL     1     -11.523   6.459  68.824  1.00  0.00    -0.087 C  
HETATM    5  C   UNL     1     -10.827   7.384  69.823  1.00  0.00    -0.234 C  
HETATM    6  O   UNL     1      -9.727   7.929  69.124  1.00  0.00    -0.159 OA 
HETATM    7  C   UNL     1      -7.823   6.544  69.840  1.00  0.00    -0.115 C  
HETATM    8  C   UNL     1      -8.696   7.043  68.688  1.00  0.00    -0.123 C  
HETATM    9  C   UNL     1      -9.225   5.968  67.748  1.00  0.00    -0.107 C  
BRANCH   5  10
HETATM   10  O   UNL     1     -11.769   8.416  70.296  1.00  0.00    -0.083 OA 
BRANCH  10  11
HETATM   11  C   UNL     1     -11.331   9.774  70.032  1.00  0.00    -0.220 C  
HETATM   12  C   UNL     1     -12.481  10.625  69.330  1.00  0.00     0.187 C  
HETATM   13  C   UNL     1     -11.426  11.585  72.076  1.00  0.00     4.067 C  
HETATM   14  C   UNL     1     -13.850  10.120  69.805  1.00  0.00     2.246 C  
HETATM   15  C   UNL     1     -12.104  10.809  67.800  1.00  0.00     1.004 C  
HETATM   16  C   UNL     1     -10.639  10.591  71.196  1.00  0.00     1.251 C  
HETATM   17  O   UNL     1      -9.746   9.129  72.915  1.00  0.00     0.411 OA 
HETATM   18  C   UNL     1     -11.296  12.064  67.399  1.00  0.00    -0.393 C  
HETATM   19  C   UNL     1     -10.476  12.598  68.535  1.00  0.00    -0.249 C  
HETATM   20  C   UNL     1     -10.389  11.713  66.173  1.00  0.00    -0.280 C  
HETATM   21  C   UNL     1      -9.530   9.905  71.991  1.00  0.00     3.220 C  
HETATM   22  C   UNL     1      -6.751   9.372  70.268  1.00  0.00    -0.074 C  
HETATM   23  O   UNL     1      -8.273  10.445  71.786  1.00  0.00     3.069 OA 
HETATM   24  C   UNL     1      -9.175  12.614  65.984  1.00  0.00     0.020 C  
HETATM   25  C   UNL     1      -7.665  13.141  70.827  1.00  0.00     4.802 C  
HETATM   26  C   UNL     1      -7.846  12.174  66.587  1.00  0.00     0.092 C  
HETATM   27  C   UNL     1      -7.689  10.569  70.451  1.00  0.00     0.732 C  
HETATM   28  C   UNL     1      -9.446  14.036  65.526  1.00  0.00     0.151 C  
HETATM   29  C   UNL     1      -6.911  11.918  70.264  1.00  0.00     0.815 C  
HETATM   30  C   UNL     1      -6.373  12.132  68.777  1.00  0.00    -0.076 C  
HETATM   31  O   UNL     1      -9.053  13.025  64.602  1.00  0.00     0.937 OA 
HETATM   32  C   UNL     1      -7.346  12.930  67.850  1.00  0.00    -0.127 C  
HETATM   33  O   UNL     1      -7.335  11.141  66.180  1.00  0.00    -0.107 OA 
HETATM   34  C   UNL     1      -6.991  14.387  67.560  1.00  0.00    -0.182 C  
BRANCH  15  35
HETATM   35  O   UNL     1     -12.988  10.471  66.756  1.00  0.00     6.476 OA 
BRANCH  35  36
HETATM   36  C   UNL     1     -13.476  11.401  65.800  1.00  0.00     8.150 C  
HETATM   37  C   UNL     1     -12.806  11.980  63.551  1.00  0.00    -0.341 C  
HETATM   38  C   UNL     1     -12.592  13.815  65.263  1.00  0.00    -0.473 C  
HETATM   39  C   UNL     1     -12.120  11.297  62.368  1.00  0.00     2.071 C  
HETATM   40  C   UNL     1     -12.895  12.743  66.343  1.00  0.00     1.234 C  
HETATM   41  O   UNL     1     -13.007  10.995  64.538  1.00  0.00     1.661 OA 
HETATM   42  C   UNL     1     -11.908  13.065  64.100  1.00  0.00    -0.478 C  
BRANCH  38  43
HETATM   43  N   UNL     1     -11.661  14.901  65.707  1.00  0.00    -0.245 NA 
HETATM   44  C   UNL     1     -11.317  15.819  64.614  1.00  0.00    -0.337 C  
HETATM   45  C   UNL     1     -12.158  15.677  66.840  1.00  0.00     0.870 C  
ENDBRANCH  38  43
BRANCH  40  46
HETATM   46  O   UNL     1     -13.609  13.199  67.527  1.00  0.00     3.922 OA 
BRANCH  46  47
HETATM   47  C   UNL     1     -12.963  13.844  68.525  1.00  0.00     1.863 C  
HETATM   48  C   UNL     1     -13.755  13.776  69.791  1.00  0.00     2.836 C  
HETATM   49  O   UNL     1     -11.903  14.443  68.395  1.00  0.00    -0.316 OA 
ENDBRANCH  46  47
ENDBRANCH  40  46
ENDBRANCH  35  36
ENDBRANCH  15  35
BRANCH  30  50
HETATM   50  O   UNL     1      -5.134  12.871  68.924  1.00  0.00    -0.063 OA 
BRANCH  50  51
HETATM   51  C   UNL     1      -5.129  13.867  69.848  1.00  0.00    -0.092 C  
HETATM   52  O   UNL     1      -5.175  15.062  69.602  1.00  0.00    -0.090 OA 
HETATM   53  C   UNL     1      -5.158  13.301  71.233  1.00  0.00    -0.164 C  
ENDBRANCH  50  51
ENDBRANCH  30  50
ENDBRANCH  10  11
ENDBRANCH   5  10
BRANCH   9  54
HETATM   54  O   UNL     1      -9.457   6.592  66.450  1.00  0.00    -0.168 OA 
BRANCH  54  55
HETATM   55  C   UNL     1      -8.622   6.239  65.435  1.00  0.00    -0.092 C  
HETATM   56  C   UNL     1      -8.596   4.748  65.254  1.00  0.00    -0.137 C  
HETATM   57  O   UNL     1      -7.966   7.010  64.750  1.00  0.00    -0.121 OA 
ENDBRANCH  54  55
ENDBRANCH   9  54
ENDBRANCH   2   3
TORSDOF 12
ENDMDL
MODEL       31
REMARK 921   NORMALIZED FREE ENERGY PREDICTED BY IDOCK:   50.18 KCAL/MOL
REMARK 922        TOTAL FREE ENERGY PREDICTED BY IDOCK:   83.00 KCAL/MOL
REMARK 923 INTER-LIGAND FREE ENERGY PREDICTED BY IDOCK:   24.51 KCAL/MOL
REMARK 924 INTRA-LIGAND FREE ENERGY PREDICTED BY IDOCK:   58.48 KCAL/MOL
REMARK 927      BINDING AFFINITY PREDICTED BY RF-SCORE:    0.00 PKD
ROOT
HETATM    1  C   UNL     1      -8.813   6.675  66.456  1.00  0.00    -0.139 C  
HETATM    2  O   UNL     1      -8.721   6.409  65.061  1.00  0.00    -0.027 OA 
ENDROOT
BRANCH   2   3
HETATM    3  C   UNL     1      -8.664   7.620  64.293  1.00  0.00     0.519 C  
HETATM    4  C   UNL     1      -9.607   8.668  64.925  1.00  0.00     0.811 C  
HETATM    5  C   UNL     1      -9.047   9.235  66.230  1.00  0.00    -0.171 C  
HETATM    6  O   UNL     1      -7.770   9.740  65.901  1.00  0.00    -0.101 OA 
HETATM    7  C   UNL     1      -6.228   7.953  66.599  1.00  0.00    -0.050 C  
HETATM    8  C   UNL     1      -6.771   8.819  65.462  1.00  0.00    -0.071 C  
HETATM    9  C   UNL     1      -7.198   8.067  64.208  1.00  0.00    -0.086 C  
BRANCH   5  10
HETATM   10  O   UNL     1      -9.952  10.275  66.756  1.00  0.00    -0.192 OA 
BRANCH  10  11
HETATM   11  C   UNL     1      -9.304  11.553  66.989  1.00  0.00    -0.178 C  
HETATM   12  C   UNL     1      -7.727  11.380  67.143  1.00  0.00    -0.152 C  
HETATM   13  C   UNL     1      -8.783  13.151  64.835  1.00  0.00     2.648 C  
HETATM   14  C   UNL     1      -7.259  10.194  66.289  1.00  0.00    -0.111 C  
HETATM   15  C   UNL     1      -7.352  11.552  68.675  1.00  0.00    -0.106 C  
HETATM   16  C   UNL     1      -9.661  12.771  66.046  1.00  0.00    -0.182 C  
HETATM   17  O   UNL     1     -11.793  12.452  64.931  1.00  0.00    -0.362 OA 
HETATM   18  C   UNL     1      -6.979  12.966  69.175  1.00  0.00    -0.015 C  
HETATM   19  C   UNL     1      -7.595  14.046  68.336  1.00  0.00    -0.129 C  
HETATM   20  C   UNL     1      -7.414  13.106  70.672  1.00  0.00     3.416 C  
HETATM   21  C   UNL     1     -11.136  13.056  65.772  1.00  0.00    -0.278 C  
HETATM   22  C   UNL     1     -12.817  14.172  68.400  1.00  0.00     1.319 C  
HETATM   23  O   UNL     1     -11.596  14.235  66.332  1.00  0.00    -0.346 OA 
HETATM   24  C   UNL     1      -7.621  14.535  71.158  1.00  0.00     2.531 C  
HETATM   25  C   UNL     1      -9.980  16.546  67.108  1.00  0.00    -0.266 C  
HETATM   26  C   UNL     1      -9.027  15.120  71.109  1.00  0.00     3.021 C  
HETATM   27  C   UNL     1     -11.468  14.518  67.761  1.00  0.00    -0.340 C  
HETATM   28  C   UNL     1      -6.374  15.386  71.319  1.00  0.00     0.867 C  
HETATM   29  C   UNL     1     -11.088  16.014  68.040  1.00  0.00    -0.334 C  
HETATM   30  C   UNL     1     -10.820  16.315  69.584  1.00  0.00    -0.345 C  
HETATM   31  O   UNL     1      -6.975  14.738  72.437  1.00  0.00     1.642 OA 
HETATM   32  C   UNL     1      -9.323  16.184  70.014  1.00  0.00     0.608 C  
HETATM   33  O   UNL     1      -9.900  14.600  71.789  1.00  0.00     2.633 OA 
HETATM   34  C   UNL     1      -8.546  17.481  70.231  1.00  0.00     3.139 C  
BRANCH  15  35
HETATM   35  O   UNL     1      -6.598  10.594  69.382  1.00  0.00    -0.055 OA 
BRANCH  35  36
HETATM   36  C   UNL     1      -6.626   9.202  69.102  1.00  0.00    -0.050 C  
HETATM   37  C   UNL     1      -8.265   7.742  68.089  1.00  0.00    -0.124 C  
HETATM   38  C   UNL     1      -7.724   7.271  70.503  1.00  0.00    -0.093 C  
HETATM   39  C   UNL     1      -9.396   7.854  67.067  1.00  0.00    -0.200 C  
HETATM   40  C   UNL     1      -6.932   8.604  70.510  1.00  0.00    -0.043 C  
HETATM   41  O   UNL     1      -7.608   8.988  68.119  1.00  0.00    -0.090 OA 
HETATM   42  C   UNL     1      -8.843   7.446  69.453  1.00  0.00    -0.137 C  
BRANCH  38  43
HETATM   43  N   UNL     1      -8.380   6.928  71.805  1.00  0.00    -0.109 NA 
HETATM   44  C   UNL     1      -9.440   7.880  72.160  1.00  0.00    -0.177 C  
HETATM   45  C   UNL     1      -8.922   5.573  71.855  1.00  0.00    -0.135 C  
ENDBRANCH  38  43
BRANCH  40  46
HETATM   46  O   UNL     1      -5.769   8.664  71.384  1.00  0.00    -0.035 OA 
BRANCH  46  47
HETATM   47  C   UNL     1      -5.824   8.188  72.650  1.00  0.00    -0.053 C  
HETATM   48  C   UNL     1      -6.612   9.112  73.521  1.00  0.00     0.345 C  
HETATM   49  O   UNL     1      -5.263   7.171  73.036  1.00  0.00    -0.037 OA 
ENDBRANCH  46  47
ENDBRANCH  40  46
ENDBRANCH  35  36
ENDBRANCH  15  35
BRANCH  30  50
HETATM   50  O   UNL     1     -11.260  17.682  69.786  1.00  0.00     0.950 OA 
BRANCH  50  51
HETATM   51  C   UNL     1     -11.501  18.413  68.665  1.00  0.00     2.028 C  
HETATM   52  O   UNL     1     -11.738  19.611  68.639  1.00  0.00     2.223 OA 
HETATM   53  C   UNL     1     -11.337  17.569  67.440  1.00  0.00     0.534 C  
ENDBRANCH  50  51
ENDBRANCH  30  50
ENDBRANCH  10  11
ENDBRANCH   5  10
BRANCH   9  54
HETATM   54  O   UNL     1      -7.073   8.985  63.081  1.00  0.00    -0.090 OA 
BRANCH  54  55
HETATM   55  C   UNL     1      -7.951  10.024  63.029  1.00  0.00    -0.142 C  
HETATM   56  C   UNL     1      -7.245  11.335  63.227  1.00  0.00     1.074 C  
HETATM   57  O   UNL     1      -9.157   9.931  62.849  1.00  0.00    -0.245 OA 
ENDBRANCH  54  55
ENDBRANCH   9  54
ENDBRANCH   2   3
TORSDOF 12
ENDMDL
MODEL       32
REMARK 921   NORMALIZED FREE ENERGY PREDICTED BY IDOCK:   71.88 KCAL/MOL
REMARK 922        TOTAL FREE ENERGY PREDICTED BY IDOCK:  119.92 KCAL/MOL
REMARK 923 INTER-LIGAND FREE ENERGY PREDICTED BY IDOCK:  103.08 KCAL/MOL
REMARK 924 INTRA-LIGAND FREE ENERGY PREDICTED BY IDOCK:   16.85 KCAL/MOL
REMARK 927      BINDING AFFINITY PREDICTED BY RF-SCORE:    0.00 PKD
ROOT
HETATM    1  C   UNL     1      -9.829   6.019  68.937  1.00  0.00    -0.140 C  
HETATM    2  O   UNL     1      -8.997   7.149  69.176  1.00  0.00    -0.138 OA 
ENDROOT
BRANCH   2   3
HETATM    3  C   UNL     1      -9.259   8.208  68.243  1.00  0.00    -0.134 C  
HETATM    4  C   UNL     1     -10.425   9.073  68.772  1.00  0.00    -0.230 C  
HETATM    5  C   UNL     1     -10.006   9.948  69.953  1.00  0.00    -0.252 C  
HETATM    6  O   UNL     1      -8.902  10.698  69.489  1.00  0.00    -0.099 OA 
HETATM    7  C   UNL     1      -6.949   9.472  70.349  1.00  0.00    -0.112 C  
HETATM    8  C   UNL     1      -7.711   9.997  69.132  1.00  0.00    -0.104 C  
HETATM    9  C   UNL     1      -7.954   8.986  68.020  1.00  0.00    -0.101 C  
BRANCH   5  10
HETATM   10  O   UNL     1     -11.135  10.799  70.375  1.00  0.00    -0.266 OA 
BRANCH  10  11
HETATM   11  C   UNL     1     -10.859  12.222  70.293  1.00  0.00     1.432 C  
HETATM   12  C   UNL     1     -11.905  12.959  69.344  1.00  0.00    -0.371 C  
HETATM   13  C   UNL     1     -11.758  13.833  72.308  1.00  0.00     1.556 C  
HETATM   14  C   UNL     1     -13.256  12.233  69.414  1.00  0.00     2.325 C  
HETATM   15  C   UNL     1     -11.178  13.315  67.979  1.00  0.00    -0.276 C  
HETATM   16  C   UNL     1     -10.626  13.031  71.632  1.00  0.00     7.534 C  
HETATM   17  O   UNL     1      -9.994  11.574  73.467  1.00  0.00    17.761 OA 
HETATM   18  C   UNL     1     -10.498  14.698  67.861  1.00  0.00    -0.242 C  
HETATM   19  C   UNL     1     -10.092  15.248  69.196  1.00  0.00    -0.240 C  
HETATM   20  C   UNL     1      -9.261  14.575  66.908  1.00  0.00    -0.267 C  
HETATM   21  C   UNL     1      -9.669  12.444  72.667  1.00  0.00    21.770 C  
HETATM   22  C   UNL     1      -6.490  12.439  71.730  1.00  0.00     3.489 C  
HETATM   23  O   UNL     1      -8.500  13.167  72.828  1.00  0.00    13.436 OA 
HETATM   24  C   UNL     1      -8.194  15.647  67.088  1.00  0.00    -0.213 C  
HETATM   25  C   UNL     1      -8.089  15.988  72.176  1.00  0.00     9.821 C  
HETATM   26  C   UNL     1      -7.015  15.348  68.007  1.00  0.00    -0.133 C  
HETATM   27  C   UNL     1      -7.618  13.477  71.703  1.00  0.00     6.838 C  
HETATM   28  C   UNL     1      -8.553  17.049  66.632  1.00  0.00    -0.252 C  
HETATM   29  C   UNL     1      -7.035  14.931  71.787  1.00  0.00     2.033 C  
HETATM   30  C   UNL     1      -6.171  15.335  70.508  1.00  0.00     0.030 C  
HETATM   31  O   UNL     1      -7.784  16.180  65.807  1.00  0.00     0.611 OA 
HETATM   32  C   UNL     1      -6.982  16.062  69.387  1.00  0.00    -0.216 C  
HETATM   33  O   UNL     1      -6.263  14.432  67.711  1.00  0.00    -0.154 OA 
HETATM   34  C   UNL     1      -6.793  17.573  69.262  1.00  0.00    -0.196 C  
BRANCH  15  35
HETATM   35  O   UNL     1     -11.699  12.942  66.724  1.00  0.00    -0.346 OA 
BRANCH  35  36
HETATM   36  C   UNL     1     -12.452  13.811  65.891  1.00  0.00    -0.468 C  
HETATM   37  C   UNL     1     -12.097  14.716  63.678  1.00  0.00     0.373 C  
HETATM   38  C   UNL     1     -12.178  16.400  65.548  1.00  0.00     2.201 C  
HETATM   39  C   UNL     1     -11.363  14.312  62.399  1.00  0.00     6.359 C  
HETATM   40  C   UNL     1     -12.152  15.201  66.532  1.00  0.00     0.290 C  
HETATM   41  O   UNL     1     -11.998  13.632  64.573  1.00  0.00    -0.383 OA 
HETATM   42  C   UNL     1     -11.429  15.929  64.283  1.00  0.00    -0.197 C  
BRANCH  38  43
HETATM   43  N   UNL     1     -11.486  17.631  66.049  1.00  0.00     1.237 NA 
HETATM   44  C   UNL     1     -10.378  18.038  65.175  1.00  0.00     0.892 C  
HETATM   45  C   UNL     1     -12.378  18.770  66.246  1.00  0.00     5.839 C  
ENDBRANCH  38  43
BRANCH  40  46
HETATM   46  O   UNL     1     -12.862  15.378  67.790  1.00  0.00     1.341 OA 
BRANCH  46  47
HETATM   47  C   UNL     1     -12.360  16.166  68.769  1.00  0.00     0.658 C  
HETATM   48  C   UNL     1     -13.286  16.197  69.942  1.00  0.00     1.925 C  
HETATM   49  O   UNL     1     -11.319  16.804  68.683  1.00  0.00    -0.253 OA 
ENDBRANCH  46  47
ENDBRANCH  40  46
ENDBRANCH  35  36
ENDBRANCH  15  35
BRANCH  30  50
HETATM   50  O   UNL     1      -5.142  16.224  71.011  1.00  0.00    -0.191 OA 
BRANCH  50  51
HETATM   51  C   UNL     1      -5.180  17.508  70.566  1.00  0.00    -0.264 C  
HETATM   52  O   UNL     1      -5.172  17.852  69.394  1.00  0.00    -0.176 OA 
HETATM   53  C   UNL     1      -5.334  18.458  71.712  1.00  0.00     0.038 C  
ENDBRANCH  50  51
ENDBRANCH  30  50
ENDBRANCH  10  11
ENDBRANCH   5  10
BRANCH   9  54
HETATM   54  O   UNL     1      -8.083   9.727  66.770  1.00  0.00    -0.118 OA 
BRANCH  54  55
HETATM   55  C   UNL     1      -6.939   9.967  66.072  1.00  0.00    -0.110 C  
HETATM   56  C   UNL     1      -6.112   8.720  65.949  1.00  0.00    -0.052 C  
HETATM   57  O   UNL     1      -6.604  11.045  65.601  1.00  0.00    -0.020 OA 
ENDBRANCH  54  55
ENDBRANCH   9  54
ENDBRANCH   2   3
TORSDOF 12
ENDMDL
MODEL       33
REMARK 921   NORMALIZED FREE ENERGY PREDICTED BY IDOCK:   76.86 KCAL/MOL
REMARK 922        TOTAL FREE ENERGY PREDICTED BY IDOCK:  128.40 KCAL/MOL
REMARK 923 INTER-LIGAND FREE ENERGY PREDICTED BY IDOCK:   87.46 KCAL/MOL
REMARK 924 INTRA-LIGAND FREE ENERGY PREDICTED BY IDOCK:   40.94 KCAL/MOL
REMARK 927      BINDING AFFINITY PREDICTED BY RF-SCORE:    0.00 PKD
ROOT
HETATM    1  C   UNL     1      -8.171   8.585  62.994  1.00  0.00    -0.165 C  
HETATM    2  O   UNL     1      -8.501   7.217  63.205  1.00  0.00     0.105 OA 
ENDROOT
BRANCH   2   3
HETATM    3  C   UNL     1      -8.968   6.985  64.542  1.00  0.00     0.898 C  
HETATM    4  C   UNL     1      -9.239   8.342  65.229  1.00  0.00     0.115 C  
HETATM    5  C   UNL     1     -10.500   9.019  64.693  1.00  0.00     3.750 C  
HETATM    6  O   UNL     1     -11.535   8.073  64.868  1.00  0.00     9.605 OA 
HETATM    7  C   UNL     1     -11.760   7.024  62.653  1.00  0.00    14.363 C  
HETATM    8  C   UNL     1     -11.459   6.846  64.142  1.00  0.00    15.278 C  
HETATM    9  C   UNL     1     -10.194   6.064  64.470  1.00  0.00     3.121 C  
BRANCH   5  10
HETATM   10  O   UNL     1     -10.749  10.275  65.426  1.00  0.00    -0.051 OA 
BRANCH  10  11
HETATM   11  C   UNL     1      -9.568  10.823  66.066  1.00  0.00    -0.201 C  
HETATM   12  C   UNL     1      -8.540   9.672  66.465  1.00  0.00    -0.135 C  
HETATM   13  C   UNL     1      -7.594  11.851  64.482  1.00  0.00     3.073 C  
HETATM   14  C   UNL     1      -8.653   8.519  65.458  1.00  0.00    -0.204 C  
HETATM   15  C   UNL     1      -8.604   9.466  68.036  1.00  0.00    -0.120 C  
HETATM   16  C   UNL     1      -8.829  12.045  65.386  1.00  0.00     0.436 C  
HETATM   17  O   UNL     1     -10.285  13.237  63.853  1.00  0.00    -0.322 OA 
HETATM   18  C   UNL     1      -7.624  10.278  68.914  1.00  0.00    -0.094 C  
HETATM   19  C   UNL     1      -7.192  11.553  68.252  1.00  0.00    -0.084 C  
HETATM   20  C   UNL     1      -8.302  10.568  70.295  1.00  0.00     0.827 C  
HETATM   21  C   UNL     1      -9.678  13.225  64.918  1.00  0.00     0.128 C  
HETATM   22  C   UNL     1     -11.029  14.988  67.377  1.00  0.00    -0.315 C  
HETATM   23  O   UNL     1      -9.477  14.386  65.643  1.00  0.00    -0.194 OA 
HETATM   24  C   UNL     1      -7.741  11.763  71.055  1.00  0.00     6.201 C  
HETATM   25  C   UNL     1      -7.114  15.072  67.224  1.00  0.00    -0.134 C  
HETATM   26  C   UNL     1      -8.425  13.115  70.885  1.00  0.00     8.221 C  
HETATM   27  C   UNL     1      -9.629  14.430  67.097  1.00  0.00    -0.250 C  
HETATM   28  C   UNL     1      -6.349  11.607  71.639  1.00  0.00     2.525 C  
HETATM   29  C   UNL     1      -8.531  15.314  67.784  1.00  0.00    -0.158 C  
HETATM   30  C   UNL     1      -8.600  15.275  69.378  1.00  0.00    -0.226 C  
HETATM   31  O   UNL     1      -7.510  11.424  72.443  1.00  0.00     8.200 OA 
HETATM   32  C   UNL     1      -7.689  14.188  70.035  1.00  0.00     0.806 C  
HETATM   33  O   UNL     1      -9.585  13.232  71.251  1.00  0.00     7.922 OA 
HETATM   34  C   UNL     1      -6.395  14.670  70.689  1.00  0.00    -0.063 C  
BRANCH  15  35
HETATM   35  O   UNL     1      -8.823   8.205  68.626  1.00  0.00    -0.134 OA 
BRANCH  35  36
HETATM   36  C   UNL     1      -9.397   8.022  69.912  1.00  0.00    -0.156 C  
HETATM   37  C   UNL     1     -10.394   9.528  71.518  1.00  0.00    -0.043 C  
HETATM   38  C   UNL     1      -8.287   8.369  72.267  1.00  0.00    -0.155 C  
HETATM   39  C   UNL     1     -11.140  10.862  71.500  1.00  0.00     2.132 C  
HETATM   40  C   UNL     1      -8.126   7.875  70.806  1.00  0.00    -0.101 C  
HETATM   41  O   UNL     1     -10.206   9.140  70.177  1.00  0.00    -0.184 OA 
HETATM   42  C   UNL     1      -9.048   9.710  72.181  1.00  0.00     2.331 C  
BRANCH  38  43
HETATM   43  N   UNL     1      -6.997   8.630  72.982  1.00  0.00    -0.309 NA 
HETATM   44  C   UNL     1      -7.018   9.898  73.722  1.00  0.00     2.233 C  
HETATM   45  C   UNL     1      -6.598   7.557  73.889  1.00  0.00    -0.078 C  
ENDBRANCH  38  43
BRANCH  40  46
HETATM   46  O   UNL     1      -7.489   6.578  70.626  1.00  0.00    -0.077 OA 
BRANCH  46  47
HETATM   47  C   UNL     1      -6.462   6.421  69.758  1.00  0.00    -0.047 C  
HETATM   48  C   UNL     1      -5.346   7.356  70.095  1.00  0.00    -0.023 C  
HETATM   49  O   UNL     1      -6.469   5.655  68.803  1.00  0.00    -0.039 OA 
ENDBRANCH  46  47
ENDBRANCH  40  46
ENDBRANCH  35  36
ENDBRANCH  15  35
BRANCH  30  50
HETATM   50  O   UNL     1      -8.169  16.590  69.809  1.00  0.00     0.302 OA 
BRANCH  50  51
HETATM   51  C   UNL     1      -7.080  17.107  69.180  1.00  0.00    -0.213 C  
HETATM   52  O   UNL     1      -5.993  16.561  69.081  1.00  0.00    -0.139 OA 
HETATM   53  C   UNL     1      -7.420  18.412  68.528  1.00  0.00    -0.309 C  
ENDBRANCH  50  51
ENDBRANCH  30  50
ENDBRANCH  10  11
ENDBRANCH   5  10
BRANCH   9  54
HETATM   54  O   UNL     1     -10.378   5.459  65.784  1.00  0.00    -0.026 OA 
BRANCH  54  55
HETATM   55  C   UNL     1      -9.479   5.792  66.751  1.00  0.00    -0.143 C  
HETATM   56  C   UNL     1      -8.090   5.875  66.187  1.00  0.00    -0.109 C  
HETATM   57  O   UNL     1      -9.741   5.997  67.928  1.00  0.00    -0.115 OA 
ENDBRANCH  54  55
ENDBRANCH   9  54
ENDBRANCH   2   3
TORSDOF 12
ENDMDL
MODEL       34
REMARK 921   NORMALIZED FREE ENERGY PREDICTED BY IDOCK:   77.11 KCAL/MOL
REMARK 922        TOTAL FREE ENERGY PREDICTED BY IDOCK:  128.83 KCAL/MOL
REMARK 923 INTER-LIGAND FREE ENERGY PREDICTED BY IDOCK:   44.02 KCAL/MOL
REMARK 924 INTRA-LIGAND FREE ENERGY PREDICTED BY IDOCK:   84.80 KCAL/MOL
REMARK 927      BINDING AFFINITY PREDICTED BY RF-SCORE:    0.00 PKD
ROOT
HETATM    1  C   UNL     1     -12.293  11.718  73.845  1.00  0.00    12.903 C  
HETATM    2  O   UNL     1     -11.254  10.745  73.815  1.00  0.00    11.580 OA 
ENDROOT
BRANCH   2   3
HETATM    3  C   UNL     1     -11.758   9.440  73.495  1.00  0.00     5.080 C  
HETATM    4  C   UNL     1     -12.161   9.403  72.004  1.00  0.00    -0.396 C  
HETATM    5  C   UNL     1     -10.945   9.378  71.078  1.00  0.00    -0.338 C  
HETATM    6  O   UNL     1     -10.183   8.263  71.492  1.00  0.00    -0.193 OA 
HETATM    7  C   UNL     1      -8.441   9.239  72.931  1.00  0.00     1.687 C  
HETATM    8  C   UNL     1      -9.623   8.278  72.806  1.00  0.00    -0.268 C  
HETATM    9  C   UNL     1     -10.693   8.405  73.882  1.00  0.00     3.008 C  
BRANCH   5  10
HETATM   10  O   UNL     1     -11.384   9.276  69.673  1.00  0.00    -0.112 OA 
BRANCH  10  11
HETATM   11  C   UNL     1     -10.936  10.374  68.837  1.00  0.00    -0.245 C  
HETATM   12  C   UNL     1      -9.765   9.915  67.859  1.00  0.00    -0.162 C  
HETATM   13  C   UNL     1     -12.386  10.975  66.601  1.00  0.00     2.951 C  
HETATM   14  C   UNL     1      -9.954   8.434  67.500  1.00  0.00    -0.259 C  
HETATM   15  C   UNL     1      -8.398  10.512  68.399  1.00  0.00    -0.126 C  
HETATM   16  C   UNL     1     -12.016  11.242  68.075  1.00  0.00    -0.132 C  
HETATM   17  O   UNL     1     -14.210  11.049  69.096  1.00  0.00     4.942 OA 
HETATM   18  C   UNL     1      -7.948  11.890  67.861  1.00  0.00    -0.144 C  
HETATM   19  C   UNL     1      -9.105  12.725  67.399  1.00  0.00    -0.192 C  
HETATM   20  C   UNL     1      -7.136  12.629  68.976  1.00  0.00    -0.028 C  
HETATM   21  C   UNL     1     -13.224  11.740  68.867  1.00  0.00     3.335 C  
HETATM   22  C   UNL     1     -12.503  14.039  71.142  1.00  0.00    -0.447 C  
HETATM   23  O   UNL     1     -13.248  13.111  69.055  1.00  0.00     1.735 OA 
HETATM   24  C   UNL     1      -7.078  14.145  68.841  1.00  0.00    -0.110 C  
HETATM   25  C   UNL     1     -11.881  15.121  67.428  1.00  0.00    -0.086 C  
HETATM   26  C   UNL     1      -8.108  14.979  69.594  1.00  0.00    -0.049 C  
HETATM   27  C   UNL     1     -12.133  13.830  69.670  1.00  0.00    -0.336 C  
HETATM   28  C   UNL     1      -6.239  14.696  67.702  1.00  0.00    -0.084 C  
HETATM   29  C   UNL     1     -11.852  15.205  68.968  1.00  0.00    -0.331 C  
HETATM   30  C   UNL     1     -10.562  15.949  69.541  1.00  0.00    -0.282 C  
HETATM   31  O   UNL     1      -5.725  14.624  69.028  1.00  0.00    -0.084 OA 
HETATM   32  C   UNL     1      -9.243  15.640  68.762  1.00  0.00    -0.211 C  
HETATM   33  O   UNL     1      -8.114  14.935  70.816  1.00  0.00     1.158 OA 
HETATM   34  C   UNL     1      -8.723  16.722  67.817  1.00  0.00    -0.210 C  
BRANCH  15  35
HETATM   35  O   UNL     1      -7.264   9.712  68.638  1.00  0.00    -0.071 OA 
BRANCH  35  36
HETATM   36  C   UNL     1      -6.011  10.223  69.069  1.00  0.00    -0.037 C  
HETATM   37  C   UNL     1      -5.257  11.278  71.110  1.00  0.00    -0.096 C  
HETATM   38  C   UNL     1      -5.157  12.707  69.039  1.00  0.00    -0.067 C  
HETATM   39  C   UNL     1      -5.632  11.261  72.592  1.00  0.00     1.186 C  
HETATM   40  C   UNL     1      -5.953  11.589  68.316  1.00  0.00    -0.045 C  
HETATM   41  O   UNL     1      -6.045  10.298  70.472  1.00  0.00    -0.092 OA 
HETATM   42  C   UNL     1      -5.574  12.634  70.524  1.00  0.00    -0.171 C  
BRANCH  38  43
HETATM   43  N   UNL     1      -5.453  14.093  68.556  1.00  0.00    -0.091 NA 
HETATM   44  C   UNL     1      -6.555  14.119  67.584  1.00  0.00    -0.155 C  
HETATM   45  C   UNL     1      -5.743  15.042  69.627  1.00  0.00    -0.105 C  
ENDBRANCH  38  43
BRANCH  40  46
HETATM   46  O   UNL     1      -5.680  11.409  66.898  1.00  0.00    -0.088 OA 
BRANCH  46  47
HETATM   47  C   UNL     1      -6.136  10.323  66.232  1.00  0.00    -0.082 C  
HETATM   48  C   UNL     1      -7.441  10.627  65.568  1.00  0.00    -0.063 C  
HETATM   49  O   UNL     1      -5.582   9.231  66.218  1.00  0.00    -0.050 OA 
ENDBRANCH  46  47
ENDBRANCH  40  46
ENDBRANCH  35  36
ENDBRANCH  15  35
BRANCH  30  50
HETATM   50  O   UNL     1     -10.862  17.364  69.435  1.00  0.00    -0.066 OA 
BRANCH  50  51
HETATM   51  C   UNL     1      -9.797  18.208  69.389  1.00  0.00     0.097 C  
HETATM   52  O   UNL     1      -8.706  17.998  69.895  1.00  0.00     1.113 OA 
HETATM   53  C   UNL     1     -10.107  19.402  68.541  1.00  0.00    -0.527 C  
ENDBRANCH  50  51
ENDBRANCH  30  50
ENDBRANCH  10  11
ENDBRANCH   5  10
BRANCH   9  54
HETATM   54  O   UNL     1     -11.351   7.109  74.005  1.00  0.00     0.519 OA 
BRANCH  54  55
HETATM   55  C   UNL     1     -11.599   6.429  72.852  1.00  0.00     0.001 C  
HETATM   56  C   UNL     1     -10.796   5.162  72.790  1.00  0.00    -0.314 C  
HETATM   57  O   UNL     1     -12.366   6.782  71.967  1.00  0.00    -0.322 OA 
ENDBRANCH  54  55
ENDBRANCH   9  54
ENDBRANCH   2   3
TORSDOF 12
ENDMDL
MODEL       35
REMARK 921   NORMALIZED FREE ENERGY PREDICTED BY IDOCK:   77.55 KCAL/MOL
REMARK 922        TOTAL FREE ENERGY PREDICTED BY IDOCK:  129.58 KCAL/MOL
REMARK 923 INTER-LIGAND FREE ENERGY PREDICTED BY IDOCK:   59.15 KCAL/MOL
REMARK 924 INTRA-LIGAND FREE ENERGY PREDICTED BY IDOCK:   70.43 KCAL/MOL
REMARK 927      BINDING AFFINITY PREDICTED BY RF-SCORE:    0.00 PKD
ROOT
HETATM    1  C   UNL     1      -7.484   4.708  70.646  1.00  0.00    -0.053 C  
HETATM    2  O   UNL     1      -6.951   5.186  71.876  1.00  0.00    -0.061 OA 
ENDROOT
BRANCH   2   3
HETATM    3  C   UNL     1      -7.953   5.838  72.670  1.00  0.00    -0.102 C  
HETATM    4  C   UNL     1      -7.611   7.340  72.786  1.00  0.00    -0.091 C  
HETATM    5  C   UNL     1      -7.871   8.094  71.481  1.00  0.00    -0.108 C  
HETATM    6  O   UNL     1      -9.224   7.838  71.165  1.00  0.00    -0.145 OA 
HETATM    7  C   UNL     1      -9.112   6.020  69.510  1.00  0.00    -0.141 C  
HETATM    8  C   UNL     1      -9.608   6.493  70.877  1.00  0.00    -0.175 C  
HETATM    9  C   UNL     1      -9.324   5.555  72.042  1.00  0.00    -0.147 C  
BRANCH   5  10
HETATM   10  O   UNL     1      -7.592   9.531  71.665  1.00  0.00    -0.246 OA 
BRANCH  10  11
HETATM   11  C   UNL     1      -7.815  10.328  70.473  1.00  0.00     0.630 C  
HETATM   12  C   UNL     1      -6.637  11.378  70.252  1.00  0.00     0.168 C  
HETATM   13  C   UNL     1      -7.137   9.259  68.053  1.00  0.00    -0.078 C  
HETATM   14  C   UNL     1      -5.327  10.795  70.800  1.00  0.00    -0.105 C  
HETATM   15  C   UNL     1      -7.173  12.821  70.633  1.00  0.00     3.031 C  
HETATM   16  C   UNL     1      -8.194   9.595  69.125  1.00  0.00    -0.120 C  
HETATM   17  O   UNL     1      -9.096   7.378  69.528  1.00  0.00    -0.144 OA 
HETATM   18  C   UNL     1      -7.794  13.683  69.509  1.00  0.00     0.647 C  
HETATM   19  C   UNL     1      -8.351  12.847  68.395  1.00  0.00    -0.116 C  
HETATM   20  C   UNL     1      -8.902  14.600  70.126  1.00  0.00     1.020 C  
HETATM   21  C   UNL     1      -9.292   8.534  69.170  1.00  0.00    -0.153 C  
HETATM   22  C   UNL     1     -12.324   9.738  69.751  1.00  0.00     0.434 C  
HETATM   23  O   UNL     1     -10.451   8.893  68.505  1.00  0.00    -0.205 OA 
HETATM   24  C   UNL     1      -9.953  15.100  69.144  1.00  0.00    -0.238 C  
HETATM   25  C   UNL     1     -10.697  10.882  66.375  1.00  0.00    -0.257 C  
HETATM   26  C   UNL     1     -11.247  14.308  69.003  1.00  0.00    -0.266 C  
HETATM   27  C   UNL     1     -11.174  10.126  68.815  1.00  0.00    -0.164 C  
HETATM   28  C   UNL     1      -9.499  16.133  68.128  1.00  0.00    -0.209 C  
HETATM   29  C   UNL     1     -11.721  10.835  67.527  1.00  0.00     0.206 C  
HETATM   30  C   UNL     1     -12.404  12.245  67.829  1.00  0.00     0.662 C  
HETATM   31  O   UNL     1     -10.181  16.519  69.317  1.00  0.00    -0.269 OA 
HETATM   32  C   UNL     1     -11.436  13.467  67.709  1.00  0.00    -0.351 C  
HETATM   33  O   UNL     1     -11.981  14.212  69.975  1.00  0.00    -0.298 OA 
HETATM   34  C   UNL     1     -11.565  14.335  66.458  1.00  0.00    -0.390 C  
BRANCH  15  35
HETATM   35  O   UNL     1      -6.507  13.660  71.549  1.00  0.00     0.216 OA 
BRANCH  35  36
HETATM   36  C   UNL     1      -6.471  15.075  71.444  1.00  0.00     0.804 C  
HETATM   37  C   UNL     1      -6.868  16.871  73.013  1.00  0.00     8.394 C  
HETATM   38  C   UNL     1      -8.466  16.743  71.072  1.00  0.00     6.025 C  
HETATM   39  C   UNL     1      -6.759  17.093  74.522  1.00  0.00    10.100 C  
HETATM   40  C   UNL     1      -7.826  15.372  70.728  1.00  0.00     1.893 C  
HETATM   41  O   UNL     1      -6.338  15.593  72.744  1.00  0.00     2.100 OA 
HETATM   42  C   UNL     1      -8.321  16.909  72.600  1.00  0.00    17.181 C  
BRANCH  38  43
HETATM   43  N   UNL     1      -9.924  16.848  70.745  1.00  0.00     2.062 NA 
HETATM   44  C   UNL     1     -10.774  16.342  71.830  1.00  0.00     1.625 C  
HETATM   45  C   UNL     1     -10.355  18.199  70.396  1.00  0.00     1.696 C  
ENDBRANCH  38  43
BRANCH  40  46
HETATM   46  O   UNL     1      -7.779  15.012  69.318  1.00  0.00    -0.173 OA 
BRANCH  46  47
HETATM   47  C   UNL     1      -7.083  15.760  68.431  1.00  0.00    -0.116 C  
HETATM   48  C   UNL     1      -7.543  17.182  68.472  1.00  0.00    -0.245 C  
HETATM   49  O   UNL     1      -6.233  15.322  67.667  1.00  0.00    -0.149 OA 
ENDBRANCH  46  47
ENDBRANCH  40  46
ENDBRANCH  35  36
ENDBRANCH  15  35
BRANCH  30  50
HETATM   50  O   UNL     1     -13.463  12.373  66.848  1.00  0.00     3.858 OA 
BRANCH  50  51
HETATM   51  C   UNL     1     -13.128  12.955  65.666  1.00  0.00     0.762 C  
HETATM   52  O   UNL     1     -12.522  14.008  65.542  1.00  0.00    -0.458 OA 
HETATM   53  C   UNL     1     -13.517  12.077  64.518  1.00  0.00     1.299 C  
ENDBRANCH  50  51
ENDBRANCH  30  50
ENDBRANCH  10  11
ENDBRANCH   5  10
BRANCH   9  54
HETATM   54  O   UNL     1     -10.342   5.795  73.060  1.00  0.00    -0.186 OA 
BRANCH  54  55
HETATM   55  C   UNL     1     -11.620   5.440  72.754  1.00  0.00    -0.226 C  
HETATM   56  C   UNL     1     -11.795   3.950  72.822  1.00  0.00     0.617 C  
HETATM   57  O   UNL     1     -12.522   6.210  72.457  1.00  0.00    -0.096 OA 
ENDBRANCH  54  55
ENDBRANCH   9  54
ENDBRANCH   2   3
TORSDOF 12
ENDMDL
MODEL       36
REMARK 921   NORMALIZED FREE ENERGY PREDICTED BY IDOCK:   92.09 KCAL/MOL
REMARK 922        TOTAL FREE ENERGY PREDICTED BY IDOCK:  154.32 KCAL/MOL
REMARK 923 INTER-LIGAND FREE ENERGY PREDICTED BY IDOCK:   95.85 KCAL/MOL
REMARK 924 INTRA-LIGAND FREE ENERGY PREDICTED BY IDOCK:   58.47 KCAL/MOL
REMARK 927      BINDING AFFINITY PREDICTED BY RF-SCORE:    0.00 PKD
ROOT
HETATM    1  C   UNL     1      -5.738  17.000  63.947  1.00  0.00     6.391 C  
HETATM    2  O   UNL     1      -6.926  17.081  64.727  1.00  0.00     2.692 OA 
ENDROOT
BRANCH   2   3
HETATM    3  C   UNL     1      -8.002  16.340  64.134  1.00  0.00    12.888 C  
HETATM    4  C   UNL     1      -7.818  14.838  64.447  1.00  0.00    13.659 C  
HETATM    5  C   UNL     1      -8.133  14.510  65.907  1.00  0.00     2.423 C  
HETATM    6  O   UNL     1      -9.447  14.982  66.121  1.00  0.00    -0.286 OA 
HETATM    7  C   UNL     1      -9.122  17.169  67.203  1.00  0.00    -0.237 C  
HETATM    8  C   UNL     1      -9.686  16.386  66.017  1.00  0.00    -0.326 C  
HETATM    9  C   UNL     1      -9.327  16.927  64.640  1.00  0.00     4.118 C  
BRANCH   5  10
HETATM   10  O   UNL     1      -8.006  13.058  66.136  1.00  0.00     0.942 OA 
BRANCH  10  11
HETATM   11  C   UNL     1      -9.155  12.466  66.795  1.00  0.00    -0.212 C  
HETATM   12  C   UNL     1      -9.799  13.473  67.849  1.00  0.00    -0.235 C  
HETATM   13  C   UNL     1     -11.557  12.505  65.494  1.00  0.00    -0.429 C  
HETATM   14  C   UNL     1      -9.591  14.915  67.367  1.00  0.00    -0.206 C  
HETATM   15  C   UNL     1      -9.420  12.980  69.308  1.00  0.00     0.849 C  
HETATM   16  C   UNL     1     -10.266  11.770  65.911  1.00  0.00    -0.272 C  
HETATM   17  O   UNL     1      -9.417  11.147  63.724  1.00  0.00    -0.224 OA 
HETATM   18  C   UNL     1     -10.398  12.022  70.026  1.00  0.00     1.554 C  
HETATM   19  C   UNL     1     -11.225  11.227  69.060  1.00  0.00    -0.321 C  
HETATM   20  C   UNL     1      -9.581  11.078  70.971  1.00  0.00     4.859 C  
HETATM   21  C   UNL     1      -9.812  10.792  64.829  1.00  0.00    -0.300 C  
HETATM   22  C   UNL     1      -8.514   7.977  65.998  1.00  0.00    -0.144 C  
HETATM   23  O   UNL     1     -10.153   9.475  65.080  1.00  0.00    -0.098 OA 
HETATM   24  C   UNL     1     -10.269   9.768  71.332  1.00  0.00     0.354 C  
HETATM   25  C   UNL     1     -12.304   8.530  66.822  1.00  0.00     9.158 C  
HETATM   26  C   UNL     1      -9.963   8.534  70.491  1.00  0.00    -0.188 C  
HETATM   27  C   UNL     1      -9.769   8.796  66.318  1.00  0.00    -0.272 C  
HETATM   28  C   UNL     1     -11.464   9.860  72.263  1.00  0.00     1.231 C  
HETATM   29  C   UNL     1     -10.910   7.872  66.868  1.00  0.00    -0.050 C  
HETATM   30  C   UNL     1     -10.561   7.219  68.282  1.00  0.00    -0.172 C  
HETATM   31  O   UNL     1     -10.172   9.514  72.753  1.00  0.00     1.514 OA 
HETATM   32  C   UNL     1     -11.065   8.042  69.512  1.00  0.00     0.026 C  
HETATM   33  O   UNL     1      -8.818   8.107  70.478  1.00  0.00    -0.139 OA 
HETATM   34  C   UNL     1     -12.304   7.519  70.237  1.00  0.00     0.364 C  
BRANCH  15  35
HETATM   35  O   UNL     1      -8.812  13.825  70.259  1.00  0.00     2.428 OA 
BRANCH  35  36
HETATM   36  C   UNL     1      -7.524  14.399  70.099  1.00  0.00     0.501 C  
HETATM   37  C   UNL     1      -5.788  15.050  71.649  1.00  0.00     0.358 C  
HETATM   38  C   UNL     1      -6.814  16.919  70.309  1.00  0.00     1.052 C  
HETATM   39  C   UNL     1      -5.306  14.637  73.040  1.00  0.00    -0.133 C  
HETATM   40  C   UNL     1      -7.877  15.895  69.831  1.00  0.00     0.369 C  
HETATM   41  O   UNL     1      -6.797  14.141  71.274  1.00  0.00     0.534 OA 
HETATM   42  C   UNL     1      -6.366  16.445  71.708  1.00  0.00     2.851 C  
BRANCH  38  43
HETATM   43  N   UNL     1      -7.320  18.322  70.449  1.00  0.00     1.754 NA 
HETATM   44  C   UNL     1      -8.025  18.780  69.245  1.00  0.00     0.073 C  
HETATM   45  C   UNL     1      -8.182  18.525  71.610  1.00  0.00     9.046 C  
ENDBRANCH  38  43
BRANCH  40  46
HETATM   46  O   UNL     1      -8.410  16.090  68.490  1.00  0.00    -0.173 OA 
BRANCH  46  47
HETATM   47  C   UNL     1      -9.744  16.158  68.274  1.00  0.00    -0.220 C  
HETATM   48  C   UNL     1     -10.490  15.535  69.410  1.00  0.00    -0.253 C  
HETATM   49  O   UNL     1     -10.264  16.620  67.267  1.00  0.00    -0.278 OA 
ENDBRANCH  46  47
ENDBRANCH  40  46
ENDBRANCH  35  36
ENDBRANCH  15  35
BRANCH  30  50
HETATM   50  O   UNL     1     -11.210   5.923  68.272  1.00  0.00    -0.189 OA 
BRANCH  50  51
HETATM   51  C   UNL     1     -11.342   5.320  67.061  1.00  0.00     1.398 C  
HETATM   52  O   UNL     1     -11.455   4.118  66.876  1.00  0.00     3.407 OA 
HETATM   53  C   UNL     1     -11.431   6.342  65.971  1.00  0.00     2.191 C  
ENDBRANCH  50  51
ENDBRANCH  30  50
ENDBRANCH  10  11
ENDBRANCH   5  10
BRANCH   9  54
HETATM   54  O   UNL     1     -10.380  16.518  63.717  1.00  0.00     2.055 OA 
BRANCH  54  55
HETATM   55  C   UNL     1     -10.598  15.181  63.579  1.00  0.00     4.028 C  
HETATM   56  C   UNL     1     -11.930  14.791  64.155  1.00  0.00    -0.282 C  
HETATM   57  O   UNL     1      -9.829  14.383  63.064  1.00  0.00     6.425 OA 
ENDBRANCH  54  55
ENDBRANCH   9  54
ENDBRANCH   2   3
TORSDOF 12
ENDMDL
MODEL       37
REMARK 921   NORMALIZED FREE ENERGY PREDICTED BY IDOCK:  106.76 KCAL/MOL
REMARK 922        TOTAL FREE ENERGY PREDICTED BY IDOCK:  179.27 KCAL/MOL
REMARK 923 INTER-LIGAND FREE ENERGY PREDICTED BY IDOCK:  158.53 KCAL/MOL
REMARK 924 INTRA-LIGAND FREE ENERGY PREDICTED BY IDOCK:   20.74 KCAL/MOL
REMARK 927      BINDING AFFINITY PREDICTED BY RF-SCORE:    0.00 PKD
ROOT
HETATM    1  C   UNL     1     -10.019  13.593  71.386  1.00  0.00     7.288 C  
HETATM    2  O   UNL     1      -9.719  14.423  72.502  1.00  0.00     4.765 OA 
ENDROOT
BRANCH   2   3
HETATM    3  C   UNL     1      -9.826  15.816  72.172  1.00  0.00     4.580 C  
HETATM    4  C   UNL     1     -10.605  15.964  70.846  1.00  0.00     0.208 C  
HETATM    5  C   UNL     1     -12.098  15.687  71.019  1.00  0.00    -0.400 C  
HETATM    6  O   UNL     1     -12.527  16.569  72.036  1.00  0.00    -0.164 OA 
HETATM    7  C   UNL     1     -12.541  15.173  74.064  1.00  0.00    -0.652 C  
HETATM    8  C   UNL     1     -11.985  16.404  73.347  1.00  0.00    -0.377 C  
HETATM    9  C   UNL     1     -10.468  16.544  73.360  1.00  0.00     6.074 C  
BRANCH   5  10
HETATM   10  O   UNL     1     -12.804  15.906  69.742  1.00  0.00    -0.075 OA 
BRANCH  10  11
HETATM   11  C   UNL     1     -12.266  15.137  68.636  1.00  0.00    -0.032 C  
HETATM   12  C   UNL     1     -12.796  13.634  68.666  1.00  0.00     1.327 C  
HETATM   13  C   UNL     1     -13.466  15.369  66.193  1.00  0.00     3.423 C  
HETATM   14  C   UNL     1     -14.203  13.603  69.278  1.00  0.00     8.126 C  
HETATM   15  C   UNL     1     -11.613  12.696  69.154  1.00  0.00    -0.320 C  
HETATM   16  C   UNL     1     -12.340  15.745  67.178  1.00  0.00     1.472 C  
HETATM   17  O   UNL     1     -12.611  18.156  67.219  1.00  0.00     4.180 OA 
HETATM   18  C   UNL     1     -10.695  12.071  68.079  1.00  0.00    -0.244 C  
HETATM   19  C   UNL     1     -10.654  12.887  66.822  1.00  0.00    -0.268 C  
HETATM   20  C   UNL     1      -9.259  11.896  68.678  1.00  0.00    -0.066 C  
HETATM   21  C   UNL     1     -11.893  17.192  66.981  1.00  0.00     1.914 C  
HETATM   22  C   UNL     1      -8.638  17.675  67.371  1.00  0.00    -0.229 C  
HETATM   23  O   UNL     1     -10.730  17.327  66.242  1.00  0.00    -0.221 OA 
HETATM   24  C   UNL     1      -8.134  11.809  67.655  1.00  0.00    -0.144 C  
HETATM   25  C   UNL     1      -9.630  15.391  64.346  1.00  0.00     3.012 C  
HETATM   26  C   UNL     1      -7.392  13.088  67.284  1.00  0.00    -0.057 C  
HETATM   27  C   UNL     1      -9.490  16.649  66.616  1.00  0.00    -0.252 C  
HETATM   28  C   UNL     1      -8.067  10.542  66.821  1.00  0.00    -0.123 C  
HETATM   29  C   UNL     1      -8.715  16.096  65.369  1.00  0.00     1.267 C  
HETATM   30  C   UNL     1      -7.424  15.243  65.760  1.00  0.00     4.144 C  
HETATM   31  O   UNL     1      -7.241  10.715  67.968  1.00  0.00    -0.084 OA 
HETATM   32  C   UNL     1      -7.682  13.707  65.888  1.00  0.00     3.553 C  
HETATM   33  O   UNL     1      -6.761  13.670  68.155  1.00  0.00    -0.093 OA 
HETATM   34  C   UNL     1      -7.195  12.823  64.742  1.00  0.00     8.430 C  
BRANCH  15  35
HETATM   35  O   UNL     1     -11.755  11.795  70.228  1.00  0.00    -0.309 OA 
BRANCH  35  36
HETATM   36  C   UNL     1     -11.105  10.534  70.294  1.00  0.00    -0.285 C  
HETATM   37  C   UNL     1     -10.520   8.876  68.635  1.00  0.00    -0.193 C  
HETATM   38  C   UNL     1     -12.179   8.139  70.380  1.00  0.00     0.376 C  
HETATM   39  C   UNL     1     -10.186   8.843  67.143  1.00  0.00    -0.339 C  
HETATM   40  C   UNL     1     -12.247   9.620  70.837  1.00  0.00    -0.285 C  
HETATM   41  O   UNL     1     -10.639  10.231  69.003  1.00  0.00    -0.198 OA 
HETATM   42  C   UNL     1     -11.836   8.174  68.875  1.00  0.00     1.823 C  
BRANCH  38  43
HETATM   43  N   UNL     1     -13.463   7.382  70.531  1.00  0.00     0.532 NA 
HETATM   44  C   UNL     1     -14.169   7.729  71.771  1.00  0.00    -0.444 C  
HETATM   45  C   UNL     1     -14.378   7.541  69.404  1.00  0.00     9.154 C  
ENDBRANCH  38  43
BRANCH  40  46
HETATM   46  O   UNL     1     -12.494   9.852  72.253  1.00  0.00    -0.255 OA 
BRANCH  46  47
HETATM   47  C   UNL     1     -12.799   8.828  73.083  1.00  0.00     0.809 C  
HETATM   48  C   UNL     1     -11.657   7.868  73.171  1.00  0.00     0.055 C  
HETATM   49  O   UNL     1     -13.878   8.684  73.644  1.00  0.00     0.396 OA 
ENDBRANCH  46  47
ENDBRANCH  40  46
ENDBRANCH  35  36
ENDBRANCH  15  35
BRANCH  30  50
HETATM   50  O   UNL     1      -6.473  15.484  64.693  1.00  0.00    11.673 OA 
BRANCH  50  51
HETATM   51  C   UNL     1      -6.736  14.888  63.500  1.00  0.00    25.806 C  
HETATM   52  O   UNL     1      -7.506  13.956  63.329  1.00  0.00    13.862 OA 
HETATM   53  C   UNL     1      -6.025  15.596  62.389  1.00  0.00    16.331 C  
ENDBRANCH  50  51
ENDBRANCH  30  50
ENDBRANCH  10  11
ENDBRANCH   5  10
BRANCH   9  54
HETATM   54  O   UNL     1     -10.156  17.964  73.237  1.00  0.00     5.596 OA 
BRANCH  54  55
HETATM   55  C   UNL     1     -11.147  18.779  72.781  1.00  0.00     3.548 C  
HETATM   56  C   UNL     1     -11.269  18.691  71.286  1.00  0.00     4.531 C  
HETATM   57  O   UNL     1     -11.854  19.498  73.472  1.00  0.00     6.380 OA 
ENDBRANCH  54  55
ENDBRANCH   9  54
ENDBRANCH   2   3
TORSDOF 12
ENDMDL
