MODEL        1
REMARK 921   NORMALIZED FREE ENERGY PREDICTED BY IDOCK:   -6.39 KCAL/MOL
REMARK 922        TOTAL FREE ENERGY PREDICTED BY IDOCK:   -9.49 KCAL/MOL
REMARK 923 INTER-LIGAND FREE ENERGY PREDICTED BY IDOCK:   -8.63 KCAL/MOL
REMARK 924 INTRA-LIGAND FREE ENERGY PREDICTED BY IDOCK:   -0.86 KCAL/MOL
REMARK 927      BINDING AFFINITY PREDICTED BY RF-SCORE:    0.00 PKD
ROOT
HETATM    1  O   UNL     1     -10.874  14.119  70.043  1.00  0.00    -0.456 OA 
HETATM    2  H   UNL     1     -10.341  13.888  70.794  1.00  0.00     0.000 HD 
HETATM    3  O   UNL     2      -7.357  16.667  69.428  1.00  0.00    -0.222 OA 
HETATM    4  C   UNL     1     -10.231  15.001  69.130  1.00  0.00    -0.241 C  
HETATM    5  O   UNL     2      -7.221  18.244  65.640  1.00  0.00    -0.503 OA 
HETATM    6  C   UNL     2      -7.589  16.845  68.114  1.00  0.00    -0.188 C  
HETATM    7  C   UNL     2      -8.373  18.049  67.773  1.00  0.00    -0.249 A  
HETATM    8  O   UNL     2      -7.182  16.080  67.247  1.00  0.00    -0.166 OA 
HETATM    9  C   UNL     2      -9.924  20.248  67.010  1.00  0.00    -0.601 A  
HETATM   10  C   UNL     2      -8.142  18.684  66.547  1.00  0.00    -0.284 A  
HETATM   11  C   UNL     2      -8.888  19.802  66.189  1.00  0.00    -0.378 A  
HETATM   12  C   UNL     2      -9.413  18.501  68.594  1.00  0.00    -0.373 A  
HETATM   13  H   UNL     2      -7.064  18.675  64.808  1.00  0.00     0.000 HD 
HETATM   14  C   UNL     2     -10.201  19.582  68.202  1.00  0.00    -0.556 A  
ENDROOT
BRANCH   4  15
HETATM   15  C   UNL     1     -11.102  15.378  67.902  1.00  0.00    -0.323 C  
BRANCH  15  16
HETATM   16  N   UNL     1     -10.952  14.522  66.697  1.00  0.00    -0.315 NA 
BRANCH  16  17
HETATM   17  C   UNL     1     -12.262  14.050  66.159  1.00  0.00    -0.465 C  
BRANCH  17  18
HETATM   18  C   UNL     1     -12.306  13.201  64.877  1.00  0.00    -0.441 C  
HETATM   19  H   UNL     1     -12.543  13.447  62.913  1.00  0.00     0.000 HD 
HETATM   20  O   UNL     1     -12.516  13.972  63.705  1.00  0.00    -0.803 OA 
ENDBRANCH  17  18
ENDBRANCH  16  17
BRANCH  16  21
HETATM   21  C   UNL     1     -10.242  15.242  65.610  1.00  0.00    -0.372 C  
BRANCH  21  22
HETATM   22  C   UNL     1     -10.722  16.670  65.270  1.00  0.00    -0.204 C  
HETATM   23  O   UNL     1     -11.372  16.678  64.000  1.00  0.00    -1.486 OA 
HETATM   24  H   UNL     1     -11.667  17.557  63.791  1.00  0.00     0.000 HD 
ENDBRANCH  21  22
ENDBRANCH  16  21
ENDBRANCH  15  16
ENDBRANCH   4  15
TORSDOF 6
ENDMDL
MODEL        2
REMARK 921   NORMALIZED FREE ENERGY PREDICTED BY IDOCK:   -6.05 KCAL/MOL
REMARK 922        TOTAL FREE ENERGY PREDICTED BY IDOCK:   -9.04 KCAL/MOL
REMARK 923 INTER-LIGAND FREE ENERGY PREDICTED BY IDOCK:   -8.29 KCAL/MOL
REMARK 924 INTRA-LIGAND FREE ENERGY PREDICTED BY IDOCK:   -0.74 KCAL/MOL
REMARK 927      BINDING AFFINITY PREDICTED BY RF-SCORE:    0.00 PKD
ROOT
HETATM    1  O   UNL     1     -11.434  16.691  63.923  1.00  0.00    -1.604 OA 
HETATM    2  H   UNL     1     -12.200  16.679  63.362  1.00  0.00     0.000 HD 
HETATM    3  O   UNL     2     -13.068  12.708  64.766  1.00  0.00    -0.852 OA 
HETATM    4  C   UNL     1     -11.184  15.454  64.580  1.00  0.00    -0.364 C  
HETATM    5  O   UNL     2     -10.383  10.311  66.741  1.00  0.00    -0.221 OA 
HETATM    6  C   UNL     2     -11.907  12.222  65.244  1.00  0.00    -0.355 C  
HETATM    7  C   UNL     2     -11.737  12.331  66.707  1.00  0.00    -0.411 A  
HETATM    8  O   UNL     2     -11.044  11.715  64.536  1.00  0.00    -0.321 OA 
HETATM    9  C   UNL     2     -11.264  12.562  69.454  1.00  0.00    -0.215 A  
HETATM   10  C   UNL     2     -10.980  11.362  67.377  1.00  0.00    -0.273 A  
HETATM   11  C   UNL     2     -10.781  11.459  68.749  1.00  0.00    -0.240 A  
HETATM   12  C   UNL     2     -12.221  13.435  67.419  1.00  0.00    -0.262 A  
HETATM   13  H   UNL     2      -9.869   9.654  67.196  1.00  0.00     0.000 HD 
HETATM   14  C   UNL     2     -11.964  13.561  68.783  1.00  0.00    -0.374 A  
ENDROOT
BRANCH   4  15
HETATM   15  C   UNL     1      -9.932  15.473  65.498  1.00  0.00    -0.341 C  
BRANCH  15  16
HETATM   16  N   UNL     1      -9.399  16.812  65.862  1.00  0.00    -0.519 NA 
BRANCH  16  17
HETATM   17  C   UNL     1     -10.110  17.416  67.027  1.00  0.00    -0.313 C  
BRANCH  17  18
HETATM   18  C   UNL     1     -10.908  18.720  66.848  1.00  0.00    -0.225 C  
HETATM   19  H   UNL     1     -10.753  20.462  65.893  1.00  0.00     0.000 HD 
HETATM   20  O   UNL     1     -10.261  19.657  66.003  1.00  0.00    -0.453 OA 
ENDBRANCH  17  18
ENDBRANCH  16  17
BRANCH  16  21
HETATM   21  C   UNL     1      -7.953  16.743  66.192  1.00  0.00    -0.238 C  
BRANCH  21  22
HETATM   22  C   UNL     1      -7.245  18.062  66.570  1.00  0.00    -0.235 C  
HETATM   23  O   UNL     1      -7.370  19.007  65.509  1.00  0.00    -0.477 OA 
HETATM   24  H   UNL     1      -6.934  19.818  65.742  1.00  0.00     0.000 HD 
ENDBRANCH  21  22
ENDBRANCH  16  21
ENDBRANCH  15  16
ENDBRANCH   4  15
TORSDOF 6
ENDMDL
MODEL        3
REMARK 921   NORMALIZED FREE ENERGY PREDICTED BY IDOCK:   -5.98 KCAL/MOL
REMARK 922        TOTAL FREE ENERGY PREDICTED BY IDOCK:   -8.94 KCAL/MOL
REMARK 923 INTER-LIGAND FREE ENERGY PREDICTED BY IDOCK:   -7.64 KCAL/MOL
REMARK 924 INTRA-LIGAND FREE ENERGY PREDICTED BY IDOCK:   -1.30 KCAL/MOL
REMARK 927      BINDING AFFINITY PREDICTED BY RF-SCORE:    0.00 PKD
ROOT
HETATM    1  O   UNL     1     -11.705  16.242  63.593  1.00  0.00    -1.447 OA 
HETATM    2  H   UNL     1     -12.111  17.096  63.502  1.00  0.00     0.000 HD 
HETATM    3  O   UNL     2     -10.900  18.008  67.527  1.00  0.00    -0.379 OA 
HETATM    4  C   UNL     1     -11.210  15.976  64.900  1.00  0.00    -0.312 C  
HETATM    5  O   UNL     2      -9.669  15.208  70.267  1.00  0.00    -0.457 OA 
HETATM    6  C   UNL     2     -10.690  16.822  68.129  1.00  0.00    -0.361 C  
HETATM    7  C   UNL     2      -9.282  16.381  68.171  1.00  0.00    -0.201 A  
HETATM    8  O   UNL     2     -11.587  16.146  68.619  1.00  0.00    -0.376 OA 
HETATM    9  C   UNL     2      -6.663  15.399  68.235  1.00  0.00    -0.123 A  
HETATM   10  C   UNL     2      -8.848  15.594  69.246  1.00  0.00    -0.264 A  
HETATM   11  C   UNL     2      -7.535  15.142  69.294  1.00  0.00    -0.193 A  
HETATM   12  C   UNL     2      -8.403  16.638  67.112  1.00  0.00    -0.202 A  
HETATM   13  H   UNL     2      -9.375  14.674  70.995  1.00  0.00     0.000 HD 
HETATM   14  C   UNL     2      -7.106  16.127  67.133  1.00  0.00    -0.253 A  
ENDROOT
BRANCH   4  15
HETATM   15  C   UNL     1     -10.547  14.580  65.049  1.00  0.00    -0.437 C  
BRANCH  15  16
HETATM   16  N   UNL     1     -11.103  13.692  66.102  1.00  0.00    -0.294 NA 
BRANCH  16  17
HETATM   17  C   UNL     1     -12.005  12.639  65.550  1.00  0.00    -0.456 C  
BRANCH  17  18
HETATM   18  C   UNL     1     -11.789  12.115  64.119  1.00  0.00    -0.404 C  
HETATM   19  H   UNL     1     -12.844  11.782  62.461  1.00  0.00     0.000 HD 
HETATM   20  O   UNL     1     -12.977  12.106  63.345  1.00  0.00    -0.776 OA 
ENDBRANCH  17  18
ENDBRANCH  16  17
BRANCH  16  21
HETATM   21  C   UNL     1     -10.021  13.018  66.863  1.00  0.00    -0.243 C  
BRANCH  21  22
HETATM   22  C   UNL     1     -10.416  12.278  68.159  1.00  0.00    -0.217 C  
HETATM   23  O   UNL     1     -11.211  13.127  68.985  1.00  0.00    -0.248 OA 
HETATM   24  H   UNL     1     -11.454  12.671  69.783  1.00  0.00     0.000 HD 
ENDBRANCH  21  22
ENDBRANCH  16  21
ENDBRANCH  15  16
ENDBRANCH   4  15
TORSDOF 6
ENDMDL
MODEL        4
REMARK 921   NORMALIZED FREE ENERGY PREDICTED BY IDOCK:   -5.88 KCAL/MOL
REMARK 922        TOTAL FREE ENERGY PREDICTED BY IDOCK:   -8.80 KCAL/MOL
REMARK 923 INTER-LIGAND FREE ENERGY PREDICTED BY IDOCK:   -7.99 KCAL/MOL
REMARK 924 INTRA-LIGAND FREE ENERGY PREDICTED BY IDOCK:   -0.82 KCAL/MOL
REMARK 927      BINDING AFFINITY PREDICTED BY RF-SCORE:    0.00 PKD
ROOT
HETATM    1  O   UNL     1      -7.646  13.842  69.333  1.00  0.00    -0.330 OA 
HETATM    2  H   UNL     1      -7.853  13.451  70.173  1.00  0.00     0.000 HD 
HETATM    3  O   UNL     2     -11.617  12.150  68.549  1.00  0.00    -0.270 OA 
HETATM    4  C   UNL     1      -8.713  13.782  68.392  1.00  0.00    -0.162 C  
HETATM    5  O   UNL     2     -13.272  13.606  65.084  1.00  0.00    -0.739 OA 
HETATM    6  C   UNL     2     -11.857  12.944  67.488  1.00  0.00    -0.351 C  
HETATM    7  C   UNL     2     -11.485  12.370  66.179  1.00  0.00    -0.430 A  
HETATM    8  O   UNL     2     -12.354  14.060  67.579  1.00  0.00    -0.296 OA 
HETATM    9  C   UNL     2     -10.741  11.427  63.653  1.00  0.00    -0.470 A  
HETATM   10  C   UNL     2     -12.220  12.736  65.044  1.00  0.00    -0.473 A  
HETATM   11  C   UNL     2     -11.871  12.232  63.796  1.00  0.00    -0.587 A  
HETATM   12  C   UNL     2     -10.353  11.559  66.031  1.00  0.00    -0.290 A  
HETATM   13  H   UNL     2     -13.770  13.854  64.314  1.00  0.00     0.000 HD 
HETATM   14  C   UNL     2      -9.969  11.110  64.768  1.00  0.00    -0.339 A  
ENDROOT
BRANCH   4  15
HETATM   15  C   UNL     1      -8.374  14.422  67.019  1.00  0.00    -0.145 C  
BRANCH  15  16
HETATM   16  N   UNL     1      -9.109  15.666  66.670  1.00  0.00    -0.257 NA 
BRANCH  16  17
HETATM   17  C   UNL     1      -8.207  16.847  66.530  1.00  0.00    -0.285 C  
BRANCH  17  18
HETATM   18  C   UNL     1      -8.228  17.960  67.592  1.00  0.00    -0.232 C  
HETATM   19  H   UNL     1      -9.243  18.458  69.233  1.00  0.00     0.000 HD 
HETATM   20  O   UNL     1      -9.230  17.771  68.577  1.00  0.00    -0.274 OA 
ENDBRANCH  17  18
ENDBRANCH  16  17
BRANCH  16  21
HETATM   21  C   UNL     1      -9.860  15.507  65.399  1.00  0.00    -0.256 C  
BRANCH  21  22
HETATM   22  C   UNL     1     -10.934  16.566  65.069  1.00  0.00    -0.210 C  
HETATM   23  O   UNL     1     -11.433  16.363  63.748  1.00  0.00    -1.590 OA 
HETATM   24  H   UNL     1     -12.094  17.015  63.545  1.00  0.00     0.000 HD 
ENDBRANCH  21  22
ENDBRANCH  16  21
ENDBRANCH  15  16
ENDBRANCH   4  15
TORSDOF 6
ENDMDL
MODEL        5
REMARK 921   NORMALIZED FREE ENERGY PREDICTED BY IDOCK:   -5.87 KCAL/MOL
REMARK 922        TOTAL FREE ENERGY PREDICTED BY IDOCK:   -8.79 KCAL/MOL
REMARK 923 INTER-LIGAND FREE ENERGY PREDICTED BY IDOCK:   -7.47 KCAL/MOL
REMARK 924 INTRA-LIGAND FREE ENERGY PREDICTED BY IDOCK:   -1.32 KCAL/MOL
REMARK 927      BINDING AFFINITY PREDICTED BY RF-SCORE:    0.00 PKD
ROOT
HETATM    1  O   UNL     1     -11.763  16.226  63.692  1.00  0.00    -1.447 OA 
HETATM    2  H   UNL     1     -12.205  16.853  63.134  1.00  0.00     0.000 HD 
HETATM    3  O   UNL     2     -10.628  20.019  65.581  1.00  0.00    -0.460 OA 
HETATM    4  C   UNL     1     -11.131  16.809  64.826  1.00  0.00    -0.016 C  
HETATM    5  O   UNL     2      -9.034  19.476  69.326  1.00  0.00    -0.228 OA 
HETATM    6  C   UNL     2     -10.318  19.454  66.764  1.00  0.00    -0.443 C  
HETATM    7  C   UNL     2      -8.899  19.084  66.929  1.00  0.00    -0.314 A  
HETATM    8  O   UNL     2     -11.138  19.259  67.654  1.00  0.00    -0.377 OA 
HETATM    9  C   UNL     2      -6.255  18.259  67.326  1.00  0.00    -0.181 A  
HETATM   10  C   UNL     2      -8.333  19.117  68.210  1.00  0.00    -0.335 A  
HETATM   11  C   UNL     2      -7.007  18.745  68.396  1.00  0.00    -0.278 A  
HETATM   12  C   UNL     2      -8.140  18.598  65.858  1.00  0.00     0.007 A  
HETATM   13  H   UNL     2      -8.650  19.498  70.195  1.00  0.00     0.000 HD 
HETATM   14  C   UNL     2      -6.831  18.164  66.061  1.00  0.00    -0.318 A  
ENDROOT
BRANCH   4  15
HETATM   15  C   UNL     1     -10.409  15.783  65.740  1.00  0.00    -0.369 C  
BRANCH  15  16
HETATM   16  N   UNL     1     -11.174  15.290  66.915  1.00  0.00    -0.298 NA 
BRANCH  16  17
HETATM   17  C   UNL     1     -11.418  13.818  66.866  1.00  0.00    -0.347 C  
BRANCH  17  18
HETATM   18  C   UNL     1     -11.883  13.159  65.556  1.00  0.00    -0.380 C  
HETATM   19  H   UNL     1     -13.342  13.344  64.211  1.00  0.00     0.000 HD 
HETATM   20  O   UNL     1     -13.055  13.752  65.020  1.00  0.00    -0.751 OA 
ENDBRANCH  17  18
ENDBRANCH  16  17
BRANCH  16  21
HETATM   21  C   UNL     1     -10.467  15.597  68.183  1.00  0.00    -0.259 C  
BRANCH  21  22
HETATM   22  C   UNL     1     -11.322  16.066  69.380  1.00  0.00    -0.355 C  
HETATM   23  O   UNL     1     -10.812  17.294  69.895  1.00  0.00    -0.317 OA 
HETATM   24  H   UNL     1     -11.338  17.583  70.632  1.00  0.00     0.000 HD 
ENDBRANCH  21  22
ENDBRANCH  16  21
ENDBRANCH  15  16
ENDBRANCH   4  15
TORSDOF 6
ENDMDL
MODEL        6
REMARK 921   NORMALIZED FREE ENERGY PREDICTED BY IDOCK:   -5.75 KCAL/MOL
REMARK 922        TOTAL FREE ENERGY PREDICTED BY IDOCK:   -8.63 KCAL/MOL
REMARK 923 INTER-LIGAND FREE ENERGY PREDICTED BY IDOCK:   -7.78 KCAL/MOL
REMARK 924 INTRA-LIGAND FREE ENERGY PREDICTED BY IDOCK:   -0.85 KCAL/MOL
REMARK 927      BINDING AFFINITY PREDICTED BY RF-SCORE:    0.00 PKD
ROOT
HETATM    1  O   UNL     1     -11.615  16.713  63.910  1.00  0.00    -1.582 OA 
HETATM    2  H   UNL     1     -12.380  16.694  63.347  1.00  0.00     0.000 HD 
HETATM    3  O   UNL     2     -13.021  12.598  64.493  1.00  0.00    -0.744 OA 
HETATM    4  C   UNL     1     -11.295  15.452  64.488  1.00  0.00    -0.313 C  
HETATM    5  O   UNL     2     -10.203  10.235  66.318  1.00  0.00    -0.231 OA 
HETATM    6  C   UNL     2     -11.834  12.149  64.943  1.00  0.00    -0.302 C  
HETATM    7  C   UNL     2     -11.669  12.174  66.410  1.00  0.00    -0.394 A  
HETATM    8  O   UNL     2     -10.945  11.738  64.206  1.00  0.00    -0.317 OA 
HETATM    9  C   UNL     2     -11.206  12.255  69.167  1.00  0.00    -0.300 A  
HETATM   10  C   UNL     2     -10.857  11.208  67.018  1.00  0.00    -0.284 A  
HETATM   11  C   UNL     2     -10.662  11.228  68.394  1.00  0.00    -0.238 A  
HETATM   12  C   UNL     2     -12.214  13.201  67.190  1.00  0.00    -0.250 A  
HETATM   13  H   UNL     2      -9.652   9.581  66.731  1.00  0.00     0.000 HD 
HETATM   14  C   UNL     2     -11.962  13.255  68.560  1.00  0.00    -0.340 A  
ENDROOT
BRANCH   4  15
HETATM   15  C   UNL     1     -10.044  15.483  65.408  1.00  0.00    -0.352 C  
BRANCH  15  16
HETATM   16  N   UNL     1     -10.133  16.345  66.616  1.00  0.00    -0.273 NA 
BRANCH  16  17
HETATM   17  C   UNL     1      -9.393  15.779  67.781  1.00  0.00    -0.206 C  
BRANCH  17  18
HETATM   18  C   UNL     1      -9.848  16.107  69.214  1.00  0.00    -0.250 C  
HETATM   19  H   UNL     1     -11.477  16.746  70.169  1.00  0.00     0.000 HD 
HETATM   20  O   UNL     1     -11.196  16.543  69.284  1.00  0.00    -0.296 OA 
ENDBRANCH  17  18
ENDBRANCH  16  17
BRANCH  16  21
HETATM   21  C   UNL     1      -9.598  17.703  66.347  1.00  0.00    -0.274 C  
BRANCH  21  22
HETATM   22  C   UNL     1     -10.532  18.903  66.616  1.00  0.00    -0.428 C  
HETATM   23  O   UNL     1     -10.479  19.266  67.994  1.00  0.00    -0.405 OA 
HETATM   24  H   UNL     1     -11.054  20.004  68.160  1.00  0.00     0.000 HD 
ENDBRANCH  21  22
ENDBRANCH  16  21
ENDBRANCH  15  16
ENDBRANCH   4  15
TORSDOF 6
ENDMDL
MODEL        7
REMARK 921   NORMALIZED FREE ENERGY PREDICTED BY IDOCK:   -5.71 KCAL/MOL
REMARK 922        TOTAL FREE ENERGY PREDICTED BY IDOCK:   -8.58 KCAL/MOL
REMARK 923 INTER-LIGAND FREE ENERGY PREDICTED BY IDOCK:   -7.45 KCAL/MOL
REMARK 924 INTRA-LIGAND FREE ENERGY PREDICTED BY IDOCK:   -1.12 KCAL/MOL
REMARK 927      BINDING AFFINITY PREDICTED BY RF-SCORE:    0.00 PKD
ROOT
HETATM    1  O   UNL     1      -7.646  13.598  69.295  1.00  0.00    -0.323 OA 
HETATM    2  H   UNL     1      -7.919  13.253  70.137  1.00  0.00     0.000 HD 
HETATM    3  O   UNL     2     -11.820  12.521  68.481  1.00  0.00    -0.305 OA 
HETATM    4  C   UNL     1      -8.699  13.690  68.343  1.00  0.00    -0.153 C  
HETATM    5  O   UNL     2     -13.198  14.170  64.982  1.00  0.00    -0.691 OA 
HETATM    6  C   UNL     2     -11.926  13.329  67.409  1.00  0.00    -0.335 C  
HETATM    7  C   UNL     2     -11.632  12.690  66.111  1.00  0.00    -0.445 A  
HETATM    8  O   UNL     2     -12.248  14.509  67.483  1.00  0.00    -0.318 OA 
HETATM    9  C   UNL     2     -11.014  11.614  63.604  1.00  0.00    -0.507 A  
HETATM   10  C   UNL     2     -12.290  13.149  64.964  1.00  0.00    -0.459 A  
HETATM   11  C   UNL     2     -12.010  12.584  63.725  1.00  0.00    -0.598 A  
HETATM   12  C   UNL     2     -10.635  11.714  65.985  1.00  0.00    -0.303 A  
HETATM   13  H   UNL     2     -13.644  14.481  64.204  1.00  0.00     0.000 HD 
HETATM   14  C   UNL     2     -10.311  11.196  64.732  1.00  0.00    -0.387 A  
ENDROOT
BRANCH   4  15
HETATM   15  C   UNL     1      -8.254  14.254  66.967  1.00  0.00    -0.089 C  
BRANCH  15  16
HETATM   16  N   UNL     1      -8.684  15.641  66.649  1.00  0.00    -0.273 NA 
BRANCH  16  17
HETATM   17  C   UNL     1      -9.662  15.696  65.523  1.00  0.00    -0.251 C  
BRANCH  17  18
HETATM   18  C   UNL     1     -10.654  16.868  65.423  1.00  0.00    -0.162 C  
HETATM   19  H   UNL     1     -12.091  17.527  64.209  1.00  0.00     0.000 HD 
HETATM   20  O   UNL     1     -11.478  16.804  64.271  1.00  0.00    -1.125 OA 
ENDBRANCH  17  18
ENDBRANCH  16  17
BRANCH  16  21
HETATM   21  C   UNL     1      -9.305  16.294  67.829  1.00  0.00    -0.216 C  
BRANCH  21  22
HETATM   22  C   UNL     1      -8.491  17.393  68.546  1.00  0.00    -0.274 C  
HETATM   23  O   UNL     1      -7.399  16.810  69.255  1.00  0.00    -0.237 OA 
HETATM   24  H   UNL     1      -6.898  17.487  69.696  1.00  0.00     0.000 HD 
ENDBRANCH  21  22
ENDBRANCH  16  21
ENDBRANCH  15  16
ENDBRANCH   4  15
TORSDOF 6
ENDMDL
MODEL        8
REMARK 921   NORMALIZED FREE ENERGY PREDICTED BY IDOCK:   -5.66 KCAL/MOL
REMARK 922        TOTAL FREE ENERGY PREDICTED BY IDOCK:   -8.51 KCAL/MOL
REMARK 923 INTER-LIGAND FREE ENERGY PREDICTED BY IDOCK:   -8.05 KCAL/MOL
REMARK 924 INTRA-LIGAND FREE ENERGY PREDICTED BY IDOCK:   -0.45 KCAL/MOL
REMARK 927      BINDING AFFINITY PREDICTED BY RF-SCORE:    0.00 PKD
ROOT
HETATM    1  O   UNL     1     -11.543  16.770  63.924  1.00  0.00    -1.451 OA 
HETATM    2  H   UNL     1     -12.317  16.735  63.375  1.00  0.00     0.000 HD 
HETATM    3  O   UNL     2     -13.110  12.788  64.889  1.00  0.00    -0.833 OA 
HETATM    4  C   UNL     1     -11.266  15.553  64.606  1.00  0.00    -0.371 C  
HETATM    5  O   UNL     2     -10.362  10.475  66.878  1.00  0.00    -0.219 OA 
HETATM    6  C   UNL     2     -11.935  12.328  65.360  1.00  0.00    -0.332 C  
HETATM    7  C   UNL     2     -11.744  12.476  66.817  1.00  0.00    -0.453 A  
HETATM    8  O   UNL     2     -11.077  11.816  64.651  1.00  0.00    -0.307 OA 
HETATM    9  C   UNL     2     -11.230  12.779  69.549  1.00  0.00    -0.147 A  
HETATM   10  C   UNL     2     -10.963  11.533  67.497  1.00  0.00    -0.255 A  
HETATM   11  C   UNL     2     -10.744  11.666  68.864  1.00  0.00    -0.244 A  
HETATM   12  C   UNL     2     -12.231  13.590  67.510  1.00  0.00    -0.247 A  
HETATM   13  H   UNL     2      -9.832   9.835  67.340  1.00  0.00     0.000 HD 
HETATM   14  C   UNL     2     -11.954  13.753  68.866  1.00  0.00    -0.394 A  
ENDROOT
BRANCH   4  15
HETATM   15  C   UNL     1      -9.999  15.610  65.503  1.00  0.00    -0.329 C  
BRANCH  15  16
HETATM   16  N   UNL     1      -9.535  16.963  65.906  1.00  0.00    -0.517 NA 
BRANCH  16  17
HETATM   17  C   UNL     1     -10.198  17.452  67.151  1.00  0.00    -0.323 C  
BRANCH  17  18
HETATM   18  C   UNL     1     -10.450  18.957  67.347  1.00  0.00    -0.449 C  
HETATM   19  H   UNL     1      -9.978  20.409  68.629  1.00  0.00     0.000 HD 
HETATM   20  O   UNL     1      -9.823  19.480  68.508  1.00  0.00    -0.378 OA 
ENDBRANCH  17  18
ENDBRANCH  16  17
BRANCH  16  21
HETATM   21  C   UNL     1      -8.068  16.984  66.128  1.00  0.00    -0.257 C  
BRANCH  21  22
HETATM   22  C   UNL     1      -7.489  15.992  67.160  1.00  0.00    -0.218 C  
HETATM   23  O   UNL     1      -6.082  15.852  66.969  1.00  0.00    -0.328 OA 
HETATM   24  H   UNL     1      -5.726  15.241  67.604  1.00  0.00     0.000 HD 
ENDBRANCH  21  22
ENDBRANCH  16  21
ENDBRANCH  15  16
ENDBRANCH   4  15
TORSDOF 6
ENDMDL
MODEL        9
REMARK 921   NORMALIZED FREE ENERGY PREDICTED BY IDOCK:   -5.66 KCAL/MOL
REMARK 922        TOTAL FREE ENERGY PREDICTED BY IDOCK:   -8.50 KCAL/MOL
REMARK 923 INTER-LIGAND FREE ENERGY PREDICTED BY IDOCK:   -7.82 KCAL/MOL
REMARK 924 INTRA-LIGAND FREE ENERGY PREDICTED BY IDOCK:   -0.68 KCAL/MOL
REMARK 927      BINDING AFFINITY PREDICTED BY RF-SCORE:    0.00 PKD
ROOT
HETATM    1  O   UNL     1     -11.299  13.783  69.970  1.00  0.00    -0.458 OA 
HETATM    2  H   UNL     1     -10.772  13.521  70.714  1.00  0.00     0.000 HD 
HETATM    3  O   UNL     2      -7.685  16.195  69.367  1.00  0.00    -0.236 OA 
HETATM    4  C   UNL     1     -10.626  14.651  69.065  1.00  0.00    -0.247 C  
HETATM    5  O   UNL     2      -7.506  17.816  65.599  1.00  0.00    -0.533 OA 
HETATM    6  C   UNL     2      -7.917  16.399  68.056  1.00  0.00    -0.156 C  
HETATM    7  C   UNL     2      -8.653  17.639  67.737  1.00  0.00    -0.228 A  
HETATM    8  O   UNL     2      -7.547  15.630  67.177  1.00  0.00    -0.193 OA 
HETATM    9  C   UNL     2     -10.117  19.910  67.013  1.00  0.00    -0.578 A  
HETATM   10  C   UNL     2      -8.403  18.281  66.518  1.00  0.00    -0.266 A  
HETATM   11  C   UNL     2      -9.104  19.433  66.180  1.00  0.00    -0.314 A  
HETATM   12  C   UNL     2      -9.668  18.122  68.570  1.00  0.00    -0.372 A  
HETATM   13  H   UNL     2      -7.337  18.252  64.772  1.00  0.00     0.000 HD 
HETATM   14  C   UNL     2     -10.414  19.240  68.198  1.00  0.00    -0.450 A  
ENDROOT
BRANCH   4  15
HETATM   15  C   UNL     1     -11.488  15.080  67.847  1.00  0.00    -0.340 C  
BRANCH  15  16
HETATM   16  N   UNL     1     -11.647  14.077  66.763  1.00  0.00    -0.366 NA 
BRANCH  16  17
HETATM   17  C   UNL     1     -11.773  14.702  65.413  1.00  0.00    -0.330 C  
BRANCH  17  18
HETATM   18  C   UNL     1     -10.819  15.836  65.000  1.00  0.00    -0.443 C  
HETATM   19  H   UNL     1     -10.830  17.477  63.869  1.00  0.00     0.000 HD 
HETATM   20  O   UNL     1     -11.419  16.777  64.124  1.00  0.00    -1.171 OA 
ENDBRANCH  17  18
ENDBRANCH  16  17
BRANCH  16  21
HETATM   21  C   UNL     1     -10.499  13.136  66.728  1.00  0.00    -0.261 C  
BRANCH  21  22
HETATM   22  C   UNL     1     -10.795  11.640  66.963  1.00  0.00    -0.266 C  
HETATM   23  O   UNL     1     -12.084  11.483  67.554  1.00  0.00    -0.614 OA 
HETATM   24  H   UNL     1     -12.266  10.561  67.699  1.00  0.00     0.000 HD 
ENDBRANCH  21  22
ENDBRANCH  16  21
ENDBRANCH  15  16
ENDBRANCH   4  15
TORSDOF 6
ENDMDL
MODEL       10
REMARK 921   NORMALIZED FREE ENERGY PREDICTED BY IDOCK:   -5.61 KCAL/MOL
REMARK 922        TOTAL FREE ENERGY PREDICTED BY IDOCK:   -8.43 KCAL/MOL
REMARK 923 INTER-LIGAND FREE ENERGY PREDICTED BY IDOCK:   -8.01 KCAL/MOL
REMARK 924 INTRA-LIGAND FREE ENERGY PREDICTED BY IDOCK:   -0.42 KCAL/MOL
REMARK 927      BINDING AFFINITY PREDICTED BY RF-SCORE:    0.00 PKD
ROOT
HETATM    1  O   UNL     1     -11.371  16.867  64.321  1.00  0.00    -1.296 OA 
HETATM    2  H   UNL     1     -12.166  17.014  63.823  1.00  0.00     0.000 HD 
HETATM    3  O   UNL     2     -12.882  12.773  63.875  1.00  0.00    -0.687 OA 
HETATM    4  C   UNL     1     -11.062  15.492  64.521  1.00  0.00    -0.274 C  
HETATM    5  O   UNL     2     -10.050   9.957  64.824  1.00  0.00    -0.386 OA 
HETATM    6  C   UNL     2     -11.688  12.198  64.113  1.00  0.00    -0.396 C  
HETATM    7  C   UNL     2     -11.441  11.826  65.520  1.00  0.00    -0.241 A  
HETATM    8  O   UNL     2     -10.857  11.983  63.239  1.00  0.00    -0.397 OA 
HETATM    9  C   UNL     2     -10.822  11.158  68.165  1.00  0.00    -0.266 A  
HETATM   10  C   UNL     2     -10.631  10.718  65.797  1.00  0.00    -0.134 A  
HETATM   11  C   UNL     2     -10.359  10.366  67.114  1.00  0.00    -0.290 A  
HETATM   12  C   UNL     2     -11.906  12.617  66.578  1.00  0.00    -0.463 A  
HETATM   13  H   UNL     2      -9.500   9.205  65.012  1.00  0.00     0.000 HD 
HETATM   14  C   UNL     2     -11.577  12.297  67.894  1.00  0.00    -0.416 A  
ENDROOT
BRANCH   4  15
HETATM   15  C   UNL     1      -9.762  15.253  65.335  1.00  0.00    -0.208 C  
BRANCH  15  16
HETATM   16  N   UNL     1      -9.680  15.920  66.661  1.00  0.00    -0.241 NA 
BRANCH  16  17
HETATM   17  C   UNL     1      -9.067  17.278  66.584  1.00  0.00    -0.265 C  
BRANCH  17  18
HETATM   18  C   UNL     1      -9.938  18.528  66.804  1.00  0.00    -0.360 C  
HETATM   19  H   UNL     1     -10.970  19.852  65.731  1.00  0.00     0.000 HD 
HETATM   20  O   UNL     1     -10.433  19.081  65.595  1.00  0.00    -0.554 OA 
ENDBRANCH  17  18
ENDBRANCH  16  17
BRANCH  16  21
HETATM   21  C   UNL     1     -11.023  16.055  67.278  1.00  0.00    -0.207 C  
BRANCH  21  22
HETATM   22  C   UNL     1     -11.145  15.766  68.790  1.00  0.00    -0.321 C  
HETATM   23  O   UNL     1     -12.511  15.549  69.138  1.00  0.00    -0.609 OA 
HETATM   24  H   UNL     1     -12.586  15.371  70.069  1.00  0.00     0.000 HD 
ENDBRANCH  21  22
ENDBRANCH  16  21
ENDBRANCH  15  16
ENDBRANCH   4  15
TORSDOF 6
ENDMDL
MODEL       11
REMARK 921   NORMALIZED FREE ENERGY PREDICTED BY IDOCK:   -5.57 KCAL/MOL
REMARK 922        TOTAL FREE ENERGY PREDICTED BY IDOCK:   -8.39 KCAL/MOL
REMARK 923 INTER-LIGAND FREE ENERGY PREDICTED BY IDOCK:   -7.61 KCAL/MOL
REMARK 924 INTRA-LIGAND FREE ENERGY PREDICTED BY IDOCK:   -0.78 KCAL/MOL
REMARK 927      BINDING AFFINITY PREDICTED BY RF-SCORE:    0.00 PKD
ROOT
HETATM    1  O   UNL     1     -11.735  16.601  63.944  1.00  0.00    -1.487 OA 
HETATM    2  H   UNL     1     -12.501  16.659  63.386  1.00  0.00     0.000 HD 
HETATM    3  O   UNL     2     -12.817  12.372  63.516  1.00  0.00    -0.749 OA 
HETATM    4  C   UNL     1     -11.314  15.268  64.207  1.00  0.00    -0.103 C  
HETATM    5  O   UNL     2      -9.811   9.863  64.751  1.00  0.00    -0.375 OA 
HETATM    6  C   UNL     2     -11.595  11.920  63.856  1.00  0.00    -0.425 C  
HETATM    7  C   UNL     2     -11.420  11.607  65.289  1.00  0.00    -0.173 A  
HETATM    8  O   UNL     2     -10.685  11.765  63.051  1.00  0.00    -0.269 OA 
HETATM    9  C   UNL     2     -10.939  11.064  67.990  1.00  0.00    -0.312 A  
HETATM   10  C   UNL     2     -10.531  10.589  65.657  1.00  0.00    -0.143 A  
HETATM   11  C   UNL     2     -10.326  10.295  67.000  1.00  0.00    -0.299 A  
HETATM   12  C   UNL     2     -12.034  12.374  66.286  1.00  0.00    -0.369 A  
HETATM   13  H   UNL     2      -9.208   9.173  65.002  1.00  0.00     0.000 HD 
HETATM   14  C   UNL     2     -11.775  12.119  67.631  1.00  0.00    -0.386 A  
ENDROOT
BRANCH   4  15
HETATM   15  C   UNL     1     -10.061  15.173  65.119  1.00  0.00    -0.296 C  
BRANCH  15  16
HETATM   16  N   UNL     1     -10.116  15.929  66.398  1.00  0.00    -0.276 NA 
BRANCH  16  17
HETATM   17  C   UNL     1      -9.564  15.155  67.548  1.00  0.00    -0.207 C  
BRANCH  17  18
HETATM   18  C   UNL     1     -10.298  15.158  68.901  1.00  0.00    -0.243 C  
HETATM   19  H   UNL     1     -12.122  15.507  69.624  1.00  0.00     0.000 HD 
HETATM   20  O   UNL     1     -11.669  15.505  68.789  1.00  0.00    -0.348 OA 
ENDBRANCH  17  18
ENDBRANCH  16  17
BRANCH  16  21
HETATM   21  C   UNL     1      -9.364  17.205  66.300  1.00  0.00    -0.234 C  
BRANCH  21  22
HETATM   22  C   UNL     1     -10.097  18.498  66.720  1.00  0.00    -0.380 C  
HETATM   23  O   UNL     1     -10.614  19.163  65.568  1.00  0.00    -0.536 OA 
HETATM   24  H   UNL     1     -11.065  19.959  65.827  1.00  0.00     0.000 HD 
ENDBRANCH  21  22
ENDBRANCH  16  21
ENDBRANCH  15  16
ENDBRANCH   4  15
TORSDOF 6
ENDMDL
MODEL       12
REMARK 921   NORMALIZED FREE ENERGY PREDICTED BY IDOCK:   -5.54 KCAL/MOL
REMARK 922        TOTAL FREE ENERGY PREDICTED BY IDOCK:   -8.34 KCAL/MOL
REMARK 923 INTER-LIGAND FREE ENERGY PREDICTED BY IDOCK:   -7.55 KCAL/MOL
REMARK 924 INTRA-LIGAND FREE ENERGY PREDICTED BY IDOCK:   -0.79 KCAL/MOL
REMARK 927      BINDING AFFINITY PREDICTED BY RF-SCORE:    0.00 PKD
ROOT
HETATM    1  O   UNL     1     -11.835  16.386  70.724  1.00  0.00    -0.521 OA 
HETATM    2  H   UNL     1     -11.260  17.142  70.725  1.00  0.00     0.000 HD 
HETATM    3  O   UNL     2      -9.168  15.455  67.368  1.00  0.00    -0.192 OA 
HETATM    4  C   UNL     1     -11.461  15.381  69.788  1.00  0.00    -0.324 C  
HETATM    5  O   UNL     2      -9.468  11.536  66.183  1.00  0.00    -0.208 OA 
HETATM    6  C   UNL     2      -9.437  14.136  67.388  1.00  0.00    -0.220 C  
HETATM    7  C   UNL     2     -10.525  13.705  66.488  1.00  0.00    -0.281 A  
HETATM    8  O   UNL     2      -8.830  13.334  68.088  1.00  0.00    -0.178 OA 
HETATM    9  C   UNL     2     -12.626  12.781  64.889  1.00  0.00    -0.541 A  
HETATM   10  C   UNL     2     -10.478  12.420  65.932  1.00  0.00    -0.256 A  
HETATM   11  C   UNL     2     -11.505  11.980  65.105  1.00  0.00    -0.344 A  
HETATM   12  C   UNL     2     -11.652  14.506  66.266  1.00  0.00    -0.364 A  
HETATM   13  H   UNL     2      -9.436  10.664  65.806  1.00  0.00     0.000 HD 
HETATM   14  C   UNL     2     -12.709  14.036  65.489  1.00  0.00    -0.517 A  
ENDROOT
BRANCH   4  15
HETATM   15  C   UNL     1     -12.400  14.145  69.787  1.00  0.00    -0.299 C  
BRANCH  15  16
HETATM   16  N   UNL     1     -12.339  13.266  70.984  1.00  0.00    -0.347 NA 
BRANCH  16  17
HETATM   17  C   UNL     1     -13.431  13.548  71.961  1.00  0.00    -0.494 C  
BRANCH  17  18
HETATM   18  C   UNL     1     -13.244  14.640  73.029  1.00  0.00    -0.485 C  
HETATM   19  H   UNL     1     -13.957  16.447  73.477  1.00  0.00     0.000 HD 
HETATM   20  O   UNL     1     -14.072  15.772  72.818  1.00  0.00    -0.576 OA 
ENDBRANCH  17  18
ENDBRANCH  16  17
BRANCH  16  21
HETATM   21  C   UNL     1     -12.421  11.833  70.603  1.00  0.00    -0.274 C  
BRANCH  21  22
HETATM   22  C   UNL     1     -11.511  11.348  69.454  1.00  0.00    -0.310 C  
HETATM   23  O   UNL     1     -12.280  10.625  68.494  1.00  0.00    -0.822 OA 
HETATM   24  H   UNL     1     -11.720  10.326  67.786  1.00  0.00     0.000 HD 
ENDBRANCH  21  22
ENDBRANCH  16  21
ENDBRANCH  15  16
ENDBRANCH   4  15
TORSDOF 6
ENDMDL
MODEL       13
REMARK 921   NORMALIZED FREE ENERGY PREDICTED BY IDOCK:   -5.45 KCAL/MOL
REMARK 922        TOTAL FREE ENERGY PREDICTED BY IDOCK:   -8.22 KCAL/MOL
REMARK 923 INTER-LIGAND FREE ENERGY PREDICTED BY IDOCK:   -7.20 KCAL/MOL
REMARK 924 INTRA-LIGAND FREE ENERGY PREDICTED BY IDOCK:   -1.02 KCAL/MOL
REMARK 927      BINDING AFFINITY PREDICTED BY RF-SCORE:    0.00 PKD
ROOT
HETATM    1  O   UNL     1     -13.036  13.994  66.774  1.00  0.00    -0.299 OA 
HETATM    2  H   UNL     1     -13.576  13.844  67.540  1.00  0.00     0.000 HD 
HETATM    3  O   UNL     2     -11.025  16.500  69.761  1.00  0.00    -0.344 OA 
HETATM    4  C   UNL     1     -11.882  14.787  67.031  1.00  0.00    -0.271 C  
HETATM    5  O   UNL     2      -7.293  17.692  68.533  1.00  0.00    -0.235 OA 
HETATM    6  C   UNL     2      -9.859  16.543  69.088  1.00  0.00    -0.254 C  
HETATM    7  C   UNL     2      -9.700  17.700  68.185  1.00  0.00    -0.310 A  
HETATM    8  O   UNL     2      -8.979  15.699  69.208  1.00  0.00    -0.238 OA 
HETATM    9  C   UNL     2      -9.319  19.799  66.376  1.00  0.00    -0.488 A  
HETATM   10  C   UNL     2      -8.417  18.213  67.958  1.00  0.00    -0.262 A  
HETATM   11  C   UNL     2      -8.237  19.283  67.089  1.00  0.00    -0.292 A  
HETATM   12  C   UNL     2     -10.783  18.224  67.469  1.00  0.00    -0.381 A  
HETATM   13  H   UNL     2      -6.422  18.040  68.379  1.00  0.00     0.000 HD 
HETATM   14  C   UNL     2     -10.588  19.253  66.549  1.00  0.00    -0.538 A  
ENDROOT
BRANCH   4  15
HETATM   15  C   UNL     1     -10.998  15.032  65.778  1.00  0.00    -0.350 C  
BRANCH  15  16
HETATM   16  N   UNL     1     -10.064  13.939  65.403  1.00  0.00    -0.323 NA 
BRANCH  16  17
HETATM   17  C   UNL     1      -9.819  12.982  66.522  1.00  0.00    -0.263 C  
BRANCH  17  18
HETATM   18  C   UNL     1     -10.386  11.554  66.451  1.00  0.00    -0.237 C  
HETATM   19  H   UNL     1     -12.049  10.567  66.934  1.00  0.00     0.000 HD 
HETATM   20  O   UNL     1     -11.699  11.449  66.978  1.00  0.00    -0.535 OA 
ENDBRANCH  17  18
ENDBRANCH  16  17
BRANCH  16  21
HETATM   21  C   UNL     1     -10.577  13.168  64.243  1.00  0.00    -0.412 C  
BRANCH  21  22
HETATM   22  C   UNL     1     -12.015  13.468  63.768  1.00  0.00    -0.422 C  
HETATM   23  O   UNL     1     -12.919  12.503  64.302  1.00  0.00    -0.748 OA 
HETATM   24  H   UNL     1     -13.804  12.689  64.009  1.00  0.00     0.000 HD 
ENDBRANCH  21  22
ENDBRANCH  16  21
ENDBRANCH  15  16
ENDBRANCH   4  15
TORSDOF 6
ENDMDL
MODEL       14
REMARK 921   NORMALIZED FREE ENERGY PREDICTED BY IDOCK:   -5.45 KCAL/MOL
REMARK 922        TOTAL FREE ENERGY PREDICTED BY IDOCK:   -8.22 KCAL/MOL
REMARK 923 INTER-LIGAND FREE ENERGY PREDICTED BY IDOCK:   -7.16 KCAL/MOL
REMARK 924 INTRA-LIGAND FREE ENERGY PREDICTED BY IDOCK:   -1.06 KCAL/MOL
REMARK 927      BINDING AFFINITY PREDICTED BY RF-SCORE:    0.00 PKD
ROOT
HETATM    1  O   UNL     1      -9.739  11.156  62.412  1.00  0.00    -0.571 OA 
HETATM    2  H   UNL     1     -10.231  11.355  61.625  1.00  0.00     0.000 HD 
HETATM    3  O   UNL     2     -12.433  14.308  63.846  1.00  0.00    -0.773 OA 
HETATM    4  C   UNL     1     -10.200  11.845  63.568  1.00  0.00    -0.457 C  
HETATM    5  O   UNL     2     -12.523  14.531  67.944  1.00  0.00    -0.599 OA 
HETATM    6  C   UNL     2     -12.303  13.969  65.142  1.00  0.00    -0.453 C  
HETATM    7  C   UNL     2     -11.250  14.699  65.878  1.00  0.00    -0.336 A  
HETATM    8  O   UNL     2     -13.001  13.126  65.693  1.00  0.00    -0.435 OA 
HETATM    9  C   UNL     2      -9.231  15.951  67.354  1.00  0.00    -0.207 A  
HETATM   10  C   UNL     2     -11.423  14.941  67.247  1.00  0.00    -0.340 A  
HETATM   11  C   UNL     2     -10.434  15.599  67.968  1.00  0.00    -0.263 A  
HETATM   12  C   UNL     2     -10.043  15.055  65.266  1.00  0.00    -0.378 A  
HETATM   13  H   UNL     2     -12.640  14.695  68.873  1.00  0.00     0.000 HD 
HETATM   14  C   UNL     2      -9.028  15.657  66.008  1.00  0.00    -0.297 A  
ENDROOT
BRANCH   4  15
HETATM   15  C   UNL     1      -9.395  11.520  64.856  1.00  0.00    -0.068 C  
BRANCH  15  16
HETATM   16  N   UNL     1     -10.044  10.601  65.827  1.00  0.00    -0.256 NA 
BRANCH  16  17
HETATM   17  C   UNL     1      -9.697   9.170  65.586  1.00  0.00    -0.177 C  
BRANCH  17  18
HETATM   18  C   UNL     1      -9.583   8.196  66.772  1.00  0.00    -0.217 C  
HETATM   19  H   UNL     1     -10.743   6.972  67.834  1.00  0.00     0.000 HD 
HETATM   20  O   UNL     1     -10.814   7.574  67.101  1.00  0.00    -0.324 OA 
ENDBRANCH  17  18
ENDBRANCH  16  17
BRANCH  16  21
HETATM   21  C   UNL     1      -9.664  10.938  67.222  1.00  0.00    -0.165 C  
BRANCH  21  22
HETATM   22  C   UNL     1     -10.794  11.345  68.191  1.00  0.00    -0.213 C  
HETATM   23  O   UNL     1     -12.034  11.425  67.490  1.00  0.00    -0.626 OA 
HETATM   24  H   UNL     1     -12.730  11.676  68.087  1.00  0.00     0.000 HD 
ENDBRANCH  21  22
ENDBRANCH  16  21
ENDBRANCH  15  16
ENDBRANCH   4  15
TORSDOF 6
ENDMDL
MODEL       15
REMARK 921   NORMALIZED FREE ENERGY PREDICTED BY IDOCK:   -5.43 KCAL/MOL
REMARK 922        TOTAL FREE ENERGY PREDICTED BY IDOCK:   -8.19 KCAL/MOL
REMARK 923 INTER-LIGAND FREE ENERGY PREDICTED BY IDOCK:   -7.72 KCAL/MOL
REMARK 924 INTRA-LIGAND FREE ENERGY PREDICTED BY IDOCK:   -0.47 KCAL/MOL
REMARK 927      BINDING AFFINITY PREDICTED BY RF-SCORE:    0.00 PKD
ROOT
HETATM    1  O   UNL     1     -11.961  16.160  63.761  1.00  0.00    -1.394 OA 
HETATM    2  H   UNL     1     -12.596  16.861  63.844  1.00  0.00     0.000 HD 
HETATM    3  O   UNL     2     -10.863  17.870  67.649  1.00  0.00    -0.375 OA 
HETATM    4  C   UNL     1     -11.148  15.981  64.915  1.00  0.00    -0.370 C  
HETATM    5  O   UNL     2      -8.360  15.410  69.779  1.00  0.00    -0.285 OA 
HETATM    6  C   UNL     2     -10.213  16.767  68.064  1.00  0.00    -0.300 C  
HETATM    7  C   UNL     2      -8.761  16.756  67.793  1.00  0.00    -0.210 A  
HETATM    8  O   UNL     2     -10.765  15.833  68.634  1.00  0.00    -0.241 OA 
HETATM    9  C   UNL     2      -6.022  16.580  67.257  1.00  0.00    -0.200 A  
HETATM   10  C   UNL     2      -7.912  16.074  68.673  1.00  0.00    -0.174 A  
HETATM   11  C   UNL     2      -6.545  16.023  68.424  1.00  0.00    -0.120 A  
HETATM   12  C   UNL     2      -8.231  17.315  66.624  1.00  0.00    -0.296 A  
HETATM   13  H   UNL     2      -7.784  14.947  70.376  1.00  0.00     0.000 HD 
HETATM   14  C   UNL     2      -6.870  17.206  66.346  1.00  0.00    -0.284 A  
ENDROOT
BRANCH   4  15
HETATM   15  C   UNL     1     -10.110  14.834  64.779  1.00  0.00    -0.029 C  
BRANCH  15  16
HETATM   16  N   UNL     1     -10.507  13.514  65.334  1.00  0.00    -0.303 NA 
BRANCH  16  17
HETATM   17  C   UNL     1     -11.708  13.597  66.216  1.00  0.00    -0.367 C  
BRANCH  17  18
HETATM   18  C   UNL     1     -11.695  12.925  67.600  1.00  0.00    -0.370 C  
HETATM   19  H   UNL     1     -12.242  11.205  68.445  1.00  0.00     0.000 HD 
HETATM   20  O   UNL     1     -12.251  11.620  67.591  1.00  0.00    -0.544 OA 
ENDBRANCH  17  18
ENDBRANCH  16  17
BRANCH  16  21
HETATM   21  C   UNL     1     -10.798  12.541  64.251  1.00  0.00    -0.364 C  
BRANCH  21  22
HETATM   22  C   UNL     1     -12.163  12.656  63.538  1.00  0.00    -0.547 C  
HETATM   23  O   UNL     1     -12.467  11.437  62.863  1.00  0.00    -0.949 OA 
HETATM   24  H   UNL     1     -13.307  11.507  62.425  1.00  0.00     0.000 HD 
ENDBRANCH  21  22
ENDBRANCH  16  21
ENDBRANCH  15  16
ENDBRANCH   4  15
TORSDOF 6
ENDMDL
MODEL       16
REMARK 921   NORMALIZED FREE ENERGY PREDICTED BY IDOCK:   -5.41 KCAL/MOL
REMARK 922        TOTAL FREE ENERGY PREDICTED BY IDOCK:   -8.17 KCAL/MOL
REMARK 923 INTER-LIGAND FREE ENERGY PREDICTED BY IDOCK:   -7.48 KCAL/MOL
REMARK 924 INTRA-LIGAND FREE ENERGY PREDICTED BY IDOCK:   -0.70 KCAL/MOL
REMARK 927      BINDING AFFINITY PREDICTED BY RF-SCORE:    0.00 PKD
ROOT
HETATM    1  O   UNL     1     -12.511  14.612  68.326  1.00  0.00    -0.589 OA 
HETATM    2  H   UNL     1     -13.459  14.641  68.286  1.00  0.00     0.000 HD 
HETATM    3  O   UNL     2     -13.301  12.258  64.709  1.00  0.00    -0.631 OA 
HETATM    4  C   UNL     1     -11.907  13.979  67.204  1.00  0.00    -0.411 C  
HETATM    5  O   UNL     2      -9.915  11.680  62.460  1.00  0.00    -0.472 OA 
HETATM    6  C   UNL     2     -12.060  12.418  64.212  1.00  0.00    -0.433 C  
HETATM    7  C   UNL     2     -11.103  11.347  64.556  1.00  0.00    -0.302 A  
HETATM    8  O   UNL     2     -11.730  13.371  63.516  1.00  0.00    -0.391 OA 
HETATM    9  C   UNL     2      -9.179   9.427  65.214  1.00  0.00    -0.299 A  
HETATM   10  C   UNL     2     -10.079  11.036  63.653  1.00  0.00    -0.371 A  
HETATM   11  C   UNL     2      -9.148  10.053  63.967  1.00  0.00    -0.296 A  
HETATM   12  C   UNL     2     -11.131  10.715  65.805  1.00  0.00     0.228 A  
HETATM   13  H   UNL     2      -9.220  11.469  61.848  1.00  0.00     0.000 HD 
HETATM   14  C   UNL     2     -10.158   9.776  66.141  1.00  0.00    -0.315 A  
ENDROOT
BRANCH   4  15
HETATM   15  C   UNL     1     -10.357  13.931  67.269  1.00  0.00    -0.257 C  
BRANCH  15  16
HETATM   16  N   UNL     1      -9.641  15.186  66.918  1.00  0.00    -0.231 NA 
BRANCH  16  17
HETATM   17  C   UNL     1      -8.173  15.102  67.174  1.00  0.00    -0.221 C  
BRANCH  17  18
HETATM   18  C   UNL     1      -7.270  16.311  66.872  1.00  0.00    -0.222 C  
HETATM   19  H   UNL     1      -7.138  18.245  67.332  1.00  0.00     0.000 HD 
HETATM   20  O   UNL     1      -7.695  17.499  67.519  1.00  0.00    -0.193 OA 
ENDBRANCH  17  18
ENDBRANCH  16  17
BRANCH  16  21
HETATM   21  C   UNL     1      -9.839  15.535  65.488  1.00  0.00    -0.313 C  
BRANCH  21  22
HETATM   22  C   UNL     1     -10.826  16.677  65.164  1.00  0.00    -0.186 C  
HETATM   23  O   UNL     1     -11.473  16.426  63.918  1.00  0.00    -1.569 OA 
HETATM   24  H   UNL     1     -12.080  17.129  63.718  1.00  0.00     0.000 HD 
ENDBRANCH  21  22
ENDBRANCH  16  21
ENDBRANCH  15  16
ENDBRANCH   4  15
TORSDOF 6
ENDMDL
MODEL       17
REMARK 921   NORMALIZED FREE ENERGY PREDICTED BY IDOCK:   -5.41 KCAL/MOL
REMARK 922        TOTAL FREE ENERGY PREDICTED BY IDOCK:   -8.17 KCAL/MOL
REMARK 923 INTER-LIGAND FREE ENERGY PREDICTED BY IDOCK:   -7.64 KCAL/MOL
REMARK 924 INTRA-LIGAND FREE ENERGY PREDICTED BY IDOCK:   -0.53 KCAL/MOL
REMARK 927      BINDING AFFINITY PREDICTED BY RF-SCORE:    0.00 PKD
ROOT
HETATM    1  O   UNL     1      -8.344  13.452  67.068  1.00  0.00    -0.322 OA 
HETATM    2  H   UNL     1      -7.499  13.169  67.397  1.00  0.00     0.000 HD 
HETATM    3  O   UNL     2      -6.251  17.284  67.491  1.00  0.00    -0.137 OA 
HETATM    4  C   UNL     1      -8.416  14.846  66.791  1.00  0.00    -0.180 C  
HETATM    5  O   UNL     2      -8.185  20.336  65.542  1.00  0.00    -0.449 OA 
HETATM    6  C   UNL     2      -7.065  17.938  66.641  1.00  0.00    -0.219 C  
HETATM    7  C   UNL     2      -8.207  18.628  67.273  1.00  0.00    -0.261 A  
HETATM    8  O   UNL     2      -6.885  17.977  65.430  1.00  0.00    -0.449 OA 
HETATM    9  C   UNL     2     -10.456  19.900  68.345  1.00  0.00    -0.395 A  
HETATM   10  C   UNL     2      -8.705  19.797  66.684  1.00  0.00    -0.354 A  
HETATM   11  C   UNL     2      -9.798  20.448  67.243  1.00  0.00    -0.597 A  
HETATM   12  C   UNL     2      -8.870  18.083  68.380  1.00  0.00    -0.300 A  
HETATM   13  H   UNL     2      -8.523  21.129  65.142  1.00  0.00     0.000 HD 
HETATM   14  C   UNL     2     -10.005  18.705  68.898  1.00  0.00    -0.399 A  
ENDROOT
BRANCH   4  15
HETATM   15  C   UNL     1      -9.798  15.308  66.253  1.00  0.00    -0.294 C  
BRANCH  15  16
HETATM   16  N   UNL     1     -10.785  14.237  65.959  1.00  0.00    -0.298 NA 
BRANCH  16  17
HETATM   17  C   UNL     1     -11.992  14.311  66.834  1.00  0.00    -0.438 C  
BRANCH  17  18
HETATM   18  C   UNL     1     -11.837  14.260  68.364  1.00  0.00    -0.338 C  
HETATM   19  H   UNL     1     -11.698  15.513  69.908  1.00  0.00     0.000 HD 
HETATM   20  O   UNL     1     -11.794  15.545  68.963  1.00  0.00    -0.361 OA 
ENDBRANCH  17  18
ENDBRANCH  16  17
BRANCH  16  21
HETATM   21  C   UNL     1     -11.237  14.295  64.547  1.00  0.00    -0.322 C  
BRANCH  21  22
HETATM   22  C   UNL     1     -12.253  15.394  64.168  1.00  0.00    -0.057 C  
HETATM   23  O   UNL     1     -11.569  16.543  63.671  1.00  0.00    -1.468 OA 
HETATM   24  H   UNL     1     -12.195  17.220  63.438  1.00  0.00     0.000 HD 
ENDBRANCH  21  22
ENDBRANCH  16  21
ENDBRANCH  15  16
ENDBRANCH   4  15
TORSDOF 6
ENDMDL
MODEL       18
REMARK 921   NORMALIZED FREE ENERGY PREDICTED BY IDOCK:   -5.37 KCAL/MOL
REMARK 922        TOTAL FREE ENERGY PREDICTED BY IDOCK:   -8.11 KCAL/MOL
REMARK 923 INTER-LIGAND FREE ENERGY PREDICTED BY IDOCK:   -7.66 KCAL/MOL
REMARK 924 INTRA-LIGAND FREE ENERGY PREDICTED BY IDOCK:   -0.44 KCAL/MOL
REMARK 927      BINDING AFFINITY PREDICTED BY RF-SCORE:    0.00 PKD
ROOT
HETATM    1  O   UNL     1     -11.959  16.151  63.597  1.00  0.00    -1.375 OA 
HETATM    2  H   UNL     1     -12.256  16.802  62.973  1.00  0.00     0.000 HD 
HETATM    3  O   UNL     2     -10.364  19.836  65.364  1.00  0.00    -0.380 OA 
HETATM    4  C   UNL     1     -11.321  16.701  64.743  1.00  0.00     0.023 C  
HETATM    5  O   UNL     2      -9.135  19.295  69.244  1.00  0.00    -0.224 OA 
HETATM    6  C   UNL     2     -10.230  19.307  66.596  1.00  0.00    -0.421 C  
HETATM    7  C   UNL     2      -8.902  18.733  66.889  1.00  0.00    -0.299 A  
HETATM    8  O   UNL     2     -11.128  19.300  67.429  1.00  0.00    -0.444 OA 
HETATM    9  C   UNL     2      -6.457  17.535  67.532  1.00  0.00    -0.164 A  
HETATM   10  C   UNL     2      -8.427  18.760  68.206  1.00  0.00    -0.327 A  
HETATM   11  C   UNL     2      -7.192  18.200  68.514  1.00  0.00    -0.274 A  
HETATM   12  C   UNL     2      -8.159  18.067  65.907  1.00  0.00    -0.009 A  
HETATM   13  H   UNL     2      -8.813  19.314  70.138  1.00  0.00     0.000 HD 
HETATM   14  C   UNL     2      -6.953  17.449  66.233  1.00  0.00    -0.319 A  
ENDROOT
BRANCH   4  15
HETATM   15  C   UNL     1     -10.835  15.636  65.764  1.00  0.00    -0.306 C  
BRANCH  15  16
HETATM   16  N   UNL     1     -11.608  14.368  65.814  1.00  0.00    -0.349 NA 
BRANCH  16  17
HETATM   17  C   UNL     1     -10.909  13.240  65.129  1.00  0.00    -0.310 C  
BRANCH  17  18
HETATM   18  C   UNL     1     -11.426  12.724  63.775  1.00  0.00    -0.470 C  
HETATM   19  H   UNL     1     -12.899  13.093  62.485  1.00  0.00     0.000 HD 
HETATM   20  O   UNL     1     -12.581  13.412  63.321  1.00  0.00    -0.715 OA 
ENDBRANCH  17  18
ENDBRANCH  16  17
BRANCH  16  21
HETATM   21  C   UNL     1     -11.878  13.958  67.215  1.00  0.00    -0.407 C  
BRANCH  21  22
HETATM   22  C   UNL     1     -11.172  12.687  67.735  1.00  0.00    -0.274 C  
HETATM   23  O   UNL     1     -11.942  11.531  67.409  1.00  0.00    -0.623 OA 
HETATM   24  H   UNL     1     -11.508  10.749  67.730  1.00  0.00     0.000 HD 
ENDBRANCH  21  22
ENDBRANCH  16  21
ENDBRANCH  15  16
ENDBRANCH   4  15
TORSDOF 6
ENDMDL
MODEL       19
REMARK 921   NORMALIZED FREE ENERGY PREDICTED BY IDOCK:   -5.31 KCAL/MOL
REMARK 922        TOTAL FREE ENERGY PREDICTED BY IDOCK:   -8.03 KCAL/MOL
REMARK 923 INTER-LIGAND FREE ENERGY PREDICTED BY IDOCK:   -7.41 KCAL/MOL
REMARK 924 INTRA-LIGAND FREE ENERGY PREDICTED BY IDOCK:   -0.62 KCAL/MOL
REMARK 927      BINDING AFFINITY PREDICTED BY RF-SCORE:    0.00 PKD
ROOT
HETATM    1  O   UNL     1     -11.433  10.486  67.782  1.00  0.00    -0.546 OA 
HETATM    2  H   UNL     1     -11.064   9.784  67.260  1.00  0.00     0.000 HD 
HETATM    3  O   UNL     2     -10.426  12.604  64.075  1.00  0.00    -0.384 OA 
HETATM    4  C   UNL     1     -11.566  11.717  67.081  1.00  0.00    -0.212 C  
HETATM    5  O   UNL     2     -12.200  16.300  63.863  1.00  0.00    -1.183 OA 
HETATM    6  C   UNL     2     -11.269  13.627  64.310  1.00  0.00    -0.336 C  
HETATM    7  C   UNL     2     -10.669  14.788  64.997  1.00  0.00    -0.452 A  
HETATM    8  O   UNL     2     -12.449  13.618  63.981  1.00  0.00    -0.659 OA 
HETATM    9  C   UNL     2      -9.668  17.010  66.370  1.00  0.00    -0.310 A  
HETATM   10  C   UNL     2     -11.172  16.068  64.731  1.00  0.00    -0.339 A  
HETATM   11  C   UNL     2     -10.644  17.174  65.386  1.00  0.00    -0.116 A  
HETATM   12  C   UNL     2      -9.688  14.628  65.983  1.00  0.00    -0.340 A  
HETATM   13  H   UNL     2     -12.542  17.168  63.683  1.00  0.00     0.000 HD 
HETATM   14  C   UNL     2      -9.207  15.733  66.684  1.00  0.00    -0.283 A  
ENDROOT
BRANCH   4  15
HETATM   15  C   UNL     1     -12.170  12.864  67.936  1.00  0.00     0.024 C  
BRANCH  15  16
HETATM   16  N   UNL     1     -11.553  13.091  69.269  1.00  0.00    -0.296 NA 
BRANCH  16  17
HETATM   17  C   UNL     1     -11.243  14.528  69.523  1.00  0.00    -0.264 C  
BRANCH  17  18
HETATM   18  C   UNL     1     -11.657  15.181  70.854  1.00  0.00    -0.338 C  
HETATM   19  H   UNL     1     -13.148  16.274  71.597  1.00  0.00     0.000 HD 
HETATM   20  O   UNL     1     -12.893  15.871  70.775  1.00  0.00    -0.441 OA 
ENDBRANCH  17  18
ENDBRANCH  16  17
BRANCH  16  21
HETATM   21  C   UNL     1     -12.439  12.612  70.359  1.00  0.00    -0.143 C  
BRANCH  21  22
HETATM   22  C   UNL     1     -12.229  11.169  70.867  1.00  0.00    -0.364 C  
HETATM   23  O   UNL     1     -10.968  10.672  70.422  1.00  0.00    -0.428 OA 
HETATM   24  H   UNL     1     -10.838   9.784  70.734  1.00  0.00     0.000 HD 
ENDBRANCH  21  22
ENDBRANCH  16  21
ENDBRANCH  15  16
ENDBRANCH   4  15
TORSDOF 6
ENDMDL
MODEL       20
REMARK 921   NORMALIZED FREE ENERGY PREDICTED BY IDOCK:   -5.22 KCAL/MOL
REMARK 922        TOTAL FREE ENERGY PREDICTED BY IDOCK:   -7.92 KCAL/MOL
REMARK 923 INTER-LIGAND FREE ENERGY PREDICTED BY IDOCK:   -7.45 KCAL/MOL
REMARK 924 INTRA-LIGAND FREE ENERGY PREDICTED BY IDOCK:   -0.47 KCAL/MOL
REMARK 927      BINDING AFFINITY PREDICTED BY RF-SCORE:    0.00 PKD
ROOT
HETATM    1  O   UNL     1      -7.680  12.124  69.245  1.00  0.00    -0.333 OA 
HETATM    2  H   UNL     1      -7.960  11.538  69.938  1.00  0.00     0.000 HD 
HETATM    3  O   UNL     2     -11.866  11.414  68.142  1.00  0.00    -0.530 OA 
HETATM    4  C   UNL     1      -8.729  12.523  68.370  1.00  0.00    -0.122 C  
HETATM    5  O   UNL     2     -13.211  14.090  65.334  1.00  0.00    -0.761 OA 
HETATM    6  C   UNL     2     -11.958  12.517  67.376  1.00  0.00    -0.213 C  
HETATM    7  C   UNL     2     -11.669  12.310  65.943  1.00  0.00    -0.451 A  
HETATM    8  O   UNL     2     -12.264  13.620  67.814  1.00  0.00    -0.321 OA 
HETATM    9  C   UNL     2     -11.059  12.061  63.224  1.00  0.00    -0.400 A  
HETATM   10  C   UNL     2     -12.318  13.114  64.997  1.00  0.00    -0.459 A  
HETATM   11  C   UNL     2     -12.042  12.959  63.643  1.00  0.00    -0.611 A  
HETATM   12  C   UNL     2     -10.686  11.409  65.517  1.00  0.00    -0.313 A  
HETATM   13  H   UNL     2     -13.651  14.636  64.692  1.00  0.00     0.000 HD 
HETATM   14  C   UNL     2     -10.366  11.303  64.165  1.00  0.00    -0.410 A  
ENDROOT
BRANCH   4  15
HETATM   15  C   UNL     1      -8.272  13.482  67.238  1.00  0.00    -0.154 C  
BRANCH  15  16
HETATM   16  N   UNL     1      -8.033  14.897  67.625  1.00  0.00    -0.154 NA 
BRANCH  16  17
HETATM   17  C   UNL     1      -8.820  15.860  66.801  1.00  0.00    -0.262 C  
BRANCH  17  18
HETATM   18  C   UNL     1      -9.688  15.347  65.638  1.00  0.00    -0.331 C  
HETATM   19  H   UNL     1     -11.016  16.046  64.326  1.00  0.00     0.000 HD 
HETATM   20  O   UNL     1     -10.480  16.363  65.044  1.00  0.00    -0.642 OA 
ENDBRANCH  17  18
ENDBRANCH  16  17
BRANCH  16  21
HETATM   21  C   UNL     1      -8.374  15.128  69.052  1.00  0.00    -0.209 C  
BRANCH  21  22
HETATM   22  C   UNL     1      -9.710  15.838  69.360  1.00  0.00    -0.286 C  
HETATM   23  O   UNL     1     -10.316  15.260  70.515  1.00  0.00    -0.488 OA 
HETATM   24  H   UNL     1     -11.139  15.697  70.704  1.00  0.00     0.000 HD 
ENDBRANCH  21  22
ENDBRANCH  16  21
ENDBRANCH  15  16
ENDBRANCH   4  15
TORSDOF 6
ENDMDL
MODEL       21
REMARK 921   NORMALIZED FREE ENERGY PREDICTED BY IDOCK:   -5.20 KCAL/MOL
REMARK 922        TOTAL FREE ENERGY PREDICTED BY IDOCK:   -7.89 KCAL/MOL
REMARK 923 INTER-LIGAND FREE ENERGY PREDICTED BY IDOCK:   -7.20 KCAL/MOL
REMARK 924 INTRA-LIGAND FREE ENERGY PREDICTED BY IDOCK:   -0.69 KCAL/MOL
REMARK 927      BINDING AFFINITY PREDICTED BY RF-SCORE:    0.00 PKD
ROOT
HETATM    1  O   UNL     1     -12.034  13.865  66.041  1.00  0.00    -0.369 OA 
HETATM    2  H   UNL     1     -12.413  14.084  65.198  1.00  0.00     0.000 HD 
HETATM    3  O   UNL     2     -10.560  17.956  65.461  1.00  0.00    -0.638 OA 
HETATM    4  C   UNL     1     -11.357  14.950  66.665  1.00  0.00    -0.326 C  
HETATM    5  O   UNL     2      -9.044  19.568  68.919  1.00  0.00    -0.367 OA 
HETATM    6  C   UNL     2     -10.311  18.160  66.769  1.00  0.00    -0.365 C  
HETATM    7  C   UNL     2      -8.933  17.851  67.200  1.00  0.00    -0.252 A  
HETATM    8  O   UNL     2     -11.150  18.578  67.558  1.00  0.00    -0.284 OA 
HETATM    9  C   UNL     2      -6.381  17.219  68.153  1.00  0.00    -0.155 A  
HETATM   10  C   UNL     2      -8.374  18.579  68.258  1.00  0.00    -0.322 A  
HETATM   11  C   UNL     2      -7.089  18.288  68.702  1.00  0.00    -0.285 A  
HETATM   12  C   UNL     2      -8.217  16.781  66.651  1.00  0.00    -0.296 A  
HETATM   13  H   UNL     2      -8.664  20.062  69.637  1.00  0.00     0.000 HD 
HETATM   14  C   UNL     2      -6.955  16.451  67.143  1.00  0.00    -0.239 A  
ENDROOT
BRANCH   4  15
HETATM   15  C   UNL     1     -10.739  14.593  68.044  1.00  0.00    -0.246 C  
BRANCH  15  16
HETATM   16  N   UNL     1     -11.696  14.334  69.151  1.00  0.00    -0.299 NA 
BRANCH  16  17
HETATM   17  C   UNL     1     -11.745  12.896  69.545  1.00  0.00    -0.323 C  
BRANCH  17  18
HETATM   18  C   UNL     1     -11.051  11.835  68.673  1.00  0.00    -0.238 C  
HETATM   19  H   UNL     1     -11.486  10.600  67.170  1.00  0.00     0.000 HD 
HETATM   20  O   UNL     1     -11.915  11.255  67.708  1.00  0.00    -0.637 OA 
ENDBRANCH  17  18
ENDBRANCH  16  17
BRANCH  16  21
HETATM   21  C   UNL     1     -11.352  15.129  70.356  1.00  0.00    -0.290 C  
BRANCH  21  22
HETATM   22  C   UNL     1     -12.515  15.770  71.144  1.00  0.00    -0.436 C  
HETATM   23  O   UNL     1     -13.752  15.524  70.478  1.00  0.00    -0.837 OA 
HETATM   24  H   UNL     1     -14.467  15.919  70.963  1.00  0.00     0.000 HD 
ENDBRANCH  21  22
ENDBRANCH  16  21
ENDBRANCH  15  16
ENDBRANCH   4  15
TORSDOF 6
ENDMDL
MODEL       22
REMARK 921   NORMALIZED FREE ENERGY PREDICTED BY IDOCK:   -5.20 KCAL/MOL
REMARK 922        TOTAL FREE ENERGY PREDICTED BY IDOCK:   -7.88 KCAL/MOL
REMARK 923 INTER-LIGAND FREE ENERGY PREDICTED BY IDOCK:   -7.04 KCAL/MOL
REMARK 924 INTRA-LIGAND FREE ENERGY PREDICTED BY IDOCK:   -0.85 KCAL/MOL
REMARK 927      BINDING AFFINITY PREDICTED BY RF-SCORE:    0.00 PKD
ROOT
HETATM    1  O   UNL     1     -11.902  16.130  63.590  1.00  0.00    -1.370 OA 
HETATM    2  H   UNL     1     -12.122  16.757  62.912  1.00  0.00     0.000 HD 
HETATM    3  O   UNL     2     -10.142  19.809  65.206  1.00  0.00    -0.192 OA 
HETATM    4  C   UNL     1     -11.283  16.711  64.732  1.00  0.00    -0.066 C  
HETATM    5  O   UNL     2      -9.145  19.445  69.172  1.00  0.00    -0.315 OA 
HETATM    6  C   UNL     2     -10.105  19.355  66.473  1.00  0.00    -0.422 C  
HETATM    7  C   UNL     2      -8.837  18.714  66.873  1.00  0.00    -0.289 A  
HETATM    8  O   UNL     2     -11.042  19.463  67.256  1.00  0.00    -0.458 OA 
HETATM    9  C   UNL     2      -6.516  17.402  67.718  1.00  0.00    -0.160 A  
HETATM   10  C   UNL     2      -8.425  18.797  68.209  1.00  0.00    -0.327 A  
HETATM   11  C   UNL     2      -7.250  18.177  68.616  1.00  0.00    -0.288 A  
HETATM   12  C   UNL     2      -8.095  17.937  65.975  1.00  0.00    -0.130 A  
HETATM   13  H   UNL     2      -8.866  19.501  70.078  1.00  0.00     0.000 HD 
HETATM   14  C   UNL     2      -6.952  17.263  66.403  1.00  0.00    -0.310 A  
ENDROOT
BRANCH   4  15
HETATM   15  C   UNL     1     -10.924  15.686  65.842  1.00  0.00    -0.231 C  
BRANCH  15  16
HETATM   16  N   UNL     1      -9.976  14.605  65.462  1.00  0.00    -0.361 NA 
BRANCH  16  17
HETATM   17  C   UNL     1      -9.162  14.122  66.615  1.00  0.00    -0.252 C  
BRANCH  17  18
HETATM   18  C   UNL     1      -9.651  14.359  68.055  1.00  0.00    -0.216 C  
HETATM   19  H   UNL     1     -10.585  13.369  69.511  1.00  0.00     0.000 HD 
HETATM   20  O   UNL     1     -10.283  13.223  68.622  1.00  0.00    -0.232 OA 
ENDBRANCH  17  18
ENDBRANCH  16  17
BRANCH  16  21
HETATM   21  C   UNL     1     -10.693  13.440  64.885  1.00  0.00    -0.369 C  
BRANCH  21  22
HETATM   22  C   UNL     1     -12.129  13.168  65.385  1.00  0.00    -0.433 C  
HETATM   23  O   UNL     1     -12.104  12.234  66.462  1.00  0.00    -0.616 OA 
HETATM   24  H   UNL     1     -12.987  12.067  66.769  1.00  0.00     0.000 HD 
ENDBRANCH  21  22
ENDBRANCH  16  21
ENDBRANCH  15  16
ENDBRANCH   4  15
TORSDOF 6
ENDMDL
MODEL       23
REMARK 921   NORMALIZED FREE ENERGY PREDICTED BY IDOCK:   -5.20 KCAL/MOL
REMARK 922        TOTAL FREE ENERGY PREDICTED BY IDOCK:   -7.88 KCAL/MOL
REMARK 923 INTER-LIGAND FREE ENERGY PREDICTED BY IDOCK:   -7.31 KCAL/MOL
REMARK 924 INTRA-LIGAND FREE ENERGY PREDICTED BY IDOCK:   -0.58 KCAL/MOL
REMARK 927      BINDING AFFINITY PREDICTED BY RF-SCORE:    0.00 PKD
ROOT
HETATM    1  O   UNL     1      -9.494  14.608  69.357  1.00  0.00    -0.401 OA 
HETATM    2  H   UNL     1     -10.146  14.393  70.014  1.00  0.00     0.000 HD 
HETATM    3  O   UNL     2     -12.390  12.316  66.989  1.00  0.00    -0.393 OA 
HETATM    4  C   UNL     1      -9.853  14.210  68.039  1.00  0.00    -0.223 C  
HETATM    5  O   UNL     2     -11.785  12.746  62.951  1.00  0.00    -0.762 OA 
HETATM    6  C   UNL     2     -11.975  12.816  65.810  1.00  0.00    -0.449 C  
HETATM    7  C   UNL     2     -10.949  12.013  65.115  1.00  0.00    -0.359 A  
HETATM    8  O   UNL     2     -12.408  13.856  65.328  1.00  0.00    -0.413 OA 
HETATM    9  C   UNL     2      -8.945  10.623  63.745  1.00  0.00    -0.208 A  
HETATM   10  C   UNL     2     -10.914  12.023  63.715  1.00  0.00    -0.426 A  
HETATM   11  C   UNL     2      -9.940  11.298  63.037  1.00  0.00    -0.345 A  
HETATM   12  C   UNL     2      -9.950  11.332  65.821  1.00  0.00    -0.281 A  
HETATM   13  H   UNL     2     -11.760  12.753  62.001  1.00  0.00     0.000 HD 
HETATM   14  C   UNL     2      -8.938  10.660  65.138  1.00  0.00    -0.217 A  
ENDROOT
BRANCH   4  15
HETATM   15  C   UNL     1      -8.788  14.561  66.965  1.00  0.00    -0.237 C  
BRANCH  15  16
HETATM   16  N   UNL     1      -8.919  15.890  66.314  1.00  0.00    -0.322 NA 
BRANCH  16  17
HETATM   17  C   UNL     1     -10.321  16.401  66.325  1.00  0.00    -0.329 C  
BRANCH  17  18
HETATM   18  C   UNL     1     -10.779  17.413  65.261  1.00  0.00     0.037 C  
HETATM   19  H   UNL     1     -11.598  17.422  63.444  1.00  0.00     0.000 HD 
HETATM   20  O   UNL     1     -11.315  16.797  64.101  1.00  0.00    -1.194 OA 
ENDBRANCH  17  18
ENDBRANCH  16  17
BRANCH  16  21
HETATM   21  C   UNL     1      -8.056  16.901  66.975  1.00  0.00    -0.198 C  
BRANCH  21  22
HETATM   22  C   UNL     1      -6.797  17.371  66.214  1.00  0.00    -0.272 C  
HETATM   23  O   UNL     1      -5.696  16.516  66.513  1.00  0.00    -0.314 OA 
HETATM   24  H   UNL     1      -4.921  16.806  66.045  1.00  0.00     0.000 HD 
ENDBRANCH  21  22
ENDBRANCH  16  21
ENDBRANCH  15  16
ENDBRANCH   4  15
TORSDOF 6
ENDMDL
MODEL       24
REMARK 921   NORMALIZED FREE ENERGY PREDICTED BY IDOCK:   -5.09 KCAL/MOL
REMARK 922        TOTAL FREE ENERGY PREDICTED BY IDOCK:   -7.74 KCAL/MOL
REMARK 923 INTER-LIGAND FREE ENERGY PREDICTED BY IDOCK:   -7.35 KCAL/MOL
REMARK 924 INTRA-LIGAND FREE ENERGY PREDICTED BY IDOCK:   -0.39 KCAL/MOL
REMARK 927      BINDING AFFINITY PREDICTED BY RF-SCORE:    0.00 PKD
ROOT
HETATM    1  O   UNL     1     -12.615  15.383  69.842  1.00  0.00    -0.578 OA 
HETATM    2  H   UNL     1     -13.384  14.939  70.178  1.00  0.00     0.000 HD 
HETATM    3  O   UNL     2     -12.285  11.472  67.883  1.00  0.00    -0.586 OA 
HETATM    4  C   UNL     1     -11.903  14.637  68.861  1.00  0.00    -0.309 C  
HETATM    5  O   UNL     2      -9.561  11.495  64.811  1.00  0.00    -0.281 OA 
HETATM    6  C   UNL     2     -11.468  11.916  66.908  1.00  0.00    -0.322 C  
HETATM    7  C   UNL     2     -10.025  11.767  67.183  1.00  0.00    -0.221 A  
HETATM    8  O   UNL     2     -11.873  12.403  65.859  1.00  0.00    -0.418 OA 
HETATM    9  C   UNL     2      -7.268  11.619  67.626  1.00  0.00    -0.107 A  
HETATM   10  C   UNL     2      -9.148  11.563  66.111  1.00  0.00    -0.209 A  
HETATM   11  C   UNL     2      -7.781  11.449  66.340  1.00  0.00    -0.051 A  
HETATM   12  C   UNL     2      -9.505  11.934  68.472  1.00  0.00    -0.151 A  
HETATM   13  H   UNL     2      -8.965  11.357  64.083  1.00  0.00     0.000 HD 
HETATM   14  C   UNL     2      -8.129  11.884  68.688  1.00  0.00    -0.086 A  
ENDROOT
BRANCH   4  15
HETATM   15  C   UNL     1     -10.645  15.363  68.312  1.00  0.00    -0.253 C  
BRANCH  15  16
HETATM   16  N   UNL     1     -10.887  16.461  67.339  1.00  0.00    -0.269 NA 
BRANCH  16  17
HETATM   17  C   UNL     1     -10.310  17.763  67.786  1.00  0.00    -0.380 C  
BRANCH  17  18
HETATM   18  C   UNL     1     -10.869  19.084  67.229  1.00  0.00    -0.408 C  
HETATM   19  H   UNL     1     -10.539  21.044  67.381  1.00  0.00     0.000 HD 
HETATM   20  O   UNL     1     -10.193  20.228  67.725  1.00  0.00    -0.389 OA 
ENDBRANCH  17  18
ENDBRANCH  16  17
BRANCH  16  21
HETATM   21  C   UNL     1     -10.313  16.137  66.009  1.00  0.00    -0.358 C  
BRANCH  21  22
HETATM   22  C   UNL     1     -11.278  15.604  64.928  1.00  0.00    -0.369 C  
HETATM   23  O   UNL     1     -11.452  16.580  63.903  1.00  0.00    -1.608 OA 
HETATM   24  H   UNL     1     -12.046  16.251  63.237  1.00  0.00     0.000 HD 
ENDBRANCH  21  22
ENDBRANCH  16  21
ENDBRANCH  15  16
ENDBRANCH   4  15
TORSDOF 6
ENDMDL
MODEL       25
REMARK 921   NORMALIZED FREE ENERGY PREDICTED BY IDOCK:   -5.09 KCAL/MOL
REMARK 922        TOTAL FREE ENERGY PREDICTED BY IDOCK:   -7.73 KCAL/MOL
REMARK 923 INTER-LIGAND FREE ENERGY PREDICTED BY IDOCK:   -7.03 KCAL/MOL
REMARK 924 INTRA-LIGAND FREE ENERGY PREDICTED BY IDOCK:   -0.70 KCAL/MOL
REMARK 927      BINDING AFFINITY PREDICTED BY RF-SCORE:    0.00 PKD
ROOT
HETATM    1  O   UNL     1     -12.469  15.714  69.462  1.00  0.00    -0.571 OA 
HETATM    2  H   UNL     1     -13.390  15.927  69.374  1.00  0.00     0.000 HD 
HETATM    3  O   UNL     2     -13.406  13.915  65.573  1.00  0.00    -0.662 OA 
HETATM    4  C   UNL     1     -11.910  15.089  68.312  1.00  0.00    -0.268 C  
HETATM    5  O   UNL     2     -10.027  12.923  63.462  1.00  0.00    -0.681 OA 
HETATM    6  C   UNL     2     -12.124  13.883  65.164  1.00  0.00    -0.403 C  
HETATM    7  C   UNL     2     -11.408  12.622  65.441  1.00  0.00    -0.348 A  
HETATM    8  O   UNL     2     -11.574  14.819  64.595  1.00  0.00    -0.400 OA 
HETATM    9  C   UNL     2      -9.924  10.316  65.990  1.00  0.00    -0.308 A  
HETATM   10  C   UNL     2     -10.394  12.211  64.567  1.00  0.00    -0.304 A  
HETATM   11  C   UNL     2      -9.686  11.042  64.822  1.00  0.00    -0.311 A  
HETATM   12  C   UNL     2     -11.645  11.889  66.610  1.00  0.00    -0.337 A  
HETATM   13  H   UNL     2      -9.339  12.644  62.869  1.00  0.00     0.000 HD 
HETATM   14  C   UNL     2     -10.888  10.753  66.895  1.00  0.00    -0.288 A  
ENDROOT
BRANCH   4  15
HETATM   15  C   UNL     1     -10.403  14.741  68.456  1.00  0.00    -0.237 C  
BRANCH  15  16
HETATM   16  N   UNL     1      -9.440  15.812  68.091  1.00  0.00    -0.198 NA 
BRANCH  16  17
HETATM   17  C   UNL     1     -10.108  17.115  67.802  1.00  0.00    -0.306 C  
BRANCH  17  18
HETATM   18  C   UNL     1      -9.634  17.977  66.619  1.00  0.00    -0.315 C  
HETATM   19  H   UNL     1      -8.274  17.921  65.164  1.00  0.00     0.000 HD 
HETATM   20  O   UNL     1      -8.567  17.388  65.894  1.00  0.00    -0.525 OA 
ENDBRANCH  17  18
ENDBRANCH  16  17
BRANCH  16  21
HETATM   21  C   UNL     1      -8.448  16.034  69.174  1.00  0.00    -0.247 C  
BRANCH  21  22
HETATM   22  C   UNL     1      -6.958  15.819  68.831  1.00  0.00    -0.135 C  
HETATM   23  O   UNL     1      -6.815  15.499  67.448  1.00  0.00    -0.182 OA 
HETATM   24  H   UNL     1      -5.898  15.366  67.237  1.00  0.00     0.000 HD 
ENDBRANCH  21  22
ENDBRANCH  16  21
ENDBRANCH  15  16
ENDBRANCH   4  15
TORSDOF 6
ENDMDL
MODEL       26
REMARK 921   NORMALIZED FREE ENERGY PREDICTED BY IDOCK:   -5.07 KCAL/MOL
REMARK 922        TOTAL FREE ENERGY PREDICTED BY IDOCK:   -7.71 KCAL/MOL
REMARK 923 INTER-LIGAND FREE ENERGY PREDICTED BY IDOCK:   -6.95 KCAL/MOL
REMARK 924 INTRA-LIGAND FREE ENERGY PREDICTED BY IDOCK:   -0.76 KCAL/MOL
REMARK 927      BINDING AFFINITY PREDICTED BY RF-SCORE:    0.00 PKD
ROOT
HETATM    1  O   UNL     1      -9.595  11.071  62.484  1.00  0.00    -0.528 OA 
HETATM    2  H   UNL     1     -10.013  11.312  61.667  1.00  0.00     0.000 HD 
HETATM    3  O   UNL     2     -12.330  14.236  63.807  1.00  0.00    -0.735 OA 
HETATM    4  C   UNL     1     -10.138  11.729  63.623  1.00  0.00    -0.418 C  
HETATM    5  O   UNL     2     -12.767  14.309  67.889  1.00  0.00    -0.294 OA 
HETATM    6  C   UNL     2     -12.319  13.846  65.096  1.00  0.00    -0.449 C  
HETATM    7  C   UNL     2     -11.318  14.520  65.946  1.00  0.00    -0.341 A  
HETATM    8  O   UNL     2     -13.081  13.002  65.552  1.00  0.00    -0.494 OA 
HETATM    9  C   UNL     2      -9.405  15.664  67.636  1.00  0.00    -0.206 A  
HETATM   10  C   UNL     2     -11.601  14.715  67.304  1.00  0.00    -0.387 A  
HETATM   11  C   UNL     2     -10.663  15.321  68.132  1.00  0.00    -0.257 A  
HETATM   12  C   UNL     2     -10.055  14.868  65.453  1.00  0.00    -0.400 A  
HETATM   13  H   UNL     2     -12.959  14.441  68.810  1.00  0.00     0.000 HD 
HETATM   14  C   UNL     2      -9.093  15.415  66.302  1.00  0.00    -0.355 A  
ENDROOT
BRANCH   4  15
HETATM   15  C   UNL     1      -9.454  11.335  64.961  1.00  0.00    -0.209 C  
BRANCH  15  16
HETATM   16  N   UNL     1     -10.284  10.570  65.928  1.00  0.00    -0.256 NA 
BRANCH  16  17
HETATM   17  C   UNL     1      -9.819   9.162  66.098  1.00  0.00    -0.293 C  
BRANCH  17  18
HETATM   18  C   UNL     1     -10.323   8.324  67.286  1.00  0.00    -0.302 C  
HETATM   19  H   UNL     1     -11.110   6.527  67.636  1.00  0.00     0.000 HD 
HETATM   20  O   UNL     1     -10.798   7.044  66.902  1.00  0.00    -0.354 OA 
ENDBRANCH  17  18
ENDBRANCH  16  17
BRANCH  16  21
HETATM   21  C   UNL     1     -10.287  11.218  67.263  1.00  0.00    -0.201 C  
BRANCH  21  22
HETATM   22  C   UNL     1      -8.920  11.593  67.877  1.00  0.00    -0.170 C  
HETATM   23  O   UNL     1      -8.748  10.933  69.129  1.00  0.00    -0.302 OA 
HETATM   24  H   UNL     1      -7.907  11.164  69.506  1.00  0.00     0.000 HD 
ENDBRANCH  21  22
ENDBRANCH  16  21
ENDBRANCH  15  16
ENDBRANCH   4  15
TORSDOF 6
ENDMDL
MODEL       27
REMARK 921   NORMALIZED FREE ENERGY PREDICTED BY IDOCK:   -4.99 KCAL/MOL
REMARK 922        TOTAL FREE ENERGY PREDICTED BY IDOCK:   -7.60 KCAL/MOL
REMARK 923 INTER-LIGAND FREE ENERGY PREDICTED BY IDOCK:   -6.92 KCAL/MOL
REMARK 924 INTRA-LIGAND FREE ENERGY PREDICTED BY IDOCK:   -0.69 KCAL/MOL
REMARK 927      BINDING AFFINITY PREDICTED BY RF-SCORE:    0.00 PKD
ROOT
HETATM    1  O   UNL     1     -10.295  11.154  62.442  1.00  0.00    -0.438 OA 
HETATM    2  H   UNL     1     -10.717  11.472  61.653  1.00  0.00     0.000 HD 
HETATM    3  O   UNL     2     -12.364  14.719  63.943  1.00  0.00    -0.728 OA 
HETATM    4  C   UNL     1     -10.645  11.880  63.615  1.00  0.00    -0.446 C  
HETATM    5  O   UNL     2     -12.522  14.815  68.044  1.00  0.00    -0.571 OA 
HETATM    6  C   UNL     2     -12.338  14.318  65.228  1.00  0.00    -0.424 C  
HETATM    7  C   UNL     2     -11.185  14.802  66.012  1.00  0.00    -0.341 A  
HETATM    8  O   UNL     2     -13.202  13.609  65.731  1.00  0.00    -0.392 OA 
HETATM    9  C   UNL     2      -9.002  15.585  67.577  1.00  0.00    -0.196 A  
HETATM   10  C   UNL     2     -11.344  15.026  67.386  1.00  0.00    -0.332 A  
HETATM   11  C   UNL     2     -10.266  15.454  68.152  1.00  0.00    -0.230 A  
HETATM   12  C   UNL     2      -9.915  14.937  65.439  1.00  0.00    -0.367 A  
HETATM   13  H   UNL     2     -12.630  14.967  68.976  1.00  0.00     0.000 HD 
HETATM   14  C   UNL     2      -8.823  15.304  66.224  1.00  0.00    -0.262 A  
ENDROOT
BRANCH   4  15
HETATM   15  C   UNL     1      -9.954  11.360  64.904  1.00  0.00    -0.265 C  
BRANCH  15  16
HETATM   16  N   UNL     1      -9.965   9.888  65.113  1.00  0.00    -0.292 NA 
BRANCH  16  17
HETATM   17  C   UNL     1      -8.675   9.243  64.729  1.00  0.00    -0.188 C  
BRANCH  17  18
HETATM   18  C   UNL     1      -7.552  10.085  64.098  1.00  0.00    -0.140 C  
HETATM   19  H   UNL     1      -6.884  10.593  62.290  1.00  0.00     0.000 HD 
HETATM   20  O   UNL     1      -7.577  10.073  62.680  1.00  0.00    -0.121 OA 
ENDBRANCH  17  18
ENDBRANCH  16  17
BRANCH  16  21
HETATM   21  C   UNL     1     -10.244   9.548  66.531  1.00  0.00    -0.237 C  
BRANCH  21  22
HETATM   22  C   UNL     1     -10.571  10.712  67.491  1.00  0.00    -0.252 C  
HETATM   23  O   UNL     1     -11.979  10.785  67.711  1.00  0.00    -0.692 OA 
HETATM   24  H   UNL     1     -12.180  11.501  68.302  1.00  0.00     0.000 HD 
ENDBRANCH  21  22
ENDBRANCH  16  21
ENDBRANCH  15  16
ENDBRANCH   4  15
TORSDOF 6
ENDMDL
MODEL       28
REMARK 921   NORMALIZED FREE ENERGY PREDICTED BY IDOCK:   -4.95 KCAL/MOL
REMARK 922        TOTAL FREE ENERGY PREDICTED BY IDOCK:   -7.54 KCAL/MOL
REMARK 923 INTER-LIGAND FREE ENERGY PREDICTED BY IDOCK:   -7.03 KCAL/MOL
REMARK 924 INTRA-LIGAND FREE ENERGY PREDICTED BY IDOCK:   -0.51 KCAL/MOL
REMARK 927      BINDING AFFINITY PREDICTED BY RF-SCORE:    0.00 PKD
ROOT
HETATM    1  O   UNL     1     -12.604  14.631  68.065  1.00  0.00    -0.457 OA 
HETATM    2  H   UNL     1     -13.546  14.667  67.947  1.00  0.00     0.000 HD 
HETATM    3  O   UNL     2     -13.122  12.205  64.447  1.00  0.00    -0.740 OA 
HETATM    4  C   UNL     1     -11.918  13.968  67.009  1.00  0.00    -0.438 C  
HETATM    5  O   UNL     2      -9.571  11.548  62.493  1.00  0.00    -0.509 OA 
HETATM    6  C   UNL     2     -11.843  12.343  64.048  1.00  0.00    -0.439 C  
HETATM    7  C   UNL     2     -10.929  11.272  64.492  1.00  0.00    -0.301 A  
HETATM    8  O   UNL     2     -11.448  13.278  63.361  1.00  0.00    -0.278 OA 
HETATM    9  C   UNL     2      -9.084   9.350  65.345  1.00  0.00    -0.280 A  
HETATM   10  C   UNL     2      -9.837  10.933  63.683  1.00  0.00    -0.351 A  
HETATM   11  C   UNL     2      -8.945   9.948  64.092  1.00  0.00    -0.274 A  
HETATM   12  C   UNL     2     -11.065  10.668  65.748  1.00  0.00     0.228 A  
HETATM   13  H   UNL     2      -8.830  11.318  61.944  1.00  0.00     0.000 HD 
HETATM   14  C   UNL     2     -10.131   9.728  66.182  1.00  0.00    -0.315 A  
ENDROOT
BRANCH   4  15
HETATM   15  C   UNL     1     -10.378  13.909  67.201  1.00  0.00    -0.265 C  
BRANCH  15  16
HETATM   16  N   UNL     1      -9.610  15.101  66.757  1.00  0.00    -0.234 NA 
BRANCH  16  17
HETATM   17  C   UNL     1      -9.989  15.552  65.385  1.00  0.00    -0.304 C  
BRANCH  17  18
HETATM   18  C   UNL     1     -10.928  16.758  65.205  1.00  0.00    -0.100 C  
HETATM   19  H   UNL     1     -12.267  17.442  63.896  1.00  0.00     0.000 HD 
HETATM   20  O   UNL     1     -11.687  16.698  64.008  1.00  0.00    -1.143 OA 
ENDBRANCH  17  18
ENDBRANCH  16  17
BRANCH  16  21
HETATM   21  C   UNL     1      -9.804  16.242  67.686  1.00  0.00    -0.238 C  
BRANCH  21  22
HETATM   22  C   UNL     1      -9.832  15.933  69.198  1.00  0.00    -0.247 C  
HETATM   23  O   UNL     1     -10.996  16.505  69.793  1.00  0.00    -0.344 OA 
HETATM   24  H   UNL     1     -11.014  16.315  70.724  1.00  0.00     0.000 HD 
ENDBRANCH  21  22
ENDBRANCH  16  21
ENDBRANCH  15  16
ENDBRANCH   4  15
TORSDOF 6
ENDMDL
MODEL       29
REMARK 921   NORMALIZED FREE ENERGY PREDICTED BY IDOCK:   -4.95 KCAL/MOL
REMARK 922        TOTAL FREE ENERGY PREDICTED BY IDOCK:   -7.54 KCAL/MOL
REMARK 923 INTER-LIGAND FREE ENERGY PREDICTED BY IDOCK:   -6.83 KCAL/MOL
REMARK 924 INTRA-LIGAND FREE ENERGY PREDICTED BY IDOCK:   -0.71 KCAL/MOL
REMARK 927      BINDING AFFINITY PREDICTED BY RF-SCORE:    0.00 PKD
ROOT
HETATM    1  O   UNL     1     -10.904  11.921  62.895  1.00  0.00    -0.650 OA 
HETATM    2  H   UNL     1     -10.266  11.661  62.241  1.00  0.00     0.000 HD 
HETATM    3  O   UNL     2      -7.669  10.351  65.409  1.00  0.00    -0.144 OA 
HETATM    4  C   UNL     1     -10.440  11.788  64.234  1.00  0.00    -0.325 C  
HETATM    5  O   UNL     2      -8.117  11.399  69.354  1.00  0.00    -0.363 OA 
HETATM    6  C   UNL     2      -8.077  11.002  66.516  1.00  0.00    -0.161 C  
HETATM    7  C   UNL     2      -8.976  10.233  67.399  1.00  0.00    -0.141 A  
HETATM    8  O   UNL     2      -7.732  12.145  66.791  1.00  0.00    -0.093 OA 
HETATM    9  C   UNL     2     -10.753   8.911  69.107  1.00  0.00    -0.162 A  
HETATM   10  C   UNL     2      -8.944  10.477  68.778  1.00  0.00    -0.166 A  
HETATM   11  C   UNL     2      -9.801   9.788  69.628  1.00  0.00    -0.241 A  
HETATM   12  C   UNL     2      -9.931   9.351  66.882  1.00  0.00    -0.293 A  
HETATM   13  H   UNL     2      -8.095  11.565  70.289  1.00  0.00     0.000 HD 
HETATM   14  C   UNL     2     -10.833   8.711  67.731  1.00  0.00    -0.075 A  
ENDROOT
BRANCH   4  15
HETATM   15  C   UNL     1     -11.483  12.213  65.304  1.00  0.00    -0.336 C  
BRANCH  15  16
HETATM   16  N   UNL     1     -11.732  13.671  65.442  1.00  0.00    -0.322 NA 
BRANCH  16  17
HETATM   17  C   UNL     1     -12.126  14.059  66.828  1.00  0.00    -0.447 C  
BRANCH  17  18
HETATM   18  C   UNL     1     -11.828  13.114  68.005  1.00  0.00    -0.358 C  
HETATM   19  H   UNL     1     -10.384  12.775  69.336  1.00  0.00     0.000 HD 
HETATM   20  O   UNL     1     -10.568  13.359  68.610  1.00  0.00    -0.245 OA 
ENDBRANCH  17  18
ENDBRANCH  16  17
BRANCH  16  21
HETATM   21  C   UNL     1     -10.531  14.460  65.068  1.00  0.00    -0.430 C  
BRANCH  21  22
HETATM   22  C   UNL     1     -10.653  15.999  65.090  1.00  0.00    -0.370 C  
HETATM   23  O   UNL     1     -11.310  16.455  63.909  1.00  0.00    -1.510 OA 
HETATM   24  H   UNL     1     -11.385  17.403  63.924  1.00  0.00     0.000 HD 
ENDBRANCH  21  22
ENDBRANCH  16  21
ENDBRANCH  15  16
ENDBRANCH   4  15
TORSDOF 6
ENDMDL
MODEL       30
REMARK 921   NORMALIZED FREE ENERGY PREDICTED BY IDOCK:   -4.94 KCAL/MOL
REMARK 922        TOTAL FREE ENERGY PREDICTED BY IDOCK:   -7.54 KCAL/MOL
REMARK 923 INTER-LIGAND FREE ENERGY PREDICTED BY IDOCK:   -7.12 KCAL/MOL
REMARK 924 INTRA-LIGAND FREE ENERGY PREDICTED BY IDOCK:   -0.41 KCAL/MOL
REMARK 927      BINDING AFFINITY PREDICTED BY RF-SCORE:    0.00 PKD
ROOT
HETATM    1  O   UNL     1      -9.433  10.676  69.585  1.00  0.00    -0.414 OA 
HETATM    2  H   UNL     1      -8.498  10.514  69.599  1.00  0.00     0.000 HD 
HETATM    3  O   UNL     2      -8.400  11.205  65.355  1.00  0.00    -0.059 OA 
HETATM    4  C   UNL     1      -9.966  10.859  68.279  1.00  0.00    -0.175 C  
HETATM    5  O   UNL     2     -11.715  11.223  62.934  1.00  0.00    -0.842 OA 
HETATM    6  C   UNL     2      -9.658  11.011  64.918  1.00  0.00    -0.245 C  
HETATM    7  C   UNL     2     -10.461  12.239  64.753  1.00  0.00    -0.328 A  
HETATM    8  O   UNL     2     -10.121   9.905  64.664  1.00  0.00    -0.191 OA 
HETATM    9  C   UNL     2     -12.106  14.485  64.485  1.00  0.00    -0.501 A  
HETATM   10  C   UNL     2     -11.450  12.275  63.763  1.00  0.00    -0.466 A  
HETATM   11  C   UNL     2     -12.239  13.409  63.606  1.00  0.00    -0.480 A  
HETATM   12  C   UNL     2     -10.330  13.322  65.631  1.00  0.00    -0.292 A  
HETATM   13  H   UNL     2     -12.387  11.247  62.262  1.00  0.00     0.000 HD 
HETATM   14  C   UNL     2     -11.167  14.430  65.512  1.00  0.00    -0.330 A  
ENDROOT
BRANCH   4  15
HETATM   15  C   UNL     1     -11.496  11.124  68.257  1.00  0.00    -0.303 C  
BRANCH  15  16
HETATM   16  N   UNL     1     -11.977  12.290  69.043  1.00  0.00    -0.284 NA 
BRANCH  16  17
HETATM   17  C   UNL     1     -12.201  11.962  70.481  1.00  0.00    -0.336 C  
BRANCH  17  18
HETATM   18  C   UNL     1     -12.742  10.578  70.879  1.00  0.00    -0.402 C  
HETATM   19  H   UNL     1     -12.086   8.880  71.692  1.00  0.00     0.000 HD 
HETATM   20  O   UNL     1     -11.752   9.735  71.446  1.00  0.00    -0.365 OA 
ENDBRANCH  17  18
ENDBRANCH  16  17
BRANCH  16  21
HETATM   21  C   UNL     1     -11.014  13.418  68.973  1.00  0.00    -0.224 C  
BRANCH  21  22
HETATM   22  C   UNL     1     -11.385  14.719  69.717  1.00  0.00    -0.283 C  
HETATM   23  O   UNL     1     -12.463  15.374  69.051  1.00  0.00    -0.602 OA 
HETATM   24  H   UNL     1     -12.692  16.174  69.509  1.00  0.00     0.000 HD 
ENDBRANCH  21  22
ENDBRANCH  16  21
ENDBRANCH  15  16
ENDBRANCH   4  15
TORSDOF 6
ENDMDL
MODEL       31
REMARK 921   NORMALIZED FREE ENERGY PREDICTED BY IDOCK:   -4.91 KCAL/MOL
REMARK 922        TOTAL FREE ENERGY PREDICTED BY IDOCK:   -7.50 KCAL/MOL
REMARK 923 INTER-LIGAND FREE ENERGY PREDICTED BY IDOCK:   -6.68 KCAL/MOL
REMARK 924 INTRA-LIGAND FREE ENERGY PREDICTED BY IDOCK:   -0.81 KCAL/MOL
REMARK 927      BINDING AFFINITY PREDICTED BY RF-SCORE:    0.00 PKD
ROOT
HETATM    1  O   UNL     1     -12.771  15.924  69.571  1.00  0.00    -0.491 OA 
HETATM    2  H   UNL     1     -13.688  16.115  69.416  1.00  0.00     0.000 HD 
HETATM    3  O   UNL     2     -13.406  14.025  65.668  1.00  0.00    -0.636 OA 
HETATM    4  C   UNL     1     -12.123  15.288  68.475  1.00  0.00    -0.085 C  
HETATM    5  O   UNL     2      -9.871  13.064  63.812  1.00  0.00    -0.730 OA 
HETATM    6  C   UNL     2     -12.098  14.013  65.347  1.00  0.00    -0.401 C  
HETATM    7  C   UNL     2     -11.377  12.773  65.700  1.00  0.00    -0.354 A  
HETATM    8  O   UNL     2     -11.530  14.949  64.796  1.00  0.00    -0.395 OA 
HETATM    9  C   UNL     2      -9.886  10.512  66.398  1.00  0.00    -0.260 A  
HETATM   10  C   UNL     2     -10.298  12.366  64.906  1.00  0.00    -0.293 A  
HETATM   11  C   UNL     2      -9.585  11.219  65.234  1.00  0.00    -0.265 A  
HETATM   12  C   UNL     2     -11.677  12.059  66.866  1.00  0.00    -0.342 A  
HETATM   13  H   UNL     2      -9.139  12.788  63.273  1.00  0.00     0.000 HD 
HETATM   14  C   UNL     2     -10.918  10.947  67.226  1.00  0.00    -0.355 A  
ENDROOT
BRANCH   4  15
HETATM   15  C   UNL     1     -10.623  14.976  68.728  1.00  0.00    -0.240 C  
BRANCH  15  16
HETATM   16  N   UNL     1      -9.658  16.059  68.401  1.00  0.00    -0.203 NA 
BRANCH  16  17
HETATM   17  C   UNL     1      -8.337  15.534  67.947  1.00  0.00    -0.143 C  
BRANCH  17  18
HETATM   18  C   UNL     1      -8.269  14.251  67.101  1.00  0.00    -0.160 C  
HETATM   19  H   UNL     1      -7.869  12.312  67.333  1.00  0.00     0.000 HD 
HETATM   20  O   UNL     1      -7.911  13.104  67.855  1.00  0.00    -0.130 OA 
ENDBRANCH  17  18
ENDBRANCH  16  17
BRANCH  16  21
HETATM   21  C   UNL     1     -10.189  16.949  67.339  1.00  0.00    -0.298 C  
BRANCH  21  22
HETATM   22  C   UNL     1     -10.487  18.415  67.721  1.00  0.00    -0.409 C  
HETATM   23  O   UNL     1     -10.343  18.594  69.129  1.00  0.00    -0.491 OA 
HETATM   24  H   UNL     1     -10.526  19.496  69.364  1.00  0.00     0.000 HD 
ENDBRANCH  21  22
ENDBRANCH  16  21
ENDBRANCH  15  16
ENDBRANCH   4  15
TORSDOF 6
ENDMDL
MODEL       32
REMARK 921   NORMALIZED FREE ENERGY PREDICTED BY IDOCK:   -4.91 KCAL/MOL
REMARK 922        TOTAL FREE ENERGY PREDICTED BY IDOCK:   -7.49 KCAL/MOL
REMARK 923 INTER-LIGAND FREE ENERGY PREDICTED BY IDOCK:   -6.26 KCAL/MOL
REMARK 924 INTRA-LIGAND FREE ENERGY PREDICTED BY IDOCK:   -1.22 KCAL/MOL
REMARK 927      BINDING AFFINITY PREDICTED BY RF-SCORE:    0.00 PKD
ROOT
HETATM    1  O   UNL     1     -11.062   8.678  68.971  1.00  0.00    -0.433 OA 
HETATM    2  H   UNL     1     -11.113   7.974  68.336  1.00  0.00     0.000 HD 
HETATM    3  O   UNL     2     -10.738  10.892  65.198  1.00  0.00    -0.240 OA 
HETATM    4  C   UNL     1     -11.042   9.977  68.391  1.00  0.00    -0.182 C  
HETATM    5  O   UNL     2     -11.287  14.928  65.710  1.00  0.00    -0.341 OA 
HETATM    6  C   UNL     2     -11.109  12.068  65.739  1.00  0.00    -0.324 C  
HETATM    7  C   UNL     2      -9.998  12.924  66.199  1.00  0.00    -0.274 A  
HETATM    8  O   UNL     2     -12.277  12.423  65.844  1.00  0.00    -0.629 OA 
HETATM    9  C   UNL     2      -7.985  14.595  67.188  1.00  0.00    -0.184 A  
HETATM   10  C   UNL     2     -10.151  14.316  66.158  1.00  0.00    -0.313 A  
HETATM   11  C   UNL     2      -9.132  15.143  66.613  1.00  0.00    -0.310 A  
HETATM   12  C   UNL     2      -8.844  12.379  66.775  1.00  0.00    -0.189 A  
HETATM   13  H   UNL     2     -11.391  15.872  65.683  1.00  0.00     0.000 HD 
HETATM   14  C   UNL     2      -7.852  13.213  67.290  1.00  0.00    -0.125 A  
ENDROOT
BRANCH   4  15
HETATM   15  C   UNL     1     -10.958  11.127  69.430  1.00  0.00    -0.244 C  
BRANCH  15  16
HETATM   16  N   UNL     1     -12.216  11.463  70.147  1.00  0.00    -0.325 NA 
BRANCH  16  17
HETATM   17  C   UNL     1     -12.404  10.658  71.389  1.00  0.00    -0.350 C  
BRANCH  17  18
HETATM   18  C   UNL     1     -13.385   9.472  71.396  1.00  0.00    -0.361 C  
HETATM   19  H   UNL     1     -13.343   7.481  71.319  1.00  0.00     0.000 HD 
HETATM   20  O   UNL     1     -12.737   8.213  71.315  1.00  0.00    -0.291 OA 
ENDBRANCH  17  18
ENDBRANCH  16  17
BRANCH  16  21
HETATM   21  C   UNL     1     -12.255  12.900  70.520  1.00  0.00    -0.314 C  
BRANCH  21  22
HETATM   22  C   UNL     1     -11.633  13.910  69.532  1.00  0.00    -0.301 C  
HETATM   23  O   UNL     1     -12.533  14.158  68.454  1.00  0.00    -0.532 OA 
HETATM   24  H   UNL     1     -12.150  14.780  67.846  1.00  0.00     0.000 HD 
ENDBRANCH  21  22
ENDBRANCH  16  21
ENDBRANCH  15  16
ENDBRANCH   4  15
TORSDOF 6
ENDMDL
MODEL       33
REMARK 921   NORMALIZED FREE ENERGY PREDICTED BY IDOCK:   -4.83 KCAL/MOL
REMARK 922        TOTAL FREE ENERGY PREDICTED BY IDOCK:   -7.39 KCAL/MOL
REMARK 923 INTER-LIGAND FREE ENERGY PREDICTED BY IDOCK:   -6.71 KCAL/MOL
REMARK 924 INTRA-LIGAND FREE ENERGY PREDICTED BY IDOCK:   -0.67 KCAL/MOL
REMARK 927      BINDING AFFINITY PREDICTED BY RF-SCORE:    0.00 PKD
ROOT
HETATM    1  O   UNL     1     -11.760  14.106  70.591  1.00  0.00    -0.434 OA 
HETATM    2  H   UNL     1     -11.410  14.969  70.776  1.00  0.00     0.000 HD 
HETATM    3  O   UNL     2      -9.516  14.938  66.915  1.00  0.00    -0.218 OA 
HETATM    4  C   UNL     1     -11.293  13.545  69.370  1.00  0.00    -0.233 C  
HETATM    5  O   UNL     2      -8.973  11.571  64.628  1.00  0.00    -0.402 OA 
HETATM    6  C   UNL     2      -9.427  13.643  66.556  1.00  0.00    -0.259 C  
HETATM    7  C   UNL     2     -10.495  13.167  65.655  1.00  0.00    -0.290 A  
HETATM    8  O   UNL     2      -8.529  12.899  66.932  1.00  0.00    -0.174 OA 
HETATM    9  C   UNL     2     -12.512  12.127  64.019  1.00  0.00    -0.541 A  
HETATM   10  C   UNL     2     -10.205  12.152  64.735  1.00  0.00    -0.281 A  
HETATM   11  C   UNL     2     -11.201  11.666  63.896  1.00  0.00    -0.479 A  
HETATM   12  C   UNL     2     -11.812  13.628  65.773  1.00  0.00    -0.397 A  
HETATM   13  H   UNL     2      -8.777  10.882  64.004  1.00  0.00     0.000 HD 
HETATM   14  C   UNL     2     -12.821  13.092  64.975  1.00  0.00    -0.370 A  
ENDROOT
BRANCH   4  15
HETATM   15  C   UNL     1     -11.866  12.134  69.067  1.00  0.00    -0.306 C  
BRANCH  15  16
HETATM   16  N   UNL     1     -11.483  11.049  70.008  1.00  0.00    -0.306 NA 
BRANCH  16  17
HETATM   17  C   UNL     1     -12.663  10.315  70.552  1.00  0.00    -0.250 C  
BRANCH  17  18
HETATM   18  C   UNL     1     -13.222  10.680  71.939  1.00  0.00    -0.423 C  
HETATM   19  H   UNL     1     -13.690  12.303  72.996  1.00  0.00     0.000 HD 
HETATM   20  O   UNL     1     -13.345  12.078  72.140  1.00  0.00    -0.510 OA 
ENDBRANCH  17  18
ENDBRANCH  16  17
BRANCH  16  21
HETATM   21  C   UNL     1     -10.590  10.060  69.353  1.00  0.00    -0.233 C  
BRANCH  21  22
HETATM   22  C   UNL     1      -9.316   9.635  70.115  1.00  0.00    -0.251 C  
HETATM   23  O   UNL     1      -8.282  10.598  69.917  1.00  0.00    -0.358 OA 
HETATM   24  H   UNL     1      -7.499  10.336  70.386  1.00  0.00     0.000 HD 
ENDBRANCH  21  22
ENDBRANCH  16  21
ENDBRANCH  15  16
ENDBRANCH   4  15
TORSDOF 6
ENDMDL
MODEL       34
REMARK 921   NORMALIZED FREE ENERGY PREDICTED BY IDOCK:   -4.83 KCAL/MOL
REMARK 922        TOTAL FREE ENERGY PREDICTED BY IDOCK:   -7.39 KCAL/MOL
REMARK 923 INTER-LIGAND FREE ENERGY PREDICTED BY IDOCK:   -6.65 KCAL/MOL
REMARK 924 INTRA-LIGAND FREE ENERGY PREDICTED BY IDOCK:   -0.74 KCAL/MOL
REMARK 927      BINDING AFFINITY PREDICTED BY RF-SCORE:    0.00 PKD
ROOT
HETATM    1  O   UNL     1     -12.548  14.650  67.288  1.00  0.00    -0.456 OA 
HETATM    2  H   UNL     1     -12.731  14.440  66.380  1.00  0.00     0.000 HD 
HETATM    3  O   UNL     2     -11.287  10.453  67.098  1.00  0.00    -0.274 OA 
HETATM    4  C   UNL     1     -11.893  13.606  68.000  1.00  0.00    -0.362 C  
HETATM    5  O   UNL     2      -9.047   9.352  70.358  1.00  0.00    -0.223 OA 
HETATM    6  C   UNL     2     -10.505  10.532  68.191  1.00  0.00    -0.186 C  
HETATM    7  C   UNL     2     -11.160  10.155  69.460  1.00  0.00    -0.295 A  
HETATM    8  O   UNL     2      -9.331  10.883  68.157  1.00  0.00    -0.155 OA 
HETATM    9  C   UNL     2     -12.315   9.548  71.934  1.00  0.00    -0.450 A  
HETATM   10  C   UNL     2     -10.388   9.581  70.477  1.00  0.00    -0.288 A  
HETATM   11  C   UNL     2     -10.975   9.243  71.691  1.00  0.00    -0.433 A  
HETATM   12  C   UNL     2     -12.505  10.456  69.706  1.00  0.00    -0.051 A  
HETATM   13  H   UNL     2      -8.523   8.963  71.049  1.00  0.00     0.000 HD 
HETATM   14  C   UNL     2     -13.073  10.175  70.948  1.00  0.00    -0.412 A  
ENDROOT
BRANCH   4  15
HETATM   15  C   UNL     1     -11.594  13.950  69.484  1.00  0.00    -0.301 C  
BRANCH  15  16
HETATM   16  N   UNL     1     -12.109  15.254  69.978  1.00  0.00    -0.334 NA 
BRANCH  16  17
HETATM   17  C   UNL     1     -12.958  15.114  71.197  1.00  0.00    -0.421 C  
BRANCH  17  18
HETATM   18  C   UNL     1     -12.632  15.932  72.459  1.00  0.00    -0.457 C  
HETATM   19  H   UNL     1     -13.570  16.691  74.046  1.00  0.00     0.000 HD 
HETATM   20  O   UNL     1     -13.770  16.186  73.266  1.00  0.00    -0.568 OA 
ENDBRANCH  17  18
ENDBRANCH  16  17
BRANCH  16  21
HETATM   21  C   UNL     1     -10.997  16.184  70.296  1.00  0.00    -0.340 C  
BRANCH  21  22
HETATM   22  C   UNL     1     -10.039  16.571  69.149  1.00  0.00    -0.287 C  
HETATM   23  O   UNL     1     -10.785  17.029  68.022  1.00  0.00    -0.357 OA 
HETATM   24  H   UNL     1     -10.195  17.267  67.316  1.00  0.00     0.000 HD 
ENDBRANCH  21  22
ENDBRANCH  16  21
ENDBRANCH  15  16
ENDBRANCH   4  15
TORSDOF 6
ENDMDL
MODEL       35
REMARK 921   NORMALIZED FREE ENERGY PREDICTED BY IDOCK:   -4.83 KCAL/MOL
REMARK 922        TOTAL FREE ENERGY PREDICTED BY IDOCK:   -7.39 KCAL/MOL
REMARK 923 INTER-LIGAND FREE ENERGY PREDICTED BY IDOCK:   -6.40 KCAL/MOL
REMARK 924 INTRA-LIGAND FREE ENERGY PREDICTED BY IDOCK:   -0.99 KCAL/MOL
REMARK 927      BINDING AFFINITY PREDICTED BY RF-SCORE:    0.00 PKD
ROOT
HETATM    1  O   UNL     1     -11.866  12.893  70.471  1.00  0.00    -0.521 OA 
HETATM    2  H   UNL     1     -11.584  13.740  70.795  1.00  0.00     0.000 HD 
HETATM    3  O   UNL     2      -9.734  14.491  66.986  1.00  0.00    -0.233 OA 
HETATM    4  C   UNL     1     -11.368  12.578  69.176  1.00  0.00    -0.274 C  
HETATM    5  O   UNL     2      -8.946  11.597  64.183  1.00  0.00    -0.392 OA 
HETATM    6  C   UNL     2      -9.544  13.284  66.421  1.00  0.00    -0.254 C  
HETATM    7  C   UNL     2     -10.580  12.876  65.451  1.00  0.00    -0.308 A  
HETATM    8  O   UNL     2      -8.585  12.564  66.674  1.00  0.00    -0.160 OA 
HETATM    9  C   UNL     2     -12.524  11.956  63.662  1.00  0.00    -0.583 A  
HETATM   10  C   UNL     2     -10.219  12.050  64.379  1.00  0.00    -0.302 A  
HETATM   11  C   UNL     2     -11.181  11.628  63.469  1.00  0.00    -0.462 A  
HETATM   12  C   UNL     2     -11.928  13.204  65.639  1.00  0.00    -0.462 A  
HETATM   13  H   UNL     2      -8.701  11.037  63.455  1.00  0.00     0.000 HD 
HETATM   14  C   UNL     2     -12.899  12.724  64.761  1.00  0.00    -0.374 A  
ENDROOT
BRANCH   4  15
HETATM   15  C   UNL     1     -11.829  11.193  68.646  1.00  0.00    -0.287 C  
BRANCH  15  16
HETATM   16  N   UNL     1     -10.771  10.162  68.485  1.00  0.00    -0.218 NA 
BRANCH  16  17
HETATM   17  C   UNL     1     -10.913   9.036  69.455  1.00  0.00    -0.106 C  
BRANCH  17  18
HETATM   18  C   UNL     1     -11.198   9.331  70.938  1.00  0.00    -0.306 C  
HETATM   19  H   UNL     1     -10.238   9.338  72.685  1.00  0.00     0.000 HD 
HETATM   20  O   UNL     1     -10.061   9.156  71.769  1.00  0.00    -0.329 OA 
ENDBRANCH  17  18
ENDBRANCH  16  17
BRANCH  16  21
HETATM   21  C   UNL     1     -10.781   9.591  67.114  1.00  0.00    -0.182 C  
BRANCH  21  22
HETATM   22  C   UNL     1      -9.437   9.096  66.538  1.00  0.00    -0.208 C  
HETATM   23  O   UNL     1      -9.566   8.846  65.140  1.00  0.00    -0.435 OA 
HETATM   24  H   UNL     1      -8.739   8.541  64.786  1.00  0.00     0.000 HD 
ENDBRANCH  21  22
ENDBRANCH  16  21
ENDBRANCH  15  16
ENDBRANCH   4  15
TORSDOF 6
ENDMDL
MODEL       36
REMARK 921   NORMALIZED FREE ENERGY PREDICTED BY IDOCK:   -4.83 KCAL/MOL
REMARK 922        TOTAL FREE ENERGY PREDICTED BY IDOCK:   -7.38 KCAL/MOL
REMARK 923 INTER-LIGAND FREE ENERGY PREDICTED BY IDOCK:   -7.19 KCAL/MOL
REMARK 924 INTRA-LIGAND FREE ENERGY PREDICTED BY IDOCK:   -0.19 KCAL/MOL
REMARK 927      BINDING AFFINITY PREDICTED BY RF-SCORE:    0.00 PKD
ROOT
HETATM    1  O   UNL     1     -11.381  15.278  64.168  1.00  0.00    -0.672 OA 
HETATM    2  H   UNL     1     -11.816  15.779  63.489  1.00  0.00     0.000 HD 
HETATM    3  O   UNL     2     -10.445  19.385  65.390  1.00  0.00    -0.442 OA 
HETATM    4  C   UNL     1     -10.818  16.076  65.202  1.00  0.00    -0.395 C  
HETATM    5  O   UNL     2      -9.003  19.576  69.230  1.00  0.00    -0.228 OA 
HETATM    6  C   UNL     2     -10.171  19.051  66.666  1.00  0.00    -0.407 C  
HETATM    7  C   UNL     2      -8.750  18.770  66.949  1.00  0.00    -0.298 A  
HETATM    8  O   UNL     2     -11.023  18.988  67.544  1.00  0.00    -0.443 OA 
HETATM    9  C   UNL     2      -6.103  18.128  67.587  1.00  0.00    -0.169 A  
HETATM   10  C   UNL     2      -8.243  19.051  68.224  1.00  0.00    -0.329 A  
HETATM   11  C   UNL     2      -6.916  18.767  68.524  1.00  0.00    -0.288 A  
HETATM   12  C   UNL     2      -7.930  18.130  66.011  1.00  0.00    -0.150 A  
HETATM   13  H   UNL     2      -8.659  19.766  70.095  1.00  0.00     0.000 HD 
HETATM   14  C   UNL     2      -6.619  17.788  66.339  1.00  0.00    -0.276 A  
ENDROOT
BRANCH   4  15
HETATM   15  C   UNL     1     -10.106  15.256  66.312  1.00  0.00    -0.281 C  
BRANCH  15  16
HETATM   16  N   UNL     1     -10.959  14.781  67.433  1.00  0.00    -0.304 NA 
BRANCH  16  17
HETATM   17  C   UNL     1     -11.456  15.897  68.291  1.00  0.00    -0.320 C  
BRANCH  17  18
HETATM   18  C   UNL     1     -11.418  15.764  69.823  1.00  0.00    -0.349 C  
HETATM   19  H   UNL     1     -12.649  15.326  71.329  1.00  0.00     0.000 HD 
HETATM   20  O   UNL     1     -12.672  15.408  70.382  1.00  0.00    -0.404 OA 
ENDBRANCH  17  18
ENDBRANCH  16  17
BRANCH  16  21
HETATM   21  C   UNL     1     -12.136  14.028  66.931  1.00  0.00    -0.430 C  
BRANCH  21  22
HETATM   22  C   UNL     1     -11.900  12.586  66.432  1.00  0.00    -0.381 C  
HETATM   23  O   UNL     1     -11.991  11.670  67.522  1.00  0.00    -0.622 OA 
HETATM   24  H   UNL     1     -11.845  10.783  67.215  1.00  0.00     0.000 HD 
ENDBRANCH  21  22
ENDBRANCH  16  21
ENDBRANCH  15  16
ENDBRANCH   4  15
TORSDOF 6
ENDMDL
MODEL       37
REMARK 921   NORMALIZED FREE ENERGY PREDICTED BY IDOCK:   -4.80 KCAL/MOL
REMARK 922        TOTAL FREE ENERGY PREDICTED BY IDOCK:   -7.34 KCAL/MOL
REMARK 923 INTER-LIGAND FREE ENERGY PREDICTED BY IDOCK:   -6.65 KCAL/MOL
REMARK 924 INTRA-LIGAND FREE ENERGY PREDICTED BY IDOCK:   -0.69 KCAL/MOL
REMARK 927      BINDING AFFINITY PREDICTED BY RF-SCORE:    0.00 PKD
ROOT
HETATM    1  O   UNL     1      -9.054  10.634  69.704  1.00  0.00    -0.402 OA 
HETATM    2  H   UNL     1      -8.130  10.422  69.657  1.00  0.00     0.000 HD 
HETATM    3  O   UNL     2      -8.283  11.062  65.407  1.00  0.00    -0.076 OA 
HETATM    4  C   UNL     1      -9.665  10.830  68.433  1.00  0.00    -0.174 C  
HETATM    5  O   UNL     2     -11.749  11.229  63.213  1.00  0.00    -0.789 OA 
HETATM    6  C   UNL     2      -9.577  10.930  65.058  1.00  0.00    -0.251 C  
HETATM    7  C   UNL     2     -10.323  12.197  64.929  1.00  0.00    -0.321 A  
HETATM    8  O   UNL     2     -10.113   9.847  64.851  1.00  0.00    -0.268 OA 
HETATM    9  C   UNL     2     -11.864  14.524  64.739  1.00  0.00    -0.446 A  
HETATM   10  C   UNL     2     -11.374  12.275  64.006  1.00  0.00    -0.399 A  
HETATM   11  C   UNL     2     -12.111  13.447  63.887  1.00  0.00    -0.514 A  
HETATM   12  C   UNL     2     -10.078  13.281  65.781  1.00  0.00    -0.293 A  
HETATM   13  H   UNL     2     -12.462  11.282  62.587  1.00  0.00     0.000 HD 
HETATM   14  C   UNL     2     -10.862  14.430  65.702  1.00  0.00    -0.320 A  
ENDROOT
BRANCH   4  15
HETATM   15  C   UNL     1     -11.177  11.175  68.510  1.00  0.00    -0.258 C  
BRANCH  15  16
HETATM   16  N   UNL     1     -11.652  11.788  69.778  1.00  0.00    -0.306 NA 
BRANCH  16  17
HETATM   17  C   UNL     1     -12.075  13.209  69.607  1.00  0.00    -0.255 C  
BRANCH  17  18
HETATM   18  C   UNL     1     -12.759  13.952  70.768  1.00  0.00    -0.313 C  
HETATM   19  H   UNL     1     -12.780  15.768  71.591  1.00  0.00     0.000 HD 
HETATM   20  O   UNL     1     -12.358  15.309  70.874  1.00  0.00    -0.317 OA 
ENDBRANCH  17  18
ENDBRANCH  16  17
BRANCH  16  21
HETATM   21  C   UNL     1     -12.797  11.032  70.344  1.00  0.00    -0.145 C  
BRANCH  21  22
HETATM   22  C   UNL     1     -12.551  10.232  71.642  1.00  0.00    -0.432 C  
HETATM   23  O   UNL     1     -11.292   9.566  71.576  1.00  0.00    -0.372 OA 
HETATM   24  H   UNL     1     -11.141   9.074  72.374  1.00  0.00     0.000 HD 
ENDBRANCH  21  22
ENDBRANCH  16  21
ENDBRANCH  15  16
ENDBRANCH   4  15
TORSDOF 6
ENDMDL
MODEL       38
REMARK 921   NORMALIZED FREE ENERGY PREDICTED BY IDOCK:   -4.79 KCAL/MOL
REMARK 922        TOTAL FREE ENERGY PREDICTED BY IDOCK:   -7.33 KCAL/MOL
REMARK 923 INTER-LIGAND FREE ENERGY PREDICTED BY IDOCK:   -6.27 KCAL/MOL
REMARK 924 INTRA-LIGAND FREE ENERGY PREDICTED BY IDOCK:   -1.06 KCAL/MOL
REMARK 927      BINDING AFFINITY PREDICTED BY RF-SCORE:    0.00 PKD
ROOT
HETATM    1  O   UNL     1      -8.926   8.384  65.201  1.00  0.00    -0.392 OA 
HETATM    2  H   UNL     1      -8.510   8.314  64.350  1.00  0.00     0.000 HD 
HETATM    3  O   UNL     2     -10.170  12.144  63.313  1.00  0.00    -0.429 OA 
HETATM    4  C   UNL     1      -9.768   9.523  65.337  1.00  0.00    -0.244 C  
HETATM    5  O   UNL     2     -13.227  13.973  65.355  1.00  0.00    -0.761 OA 
HETATM    6  C   UNL     2     -11.216  12.331  64.140  1.00  0.00    -0.369 C  
HETATM    7  C   UNL     2     -10.935  13.159  65.330  1.00  0.00    -0.304 A  
HETATM    8  O   UNL     2     -12.330  11.863  63.935  1.00  0.00    -0.417 OA 
HETATM    9  C   UNL     2     -10.501  14.639  67.663  1.00  0.00    -0.243 A  
HETATM   10  C   UNL     2     -11.964  13.939  65.872  1.00  0.00    -0.407 A  
HETATM   11  C   UNL     2     -11.732  14.705  67.009  1.00  0.00    -0.379 A  
HETATM   12  C   UNL     2      -9.701  13.098  65.988  1.00  0.00    -0.234 A  
HETATM   13  H   UNL     2     -13.925  14.502  65.723  1.00  0.00     0.000 HD 
HETATM   14  C   UNL     2      -9.494  13.817  67.164  1.00  0.00    -0.244 A  
ENDROOT
BRANCH   4  15
HETATM   15  C   UNL     1     -10.450   9.637  66.727  1.00  0.00    -0.186 C  
BRANCH  15  16
HETATM   16  N   UNL     1      -9.545   9.764  67.899  1.00  0.00    -0.138 NA 
BRANCH  16  17
HETATM   17  C   UNL     1     -10.013  10.786  68.880  1.00  0.00    -0.202 C  
BRANCH  17  18
HETATM   18  C   UNL     1     -11.482  11.243  68.873  1.00  0.00    -0.297 C  
HETATM   19  H   UNL     1     -13.183  10.863  69.839  1.00  0.00     0.000 HD 
HETATM   20  O   UNL     1     -12.276  10.580  69.843  1.00  0.00    -0.281 OA 
ENDBRANCH  17  18
ENDBRANCH  16  17
BRANCH  16  21
HETATM   21  C   UNL     1      -9.407   8.470  68.614  1.00  0.00    -0.142 C  
BRANCH  21  22
HETATM   22  C   UNL     1     -10.608   7.501  68.571  1.00  0.00    -0.136 C  
HETATM   23  O   UNL     1     -11.425   7.682  69.727  1.00  0.00    -0.465 OA 
HETATM   24  H   UNL     1     -12.164   7.085  69.700  1.00  0.00     0.000 HD 
ENDBRANCH  21  22
ENDBRANCH  16  21
ENDBRANCH  15  16
ENDBRANCH   4  15
TORSDOF 6
ENDMDL
MODEL       39
REMARK 921   NORMALIZED FREE ENERGY PREDICTED BY IDOCK:   -4.78 KCAL/MOL
REMARK 922        TOTAL FREE ENERGY PREDICTED BY IDOCK:   -7.32 KCAL/MOL
REMARK 923 INTER-LIGAND FREE ENERGY PREDICTED BY IDOCK:   -6.48 KCAL/MOL
REMARK 924 INTRA-LIGAND FREE ENERGY PREDICTED BY IDOCK:   -0.84 KCAL/MOL
REMARK 927      BINDING AFFINITY PREDICTED BY RF-SCORE:    0.00 PKD
ROOT
HETATM    1  O   UNL     1     -12.633  14.531  68.932  1.00  0.00    -0.560 OA 
HETATM    2  H   UNL     1     -13.565  14.605  68.767  1.00  0.00     0.000 HD 
HETATM    3  O   UNL     2     -12.968  12.654  64.982  1.00  0.00    -0.812 OA 
HETATM    4  C   UNL     1     -11.894  14.009  67.834  1.00  0.00    -0.376 C  
HETATM    5  O   UNL     2      -9.317  12.199  63.160  1.00  0.00    -0.652 OA 
HETATM    6  C   UNL     2     -11.666  12.818  64.681  1.00  0.00    -0.355 C  
HETATM    7  C   UNL     2     -10.795  11.674  65.019  1.00  0.00    -0.346 A  
HETATM    8  O   UNL     2     -11.217  13.831  64.158  1.00  0.00    -0.345 OA 
HETATM    9  C   UNL     2      -9.033   9.609  65.693  1.00  0.00    -0.208 A  
HETATM   10  C   UNL     2      -9.663  11.428  64.233  1.00  0.00    -0.230 A  
HETATM   11  C   UNL     2      -8.811  10.375  64.548  1.00  0.00    -0.225 A  
HETATM   12  C   UNL     2     -11.015  10.902  66.166  1.00  0.00    -0.099 A  
HETATM   13  H   UNL     2      -8.548  12.031  62.628  1.00  0.00     0.000 HD 
HETATM   14  C   UNL     2     -10.123   9.889  66.514  1.00  0.00    -0.298 A  
ENDROOT
BRANCH   4  15
HETATM   15  C   UNL     1     -10.370  13.888  68.103  1.00  0.00    -0.247 C  
BRANCH  15  16
HETATM   16  N   UNL     1      -9.477  14.679  67.217  1.00  0.00    -0.214 NA 
BRANCH  16  17
HETATM   17  C   UNL     1     -10.131  15.914  66.695  1.00  0.00    -0.279 C  
BRANCH  17  18
HETATM   18  C   UNL     1     -10.056  17.224  67.500  1.00  0.00    -0.315 C  
HETATM   19  H   UNL     1     -10.932  18.077  69.074  1.00  0.00     0.000 HD 
HETATM   20  O   UNL     1     -10.979  17.269  68.577  1.00  0.00    -0.290 OA 
ENDBRANCH  17  18
ENDBRANCH  16  17
BRANCH  16  21
HETATM   21  C   UNL     1      -8.236  15.081  67.926  1.00  0.00    -0.141 C  
BRANCH  21  22
HETATM   22  C   UNL     1      -6.921  14.386  67.511  1.00  0.00    -0.159 C  
HETATM   23  O   UNL     1      -7.206  13.158  66.843  1.00  0.00    -0.326 OA 
HETATM   24  H   UNL     1      -6.397  12.730  66.588  1.00  0.00     0.000 HD 
ENDBRANCH  21  22
ENDBRANCH  16  21
ENDBRANCH  15  16
ENDBRANCH   4  15
TORSDOF 6
ENDMDL
MODEL       40
REMARK 921   NORMALIZED FREE ENERGY PREDICTED BY IDOCK:   -4.78 KCAL/MOL
REMARK 922        TOTAL FREE ENERGY PREDICTED BY IDOCK:   -7.31 KCAL/MOL
REMARK 923 INTER-LIGAND FREE ENERGY PREDICTED BY IDOCK:   -6.75 KCAL/MOL
REMARK 924 INTRA-LIGAND FREE ENERGY PREDICTED BY IDOCK:   -0.56 KCAL/MOL
REMARK 927      BINDING AFFINITY PREDICTED BY RF-SCORE:    0.00 PKD
ROOT
HETATM    1  O   UNL     1      -7.559  14.522  69.488  1.00  0.00    -0.329 OA 
HETATM    2  H   UNL     1      -7.721  15.119  70.208  1.00  0.00     0.000 HD 
HETATM    3  O   UNL     2     -10.893  16.894  67.909  1.00  0.00    -0.354 OA 
HETATM    4  C   UNL     1      -8.340  14.790  68.330  1.00  0.00    -0.148 C  
HETATM    5  O   UNL     2     -11.396  16.374  63.867  1.00  0.00    -1.510 OA 
HETATM    6  C   UNL     2     -10.639  16.583  66.623  1.00  0.00    -0.216 C  
HETATM    7  C   UNL     2     -11.378  15.416  66.103  1.00  0.00    -0.082 A  
HETATM    8  O   UNL     2      -9.860  17.214  65.918  1.00  0.00    -0.486 OA 
HETATM    9  C   UNL     2     -12.655  13.170  65.030  1.00  0.00    -0.499 A  
HETATM   10  C   UNL     2     -11.718  15.378  64.745  1.00  0.00    -0.232 A  
HETATM   11  C   UNL     2     -12.388  14.277  64.224  1.00  0.00    -0.407 A  
HETATM   12  C   UNL     2     -11.650  14.303  66.908  1.00  0.00    -0.405 A  
HETATM   13  H   UNL     2     -11.626  16.348  62.946  1.00  0.00     0.000 HD 
HETATM   14  C   UNL     2     -12.264  13.175  66.367  1.00  0.00    -0.396 A  
ENDROOT
BRANCH   4  15
HETATM   15  C   UNL     1      -8.074  13.812  67.153  1.00  0.00    -0.075 C  
BRANCH  15  16
HETATM   16  N   UNL     1      -8.473  12.396  67.366  1.00  0.00    -0.170 NA 
BRANCH  16  17
HETATM   17  C   UNL     1      -9.129  11.796  66.167  1.00  0.00    -0.185 C  
BRANCH  17  18
HETATM   18  C   UNL     1      -9.730  10.382  66.247  1.00  0.00    -0.205 C  
HETATM   19  H   UNL     1     -10.239   8.890  65.028  1.00  0.00     0.000 HD 
HETATM   20  O   UNL     1      -9.867   9.763  64.978  1.00  0.00    -0.306 OA 
ENDBRANCH  17  18
ENDBRANCH  16  17
BRANCH  16  21
HETATM   21  C   UNL     1      -7.301  11.555  67.718  1.00  0.00    -0.096 C  
BRANCH  21  22
HETATM   22  C   UNL     1      -5.908  12.054  67.278  1.00  0.00    -0.142 C  
HETATM   23  O   UNL     1      -5.626  11.611  65.952  1.00  0.00    -0.506 OA 
HETATM   24  H   UNL     1      -4.768  11.918  65.681  1.00  0.00     0.000 HD 
ENDBRANCH  21  22
ENDBRANCH  16  21
ENDBRANCH  15  16
ENDBRANCH   4  15
TORSDOF 6
ENDMDL
MODEL       41
REMARK 921   NORMALIZED FREE ENERGY PREDICTED BY IDOCK:   -4.76 KCAL/MOL
REMARK 922        TOTAL FREE ENERGY PREDICTED BY IDOCK:   -7.29 KCAL/MOL
REMARK 923 INTER-LIGAND FREE ENERGY PREDICTED BY IDOCK:   -6.47 KCAL/MOL
REMARK 924 INTRA-LIGAND FREE ENERGY PREDICTED BY IDOCK:   -0.82 KCAL/MOL
REMARK 927      BINDING AFFINITY PREDICTED BY RF-SCORE:    0.00 PKD
ROOT
HETATM    1  O   UNL     1      -5.892  15.724  67.028  1.00  0.00    -0.316 OA 
HETATM    2  H   UNL     1      -5.359  15.110  67.519  1.00  0.00     0.000 HD 
HETATM    3  O   UNL     2      -8.910  12.836  68.370  1.00  0.00    -0.179 OA 
HETATM    4  C   UNL     1      -7.289  15.461  67.103  1.00  0.00    -0.168 C  
HETATM    5  O   UNL     2     -12.735  14.253  67.902  1.00  0.00    -0.294 OA 
HETATM    6  C   UNL     2      -9.942  13.685  68.205  1.00  0.00    -0.236 C  
HETATM    7  C   UNL     2     -10.618  13.603  66.895  1.00  0.00    -0.271 A  
HETATM    8  O   UNL     2     -10.314  14.471  69.069  1.00  0.00    -0.237 OA 
HETATM    9  C   UNL     2     -11.922  13.601  64.421  1.00  0.00    -0.476 A  
HETATM   10  C   UNL     2     -11.986  13.893  66.818  1.00  0.00    -0.438 A  
HETATM   11  C   UNL     2     -12.639  13.851  65.591  1.00  0.00    -0.553 A  
HETATM   12  C   UNL     2      -9.903  13.350  65.718  1.00  0.00    -0.213 A  
HETATM   13  H   UNL     2     -13.663  14.449  67.849  1.00  0.00     0.000 HD 
HETATM   14  C   UNL     2     -10.549  13.374  64.483  1.00  0.00    -0.441 A  
ENDROOT
BRANCH   4  15
HETATM   15  C   UNL     1      -8.160  16.466  66.301  1.00  0.00    -0.276 C  
BRANCH  15  16
HETATM   16  N   UNL     1      -8.678  17.639  67.053  1.00  0.00    -0.235 NA 
BRANCH  16  17
HETATM   17  C   UNL     1      -8.100  18.929  66.575  1.00  0.00    -0.287 C  
BRANCH  17  18
HETATM   18  C   UNL     1      -6.837  18.928  65.696  1.00  0.00    -0.257 C  
HETATM   19  H   UNL     1      -4.857  18.838  65.903  1.00  0.00     0.000 HD 
HETATM   20  O   UNL     1      -5.637  18.839  66.446  1.00  0.00    -0.148 OA 
ENDBRANCH  17  18
ENDBRANCH  16  17
BRANCH  16  21
HETATM   21  C   UNL     1     -10.156  17.732  66.951  1.00  0.00    -0.342 C  
BRANCH  21  22
HETATM   22  C   UNL     1     -10.743  18.432  65.707  1.00  0.00    -0.131 C  
HETATM   23  O   UNL     1     -11.105  17.463  64.725  1.00  0.00    -0.973 OA 
HETATM   24  H   UNL     1     -11.466  17.895  63.959  1.00  0.00     0.000 HD 
ENDBRANCH  21  22
ENDBRANCH  16  21
ENDBRANCH  15  16
ENDBRANCH   4  15
TORSDOF 6
ENDMDL
MODEL       42
REMARK 921   NORMALIZED FREE ENERGY PREDICTED BY IDOCK:   -4.76 KCAL/MOL
REMARK 922        TOTAL FREE ENERGY PREDICTED BY IDOCK:   -7.29 KCAL/MOL
REMARK 923 INTER-LIGAND FREE ENERGY PREDICTED BY IDOCK:   -6.72 KCAL/MOL
REMARK 924 INTRA-LIGAND FREE ENERGY PREDICTED BY IDOCK:   -0.57 KCAL/MOL
REMARK 927      BINDING AFFINITY PREDICTED BY RF-SCORE:    0.00 PKD
ROOT
HETATM    1  O   UNL     1     -12.529  15.017  68.014  1.00  0.00    -0.436 OA 
HETATM    2  H   UNL     1     -13.477  15.042  67.960  1.00  0.00     0.000 HD 
HETATM    3  O   UNL     2     -13.278  12.279  64.670  1.00  0.00    -0.763 OA 
HETATM    4  C   UNL     1     -11.913  14.265  66.976  1.00  0.00    -0.433 C  
HETATM    5  O   UNL     2      -9.867  11.457  62.539  1.00  0.00    -0.573 OA 
HETATM    6  C   UNL     2     -12.031  12.384  64.172  1.00  0.00    -0.435 C  
HETATM    7  C   UNL     2     -11.080  11.357  64.644  1.00  0.00    -0.277 A  
HETATM    8  O   UNL     2     -11.692  13.254  63.380  1.00  0.00    -0.421 OA 
HETATM    9  C   UNL     2      -9.166   9.522  65.533  1.00  0.00    -0.292 A  
HETATM   10  C   UNL     2     -10.045  10.949  63.794  1.00  0.00    -0.353 A  
HETATM   11  C   UNL     2      -9.119  10.006  64.225  1.00  0.00    -0.296 A  
HETATM   12  C   UNL     2     -11.124  10.867  65.955  1.00  0.00     0.037 A  
HETATM   13  H   UNL     2      -9.164  11.180  61.962  1.00  0.00     0.000 HD 
HETATM   14  C   UNL     2     -10.156   9.971  66.404  1.00  0.00    -0.307 A  
ENDROOT
BRANCH   4  15
HETATM   15  C   UNL     1     -10.363  14.225  67.064  1.00  0.00    -0.267 C  
BRANCH  15  16
HETATM   16  N   UNL     1      -9.695  15.469  67.528  1.00  0.00    -0.214 NA 
BRANCH  16  17
HETATM   17  C   UNL     1      -9.141  15.345  68.908  1.00  0.00    -0.218 C  
BRANCH  17  18
HETATM   18  C   UNL     1     -10.092  15.217  70.110  1.00  0.00    -0.093 C  
HETATM   19  H   UNL     1     -11.661  16.162  70.897  1.00  0.00     0.000 HD 
HETATM   20  O   UNL     1     -11.074  16.241  70.155  1.00  0.00    -0.347 OA 
ENDBRANCH  17  18
ENDBRANCH  16  17
BRANCH  16  21
HETATM   21  C   UNL     1      -8.586  15.853  66.619  1.00  0.00    -0.285 C  
BRANCH  21  22
HETATM   22  C   UNL     1      -7.917  17.225  66.851  1.00  0.00    -0.225 C  
HETATM   23  O   UNL     1      -8.170  18.087  65.743  1.00  0.00    -0.519 OA 
HETATM   24  H   UNL     1      -7.758  18.931  65.886  1.00  0.00     0.000 HD 
ENDBRANCH  21  22
ENDBRANCH  16  21
ENDBRANCH  15  16
ENDBRANCH   4  15
TORSDOF 6
ENDMDL
MODEL       43
REMARK 921   NORMALIZED FREE ENERGY PREDICTED BY IDOCK:   -4.75 KCAL/MOL
REMARK 922        TOTAL FREE ENERGY PREDICTED BY IDOCK:   -7.28 KCAL/MOL
REMARK 923 INTER-LIGAND FREE ENERGY PREDICTED BY IDOCK:   -6.85 KCAL/MOL
REMARK 924 INTRA-LIGAND FREE ENERGY PREDICTED BY IDOCK:   -0.43 KCAL/MOL
REMARK 927      BINDING AFFINITY PREDICTED BY RF-SCORE:    0.00 PKD
ROOT
HETATM    1  O   UNL     1     -13.275  13.623  65.199  1.00  0.00    -0.739 OA 
HETATM    2  H   UNL     1     -13.477  13.197  64.375  1.00  0.00     0.000 HD 
HETATM    3  O   UNL     2     -10.361  10.344  65.176  1.00  0.00    -0.295 OA 
HETATM    4  C   UNL     1     -12.137  13.082  65.862  1.00  0.00    -0.444 C  
HETATM    5  O   UNL     2      -7.421  10.855  67.996  1.00  0.00    -0.087 OA 
HETATM    6  C   UNL     2      -9.542  10.930  66.070  1.00  0.00    -0.209 C  
HETATM    7  C   UNL     2      -9.778  10.552  67.478  1.00  0.00    -0.190 A  
HETATM    8  O   UNL     2      -8.655  11.716  65.759  1.00  0.00    -0.039 OA 
HETATM    9  C   UNL     2     -10.185   9.981  70.186  1.00  0.00    -0.297 A  
HETATM   10  C   UNL     2      -8.696  10.535  68.367  1.00  0.00    -0.137 A  
HETATM   11  C   UNL     2      -8.896  10.211  69.704  1.00  0.00    -0.184 A  
HETATM   12  C   UNL     2     -11.069  10.318  67.966  1.00  0.00    -0.336 A  
HETATM   13  H   UNL     2      -6.687  10.844  68.600  1.00  0.00     0.000 HD 
HETATM   14  C   UNL     2     -11.274  10.057  69.320  1.00  0.00    -0.213 A  
ENDROOT
BRANCH   4  15
HETATM   15  C   UNL     1     -11.806  13.778  67.210  1.00  0.00    -0.401 C  
BRANCH  15  16
HETATM   16  N   UNL     1     -11.321  15.180  67.128  1.00  0.00    -0.323 NA 
BRANCH  16  17
HETATM   17  C   UNL     1     -10.432  15.549  68.269  1.00  0.00    -0.242 C  
BRANCH  17  18
HETATM   18  C   UNL     1     -10.769  16.769  69.144  1.00  0.00    -0.329 C  
HETATM   19  H   UNL     1     -11.143  17.196  71.054  1.00  0.00     0.000 HD 
HETATM   20  O   UNL     1     -10.934  16.443  70.514  1.00  0.00    -0.296 OA 
ENDBRANCH  17  18
ENDBRANCH  16  17
BRANCH  16  21
HETATM   21  C   UNL     1     -10.574  15.418  65.868  1.00  0.00    -0.339 C  
BRANCH  21  22
HETATM   22  C   UNL     1     -10.892  16.710  65.084  1.00  0.00    -0.186 C  
HETATM   23  O   UNL     1     -11.554  16.390  63.861  1.00  0.00    -1.564 OA 
HETATM   24  H   UNL     1     -11.749  17.185  63.379  1.00  0.00     0.000 HD 
ENDBRANCH  21  22
ENDBRANCH  16  21
ENDBRANCH  15  16
ENDBRANCH   4  15
TORSDOF 6
ENDMDL
MODEL       44
REMARK 921   NORMALIZED FREE ENERGY PREDICTED BY IDOCK:   -4.74 KCAL/MOL
REMARK 922        TOTAL FREE ENERGY PREDICTED BY IDOCK:   -7.26 KCAL/MOL
REMARK 923 INTER-LIGAND FREE ENERGY PREDICTED BY IDOCK:   -6.46 KCAL/MOL
REMARK 924 INTRA-LIGAND FREE ENERGY PREDICTED BY IDOCK:   -0.80 KCAL/MOL
REMARK 927      BINDING AFFINITY PREDICTED BY RF-SCORE:    0.00 PKD
ROOT
HETATM    1  O   UNL     1      -6.369  17.447  66.823  1.00  0.00    -0.162 OA 
HETATM    2  H   UNL     1      -5.721  17.371  67.513  1.00  0.00     0.000 HD 
HETATM    3  O   UNL     2      -8.505  14.971  69.747  1.00  0.00    -0.102 OA 
HETATM    4  C   UNL     1      -7.627  16.869  67.148  1.00  0.00    -0.179 C  
HETATM    5  O   UNL     2     -12.525  14.738  68.947  1.00  0.00    -0.573 OA 
HETATM    6  C   UNL     2      -9.724  15.260  69.253  1.00  0.00    -0.254 C  
HETATM    7  C   UNL     2     -10.235  14.306  68.249  1.00  0.00    -0.244 A  
HETATM    8  O   UNL     2     -10.380  16.234  69.602  1.00  0.00    -0.275 OA 
HETATM    9  C   UNL     2     -11.273  12.618  66.274  1.00  0.00    -0.354 A  
HETATM   10  C   UNL     2     -11.616  14.097  68.153  1.00  0.00    -0.331 A  
HETATM   11  C   UNL     2     -12.125  13.226  67.196  1.00  0.00    -0.352 A  
HETATM   12  C   UNL     2      -9.383  13.691  67.323  1.00  0.00    -0.233 A  
HETATM   13  H   UNL     2     -13.462  14.596  68.881  1.00  0.00     0.000 HD 
HETATM   14  C   UNL     2      -9.904  12.870  66.324  1.00  0.00    -0.273 A  
ENDROOT
BRANCH   4  15
HETATM   15  C   UNL     1      -8.686  16.993  66.019  1.00  0.00    -0.132 C  
BRANCH  15  16
HETATM   16  N   UNL     1      -9.856  17.866  66.302  1.00  0.00    -0.435 NA 
BRANCH  16  17
HETATM   17  C   UNL     1      -9.517  19.318  66.248  1.00  0.00    -0.345 C  
BRANCH  17  18
HETATM   18  C   UNL     1      -9.530  20.160  67.536  1.00  0.00    -0.393 C  
HETATM   19  H   UNL     1      -9.658  19.896  69.507  1.00  0.00     0.000 HD 
HETATM   20  O   UNL     1      -9.650  19.376  68.712  1.00  0.00    -0.393 OA 
ENDBRANCH  17  18
ENDBRANCH  16  17
BRANCH  16  21
HETATM   21  C   UNL     1     -10.958  17.615  65.341  1.00  0.00     0.244 C  
BRANCH  21  22
HETATM   22  C   UNL     1     -11.202  16.155  64.901  1.00  0.00    -0.285 C  
HETATM   23  O   UNL     1     -12.024  16.126  63.735  1.00  0.00    -1.394 OA 
HETATM   24  H   UNL     1     -12.174  15.227  63.465  1.00  0.00     0.000 HD 
ENDBRANCH  21  22
ENDBRANCH  16  21
ENDBRANCH  15  16
ENDBRANCH   4  15
TORSDOF 6
ENDMDL
MODEL       45
REMARK 921   NORMALIZED FREE ENERGY PREDICTED BY IDOCK:   -4.69 KCAL/MOL
REMARK 922        TOTAL FREE ENERGY PREDICTED BY IDOCK:   -7.20 KCAL/MOL
REMARK 923 INTER-LIGAND FREE ENERGY PREDICTED BY IDOCK:   -6.55 KCAL/MOL
REMARK 924 INTRA-LIGAND FREE ENERGY PREDICTED BY IDOCK:   -0.65 KCAL/MOL
REMARK 927      BINDING AFFINITY PREDICTED BY RF-SCORE:    0.00 PKD
ROOT
HETATM    1  O   UNL     1      -5.863  15.981  66.815  1.00  0.00    -0.267 OA 
HETATM    2  H   UNL     1      -5.295  15.372  67.271  1.00  0.00     0.000 HD 
HETATM    3  O   UNL     2      -8.761  13.052  68.318  1.00  0.00    -0.186 OA 
HETATM    4  C   UNL     1      -7.249  15.701  66.969  1.00  0.00    -0.140 C  
HETATM    5  O   UNL     2     -12.624  14.421  68.078  1.00  0.00    -0.502 OA 
HETATM    6  C   UNL     2      -9.812  13.888  68.217  1.00  0.00    -0.231 C  
HETATM    7  C   UNL     2     -10.562  13.801  66.948  1.00  0.00    -0.276 A  
HETATM    8  O   UNL     2     -10.143  14.666  69.104  1.00  0.00    -0.225 OA 
HETATM    9  C   UNL     2     -12.007  13.791  64.553  1.00  0.00    -0.458 A  
HETATM   10  C   UNL     2     -11.935  14.074  66.951  1.00  0.00    -0.447 A  
HETATM   11  C   UNL     2     -12.658  14.028  65.764  1.00  0.00    -0.512 A  
HETATM   12  C   UNL     2      -9.914  13.561  65.730  1.00  0.00    -0.266 A  
HETATM   13  H   UNL     2     -13.556  14.607  68.079  1.00  0.00     0.000 HD 
HETATM   14  C   UNL     2     -10.630  13.581  64.535  1.00  0.00    -0.439 A  
ENDROOT
BRANCH   4  15
HETATM   15  C   UNL     1      -8.178  16.697  66.223  1.00  0.00    -0.330 C  
BRANCH  15  16
HETATM   16  N   UNL     1      -8.511  17.955  66.941  1.00  0.00    -0.237 NA 
BRANCH  16  17
HETATM   17  C   UNL     1      -9.915  18.400  66.701  1.00  0.00    -0.368 C  
BRANCH  17  18
HETATM   18  C   UNL     1     -10.557  19.452  67.622  1.00  0.00    -0.458 C  
HETATM   19  H   UNL     1     -10.369  21.387  68.059  1.00  0.00     0.000 HD 
HETATM   20  O   UNL     1      -9.973  20.738  67.490  1.00  0.00    -0.408 OA 
ENDBRANCH  17  18
ENDBRANCH  16  17
BRANCH  16  21
HETATM   21  C   UNL     1      -8.321  17.804  68.406  1.00  0.00    -0.295 C  
BRANCH  21  22
HETATM   22  C   UNL     1      -7.129  18.543  69.050  1.00  0.00    -0.260 C  
HETATM   23  O   UNL     1      -7.496  19.884  69.365  1.00  0.00    -0.244 OA 
HETATM   24  H   UNL     1      -6.762  20.339  69.761  1.00  0.00     0.000 HD 
ENDBRANCH  21  22
ENDBRANCH  16  21
ENDBRANCH  15  16
ENDBRANCH   4  15
TORSDOF 6
ENDMDL
MODEL       46
REMARK 921   NORMALIZED FREE ENERGY PREDICTED BY IDOCK:   -4.68 KCAL/MOL
REMARK 922        TOTAL FREE ENERGY PREDICTED BY IDOCK:   -7.18 KCAL/MOL
REMARK 923 INTER-LIGAND FREE ENERGY PREDICTED BY IDOCK:   -6.66 KCAL/MOL
REMARK 924 INTRA-LIGAND FREE ENERGY PREDICTED BY IDOCK:   -0.52 KCAL/MOL
REMARK 927      BINDING AFFINITY PREDICTED BY RF-SCORE:    0.00 PKD
ROOT
HETATM    1  O   UNL     1      -8.823  12.951  66.011  1.00  0.00    -0.408 OA 
HETATM    2  H   UNL     1      -8.023  13.282  66.399  1.00  0.00     0.000 HD 
HETATM    3  O   UNL     2      -8.220  10.124  69.312  1.00  0.00    -0.130 OA 
HETATM    4  C   UNL     1      -9.413  11.879  66.739  1.00  0.00    -0.201 C  
HETATM    5  O   UNL     2     -11.571   7.876  70.068  1.00  0.00    -0.475 OA 
HETATM    6  C   UNL     2      -9.505   9.724  69.338  1.00  0.00    -0.201 C  
HETATM    7  C   UNL     2      -9.806   8.528  68.526  1.00  0.00    -0.186 A  
HETATM    8  O   UNL     2     -10.376  10.292  69.988  1.00  0.00    -0.258 OA 
HETATM    9  C   UNL     2     -10.515   6.324  66.957  1.00  0.00    -0.341 A  
HETATM   10  C   UNL     2     -10.829   7.666  68.941  1.00  0.00    -0.017 A  
HETATM   11  C   UNL     2     -11.151   6.549  68.179  1.00  0.00    -0.332 A  
HETATM   12  C   UNL     2      -9.170   8.296  67.301  1.00  0.00    -0.165 A  
HETATM   13  H   UNL     2     -12.266   7.291  70.349  1.00  0.00     0.000 HD 
HETATM   14  C   UNL     2      -9.541   7.212  66.508  1.00  0.00    -0.203 A  
ENDROOT
BRANCH   4  15
HETATM   15  C   UNL     1     -10.723  11.337  66.106  1.00  0.00    -0.250 C  
BRANCH  15  16
HETATM   16  N   UNL     1     -11.977  12.047  66.469  1.00  0.00    -0.601 NA 
BRANCH  16  17
HETATM   17  C   UNL     1     -11.799  12.975  67.625  1.00  0.00    -0.351 C  
BRANCH  17  18
HETATM   18  C   UNL     1     -12.061  14.481  67.449  1.00  0.00    -0.257 C  
HETATM   19  H   UNL     1     -11.920  16.168  68.501  1.00  0.00     0.000 HD 
HETATM   20  O   UNL     1     -11.758  15.238  68.610  1.00  0.00    -0.343 OA 
ENDBRANCH  17  18
ENDBRANCH  16  17
BRANCH  16  21
HETATM   21  C   UNL     1     -12.500  12.834  65.325  1.00  0.00    -0.465 C  
BRANCH  21  22
HETATM   22  C   UNL     1     -11.717  12.766  63.996  1.00  0.00    -0.426 C  
HETATM   23  O   UNL     1     -12.169  13.788  63.109  1.00  0.00    -1.048 OA 
HETATM   24  H   UNL     1     -11.687  13.746  62.291  1.00  0.00     0.000 HD 
ENDBRANCH  21  22
ENDBRANCH  16  21
ENDBRANCH  15  16
ENDBRANCH   4  15
TORSDOF 6
ENDMDL
MODEL       47
REMARK 921   NORMALIZED FREE ENERGY PREDICTED BY IDOCK:   -4.67 KCAL/MOL
REMARK 922        TOTAL FREE ENERGY PREDICTED BY IDOCK:   -7.17 KCAL/MOL
REMARK 923 INTER-LIGAND FREE ENERGY PREDICTED BY IDOCK:   -6.29 KCAL/MOL
REMARK 924 INTRA-LIGAND FREE ENERGY PREDICTED BY IDOCK:   -0.88 KCAL/MOL
REMARK 927      BINDING AFFINITY PREDICTED BY RF-SCORE:    0.00 PKD
ROOT
HETATM    1  O   UNL     1     -11.679  13.038  62.833  1.00  0.00    -0.772 OA 
HETATM    2  H   UNL     1     -11.839  12.593  62.009  1.00  0.00     0.000 HD 
HETATM    3  O   UNL     2      -9.138   9.486  63.254  1.00  0.00    -0.236 OA 
HETATM    4  C   UNL     1     -10.678  12.420  63.634  1.00  0.00    -0.455 C  
HETATM    5  O   UNL     2      -6.465   9.845  66.350  1.00  0.00    -0.068 OA 
HETATM    6  C   UNL     2      -8.358  10.033  64.206  1.00  0.00    -0.169 C  
HETATM    7  C   UNL     2      -8.775   9.753  65.595  1.00  0.00    -0.168 A  
HETATM    8  O   UNL     2      -7.366  10.709  63.960  1.00  0.00     0.049 OA 
HETATM    9  C   UNL     2      -9.515   9.366  68.264  1.00  0.00    -0.147 A  
HETATM   10  C   UNL     2      -7.797   9.674  66.594  1.00  0.00    -0.105 A  
HETATM   11  C   UNL     2      -8.167   9.441  67.914  1.00  0.00    -0.115 A  
HETATM   12  C   UNL     2     -10.127   9.675  65.951  1.00  0.00    -0.304 A  
HETATM   13  H   UNL     2      -5.801   9.791  67.028  1.00  0.00     0.000 HD 
HETATM   14  C   UNL     2     -10.495   9.506  67.285  1.00  0.00    -0.328 A  
ENDROOT
BRANCH   4  15
HETATM   15  C   UNL     1     -10.415  13.148  64.981  1.00  0.00    -0.342 C  
BRANCH  15  16
HETATM   16  N   UNL     1     -11.608  13.689  65.684  1.00  0.00    -0.320 NA 
BRANCH  16  17
HETATM   17  C   UNL     1     -11.889  12.981  66.967  1.00  0.00    -0.377 C  
BRANCH  17  18
HETATM   18  C   UNL     1     -11.271  13.494  68.280  1.00  0.00    -0.274 C  
HETATM   19  H   UNL     1      -9.603  13.272  69.348  1.00  0.00     0.000 HD 
HETATM   20  O   UNL     1      -9.985  12.955  68.537  1.00  0.00    -0.223 OA 
ENDBRANCH  17  18
ENDBRANCH  16  17
BRANCH  16  21
HETATM   21  C   UNL     1     -11.447  15.134  65.981  1.00  0.00    -0.157 C  
BRANCH  21  22
HETATM   22  C   UNL     1     -10.892  16.035  64.858  1.00  0.00    -0.372 C  
HETATM   23  O   UNL     1     -11.839  16.135  63.796  1.00  0.00    -1.408 OA 
HETATM   24  H   UNL     1     -11.498  16.690  63.105  1.00  0.00     0.000 HD 
ENDBRANCH  21  22
ENDBRANCH  16  21
ENDBRANCH  15  16
ENDBRANCH   4  15
TORSDOF 6
ENDMDL
MODEL       48
REMARK 921   NORMALIZED FREE ENERGY PREDICTED BY IDOCK:   -4.65 KCAL/MOL
REMARK 922        TOTAL FREE ENERGY PREDICTED BY IDOCK:   -7.14 KCAL/MOL
REMARK 923 INTER-LIGAND FREE ENERGY PREDICTED BY IDOCK:   -6.72 KCAL/MOL
REMARK 924 INTRA-LIGAND FREE ENERGY PREDICTED BY IDOCK:   -0.42 KCAL/MOL
REMARK 927      BINDING AFFINITY PREDICTED BY RF-SCORE:    0.00 PKD
ROOT
HETATM    1  O   UNL     1      -9.459  16.674  65.429  1.00  0.00    -0.413 OA 
HETATM    2  H   UNL     1     -10.034  16.969  64.733  1.00  0.00     0.000 HD 
HETATM    3  O   UNL     2     -12.623  13.639  65.567  1.00  0.00    -0.477 OA 
HETATM    4  C   UNL     1      -9.844  15.430  66.004  1.00  0.00    -0.326 C  
HETATM    5  O   UNL     2     -11.538  10.360  67.788  1.00  0.00    -0.654 OA 
HETATM    6  C   UNL     2     -11.865  12.732  66.212  1.00  0.00    -0.423 C  
HETATM    7  C   UNL     2     -11.982  12.750  67.684  1.00  0.00    -0.331 A  
HETATM    8  O   UNL     2     -11.131  11.936  65.639  1.00  0.00    -0.304 OA 
HETATM    9  C   UNL     2     -12.053  12.746  70.480  1.00  0.00    -0.369 A  
HETATM   10  C   UNL     2     -11.812  11.554  68.393  1.00  0.00    -0.283 A  
HETATM   11  C   UNL     2     -11.888  11.550  69.781  1.00  0.00    -0.429 A  
HETATM   12  C   UNL     2     -12.150  13.947  68.390  1.00  0.00    -0.327 A  
HETATM   13  H   UNL     2     -11.422   9.549  68.270  1.00  0.00     0.000 HD 
HETATM   14  C   UNL     2     -12.161  13.947  69.784  1.00  0.00    -0.404 A  
ENDROOT
BRANCH   4  15
HETATM   15  C   UNL     1      -8.905  14.947  67.142  1.00  0.00    -0.217 C  
BRANCH  15  16
HETATM   16  N   UNL     1      -8.691  15.893  68.269  1.00  0.00    -0.171 NA 
BRANCH  16  17
HETATM   17  C   UNL     1      -7.611  16.884  67.991  1.00  0.00    -0.179 C  
BRANCH  17  18
HETATM   18  C   UNL     1      -6.210  16.684  68.594  1.00  0.00    -0.142 C  
HETATM   19  H   UNL     1      -5.209  17.123  70.261  1.00  0.00     0.000 HD 
HETATM   20  O   UNL     1      -6.075  17.247  69.889  1.00  0.00    -0.244 OA 
ENDBRANCH  17  18
ENDBRANCH  16  17
BRANCH  16  21
HETATM   21  C   UNL     1      -9.933  16.642  68.584  1.00  0.00    -0.261 C  
BRANCH  21  22
HETATM   22  C   UNL     1      -9.854  18.184  68.587  1.00  0.00    -0.377 C  
HETATM   23  O   UNL     1     -10.503  18.710  67.430  1.00  0.00    -0.384 OA 
HETATM   24  H   UNL     1     -10.454  19.659  67.432  1.00  0.00     0.000 HD 
ENDBRANCH  21  22
ENDBRANCH  16  21
ENDBRANCH  15  16
ENDBRANCH   4  15
TORSDOF 6
ENDMDL
MODEL       49
REMARK 921   NORMALIZED FREE ENERGY PREDICTED BY IDOCK:   -4.64 KCAL/MOL
REMARK 922        TOTAL FREE ENERGY PREDICTED BY IDOCK:   -7.13 KCAL/MOL
REMARK 923 INTER-LIGAND FREE ENERGY PREDICTED BY IDOCK:   -6.41 KCAL/MOL
REMARK 924 INTRA-LIGAND FREE ENERGY PREDICTED BY IDOCK:   -0.72 KCAL/MOL
REMARK 927      BINDING AFFINITY PREDICTED BY RF-SCORE:    0.00 PKD
ROOT
HETATM    1  O   UNL     1     -12.834  10.541  70.317  1.00  0.00    -0.465 OA 
HETATM    2  H   UNL     1     -13.285  11.099  70.940  1.00  0.00     0.000 HD 
HETATM    3  O   UNL     2     -11.963  14.526  68.702  1.00  0.00    -0.322 OA 
HETATM    4  C   UNL     1     -12.073  11.256  69.351  1.00  0.00    -0.315 C  
HETATM    5  O   UNL     2      -8.954  14.448  65.910  1.00  0.00    -0.455 OA 
HETATM    6  C   UNL     2     -10.895  14.115  67.992  1.00  0.00    -0.246 C  
HETATM    7  C   UNL     2     -11.178  13.740  66.592  1.00  0.00    -0.327 A  
HETATM    8  O   UNL     2      -9.760  14.058  68.453  1.00  0.00    -0.217 OA 
HETATM    9  C   UNL     2     -11.606  12.920  63.953  1.00  0.00    -0.515 A  
HETATM   10  C   UNL     2     -10.185  13.930  65.624  1.00  0.00    -0.328 A  
HETATM   11  C   UNL     2     -10.417  13.558  64.305  1.00  0.00    -0.258 A  
HETATM   12  C   UNL     2     -12.371  13.101  66.234  1.00  0.00    -0.346 A  
HETATM   13  H   UNL     2      -8.280  14.577  65.253  1.00  0.00     0.000 HD 
HETATM   14  C   UNL     2     -12.574  12.671  64.924  1.00  0.00    -0.525 A  
ENDROOT
BRANCH   4  15
HETATM   15  C   UNL     1     -11.335  10.344  68.334  1.00  0.00    -0.227 C  
BRANCH  15  16
HETATM   16  N   UNL     1      -9.959   9.920  68.702  1.00  0.00    -0.159 NA 
BRANCH  16  17
HETATM   17  C   UNL     1      -9.823   9.604  70.154  1.00  0.00    -0.262 C  
BRANCH  17  18
HETATM   18  C   UNL     1     -10.011   8.159  70.647  1.00  0.00    -0.189 C  
HETATM   19  H   UNL     1     -11.489   6.902  71.102  1.00  0.00     0.000 HD 
HETATM   20  O   UNL     1     -11.373   7.794  70.797  1.00  0.00    -0.276 OA 
ENDBRANCH  17  18
ENDBRANCH  16  17
BRANCH  16  21
HETATM   21  C   UNL     1      -9.540   8.724  67.930  1.00  0.00    -0.145 C  
BRANCH  21  22
HETATM   22  C   UNL     1     -10.574   8.099  66.968  1.00  0.00    -0.275 C  
HETATM   23  O   UNL     1     -11.301   7.068  67.634  1.00  0.00    -0.558 OA 
HETATM   24  H   UNL     1     -11.937   6.683  67.041  1.00  0.00     0.000 HD 
ENDBRANCH  21  22
ENDBRANCH  16  21
ENDBRANCH  15  16
ENDBRANCH   4  15
TORSDOF 6
ENDMDL
MODEL       50
REMARK 921   NORMALIZED FREE ENERGY PREDICTED BY IDOCK:   -4.63 KCAL/MOL
REMARK 922        TOTAL FREE ENERGY PREDICTED BY IDOCK:   -7.12 KCAL/MOL
REMARK 923 INTER-LIGAND FREE ENERGY PREDICTED BY IDOCK:   -6.32 KCAL/MOL
REMARK 924 INTRA-LIGAND FREE ENERGY PREDICTED BY IDOCK:   -0.80 KCAL/MOL
REMARK 927      BINDING AFFINITY PREDICTED BY RF-SCORE:    0.00 PKD
ROOT
HETATM    1  O   UNL     1      -7.672  14.109  69.655  1.00  0.00    -0.346 OA 
HETATM    2  H   UNL     1      -7.849  14.679  70.393  1.00  0.00     0.000 HD 
HETATM    3  O   UNL     2     -10.811  16.702  68.021  1.00  0.00    -0.343 OA 
HETATM    4  C   UNL     1      -8.377  14.467  68.471  1.00  0.00    -0.160 C  
HETATM    5  O   UNL     2     -11.111  16.398  63.937  1.00  0.00    -1.179 OA 
HETATM    6  C   UNL     2     -10.499  16.442  66.737  1.00  0.00    -0.273 C  
HETATM    7  C   UNL     2     -11.258  15.335  66.120  1.00  0.00    -0.225 A  
HETATM    8  O   UNL     2      -9.657  17.069  66.106  1.00  0.00    -0.346 OA 
HETATM    9  C   UNL     2     -12.567  13.203  64.870  1.00  0.00    -0.468 A  
HETATM   10  C   UNL     2     -11.523  15.377  64.746  1.00  0.00    -0.336 A  
HETATM   11  C   UNL     2     -12.210  14.334  64.136  1.00  0.00    -0.410 A  
HETATM   12  C   UNL     2     -11.620  14.199  66.853  1.00  0.00    -0.410 A  
HETATM   13  H   UNL     2     -11.291  16.426  63.005  1.00  0.00     0.000 HD 
HETATM   14  C   UNL     2     -12.251  13.126  66.225  1.00  0.00    -0.423 A  
ENDROOT
BRANCH   4  15
HETATM   15  C   UNL     1      -8.088  13.536  67.263  1.00  0.00    -0.130 C  
BRANCH  15  16
HETATM   16  N   UNL     1      -8.141  12.074  67.527  1.00  0.00    -0.150 NA 
BRANCH  16  17
HETATM   17  C   UNL     1      -9.387  11.663  68.239  1.00  0.00    -0.191 C  
BRANCH  17  18
HETATM   18  C   UNL     1      -9.540  10.219  68.750  1.00  0.00    -0.175 C  
HETATM   19  H   UNL     1     -10.638   8.598  68.379  1.00  0.00     0.000 HD 
HETATM   20  O   UNL     1     -10.544   9.489  68.063  1.00  0.00    -0.222 OA 
ENDBRANCH  17  18
ENDBRANCH  16  17
BRANCH  16  21
HETATM   21  C   UNL     1      -8.055  11.297  66.265  1.00  0.00    -0.108 C  
BRANCH  21  22
HETATM   22  C   UNL     1      -9.207  11.455  65.250  1.00  0.00    -0.129 C  
HETATM   23  O   UNL     1      -9.990  10.264  65.208  1.00  0.00    -0.290 OA 
HETATM   24  H   UNL     1     -10.699  10.362  64.583  1.00  0.00     0.000 HD 
ENDBRANCH  21  22
ENDBRANCH  16  21
ENDBRANCH  15  16
ENDBRANCH   4  15
TORSDOF 6
ENDMDL
MODEL       51
REMARK 921   NORMALIZED FREE ENERGY PREDICTED BY IDOCK:   -4.63 KCAL/MOL
REMARK 922        TOTAL FREE ENERGY PREDICTED BY IDOCK:   -7.11 KCAL/MOL
REMARK 923 INTER-LIGAND FREE ENERGY PREDICTED BY IDOCK:   -6.53 KCAL/MOL
REMARK 924 INTRA-LIGAND FREE ENERGY PREDICTED BY IDOCK:   -0.59 KCAL/MOL
REMARK 927      BINDING AFFINITY PREDICTED BY RF-SCORE:    0.00 PKD
ROOT
HETATM    1  O   UNL     1     -10.860  16.992  69.804  1.00  0.00    -0.389 OA 
HETATM    2  H   UNL     1     -10.017  17.410  69.934  1.00  0.00     0.000 HD 
HETATM    3  O   UNL     2      -8.308  14.656  67.107  1.00  0.00    -0.200 OA 
HETATM    4  C   UNL     1     -10.809  15.842  68.969  1.00  0.00    -0.248 C  
HETATM    5  O   UNL     2     -10.120  11.186  65.868  1.00  0.00    -0.229 OA 
HETATM    6  C   UNL     2      -9.146  13.603  67.062  1.00  0.00    -0.248 C  
HETATM    7  C   UNL     2     -10.111  13.617  65.944  1.00  0.00    -0.320 A  
HETATM    8  O   UNL     2      -9.122  12.686  67.875  1.00  0.00    -0.184 OA 
HETATM    9  C   UNL     2     -12.042  13.577  63.921  1.00  0.00    -0.493 A  
HETATM   10  C   UNL     2     -10.545  12.399  65.407  1.00  0.00    -0.284 A  
HETATM   11  C   UNL     2     -11.475  12.385  64.374  1.00  0.00    -0.408 A  
HETATM   12  C   UNL     2     -10.681  14.811  65.485  1.00  0.00    -0.369 A  
HETATM   13  H   UNL     2     -10.415  10.360  65.504  1.00  0.00     0.000 HD 
HETATM   14  C   UNL     2     -11.661  14.788  64.494  1.00  0.00    -0.398 A  
ENDROOT
BRANCH   4  15
HETATM   15  C   UNL     1     -12.187  15.158  68.756  1.00  0.00    -0.069 C  
BRANCH  15  16
HETATM   16  N   UNL     1     -12.663  14.275  69.853  1.00  0.00    -0.170 NA 
BRANCH  16  17
HETATM   17  C   UNL     1     -11.662  13.232  70.227  1.00  0.00    -0.143 C  
BRANCH  17  18
HETATM   18  C   UNL     1     -12.064  11.747  70.230  1.00  0.00    -0.342 C  
HETATM   19  H   UNL     1     -12.843  10.399  71.475  1.00  0.00     0.000 HD 
HETATM   20  O   UNL     1     -12.595  11.316  71.473  1.00  0.00    -0.361 OA 
ENDBRANCH  17  18
ENDBRANCH  16  17
BRANCH  16  21
HETATM   21  C   UNL     1     -12.988  15.058  71.071  1.00  0.00    -0.404 C  
BRANCH  21  22
HETATM   22  C   UNL     1     -14.255  14.658  71.858  1.00  0.00    -0.542 C  
HETATM   23  O   UNL     1     -13.949  13.614  72.780  1.00  0.00    -0.725 OA 
HETATM   24  H   UNL     1     -14.728  13.368  73.265  1.00  0.00     0.000 HD 
ENDBRANCH  21  22
ENDBRANCH  16  21
ENDBRANCH  15  16
ENDBRANCH   4  15
TORSDOF 6
ENDMDL
MODEL       52
REMARK 921   NORMALIZED FREE ENERGY PREDICTED BY IDOCK:   -4.63 KCAL/MOL
REMARK 922        TOTAL FREE ENERGY PREDICTED BY IDOCK:   -7.11 KCAL/MOL
REMARK 923 INTER-LIGAND FREE ENERGY PREDICTED BY IDOCK:   -6.32 KCAL/MOL
REMARK 924 INTRA-LIGAND FREE ENERGY PREDICTED BY IDOCK:   -0.79 KCAL/MOL
REMARK 927      BINDING AFFINITY PREDICTED BY RF-SCORE:    0.00 PKD
ROOT
HETATM    1  O   UNL     1      -9.104   8.820  65.082  1.00  0.00    -0.383 OA 
HETATM    2  H   UNL     1      -8.733   9.599  64.688  1.00  0.00     0.000 HD 
HETATM    3  O   UNL     2     -10.130  11.873  68.060  1.00  0.00    -0.184 OA 
HETATM    4  C   UNL     1      -9.847   9.074  66.269  1.00  0.00    -0.291 C  
HETATM    5  O   UNL     2     -12.939  10.547  70.745  1.00  0.00    -0.370 OA 
HETATM    6  C   UNL     2     -11.121  11.147  68.612  1.00  0.00    -0.239 C  
HETATM    7  C   UNL     2     -10.722  10.322  69.770  1.00  0.00    -0.328 A  
HETATM    8  O   UNL     2     -12.276  11.161  68.204  1.00  0.00    -0.612 OA 
HETATM    9  C   UNL     2     -10.069   8.652  71.917  1.00  0.00    -0.398 A  
HETATM   10  C   UNL     2     -11.661  10.068  70.778  1.00  0.00    -0.360 A  
HETATM   11  C   UNL     2     -11.319   9.270  71.864  1.00  0.00    -0.359 A  
HETATM   12  C   UNL     2      -9.468   9.702  69.829  1.00  0.00    -0.242 A  
HETATM   13  H   UNL     2     -13.576  10.374  71.428  1.00  0.00     0.000 HD 
HETATM   14  C   UNL     2      -9.153   8.850  70.887  1.00  0.00    -0.283 A  
ENDROOT
BRANCH   4  15
HETATM   15  C   UNL     1     -10.454   7.799  66.915  1.00  0.00    -0.317 C  
BRANCH  15  16
HETATM   16  N   UNL     1      -9.640   6.559  66.823  1.00  0.00    -0.156 NA 
BRANCH  16  17
HETATM   17  C   UNL     1      -8.692   6.407  67.965  1.00  0.00    -0.115 C  
BRANCH  17  18
HETATM   18  C   UNL     1      -7.239   6.892  67.828  1.00  0.00    -0.091 C  
HETATM   19  H   UNL     1      -5.972   7.474  66.403  1.00  0.00     0.000 HD 
HETATM   20  O   UNL     1      -6.870   7.174  66.488  1.00  0.00    -0.061 OA 
ENDBRANCH  17  18
ENDBRANCH  16  17
BRANCH  16  21
HETATM   21  C   UNL     1     -10.503   5.352  66.777  1.00  0.00    -0.289 C  
BRANCH  21  22
HETATM   22  C   UNL     1     -10.293   4.369  65.605  1.00  0.00    -0.225 C  
HETATM   23  O   UNL     1     -11.452   4.345  64.773  1.00  0.00    -1.011 OA 
HETATM   24  H   UNL     1     -11.323   3.740  64.052  1.00  0.00     0.000 HD 
ENDBRANCH  21  22
ENDBRANCH  16  21
ENDBRANCH  15  16
ENDBRANCH   4  15
TORSDOF 6
ENDMDL
MODEL       53
REMARK 921   NORMALIZED FREE ENERGY PREDICTED BY IDOCK:   -4.62 KCAL/MOL
REMARK 922        TOTAL FREE ENERGY PREDICTED BY IDOCK:   -7.10 KCAL/MOL
REMARK 923 INTER-LIGAND FREE ENERGY PREDICTED BY IDOCK:   -6.59 KCAL/MOL
REMARK 924 INTRA-LIGAND FREE ENERGY PREDICTED BY IDOCK:   -0.51 KCAL/MOL
REMARK 927      BINDING AFFINITY PREDICTED BY RF-SCORE:    0.00 PKD
ROOT
HETATM    1  O   UNL     1      -8.717   9.158  70.274  1.00  0.00    -0.160 OA 
HETATM    2  H   UNL     1      -7.776   9.089  70.176  1.00  0.00     0.000 HD 
HETATM    3  O   UNL     2      -8.127  10.908  66.295  1.00  0.00    -0.157 OA 
HETATM    4  C   UNL     1      -9.383   9.636  69.111  1.00  0.00    -0.172 C  
HETATM    5  O   UNL     2     -11.648  11.264  64.214  1.00  0.00    -0.190 OA 
HETATM    6  C   UNL     2      -9.404  10.720  65.911  1.00  0.00    -0.189 C  
HETATM    7  C   UNL     2     -10.305  11.865  66.151  1.00  0.00    -0.261 A  
HETATM    8  O   UNL     2      -9.807   9.686  65.393  1.00  0.00    -0.315 OA 
HETATM    9  C   UNL     2     -12.127  13.932  66.633  1.00  0.00    -0.485 A  
HETATM   10  C   UNL     2     -11.383  12.073  65.281  1.00  0.00    -0.312 A  
HETATM   11  C   UNL     2     -12.263  13.127  65.502  1.00  0.00    -0.513 A  
HETATM   12  C   UNL     2     -10.171  12.677  67.283  1.00  0.00    -0.227 A  
HETATM   13  H   UNL     2     -12.379  11.405  63.624  1.00  0.00     0.000 HD 
HETATM   14  C   UNL     2     -11.094  13.691  67.536  1.00  0.00    -0.296 A  
ENDROOT
BRANCH   4  15
HETATM   15  C   UNL     1     -10.923   9.750  69.271  1.00  0.00    -0.193 C  
BRANCH  15  16
HETATM   16  N   UNL     1     -11.413  10.379  70.525  1.00  0.00    -0.327 NA 
BRANCH  16  17
HETATM   17  C   UNL     1     -12.504  11.369  70.284  1.00  0.00    -0.232 C  
BRANCH  17  18
HETATM   18  C   UNL     1     -12.468  12.738  70.985  1.00  0.00    -0.277 C  
HETATM   19  H   UNL     1     -13.213  13.620  72.610  1.00  0.00     0.000 HD 
HETATM   20  O   UNL     1     -13.235  12.774  72.177  1.00  0.00    -0.475 OA 
ENDBRANCH  17  18
ENDBRANCH  16  17
BRANCH  16  21
HETATM   21  C   UNL     1     -11.920   9.358  71.476  1.00  0.00    -0.382 C  
BRANCH  21  22
HETATM   22  C   UNL     1     -13.441   9.326  71.743  1.00  0.00    -0.415 C  
HETATM   23  O   UNL     1     -13.694   8.902  73.081  1.00  0.00    -1.009 OA 
HETATM   24  H   UNL     1     -14.630   8.882  73.245  1.00  0.00     0.000 HD 
ENDBRANCH  21  22
ENDBRANCH  16  21
ENDBRANCH  15  16
ENDBRANCH   4  15
TORSDOF 6
ENDMDL
MODEL       54
REMARK 921   NORMALIZED FREE ENERGY PREDICTED BY IDOCK:   -4.60 KCAL/MOL
REMARK 922        TOTAL FREE ENERGY PREDICTED BY IDOCK:   -7.08 KCAL/MOL
REMARK 923 INTER-LIGAND FREE ENERGY PREDICTED BY IDOCK:   -6.41 KCAL/MOL
REMARK 924 INTRA-LIGAND FREE ENERGY PREDICTED BY IDOCK:   -0.67 KCAL/MOL
REMARK 927      BINDING AFFINITY PREDICTED BY RF-SCORE:    0.00 PKD
ROOT
HETATM    1  O   UNL     1     -12.138  11.709  66.961  1.00  0.00    -0.547 OA 
HETATM    2  H   UNL     1     -11.897  11.351  66.116  1.00  0.00     0.000 HD 
HETATM    3  O   UNL     2      -9.239   8.627  68.120  1.00  0.00    -0.137 OA 
HETATM    4  C   UNL     1     -11.386  11.179  68.047  1.00  0.00    -0.312 C  
HETATM    5  O   UNL     2      -7.988   9.051  72.008  1.00  0.00    -0.356 OA 
HETATM    6  C   UNL     2      -8.983   9.176  69.323  1.00  0.00    -0.145 C  
HETATM    7  C   UNL     2      -9.802   8.656  70.436  1.00  0.00    -0.207 A  
HETATM    8  O   UNL     2      -8.133  10.040  69.503  1.00  0.00    -0.131 OA 
HETATM    9  C   UNL     2     -11.351   7.813  72.607  1.00  0.00    -0.449 A  
HETATM   10  C   UNL     2      -9.254   8.622  71.724  1.00  0.00    -0.268 A  
HETATM   11  C   UNL     2     -10.014   8.165  72.794  1.00  0.00    -0.361 A  
HETATM   12  C   UNL     2     -11.144   8.301  70.253  1.00  0.00    -0.220 A  
HETATM   13  H   UNL     2      -7.616   9.028  72.882  1.00  0.00     0.000 HD 
HETATM   14  C   UNL     2     -11.922   7.904  71.340  1.00  0.00    -0.331 A  
ENDROOT
BRANCH   4  15
HETATM   15  C   UNL     1     -11.780  11.765  69.429  1.00  0.00    -0.341 C  
BRANCH  15  16
HETATM   16  N   UNL     1     -12.086  13.219  69.468  1.00  0.00    -0.290 NA 
BRANCH  16  17
HETATM   17  C   UNL     1     -12.424  13.700  70.840  1.00  0.00    -0.371 C  
BRANCH  17  18
HETATM   18  C   UNL     1     -12.097  15.147  71.250  1.00  0.00    -0.342 C  
HETATM   19  H   UNL     1     -11.371  16.142  72.817  1.00  0.00     0.000 HD 
HETATM   20  O   UNL     1     -11.573  15.248  72.564  1.00  0.00    -0.441 OA 
ENDBRANCH  17  18
ENDBRANCH  16  17
BRANCH  16  21
HETATM   21  C   UNL     1     -10.941  14.022  68.969  1.00  0.00    -0.259 C  
BRANCH  21  22
HETATM   22  C   UNL     1     -11.194  14.948  67.759  1.00  0.00    -0.321 C  
HETATM   23  O   UNL     1     -12.402  14.573  67.100  1.00  0.00    -0.582 OA 
HETATM   24  H   UNL     1     -12.557  15.143  66.355  1.00  0.00     0.000 HD 
ENDBRANCH  21  22
ENDBRANCH  16  21
ENDBRANCH  15  16
ENDBRANCH   4  15
TORSDOF 6
ENDMDL
MODEL       55
REMARK 921   NORMALIZED FREE ENERGY PREDICTED BY IDOCK:   -4.58 KCAL/MOL
REMARK 922        TOTAL FREE ENERGY PREDICTED BY IDOCK:   -7.04 KCAL/MOL
REMARK 923 INTER-LIGAND FREE ENERGY PREDICTED BY IDOCK:   -6.11 KCAL/MOL
REMARK 924 INTRA-LIGAND FREE ENERGY PREDICTED BY IDOCK:   -0.93 KCAL/MOL
REMARK 927      BINDING AFFINITY PREDICTED BY RF-SCORE:    0.00 PKD
ROOT
HETATM    1  O   UNL     1     -10.336  10.611  62.687  1.00  0.00    -0.752 OA 
HETATM    2  H   UNL     1     -11.189  10.571  62.272  1.00  0.00     0.000 HD 
HETATM    3  O   UNL     2     -12.778  12.934  65.496  1.00  0.00    -0.568 OA 
HETATM    4  C   UNL     1     -10.346  11.244  63.962  1.00  0.00    -0.371 C  
HETATM    5  O   UNL     2     -10.875  13.536  69.083  1.00  0.00    -0.359 OA 
HETATM    6  C   UNL     2     -11.920  12.784  66.523  1.00  0.00    -0.358 C  
HETATM    7  C   UNL     2     -10.929  13.868  66.674  1.00  0.00    -0.302 A  
HETATM    8  O   UNL     2     -11.948  11.830  67.292  1.00  0.00    -0.618 OA 
HETATM    9  C   UNL     2      -8.948  15.814  67.009  1.00  0.00    -0.247 A  
HETATM   10  C   UNL     2     -10.460  14.185  67.955  1.00  0.00    -0.240 A  
HETATM   11  C   UNL     2      -9.505  15.181  68.121  1.00  0.00    -0.201 A  
HETATM   12  C   UNL     2     -10.369  14.507  65.562  1.00  0.00    -0.379 A  
HETATM   13  H   UNL     2     -10.556  13.751  69.952  1.00  0.00     0.000 HD 
HETATM   14  C   UNL     2      -9.365  15.460  65.728  1.00  0.00    -0.265 A  
ENDROOT
BRANCH   4  15
HETATM   15  C   UNL     1      -8.951  11.309  64.641  1.00  0.00     0.079 C  
BRANCH  15  16
HETATM   16  N   UNL     1      -8.651  10.250  65.640  1.00  0.00    -0.154 NA 
BRANCH  16  17
HETATM   17  C   UNL     1      -8.268  10.806  66.971  1.00  0.00    -0.126 C  
BRANCH  17  18
HETATM   18  C   UNL     1      -7.277  11.980  67.057  1.00  0.00    -0.096 C  
HETATM   19  H   UNL     1      -5.397  12.406  66.550  1.00  0.00     0.000 HD 
HETATM   20  O   UNL     1      -6.009  11.681  66.496  1.00  0.00    -0.141 OA 
ENDBRANCH  17  18
ENDBRANCH  16  17
BRANCH  16  21
HETATM   21  C   UNL     1      -9.816   9.351  65.836  1.00  0.00    -0.291 C  
BRANCH  21  22
HETATM   22  C   UNL     1      -9.916   8.596  67.179  1.00  0.00    -0.231 C  
HETATM   23  O   UNL     1     -11.148   8.910  67.827  1.00  0.00    -0.493 OA 
HETATM   24  H   UNL     1     -11.209   8.445  68.653  1.00  0.00     0.000 HD 
ENDBRANCH  21  22
ENDBRANCH  16  21
ENDBRANCH  15  16
ENDBRANCH   4  15
TORSDOF 6
ENDMDL
MODEL       56
REMARK 921   NORMALIZED FREE ENERGY PREDICTED BY IDOCK:   -4.58 KCAL/MOL
REMARK 922        TOTAL FREE ENERGY PREDICTED BY IDOCK:   -7.04 KCAL/MOL
REMARK 923 INTER-LIGAND FREE ENERGY PREDICTED BY IDOCK:   -6.44 KCAL/MOL
REMARK 924 INTRA-LIGAND FREE ENERGY PREDICTED BY IDOCK:   -0.60 KCAL/MOL
REMARK 927      BINDING AFFINITY PREDICTED BY RF-SCORE:    0.00 PKD
ROOT
HETATM    1  O   UNL     1     -10.365   7.312  74.078  1.00  0.00    -0.397 OA 
HETATM    2  H   UNL     1     -10.444   6.428  74.414  1.00  0.00     0.000 HD 
HETATM    3  O   UNL     2     -10.256   4.966  70.373  1.00  0.00    -0.247 OA 
HETATM    4  C   UNL     1     -10.384   7.393  72.658  1.00  0.00    -0.244 C  
HETATM    5  O   UNL     2     -10.808   7.297  67.039  1.00  0.00    -0.396 OA 
HETATM    6  C   UNL     2     -10.607   6.001  69.587  1.00  0.00    -0.300 C  
HETATM    7  C   UNL     2      -9.480   6.755  69.003  1.00  0.00    -0.133 A  
HETATM    8  O   UNL     2     -11.771   6.309  69.355  1.00  0.00    -0.319 OA 
HETATM    9  C   UNL     2      -7.429   8.311  67.909  1.00  0.00    -0.098 A  
HETATM   10  C   UNL     2      -9.645   7.363  67.752  1.00  0.00    -0.140 A  
HETATM   11  C   UNL     2      -8.609   8.102  67.194  1.00  0.00    -0.124 A  
HETATM   12  C   UNL     2      -8.293   6.965  69.716  1.00  0.00    -0.132 A  
HETATM   13  H   UNL     2     -10.920   7.710  66.190  1.00  0.00     0.000 HD 
HETATM   14  C   UNL     2      -7.282   7.761  69.180  1.00  0.00    -0.082 A  
ENDROOT
BRANCH   4  15
HETATM   15  C   UNL     1     -10.255   8.839  72.109  1.00  0.00    -0.301 C  
BRANCH  15  16
HETATM   16  N   UNL     1     -11.494   9.454  71.566  1.00  0.00    -0.376 NA 
BRANCH  16  17
HETATM   17  C   UNL     1     -11.362   9.846  70.132  1.00  0.00    -0.275 C  
BRANCH  17  18
HETATM   18  C   UNL     1     -11.953  11.180  69.642  1.00  0.00    -0.359 C  
HETATM   19  H   UNL     1     -12.496  12.049  67.933  1.00  0.00     0.000 HD 
HETATM   20  O   UNL     1     -12.131  11.226  68.235  1.00  0.00    -0.619 OA 
ENDBRANCH  17  18
ENDBRANCH  16  17
BRANCH  16  21
HETATM   21  C   UNL     1     -12.650   8.530  71.686  1.00  0.00    -0.333 C  
BRANCH  21  22
HETATM   22  C   UNL     1     -14.019   9.144  72.049  1.00  0.00    -0.371 C  
HETATM   23  O   UNL     1     -14.323   8.888  73.419  1.00  0.00    -1.192 OA 
HETATM   24  H   UNL     1     -15.165   9.266  73.642  1.00  0.00     0.000 HD 
ENDBRANCH  21  22
ENDBRANCH  16  21
ENDBRANCH  15  16
ENDBRANCH   4  15
TORSDOF 6
ENDMDL
MODEL       57
REMARK 921   NORMALIZED FREE ENERGY PREDICTED BY IDOCK:   -4.55 KCAL/MOL
REMARK 922        TOTAL FREE ENERGY PREDICTED BY IDOCK:   -7.01 KCAL/MOL
REMARK 923 INTER-LIGAND FREE ENERGY PREDICTED BY IDOCK:   -6.74 KCAL/MOL
REMARK 924 INTRA-LIGAND FREE ENERGY PREDICTED BY IDOCK:   -0.27 KCAL/MOL
REMARK 927      BINDING AFFINITY PREDICTED BY RF-SCORE:    0.00 PKD
ROOT
HETATM    1  O   UNL     1     -10.772  17.365  66.664  1.00  0.00    -0.225 OA 
HETATM    2  H   UNL     1     -11.639  17.702  66.855  1.00  0.00     0.000 HD 
HETATM    3  O   UNL     2     -13.311  14.090  65.226  1.00  0.00    -0.741 OA 
HETATM    4  C   UNL     1     -10.777  16.134  65.952  1.00  0.00    -0.255 C  
HETATM    5  O   UNL     2     -11.240  11.432  62.879  1.00  0.00    -0.807 OA 
HETATM    6  C   UNL     2     -12.360  13.568  64.428  1.00  0.00    -0.337 C  
HETATM    7  C   UNL     2     -11.540  12.505  65.042  1.00  0.00    -0.392 A  
HETATM    8  O   UNL     2     -12.177  13.930  63.271  1.00  0.00    -0.629 OA 
HETATM    9  C   UNL     2      -9.865  10.542  66.123  1.00  0.00    -0.271 A  
HETATM   10  C   UNL     2     -11.024  11.490  64.226  1.00  0.00    -0.341 A  
HETATM   11  C   UNL     2     -10.225  10.493  64.775  1.00  0.00    -0.373 A  
HETATM   12  C   UNL     2     -11.178  12.548  66.393  1.00  0.00    -0.353 A  
HETATM   13  H   UNL     2     -10.890  10.744  62.326  1.00  0.00     0.000 HD 
HETATM   14  C   UNL     2     -10.324  11.584  66.926  1.00  0.00    -0.258 A  
ENDROOT
BRANCH   4  15
HETATM   15  C   UNL     1      -9.359  15.583  65.640  1.00  0.00    -0.163 C  
BRANCH  15  16
HETATM   16  N   UNL     1      -8.490  15.293  66.811  1.00  0.00    -0.254 NA 
BRANCH  16  17
HETATM   17  C   UNL     1      -7.746  16.496  67.288  1.00  0.00    -0.164 C  
BRANCH  17  18
HETATM   18  C   UNL     1      -6.281  16.709  66.870  1.00  0.00    -0.154 C  
HETATM   19  H   UNL     1      -4.505  15.834  67.101  1.00  0.00     0.000 HD 
HETATM   20  O   UNL     1      -5.410  15.702  67.359  1.00  0.00    -0.310 OA 
ENDBRANCH  17  18
ENDBRANCH  16  17
BRANCH  16  21
HETATM   21  C   UNL     1      -9.281  14.761  67.948  1.00  0.00    -0.191 C  
BRANCH  21  22
HETATM   22  C   UNL     1      -9.110  15.449  69.319  1.00  0.00    -0.260 C  
HETATM   23  O   UNL     1     -10.259  16.241  69.617  1.00  0.00    -0.257 OA 
HETATM   24  H   UNL     1     -10.154  16.665  70.460  1.00  0.00     0.000 HD 
ENDBRANCH  21  22
ENDBRANCH  16  21
ENDBRANCH  15  16
ENDBRANCH   4  15
TORSDOF 6
ENDMDL
MODEL       58
REMARK 921   NORMALIZED FREE ENERGY PREDICTED BY IDOCK:   -4.54 KCAL/MOL
REMARK 922        TOTAL FREE ENERGY PREDICTED BY IDOCK:   -6.99 KCAL/MOL
REMARK 923 INTER-LIGAND FREE ENERGY PREDICTED BY IDOCK:   -6.37 KCAL/MOL
REMARK 924 INTRA-LIGAND FREE ENERGY PREDICTED BY IDOCK:   -0.62 KCAL/MOL
REMARK 927      BINDING AFFINITY PREDICTED BY RF-SCORE:    0.00 PKD
ROOT
HETATM    1  O   UNL     1     -11.851  12.709  70.563  1.00  0.00    -0.525 OA 
HETATM    2  H   UNL     1     -11.525  13.522  70.928  1.00  0.00     0.000 HD 
HETATM    3  O   UNL     2      -9.590  14.338  67.174  1.00  0.00    -0.231 OA 
HETATM    4  C   UNL     1     -11.356  12.425  69.259  1.00  0.00    -0.254 C  
HETATM    5  O   UNL     2      -8.936  11.533  64.248  1.00  0.00    -0.395 OA 
HETATM    6  C   UNL     2      -9.463  13.148  66.556  1.00  0.00    -0.243 C  
HETATM    7  C   UNL     2     -10.510  12.845  65.559  1.00  0.00    -0.305 A  
HETATM    8  O   UNL     2      -8.550  12.363  66.784  1.00  0.00    -0.190 OA 
HETATM    9  C   UNL     2     -12.481  12.121  63.712  1.00  0.00    -0.620 A  
HETATM   10  C   UNL     2     -10.184  12.050  64.454  1.00  0.00    -0.302 A  
HETATM   11  C   UNL     2     -11.158  11.726  63.516  1.00  0.00    -0.503 A  
HETATM   12  C   UNL     2     -11.839  13.241  65.750  1.00  0.00    -0.428 A  
HETATM   13  H   UNL     2      -8.715  10.993  63.498  1.00  0.00     0.000 HD 
HETATM   14  C   UNL     2     -12.825  12.860  64.842  1.00  0.00    -0.370 A  
ENDROOT
BRANCH   4  15
HETATM   15  C   UNL     1     -11.890  11.094  68.661  1.00  0.00    -0.287 C  
BRANCH  15  16
HETATM   16  N   UNL     1     -10.932   9.959  68.616  1.00  0.00    -0.209 NA 
BRANCH  16  17
HETATM   17  C   UNL     1     -10.509   9.617  67.226  1.00  0.00    -0.258 C  
BRANCH  17  18
HETATM   18  C   UNL     1     -10.123   8.170  66.874  1.00  0.00    -0.297 C  
HETATM   19  H   UNL     1     -10.969   6.370  66.758  1.00  0.00     0.000 HD 
HETATM   20  O   UNL     1     -11.208   7.263  66.975  1.00  0.00    -0.221 OA 
ENDBRANCH  17  18
ENDBRANCH  16  17
BRANCH  16  21
HETATM   21  C   UNL     1      -9.711  10.254  69.408  1.00  0.00    -0.222 C  
BRANCH  21  22
HETATM   22  C   UNL     1      -9.357   9.286  70.558  1.00  0.00    -0.264 C  
HETATM   23  O   UNL     1      -7.959   9.349  70.838  1.00  0.00    -0.249 OA 
HETATM   24  H   UNL     1      -7.742   8.754  71.546  1.00  0.00     0.000 HD 
ENDBRANCH  21  22
ENDBRANCH  16  21
ENDBRANCH  15  16
ENDBRANCH   4  15
TORSDOF 6
ENDMDL
MODEL       59
REMARK 921   NORMALIZED FREE ENERGY PREDICTED BY IDOCK:   -4.53 KCAL/MOL
REMARK 922        TOTAL FREE ENERGY PREDICTED BY IDOCK:   -6.98 KCAL/MOL
REMARK 923 INTER-LIGAND FREE ENERGY PREDICTED BY IDOCK:   -6.05 KCAL/MOL
REMARK 924 INTRA-LIGAND FREE ENERGY PREDICTED BY IDOCK:   -0.93 KCAL/MOL
REMARK 927      BINDING AFFINITY PREDICTED BY RF-SCORE:    0.00 PKD
ROOT
HETATM    1  O   UNL     1     -12.729  10.318  70.130  1.00  0.00    -0.542 OA 
HETATM    2  H   UNL     1     -13.208  10.821  70.777  1.00  0.00     0.000 HD 
HETATM    3  O   UNL     2     -12.062  14.418  68.717  1.00  0.00    -0.308 OA 
HETATM    4  C   UNL     1     -12.004  11.118  69.203  1.00  0.00    -0.343 C  
HETATM    5  O   UNL     2      -9.050  14.634  65.935  1.00  0.00    -0.503 OA 
HETATM    6  C   UNL     2     -10.973  14.099  67.992  1.00  0.00    -0.255 C  
HETATM    7  C   UNL     2     -11.236  13.779  66.574  1.00  0.00    -0.319 A  
HETATM    8  O   UNL     2      -9.838  14.076  68.453  1.00  0.00    -0.224 OA 
HETATM    9  C   UNL     2     -11.618  13.070  63.896  1.00  0.00    -0.508 A  
HETATM   10  C   UNL     2     -10.252  14.068  65.620  1.00  0.00    -0.334 A  
HETATM   11  C   UNL     2     -10.463  13.750  64.283  1.00  0.00    -0.088 A  
HETATM   12  C   UNL     2     -12.394  13.099  66.180  1.00  0.00    -0.385 A  
HETATM   13  H   UNL     2      -8.383  14.829  65.288  1.00  0.00     0.000 HD 
HETATM   14  C   UNL     2     -12.573  12.724  64.849  1.00  0.00    -0.541 A  
ENDROOT
BRANCH   4  15
HETATM   15  C   UNL     1     -11.219  10.297  68.144  1.00  0.00    -0.229 C  
BRANCH  15  16
HETATM   16  N   UNL     1      -9.739  10.425  68.172  1.00  0.00    -0.149 NA 
BRANCH  16  17
HETATM   17  C   UNL     1      -9.126   9.755  69.357  1.00  0.00    -0.201 C  
BRANCH  17  18
HETATM   18  C   UNL     1      -7.687  10.104  69.778  1.00  0.00    -0.168 C  
HETATM   19  H   UNL     1      -6.459   9.822  71.322  1.00  0.00     0.000 HD 
HETATM   20  O   UNL     1      -7.347   9.606  71.062  1.00  0.00    -0.321 OA 
ENDBRANCH  17  18
ENDBRANCH  16  17
BRANCH  16  21
HETATM   21  C   UNL     1      -9.126   9.847  66.950  1.00  0.00    -0.142 C  
BRANCH  21  22
HETATM   22  C   UNL     1      -8.526  10.830  65.921  1.00  0.00    -0.166 C  
HETATM   23  O   UNL     1      -7.856  11.894  66.593  1.00  0.00    -0.321 OA 
HETATM   24  H   UNL     1      -7.487  12.499  65.959  1.00  0.00     0.000 HD 
ENDBRANCH  21  22
ENDBRANCH  16  21
ENDBRANCH  15  16
ENDBRANCH   4  15
TORSDOF 6
ENDMDL
MODEL       60
REMARK 921   NORMALIZED FREE ENERGY PREDICTED BY IDOCK:   -4.53 KCAL/MOL
REMARK 922        TOTAL FREE ENERGY PREDICTED BY IDOCK:   -6.97 KCAL/MOL
REMARK 923 INTER-LIGAND FREE ENERGY PREDICTED BY IDOCK:   -6.23 KCAL/MOL
REMARK 924 INTRA-LIGAND FREE ENERGY PREDICTED BY IDOCK:   -0.74 KCAL/MOL
REMARK 927      BINDING AFFINITY PREDICTED BY RF-SCORE:    0.00 PKD
ROOT
HETATM    1  O   UNL     1     -10.596   8.016  67.989  1.00  0.00    -0.338 OA 
HETATM    2  H   UNL     1     -10.670   7.505  67.193  1.00  0.00     0.000 HD 
HETATM    3  O   UNL     2     -10.719  11.169  64.941  1.00  0.00    -0.302 OA 
HETATM    4  C   UNL     1     -10.690   9.421  67.781  1.00  0.00    -0.229 C  
HETATM    5  O   UNL     2     -11.414  14.876  66.564  1.00  0.00    -0.345 OA 
HETATM    6  C   UNL     2     -11.096  12.130  65.805  1.00  0.00    -0.319 C  
HETATM    7  C   UNL     2      -9.991  12.910  66.397  1.00  0.00    -0.267 A  
HETATM    8  O   UNL     2     -12.266  12.362  66.088  1.00  0.00    -0.635 OA 
HETATM    9  C   UNL     2      -7.980  14.397  67.649  1.00  0.00    -0.191 A  
HETATM   10  C   UNL     2     -10.214  14.248  66.744  1.00  0.00    -0.272 A  
HETATM   11  C   UNL     2      -9.199  14.996  67.330  1.00  0.00    -0.210 A  
HETATM   12  C   UNL     2      -8.765  12.315  66.718  1.00  0.00    -0.175 A  
HETATM   13  H   UNL     2     -11.566  15.784  66.800  1.00  0.00     0.000 HD 
HETATM   14  C   UNL     2      -7.772  13.050  67.364  1.00  0.00    -0.159 A  
ENDROOT
BRANCH   4  15
HETATM   15  C   UNL     1     -10.569  10.257  69.084  1.00  0.00    -0.230 C  
BRANCH  15  16
HETATM   16  N   UNL     1     -11.565   9.970  70.149  1.00  0.00    -0.262 NA 
BRANCH  16  17
HETATM   17  C   UNL     1     -10.963   9.286  71.331  1.00  0.00    -0.359 C  
BRANCH  17  18
HETATM   18  C   UNL     1     -11.299   7.812  71.619  1.00  0.00    -0.253 C  
HETATM   19  H   UNL     1     -12.232   6.281  70.748  1.00  0.00     0.000 HD 
HETATM   20  O   UNL     1     -12.025   7.191  70.570  1.00  0.00    -0.290 OA 
ENDBRANCH  17  18
ENDBRANCH  16  17
BRANCH  16  21
HETATM   21  C   UNL     1     -12.219  11.216  70.623  1.00  0.00    -0.397 C  
BRANCH  21  22
HETATM   22  C   UNL     1     -13.254  11.089  71.762  1.00  0.00    -0.400 C  
HETATM   23  O   UNL     1     -13.445  12.354  72.394  1.00  0.00    -0.603 OA 
HETATM   24  H   UNL     1     -14.082  12.275  73.094  1.00  0.00     0.000 HD 
ENDBRANCH  21  22
ENDBRANCH  16  21
ENDBRANCH  15  16
ENDBRANCH   4  15
TORSDOF 6
ENDMDL
MODEL       61
REMARK 921   NORMALIZED FREE ENERGY PREDICTED BY IDOCK:   -4.52 KCAL/MOL
REMARK 922        TOTAL FREE ENERGY PREDICTED BY IDOCK:   -6.96 KCAL/MOL
REMARK 923 INTER-LIGAND FREE ENERGY PREDICTED BY IDOCK:   -6.45 KCAL/MOL
REMARK 924 INTRA-LIGAND FREE ENERGY PREDICTED BY IDOCK:   -0.52 KCAL/MOL
REMARK 927      BINDING AFFINITY PREDICTED BY RF-SCORE:    0.00 PKD
ROOT
HETATM    1  O   UNL     1      -9.111  16.728  65.734  1.00  0.00    -0.515 OA 
HETATM    2  H   UNL     1      -9.623  17.059  65.005  1.00  0.00     0.000 HD 
HETATM    3  O   UNL     2     -12.472  13.909  65.684  1.00  0.00    -0.453 OA 
HETATM    4  C   UNL     1      -9.611  15.515  66.284  1.00  0.00    -0.309 C  
HETATM    5  O   UNL     2     -11.739  10.574  67.963  1.00  0.00    -0.721 OA 
HETATM    6  C   UNL     2     -11.814  12.956  66.372  1.00  0.00    -0.415 C  
HETATM    7  C   UNL     2     -12.017  12.987  67.834  1.00  0.00    -0.338 A  
HETATM    8  O   UNL     2     -11.102  12.111  65.842  1.00  0.00    -0.293 OA 
HETATM    9  C   UNL     2     -12.252  12.997  70.621  1.00  0.00    -0.390 A  
HETATM   10  C   UNL     2     -11.968  11.785  68.551  1.00  0.00    -0.215 A  
HETATM   11  C   UNL     2     -12.126  11.790  69.932  1.00  0.00    -0.359 A  
HETATM   12  C   UNL     2     -12.146  14.195  68.529  1.00  0.00    -0.312 A  
HETATM   13  H   UNL     2     -11.705   9.758  68.450  1.00  0.00     0.000 HD 
HETATM   14  C   UNL     2     -12.239  14.201  69.920  1.00  0.00    -0.416 A  
ENDROOT
BRANCH   4  15
HETATM   15  C   UNL     1      -8.774  14.975  67.476  1.00  0.00    -0.184 C  
BRANCH  15  16
HETATM   16  N   UNL     1      -7.524  15.712  67.794  1.00  0.00    -0.133 NA 
BRANCH  16  17
HETATM   17  C   UNL     1      -7.684  16.645  68.948  1.00  0.00    -0.239 C  
BRANCH  17  18
HETATM   18  C   UNL     1      -7.783  18.161  68.703  1.00  0.00    -0.297 C  
HETATM   19  H   UNL     1      -6.602  19.767  68.694  1.00  0.00     0.000 HD 
HETATM   20  O   UNL     1      -6.541  18.830  68.845  1.00  0.00    -0.246 OA 
ENDBRANCH  17  18
ENDBRANCH  16  17
BRANCH  16  21
HETATM   21  C   UNL     1      -6.414  14.778  68.109  1.00  0.00    -0.136 C  
BRANCH  21  22
HETATM   22  C   UNL     1      -6.166  14.441  69.595  1.00  0.00    -0.126 C  
HETATM   23  O   UNL     1      -6.892  13.269  69.960  1.00  0.00    -0.348 OA 
HETATM   24  H   UNL     1      -6.739  13.062  70.875  1.00  0.00     0.000 HD 
ENDBRANCH  21  22
ENDBRANCH  16  21
ENDBRANCH  15  16
ENDBRANCH   4  15
TORSDOF 6
ENDMDL
MODEL       62
REMARK 921   NORMALIZED FREE ENERGY PREDICTED BY IDOCK:   -4.52 KCAL/MOL
REMARK 922        TOTAL FREE ENERGY PREDICTED BY IDOCK:   -6.96 KCAL/MOL
REMARK 923 INTER-LIGAND FREE ENERGY PREDICTED BY IDOCK:   -6.89 KCAL/MOL
REMARK 924 INTRA-LIGAND FREE ENERGY PREDICTED BY IDOCK:   -0.07 KCAL/MOL
REMARK 927      BINDING AFFINITY PREDICTED BY RF-SCORE:    0.00 PKD
ROOT
HETATM    1  O   UNL     1     -11.570  16.745  64.225  1.00  0.00    -1.103 OA 
HETATM    2  H   UNL     1     -12.376  16.872  63.739  1.00  0.00     0.000 HD 
HETATM    3  O   UNL     2     -12.904  12.605  63.656  1.00  0.00    -0.718 OA 
HETATM    4  C   UNL     1     -11.199  15.379  64.376  1.00  0.00    -0.202 C  
HETATM    5  O   UNL     2      -9.941   9.887  64.485  1.00  0.00    -0.400 OA 
HETATM    6  C   UNL     2     -11.684  12.076  63.864  1.00  0.00    -0.446 C  
HETATM    7  C   UNL     2     -11.405  11.670  65.256  1.00  0.00    -0.220 A  
HETATM    8  O   UNL     2     -10.853  11.927  62.976  1.00  0.00    -0.262 OA 
HETATM    9  C   UNL     2     -10.730  10.943  67.871  1.00  0.00    -0.274 A  
HETATM   10  C   UNL     2     -10.544  10.590  65.489  1.00  0.00    -0.068 A  
HETATM   11  C   UNL     2     -10.243  10.206  66.791  1.00  0.00    -0.289 A  
HETATM   12  C   UNL     2     -11.893  12.404  66.344  1.00  0.00    -0.421 A  
HETATM   13  H   UNL     2      -9.356   9.155  64.643  1.00  0.00     0.000 HD 
HETATM   14  C   UNL     2     -11.536  12.055  67.646  1.00  0.00    -0.392 A  
ENDROOT
BRANCH   4  15
HETATM   15  C   UNL     1      -9.881  15.171  65.170  1.00  0.00    -0.135 C  
BRANCH  15  16
HETATM   16  N   UNL     1     -10.021  14.910  66.626  1.00  0.00    -0.250 NA 
BRANCH  16  17
HETATM   17  C   UNL     1      -8.707  14.695  67.301  1.00  0.00    -0.208 C  
BRANCH  17  18
HETATM   18  C   UNL     1      -8.457  13.406  68.103  1.00  0.00    -0.172 C  
HETATM   19  H   UNL     1      -7.304  11.782  68.025  1.00  0.00     0.000 HD 
HETATM   20  O   UNL     1      -7.458  12.578  67.529  1.00  0.00    -0.129 OA 
ENDBRANCH  17  18
ENDBRANCH  16  17
BRANCH  16  21
HETATM   21  C   UNL     1     -10.710  16.033  67.310  1.00  0.00    -0.295 C  
BRANCH  21  22
HETATM   22  C   UNL     1     -10.970  15.893  68.825  1.00  0.00    -0.301 C  
HETATM   23  O   UNL     1     -12.326  15.513  69.056  1.00  0.00    -0.607 OA 
HETATM   24  H   UNL     1     -12.486  15.427  69.989  1.00  0.00     0.000 HD 
ENDBRANCH  21  22
ENDBRANCH  16  21
ENDBRANCH  15  16
ENDBRANCH   4  15
TORSDOF 6
ENDMDL
MODEL       63
REMARK 921   NORMALIZED FREE ENERGY PREDICTED BY IDOCK:   -4.52 KCAL/MOL
REMARK 922        TOTAL FREE ENERGY PREDICTED BY IDOCK:   -6.96 KCAL/MOL
REMARK 923 INTER-LIGAND FREE ENERGY PREDICTED BY IDOCK:   -6.09 KCAL/MOL
REMARK 924 INTRA-LIGAND FREE ENERGY PREDICTED BY IDOCK:   -0.87 KCAL/MOL
REMARK 927      BINDING AFFINITY PREDICTED BY RF-SCORE:    0.00 PKD
ROOT
HETATM    1  O   UNL     1      -9.195   8.508  65.264  1.00  0.00    -0.420 OA 
HETATM    2  H   UNL     1      -8.758   9.252  64.868  1.00  0.00     0.000 HD 
HETATM    3  O   UNL     2     -10.047  11.670  68.183  1.00  0.00    -0.183 OA 
HETATM    4  C   UNL     1      -9.940   8.833  66.432  1.00  0.00    -0.275 C  
HETATM    5  O   UNL     2     -13.000  10.595  70.824  1.00  0.00    -0.364 OA 
HETATM    6  C   UNL     2     -11.100  11.028  68.723  1.00  0.00    -0.239 C  
HETATM    7  C   UNL     2     -10.787  10.191  69.899  1.00  0.00    -0.347 A  
HETATM    8  O   UNL     2     -12.243  11.123  68.291  1.00  0.00    -0.613 OA 
HETATM    9  C   UNL     2     -10.305   8.506  72.079  1.00  0.00    -0.408 A  
HETATM   10  C   UNL     2     -11.762  10.022  70.890  1.00  0.00    -0.374 A  
HETATM   11  C   UNL     2     -11.503   9.215  71.992  1.00  0.00    -0.351 A  
HETATM   12  C   UNL     2      -9.586   9.479  69.991  1.00  0.00    -0.272 A  
HETATM   13  H   UNL     2     -13.662  10.479  71.497  1.00  0.00     0.000 HD 
HETATM   14  C   UNL     2      -9.356   8.621  71.066  1.00  0.00    -0.254 A  
ENDROOT
BRANCH   4  15
HETATM   15  C   UNL     1     -10.654   7.617  67.080  1.00  0.00    -0.340 C  
BRANCH  15  16
HETATM   16  N   UNL     1      -9.858   6.367  67.197  1.00  0.00    -0.138 NA 
BRANCH  16  17
HETATM   17  C   UNL     1      -9.659   5.942  68.614  1.00  0.00    -0.123 C  
BRANCH  17  18
HETATM   18  C   UNL     1     -10.874   5.776  69.544  1.00  0.00    -0.340 C  
HETATM   19  H   UNL     1     -11.286   5.130  71.384  1.00  0.00     0.000 HD 
HETATM   20  O   UNL     1     -10.536   5.233  70.810  1.00  0.00    -0.253 OA 
ENDBRANCH  17  18
ENDBRANCH  16  17
BRANCH  16  21
HETATM   21  C   UNL     1     -10.504   5.248  66.468  1.00  0.00    -0.298 C  
BRANCH  21  22
HETATM   22  C   UNL     1      -9.729   4.626  65.286  1.00  0.00    -0.136 C  
HETATM   23  O   UNL     1      -8.973   5.632  64.613  1.00  0.00    -0.361 OA 
HETATM   24  H   UNL     1      -8.496   5.249  63.885  1.00  0.00     0.000 HD 
ENDBRANCH  21  22
ENDBRANCH  16  21
ENDBRANCH  15  16
ENDBRANCH   4  15
TORSDOF 6
ENDMDL
MODEL       64
REMARK 921   NORMALIZED FREE ENERGY PREDICTED BY IDOCK:   -4.52 KCAL/MOL
REMARK 922        TOTAL FREE ENERGY PREDICTED BY IDOCK:   -6.96 KCAL/MOL
REMARK 923 INTER-LIGAND FREE ENERGY PREDICTED BY IDOCK:   -6.10 KCAL/MOL
REMARK 924 INTRA-LIGAND FREE ENERGY PREDICTED BY IDOCK:   -0.86 KCAL/MOL
REMARK 927      BINDING AFFINITY PREDICTED BY RF-SCORE:    0.00 PKD
ROOT
HETATM    1  O   UNL     1     -10.360  14.656  68.983  1.00  0.00    -0.234 OA 
HETATM    2  H   UNL     1     -10.480  14.546  69.918  1.00  0.00     0.000 HD 
HETATM    3  O   UNL     2      -9.774  10.332  69.430  1.00  0.00    -0.213 OA 
HETATM    4  C   UNL     1     -10.198  13.432  68.276  1.00  0.00    -0.250 C  
HETATM    5  O   UNL     2      -9.898   8.364  65.828  1.00  0.00    -0.455 OA 
HETATM    6  C   UNL     2     -10.023  10.061  68.134  1.00  0.00    -0.153 C  
HETATM    7  C   UNL     2      -8.831  10.013  67.264  1.00  0.00    -0.141 A  
HETATM    8  O   UNL     2     -11.148   9.860  67.691  1.00  0.00    -0.267 OA 
HETATM    9  C   UNL     2      -6.660   9.981  65.500  1.00  0.00    -0.100 A  
HETATM   10  C   UNL     2      -8.837   9.160  66.153  1.00  0.00    -0.158 A  
HETATM   11  C   UNL     2      -7.739   9.117  65.302  1.00  0.00    -0.099 A  
HETATM   12  C   UNL     2      -7.746  10.875  67.461  1.00  0.00    -0.109 A  
HETATM   13  H   UNL     2      -9.901   7.786  65.074  1.00  0.00     0.000 HD 
HETATM   14  C   UNL     2      -6.676  10.876  66.567  1.00  0.00    -0.133 A  
ENDROOT
BRANCH   4  15
HETATM   15  C   UNL     1     -10.001  13.612  66.746  1.00  0.00    -0.270 C  
BRANCH  15  16
HETATM   16  N   UNL     1     -10.940  12.867  65.866  1.00  0.00    -0.273 NA 
BRANCH  16  17
HETATM   17  C   UNL     1     -12.197  13.625  65.593  1.00  0.00    -0.454 C  
BRANCH  17  18
HETATM   18  C   UNL     1     -12.236  14.667  64.461  1.00  0.00    -0.456 C  
HETATM   19  H   UNL     1     -12.746  14.784  62.538  1.00  0.00     0.000 HD 
HETATM   20  O   UNL     1     -12.722  14.140  63.237  1.00  0.00    -0.714 OA 
ENDBRANCH  17  18
ENDBRANCH  16  17
BRANCH  16  21
HETATM   21  C   UNL     1     -10.310  12.539  64.563  1.00  0.00    -0.336 C  
BRANCH  21  22
HETATM   22  C   UNL     1     -10.732  11.220  63.880  1.00  0.00    -0.384 C  
HETATM   23  O   UNL     1     -11.804  11.462  62.970  1.00  0.00    -0.903 OA 
HETATM   24  H   UNL     1     -12.064  10.651  62.549  1.00  0.00     0.000 HD 
ENDBRANCH  21  22
ENDBRANCH  16  21
ENDBRANCH  15  16
ENDBRANCH   4  15
TORSDOF 6
ENDMDL
MODEL       65
REMARK 921   NORMALIZED FREE ENERGY PREDICTED BY IDOCK:   -4.51 KCAL/MOL
REMARK 922        TOTAL FREE ENERGY PREDICTED BY IDOCK:   -6.95 KCAL/MOL
REMARK 923 INTER-LIGAND FREE ENERGY PREDICTED BY IDOCK:   -6.53 KCAL/MOL
REMARK 924 INTRA-LIGAND FREE ENERGY PREDICTED BY IDOCK:   -0.42 KCAL/MOL
REMARK 927      BINDING AFFINITY PREDICTED BY RF-SCORE:    0.00 PKD
ROOT
HETATM    1  O   UNL     1      -8.929   4.775  70.154  1.00  0.00    -0.094 OA 
HETATM    2  H   UNL     1      -8.127   4.721  70.659  1.00  0.00     0.000 HD 
HETATM    3  O   UNL     2      -8.630   8.851  71.748  1.00  0.00    -0.318 OA 
HETATM    4  C   UNL     1      -9.481   6.085  70.090  1.00  0.00    -0.158 C  
HETATM    5  O   UNL     2     -11.162  11.458  69.838  1.00  0.00    -0.414 OA 
HETATM    6  C   UNL     2      -9.444   9.384  70.817  1.00  0.00    -0.241 C  
HETATM    7  C   UNL     2     -10.867   9.465  71.201  1.00  0.00    -0.427 A  
HETATM    8  O   UNL     2      -9.052   9.784  69.727  1.00  0.00    -0.197 OA 
HETATM    9  C   UNL     2     -13.601   9.592  71.781  1.00  0.00    -0.447 A  
HETATM   10  C   UNL     2     -11.651  10.506  70.687  1.00  0.00    -0.352 A  
HETATM   11  C   UNL     2     -13.000  10.588  71.010  1.00  0.00    -0.475 A  
HETATM   12  C   UNL     2     -11.474   8.469  71.976  1.00  0.00    -0.431 A  
HETATM   13  H   UNL     2     -11.694  12.164  69.489  1.00  0.00     0.000 HD 
HETATM   14  C   UNL     2     -12.841   8.520  72.244  1.00  0.00    -0.404 A  
ENDROOT
BRANCH   4  15
HETATM   15  C   UNL     1     -10.793   6.174  69.264  1.00  0.00    -0.351 C  
BRANCH  15  16
HETATM   16  N   UNL     1     -10.640   6.271  67.789  1.00  0.00    -0.228 NA 
BRANCH  16  17
HETATM   17  C   UNL     1      -9.582   7.241  67.383  1.00  0.00    -0.142 C  
BRANCH  17  18
HETATM   18  C   UNL     1      -9.958   8.500  66.581  1.00  0.00    -0.293 C  
HETATM   19  H   UNL     1      -9.341   9.502  64.973  1.00  0.00     0.000 HD 
HETATM   20  O   UNL     1      -9.109   8.725  65.468  1.00  0.00    -0.203 OA 
ENDBRANCH  17  18
ENDBRANCH  16  17
BRANCH  16  21
HETATM   21  C   UNL     1     -10.307   4.952  67.195  1.00  0.00    -0.123 C  
BRANCH  21  22
HETATM   22  C   UNL     1     -10.231   4.862  65.656  1.00  0.00    -0.127 C  
HETATM   23  O   UNL     1     -11.518   4.563  65.118  1.00  0.00    -1.105 OA 
HETATM   24  H   UNL     1     -11.470   4.508  64.170  1.00  0.00     0.000 HD 
ENDBRANCH  21  22
ENDBRANCH  16  21
ENDBRANCH  15  16
ENDBRANCH   4  15
TORSDOF 6
ENDMDL
MODEL       66
REMARK 921   NORMALIZED FREE ENERGY PREDICTED BY IDOCK:   -4.51 KCAL/MOL
REMARK 922        TOTAL FREE ENERGY PREDICTED BY IDOCK:   -6.94 KCAL/MOL
REMARK 923 INTER-LIGAND FREE ENERGY PREDICTED BY IDOCK:   -6.42 KCAL/MOL
REMARK 924 INTRA-LIGAND FREE ENERGY PREDICTED BY IDOCK:   -0.53 KCAL/MOL
REMARK 927      BINDING AFFINITY PREDICTED BY RF-SCORE:    0.00 PKD
ROOT
HETATM    1  O   UNL     1      -8.757  13.175  69.015  1.00  0.00    -0.347 OA 
HETATM    2  H   UNL     1      -7.915  12.863  68.707  1.00  0.00     0.000 HD 
HETATM    3  O   UNL     2      -7.670  16.308  66.143  1.00  0.00    -0.157 OA 
HETATM    4  C   UNL     1      -9.228  14.331  68.331  1.00  0.00    -0.196 C  
HETATM    5  O   UNL     2     -10.857  18.711  65.181  1.00  0.00    -0.551 OA 
HETATM    6  C   UNL     2      -8.934  16.743  65.985  1.00  0.00    -0.185 C  
HETATM    7  C   UNL     2      -9.329  17.857  66.870  1.00  0.00    -0.276 A  
HETATM    8  O   UNL     2      -9.714  16.269  65.167  1.00  0.00    -0.342 OA 
HETATM    9  C   UNL     2     -10.221  19.907  68.552  1.00  0.00    -0.529 A  
HETATM   10  C   UNL     2     -10.275  18.784  66.414  1.00  0.00    -0.421 A  
HETATM   11  C   UNL     2     -10.685  19.825  67.239  1.00  0.00    -0.532 A  
HETATM   12  C   UNL     2      -8.865  17.944  68.188  1.00  0.00    -0.265 A  
HETATM   13  H   UNL     2     -11.499  19.340  64.872  1.00  0.00     0.000 HD 
HETATM   14  C   UNL     2      -9.328  18.952  69.033  1.00  0.00    -0.261 A  
ENDROOT
BRANCH   4  15
HETATM   15  C   UNL     1     -10.606  14.840  68.834  1.00  0.00    -0.250 C  
BRANCH  15  16
HETATM   16  N   UNL     1     -11.806  14.253  68.183  1.00  0.00    -0.342 NA 
BRANCH  16  17
HETATM   17  C   UNL     1     -11.573  13.911  66.749  1.00  0.00    -0.378 C  
BRANCH  17  18
HETATM   18  C   UNL     1     -11.891  12.495  66.235  1.00  0.00    -0.390 C  
HETATM   19  H   UNL     1     -11.259  11.224  64.836  1.00  0.00     0.000 HD 
HETATM   20  O   UNL     1     -11.064  12.098  65.153  1.00  0.00    -0.305 OA 
ENDBRANCH  17  18
ENDBRANCH  16  17
BRANCH  16  21
HETATM   21  C   UNL     1     -12.249  13.021  68.883  1.00  0.00    -0.035 C  
BRANCH  21  22
HETATM   22  C   UNL     1     -12.164  13.008  70.425  1.00  0.00    -0.310 C  
HETATM   23  O   UNL     1     -12.658  11.769  70.932  1.00  0.00    -0.349 OA 
HETATM   24  H   UNL     1     -12.606  11.762  71.881  1.00  0.00     0.000 HD 
ENDBRANCH  21  22
ENDBRANCH  16  21
ENDBRANCH  15  16
ENDBRANCH   4  15
TORSDOF 6
ENDMDL
MODEL       67
REMARK 921   NORMALIZED FREE ENERGY PREDICTED BY IDOCK:   -4.49 KCAL/MOL
REMARK 922        TOTAL FREE ENERGY PREDICTED BY IDOCK:   -6.93 KCAL/MOL
REMARK 923 INTER-LIGAND FREE ENERGY PREDICTED BY IDOCK:   -7.51 KCAL/MOL
REMARK 924 INTRA-LIGAND FREE ENERGY PREDICTED BY IDOCK:    0.58 KCAL/MOL
REMARK 927      BINDING AFFINITY PREDICTED BY RF-SCORE:    0.00 PKD
ROOT
HETATM    1  O   UNL     1     -12.025  11.104  67.758  1.00  0.00    -0.630 OA 
HETATM    2  H   UNL     1     -11.909  10.422  67.108  1.00  0.00     0.000 HD 
HETATM    3  O   UNL     2     -10.549  13.412  64.331  1.00  0.00    -0.411 OA 
HETATM    4  C   UNL     1     -11.798  12.418  67.260  1.00  0.00    -0.287 C  
HETATM    5  O   UNL     2     -11.104  17.450  64.820  1.00  0.00    -0.973 OA 
HETATM    6  C   UNL     2     -11.027  14.586  64.786  1.00  0.00    -0.391 C  
HETATM    7  C   UNL     2     -10.073  15.384  65.583  1.00  0.00    -0.406 A  
HETATM    8  O   UNL     2     -12.163  14.984  64.561  1.00  0.00    -0.431 OA 
HETATM    9  C   UNL     2      -8.387  16.944  67.179  1.00  0.00    -0.217 A  
HETATM   10  C   UNL     2     -10.167  16.781  65.553  1.00  0.00    -0.164 A  
HETATM   11  C   UNL     2      -9.300  17.554  66.317  1.00  0.00    -0.231 A  
HETATM   12  C   UNL     2      -9.154  14.777  66.447  1.00  0.00    -0.267 A  
HETATM   13  H   UNL     2     -11.168  18.398  64.800  1.00  0.00     0.000 HD 
HETATM   14  C   UNL     2      -8.332  15.555  67.260  1.00  0.00    -0.218 A  
ENDROOT
BRANCH   4  15
HETATM   15  C   UNL     1     -11.987  13.534  68.323  1.00  0.00    -0.342 C  
BRANCH  15  16
HETATM   16  N   UNL     1     -12.487  13.101  69.654  1.00  0.00    -0.041 NA 
BRANCH  16  17
HETATM   17  C   UNL     1     -11.813  11.864  70.148  1.00  0.00    -0.308 C  
BRANCH  17  18
HETATM   18  C   UNL     1     -12.385  11.109  71.361  1.00  0.00    -0.233 C  
HETATM   19  H   UNL     1     -12.156   9.362  72.292  1.00  0.00     0.000 HD 
HETATM   20  O   UNL     1     -11.803   9.828  71.543  1.00  0.00    -0.379 OA 
ENDBRANCH  17  18
ENDBRANCH  16  17
BRANCH  16  21
HETATM   21  C   UNL     1     -12.297  14.165  70.671  1.00  0.00    -0.365 C  
BRANCH  21  22
HETATM   22  C   UNL     1     -13.537  14.612  71.475  1.00  0.00    -0.405 C  
HETATM   23  O   UNL     1     -14.192  15.690  70.808  1.00  0.00    -0.809 OA 
HETATM   24  H   UNL     1     -14.955  15.965  71.303  1.00  0.00     0.000 HD 
ENDBRANCH  21  22
ENDBRANCH  16  21
ENDBRANCH  15  16
ENDBRANCH   4  15
TORSDOF 6
ENDMDL
MODEL       68
REMARK 921   NORMALIZED FREE ENERGY PREDICTED BY IDOCK:   -4.48 KCAL/MOL
REMARK 922        TOTAL FREE ENERGY PREDICTED BY IDOCK:   -6.90 KCAL/MOL
REMARK 923 INTER-LIGAND FREE ENERGY PREDICTED BY IDOCK:   -6.13 KCAL/MOL
REMARK 924 INTRA-LIGAND FREE ENERGY PREDICTED BY IDOCK:   -0.77 KCAL/MOL
REMARK 927      BINDING AFFINITY PREDICTED BY RF-SCORE:    0.00 PKD
ROOT
HETATM    1  O   UNL     1      -9.819  10.800  69.601  1.00  0.00    -0.432 OA 
HETATM    2  H   UNL     1     -10.067  11.011  70.492  1.00  0.00     0.000 HD 
HETATM    3  O   UNL     2     -10.957  15.018  69.207  1.00  0.00    -0.241 OA 
HETATM    4  C   UNL     1      -9.828  11.918  68.720  1.00  0.00    -0.065 C  
HETATM    5  O   UNL     2      -9.699  16.644  65.653  1.00  0.00    -0.530 OA 
HETATM    6  C   UNL     2     -10.272  15.201  68.062  1.00  0.00    -0.230 C  
HETATM    7  C   UNL     2     -11.053  14.999  66.826  1.00  0.00    -0.326 A  
HETATM    8  O   UNL     2      -9.089  15.520  68.027  1.00  0.00    -0.180 OA 
HETATM    9  C   UNL     2     -12.404  14.557  64.417  1.00  0.00    -0.437 A  
HETATM   10  C   UNL     2     -10.720  15.738  65.684  1.00  0.00    -0.348 A  
HETATM   11  C   UNL     2     -11.421  15.544  64.499  1.00  0.00    -0.311 A  
HETATM   12  C   UNL     2     -12.042  14.011  66.739  1.00  0.00    -0.480 A  
HETATM   13  H   UNL     2      -9.473  17.145  64.878  1.00  0.00     0.000 HD 
HETATM   14  C   UNL     2     -12.698  13.775  65.532  1.00  0.00    -0.530 A  
ENDROOT
BRANCH   4  15
HETATM   15  C   UNL     1      -9.422  11.572  67.262  1.00  0.00    -0.169 C  
BRANCH  15  16
HETATM   16  N   UNL     1     -10.140  10.435  66.628  1.00  0.00    -0.216 NA 
BRANCH  16  17
HETATM   17  C   UNL     1     -10.515  10.709  65.210  1.00  0.00    -0.194 C  
BRANCH  17  18
HETATM   18  C   UNL     1      -9.828  11.852  64.441  1.00  0.00    -0.178 C  
HETATM   19  H   UNL     1     -10.091  12.919  62.778  1.00  0.00     0.000 HD 
HETATM   20  O   UNL     1     -10.515  12.214  63.253  1.00  0.00    -0.432 OA 
ENDBRANCH  17  18
ENDBRANCH  16  17
BRANCH  16  21
HETATM   21  C   UNL     1      -9.318   9.199  66.656  1.00  0.00    -0.177 C  
BRANCH  21  22
HETATM   22  C   UNL     1      -9.926   7.953  67.335  1.00  0.00    -0.198 C  
HETATM   23  O   UNL     1     -11.155   8.295  67.975  1.00  0.00    -0.453 OA 
HETATM   24  H   UNL     1     -11.529   7.528  68.392  1.00  0.00     0.000 HD 
ENDBRANCH  21  22
ENDBRANCH  16  21
ENDBRANCH  15  16
ENDBRANCH   4  15
TORSDOF 6
ENDMDL
MODEL       69
REMARK 921   NORMALIZED FREE ENERGY PREDICTED BY IDOCK:   -4.47 KCAL/MOL
REMARK 922        TOTAL FREE ENERGY PREDICTED BY IDOCK:   -6.90 KCAL/MOL
REMARK 923 INTER-LIGAND FREE ENERGY PREDICTED BY IDOCK:   -6.00 KCAL/MOL
REMARK 924 INTRA-LIGAND FREE ENERGY PREDICTED BY IDOCK:   -0.90 KCAL/MOL
REMARK 927      BINDING AFFINITY PREDICTED BY RF-SCORE:    0.00 PKD
ROOT
HETATM    1  O   UNL     1      -9.066   4.173  72.450  1.00  0.00    -0.112 OA 
HETATM    2  H   UNL     1      -8.430   4.214  73.153  1.00  0.00     0.000 HD 
HETATM    3  O   UNL     2      -8.535   8.505  72.887  1.00  0.00    -0.350 OA 
HETATM    4  C   UNL     1      -9.376   5.439  71.879  1.00  0.00    -0.141 C  
HETATM    5  O   UNL     2     -10.088  10.592  69.711  1.00  0.00    -0.420 OA 
HETATM    6  C   UNL     2      -9.004   8.789  71.658  1.00  0.00    -0.231 C  
HETATM    7  C   UNL     2     -10.448   9.093  71.592  1.00  0.00    -0.403 A  
HETATM    8  O   UNL     2      -8.300   8.808  70.654  1.00  0.00    -0.122 OA 
HETATM    9  C   UNL     2     -13.186   9.599  71.329  1.00  0.00    -0.429 A  
HETATM   10  C   UNL     2     -10.910   9.984  70.616  1.00  0.00    -0.297 A  
HETATM   11  C   UNL     2     -12.268  10.264  70.515  1.00  0.00    -0.390 A  
HETATM   12  C   UNL     2     -11.372   8.430  72.408  1.00  0.00    -0.448 A  
HETATM   13  H   UNL     2     -10.402  11.196  69.048  1.00  0.00     0.000 HD 
HETATM   14  C   UNL     2     -12.738   8.665  72.260  1.00  0.00    -0.450 A  
ENDROOT
BRANCH   4  15
HETATM   15  C   UNL     1     -10.416   5.372  70.729  1.00  0.00    -0.247 C  
BRANCH  15  16
HETATM   16  N   UNL     1     -10.037   6.037  69.454  1.00  0.00    -0.178 NA 
BRANCH  16  17
HETATM   17  C   UNL     1      -9.022   5.262  68.681  1.00  0.00    -0.107 C  
BRANCH  17  18
HETATM   18  C   UNL     1      -9.248   3.766  68.399  1.00  0.00    -0.157 C  
HETATM   19  H   UNL     1      -9.858   2.588  66.912  1.00  0.00     0.000 HD 
HETATM   20  O   UNL     1      -9.718   3.512  67.086  1.00  0.00    -0.181 OA 
ENDBRANCH  17  18
ENDBRANCH  16  17
BRANCH  16  21
HETATM   21  C   UNL     1     -11.221   6.242  68.583  1.00  0.00    -0.238 C  
BRANCH  21  22
HETATM   22  C   UNL     1     -10.970   6.765  67.152  1.00  0.00    -0.388 C  
HETATM   23  O   UNL     1     -11.402   5.799  66.195  1.00  0.00    -0.711 OA 
HETATM   24  H   UNL     1     -11.248   6.121  65.314  1.00  0.00     0.000 HD 
ENDBRANCH  21  22
ENDBRANCH  16  21
ENDBRANCH  15  16
ENDBRANCH   4  15
TORSDOF 6
ENDMDL
MODEL       70
REMARK 921   NORMALIZED FREE ENERGY PREDICTED BY IDOCK:   -4.44 KCAL/MOL
REMARK 922        TOTAL FREE ENERGY PREDICTED BY IDOCK:   -6.86 KCAL/MOL
REMARK 923 INTER-LIGAND FREE ENERGY PREDICTED BY IDOCK:   -6.46 KCAL/MOL
REMARK 924 INTRA-LIGAND FREE ENERGY PREDICTED BY IDOCK:   -0.40 KCAL/MOL
REMARK 927      BINDING AFFINITY PREDICTED BY RF-SCORE:    0.00 PKD
ROOT
HETATM    1  O   UNL     1      -6.875  15.599  67.895  1.00  0.00    -0.118 OA 
HETATM    2  H   UNL     1      -6.698  15.149  68.711  1.00  0.00     0.000 HD 
HETATM    3  O   UNL     2     -10.449  13.087  68.294  1.00  0.00    -0.237 OA 
HETATM    4  C   UNL     1      -8.165  15.330  67.357  1.00  0.00    -0.184 C  
HETATM    5  O   UNL     2     -13.450  14.234  65.736  1.00  0.00    -0.623 OA 
HETATM    6  C   UNL     2     -11.193  13.837  67.458  1.00  0.00    -0.294 C  
HETATM    7  C   UNL     2     -11.187  13.397  66.048  1.00  0.00    -0.310 A  
HETATM    8  O   UNL     2     -11.841  14.811  67.821  1.00  0.00    -0.351 OA 
HETATM    9  C   UNL     2     -11.184  12.715  63.336  1.00  0.00    -0.404 A  
HETATM   10  C   UNL     2     -12.324  13.622  65.263  1.00  0.00    -0.465 A  
HETATM   11  C   UNL     2     -12.333  13.244  63.925  1.00  0.00    -0.422 A  
HETATM   12  C   UNL     2     -10.038  12.864  65.453  1.00  0.00    -0.265 A  
HETATM   13  H   UNL     2     -14.221  14.386  65.203  1.00  0.00     0.000 HD 
HETATM   14  C   UNL     2     -10.029  12.547  64.096  1.00  0.00    -0.226 A  
ENDROOT
BRANCH   4  15
HETATM   15  C   UNL     1      -8.455  16.067  66.022  1.00  0.00    -0.062 C  
BRANCH  15  16
HETATM   16  N   UNL     1      -8.720  17.526  66.116  1.00  0.00    -0.484 NA 
BRANCH  16  17
HETATM   17  C   UNL     1      -9.670  17.868  67.215  1.00  0.00    -0.289 C  
BRANCH  17  18
HETATM   18  C   UNL     1     -10.641  19.051  67.052  1.00  0.00    -0.461 C  
HETATM   19  H   UNL     1     -10.989  20.552  65.788  1.00  0.00     0.000 HD 
HETATM   20  O   UNL     1     -10.389  19.822  65.888  1.00  0.00    -0.486 OA 
ENDBRANCH  17  18
ENDBRANCH  16  17
BRANCH  16  21
HETATM   21  C   UNL     1      -7.466  18.287  66.339  1.00  0.00    -0.251 C  
BRANCH  21  22
HETATM   22  C   UNL     1      -7.099  19.376  65.308  1.00  0.00    -0.008 C  
HETATM   23  O   UNL     1      -7.856  20.560  65.556  1.00  0.00    -0.517 OA 
HETATM   24  H   UNL     1      -7.630  21.230  64.921  1.00  0.00     0.000 HD 
ENDBRANCH  21  22
ENDBRANCH  16  21
ENDBRANCH  15  16
ENDBRANCH   4  15
TORSDOF 6
ENDMDL
MODEL       71
REMARK 921   NORMALIZED FREE ENERGY PREDICTED BY IDOCK:   -4.44 KCAL/MOL
REMARK 922        TOTAL FREE ENERGY PREDICTED BY IDOCK:   -6.85 KCAL/MOL
REMARK 923 INTER-LIGAND FREE ENERGY PREDICTED BY IDOCK:   -6.20 KCAL/MOL
REMARK 924 INTRA-LIGAND FREE ENERGY PREDICTED BY IDOCK:   -0.65 KCAL/MOL
REMARK 927      BINDING AFFINITY PREDICTED BY RF-SCORE:    0.00 PKD
ROOT
HETATM    1  O   UNL     1     -10.149  13.982  64.628  1.00  0.00    -0.582 OA 
HETATM    2  H   UNL     1     -10.710  14.247  63.910  1.00  0.00     0.000 HD 
HETATM    3  O   UNL     2     -10.560  18.282  65.390  1.00  0.00    -0.612 OA 
HETATM    4  C   UNL     1      -9.878  15.022  65.560  1.00  0.00    -0.317 C  
HETATM    5  O   UNL     2      -9.300  19.322  69.157  1.00  0.00    -0.323 OA 
HETATM    6  C   UNL     2     -10.212  18.188  66.688  1.00  0.00    -0.381 C  
HETATM    7  C   UNL     2      -8.778  18.396  66.969  1.00  0.00    -0.270 A  
HETATM    8  O   UNL     2     -11.013  17.956  67.586  1.00  0.00    -0.310 OA 
HETATM    9  C   UNL     2      -6.072  18.685  67.616  1.00  0.00    -0.187 A  
HETATM   10  C   UNL     2      -8.401  18.956  68.196  1.00  0.00    -0.309 A  
HETATM   11  C   UNL     2      -7.056  19.135  68.497  1.00  0.00    -0.335 A  
HETATM   12  C   UNL     2      -7.787  17.948  66.088  1.00  0.00    -0.257 A  
HETATM   13  H   UNL     2      -9.044  19.701  69.990  1.00  0.00     0.000 HD 
HETATM   14  C   UNL     2      -6.439  18.070  66.422  1.00  0.00    -0.251 A  
ENDROOT
BRANCH   4  15
HETATM   15  C   UNL     1      -8.960  14.588  66.735  1.00  0.00    -0.246 C  
BRANCH  15  16
HETATM   16  N   UNL     1      -9.100  13.183  67.199  1.00  0.00    -0.222 NA 
BRANCH  16  17
HETATM   17  C   UNL     1      -8.051  12.796  68.188  1.00  0.00    -0.158 C  
BRANCH  17  18
HETATM   18  C   UNL     1      -6.576  12.720  67.754  1.00  0.00    -0.134 C  
HETATM   19  H   UNL     1      -5.388  11.561  66.650  1.00  0.00     0.000 HD 
HETATM   20  O   UNL     1      -6.299  11.608  66.918  1.00  0.00    -0.134 OA 
ENDBRANCH  17  18
ENDBRANCH  16  17
BRANCH  16  21
HETATM   21  C   UNL     1     -10.427  12.952  67.824  1.00  0.00    -0.220 C  
BRANCH  21  22
HETATM   22  C   UNL     1     -11.328  11.865  67.201  1.00  0.00    -0.331 C  
HETATM   23  O   UNL     1     -12.234  12.454  66.269  1.00  0.00    -0.620 OA 
HETATM   24  H   UNL     1     -12.789  11.784  65.886  1.00  0.00     0.000 HD 
ENDBRANCH  21  22
ENDBRANCH  16  21
ENDBRANCH  15  16
ENDBRANCH   4  15
TORSDOF 6
ENDMDL
MODEL       72
REMARK 921   NORMALIZED FREE ENERGY PREDICTED BY IDOCK:   -4.43 KCAL/MOL
REMARK 922        TOTAL FREE ENERGY PREDICTED BY IDOCK:   -6.84 KCAL/MOL
REMARK 923 INTER-LIGAND FREE ENERGY PREDICTED BY IDOCK:   -6.53 KCAL/MOL
REMARK 924 INTRA-LIGAND FREE ENERGY PREDICTED BY IDOCK:   -0.31 KCAL/MOL
REMARK 927      BINDING AFFINITY PREDICTED BY RF-SCORE:    0.00 PKD
ROOT
HETATM    1  O   UNL     1     -11.680  16.215  68.830  1.00  0.00    -0.364 OA 
HETATM    2  H   UNL     1     -12.604  16.368  68.990  1.00  0.00     0.000 HD 
HETATM    3  O   UNL     2     -13.522  13.846  65.630  1.00  0.00    -0.590 OA 
HETATM    4  C   UNL     1     -11.419  15.464  67.649  1.00  0.00    -0.251 C  
HETATM    5  O   UNL     2     -10.808  12.737  62.755  1.00  0.00    -0.270 OA 
HETATM    6  C   UNL     2     -12.411  13.821  64.870  1.00  0.00    -0.405 C  
HETATM    7  C   UNL     2     -11.538  12.648  65.074  1.00  0.00    -0.384 A  
HETATM    8  O   UNL     2     -12.129  14.694  64.057  1.00  0.00    -0.471 OA 
HETATM    9  C   UNL     2      -9.762  10.517  65.435  1.00  0.00    -0.315 A  
HETATM   10  C   UNL     2     -10.781  12.169  63.997  1.00  0.00    -0.384 A  
HETATM   11  C   UNL     2      -9.930  11.084  64.171  1.00  0.00    -0.385 A  
HETATM   12  C   UNL     2     -11.367  12.074  66.340  1.00  0.00    -0.411 A  
HETATM   13  H   UNL     2     -10.294  12.412  62.025  1.00  0.00     0.000 HD 
HETATM   14  C   UNL     2     -10.464  11.029  66.524  1.00  0.00    -0.309 A  
ENDROOT
BRANCH   4  15
HETATM   15  C   UNL     1      -9.909  15.215  67.386  1.00  0.00    -0.224 C  
BRANCH  15  16
HETATM   16  N   UNL     1      -9.026  16.410  67.417  1.00  0.00    -0.190 NA 
BRANCH  16  17
HETATM   17  C   UNL     1      -7.633  16.108  66.975  1.00  0.00    -0.225 C  
BRANCH  17  18
HETATM   18  C   UNL     1      -6.700  17.252  66.539  1.00  0.00    -0.251 C  
HETATM   19  H   UNL     1      -5.259  18.396  67.304  1.00  0.00     0.000 HD 
HETATM   20  O   UNL     1      -5.834  17.690  67.574  1.00  0.00    -0.134 OA 
ENDBRANCH  17  18
ENDBRANCH  16  17
BRANCH  16  21
HETATM   21  C   UNL     1      -9.558  17.494  66.553  1.00  0.00    -0.285 C  
BRANCH  21  22
HETATM   22  C   UNL     1      -9.632  18.914  67.154  1.00  0.00    -0.306 C  
HETATM   23  O   UNL     1      -9.238  19.879  66.180  1.00  0.00    -0.381 OA 
HETATM   24  H   UNL     1      -9.283  20.753  66.550  1.00  0.00     0.000 HD 
ENDBRANCH  21  22
ENDBRANCH  16  21
ENDBRANCH  15  16
ENDBRANCH   4  15
TORSDOF 6
ENDMDL
MODEL       73
REMARK 921   NORMALIZED FREE ENERGY PREDICTED BY IDOCK:   -4.42 KCAL/MOL
REMARK 922        TOTAL FREE ENERGY PREDICTED BY IDOCK:   -6.83 KCAL/MOL
REMARK 923 INTER-LIGAND FREE ENERGY PREDICTED BY IDOCK:   -6.63 KCAL/MOL
REMARK 924 INTRA-LIGAND FREE ENERGY PREDICTED BY IDOCK:   -0.21 KCAL/MOL
REMARK 927      BINDING AFFINITY PREDICTED BY RF-SCORE:    0.00 PKD
ROOT
HETATM    1  O   UNL     1     -13.314  16.024  70.334  1.00  0.00    -0.616 OA 
HETATM    2  H   UNL     1     -13.406  16.771  69.756  1.00  0.00     0.000 HD 
HETATM    3  O   UNL     2     -10.190  15.213  67.363  1.00  0.00    -0.233 OA 
HETATM    4  C   UNL     1     -12.210  15.183  70.016  1.00  0.00    -0.338 C  
HETATM    5  O   UNL     2      -7.577  12.301  68.608  1.00  0.00    -0.117 OA 
HETATM    6  C   UNL     2      -9.503  14.376  68.164  1.00  0.00    -0.204 C  
HETATM    7  C   UNL     2      -9.847  12.947  68.018  1.00  0.00    -0.223 A  
HETATM    8  O   UNL     2      -8.648  14.751  68.957  1.00  0.00    -0.177 OA 
HETATM    9  C   UNL     2     -10.472  10.224  67.895  1.00  0.00    -0.253 A  
HETATM   10  C   UNL     2      -8.856  11.984  68.249  1.00  0.00    -0.182 A  
HETATM   11  C   UNL     2      -9.162  10.632  68.147  1.00  0.00    -0.148 A  
HETATM   12  C   UNL     2     -11.159  12.532  67.763  1.00  0.00    -0.291 A  
HETATM   13  H   UNL     2      -6.906  11.647  68.765  1.00  0.00     0.000 HD 
HETATM   14  C   UNL     2     -11.475  11.175  67.726  1.00  0.00    -0.349 A  
ENDROOT
BRANCH   4  15
HETATM   15  C   UNL     1     -12.060  13.961  70.962  1.00  0.00    -0.277 C  
BRANCH  15  16
HETATM   16  N   UNL     1     -13.316  13.401  71.524  1.00  0.00    -0.308 NA 
BRANCH  16  17
HETATM   17  C   UNL     1     -13.153  12.002  72.018  1.00  0.00    -0.351 C  
BRANCH  17  18
HETATM   18  C   UNL     1     -12.905  10.858  71.019  1.00  0.00    -0.376 C  
HETATM   19  H   UNL     1     -11.541   9.454  70.644  1.00  0.00     0.000 HD 
HETATM   20  O   UNL     1     -11.694  10.160  71.261  1.00  0.00    -0.366 OA 
ENDBRANCH  17  18
ENDBRANCH  16  17
BRANCH  16  21
HETATM   21  C   UNL     1     -13.818  14.230  72.649  1.00  0.00    -0.384 C  
BRANCH  21  22
HETATM   22  C   UNL     1     -12.771  14.926  73.544  1.00  0.00    -0.499 C  
HETATM   23  O   UNL     1     -13.258  16.198  73.968  1.00  0.00    -0.935 OA 
HETATM   24  H   UNL     1     -12.613  16.627  74.519  1.00  0.00     0.000 HD 
ENDBRANCH  21  22
ENDBRANCH  16  21
ENDBRANCH  15  16
ENDBRANCH   4  15
TORSDOF 6
ENDMDL
MODEL       74
REMARK 921   NORMALIZED FREE ENERGY PREDICTED BY IDOCK:   -4.41 KCAL/MOL
REMARK 922        TOTAL FREE ENERGY PREDICTED BY IDOCK:   -6.82 KCAL/MOL
REMARK 923 INTER-LIGAND FREE ENERGY PREDICTED BY IDOCK:   -6.05 KCAL/MOL
REMARK 924 INTRA-LIGAND FREE ENERGY PREDICTED BY IDOCK:   -0.76 KCAL/MOL
REMARK 927      BINDING AFFINITY PREDICTED BY RF-SCORE:    0.00 PKD
ROOT
HETATM    1  O   UNL     1     -10.279  10.482  62.788  1.00  0.00    -0.706 OA 
HETATM    2  H   UNL     1     -11.114  10.551  62.341  1.00  0.00     0.000 HD 
HETATM    3  O   UNL     2     -12.655  12.706  65.729  1.00  0.00    -0.575 OA 
HETATM    4  C   UNL     1     -10.295  10.986  64.118  1.00  0.00    -0.369 C  
HETATM    5  O   UNL     2     -10.865  12.802  69.423  1.00  0.00    -0.437 OA 
HETATM    6  C   UNL     2     -11.856  12.389  66.765  1.00  0.00    -0.315 C  
HETATM    7  C   UNL     2     -10.792  13.371  67.059  1.00  0.00    -0.280 A  
HETATM    8  O   UNL     2     -11.988  11.371  67.433  1.00  0.00    -0.606 OA 
HETATM    9  C   UNL     2      -8.685  15.111  67.657  1.00  0.00    -0.177 A  
HETATM   10  C   UNL     2     -10.355  13.523  68.381  1.00  0.00    -0.248 A  
HETATM   11  C   UNL     2      -9.335  14.419  68.679  1.00  0.00    -0.188 A  
HETATM   12  C   UNL     2     -10.138  14.069  66.037  1.00  0.00    -0.327 A  
HETATM   13  H   UNL     2     -10.569  12.905  70.320  1.00  0.00     0.000 HD 
HETATM   14  C   UNL     2      -9.073  14.918  66.333  1.00  0.00    -0.293 A  
ENDROOT
BRANCH   4  15
HETATM   15  C   UNL     1      -8.929  10.874  64.849  1.00  0.00    -0.152 C  
BRANCH  15  16
HETATM   16  N   UNL     1      -8.970  10.409  66.260  1.00  0.00    -0.152 NA 
BRANCH  16  17
HETATM   17  C   UNL     1      -9.545   9.039  66.398  1.00  0.00    -0.244 C  
BRANCH  17  18
HETATM   18  C   UNL     1      -9.054   8.109  67.522  1.00  0.00    -0.137 C  
HETATM   19  H   UNL     1      -9.733   7.297  69.210  1.00  0.00     0.000 HD 
HETATM   20  O   UNL     1     -10.036   7.871  68.517  1.00  0.00    -0.186 OA 
ENDBRANCH  17  18
ENDBRANCH  16  17
BRANCH  16  21
HETATM   21  C   UNL     1      -7.613  10.402  66.862  1.00  0.00    -0.107 C  
BRANCH  21  22
HETATM   22  C   UNL     1      -7.040  11.752  67.345  1.00  0.00    -0.126 C  
HETATM   23  O   UNL     1      -6.084  12.241  66.407  1.00  0.00    -0.426 OA 
HETATM   24  H   UNL     1      -5.731  13.072  66.704  1.00  0.00     0.000 HD 
ENDBRANCH  21  22
ENDBRANCH  16  21
ENDBRANCH  15  16
ENDBRANCH   4  15
TORSDOF 6
ENDMDL
MODEL       75
REMARK 921   NORMALIZED FREE ENERGY PREDICTED BY IDOCK:   -4.41 KCAL/MOL
REMARK 922        TOTAL FREE ENERGY PREDICTED BY IDOCK:   -6.81 KCAL/MOL
REMARK 923 INTER-LIGAND FREE ENERGY PREDICTED BY IDOCK:   -6.07 KCAL/MOL
REMARK 924 INTRA-LIGAND FREE ENERGY PREDICTED BY IDOCK:   -0.74 KCAL/MOL
REMARK 927      BINDING AFFINITY PREDICTED BY RF-SCORE:    0.00 PKD
ROOT
HETATM    1  O   UNL     1     -11.012  11.273  62.722  1.00  0.00    -0.723 OA 
HETATM    2  H   UNL     1     -10.320  11.087  62.099  1.00  0.00     0.000 HD 
HETATM    3  O   UNL     2      -7.632  10.455  65.397  1.00  0.00    -0.144 OA 
HETATM    4  C   UNL     1     -10.573  11.310  64.075  1.00  0.00    -0.386 C  
HETATM    5  O   UNL     2      -8.371  11.661  69.251  1.00  0.00    -0.355 OA 
HETATM    6  C   UNL     2      -8.179  11.095  66.449  1.00  0.00    -0.164 C  
HETATM    7  C   UNL     2      -8.958  10.240  67.366  1.00  0.00    -0.141 A  
HETATM    8  O   UNL     2      -8.044  12.296  66.651  1.00  0.00    -0.079 OA 
HETATM    9  C   UNL     2     -10.531   8.742  69.128  1.00  0.00    -0.230 A  
HETATM   10  C   UNL     2      -9.010  10.574  68.725  1.00  0.00    -0.166 A  
HETATM   11  C   UNL     2      -9.761   9.803  69.605  1.00  0.00    -0.242 A  
HETATM   12  C   UNL     2      -9.731   9.174  66.893  1.00  0.00    -0.254 A  
HETATM   13  H   UNL     2      -8.407  11.888  70.173  1.00  0.00     0.000 HD 
HETATM   14  C   UNL     2     -10.534   8.443  67.768  1.00  0.00    -0.284 A  
ENDROOT
BRANCH   4  15
HETATM   15  C   UNL     1     -11.704  11.615  65.094  1.00  0.00     0.025 C  
BRANCH  15  16
HETATM   16  N   UNL     1     -11.562  12.864  65.887  1.00  0.00    -0.356 NA 
BRANCH  16  17
HETATM   17  C   UNL     1     -12.436  13.965  65.388  1.00  0.00    -0.501 C  
BRANCH  17  18
HETATM   18  C   UNL     1     -12.146  14.621  64.026  1.00  0.00    -0.200 C  
HETATM   19  H   UNL     1     -12.142  16.433  63.196  1.00  0.00     0.000 HD 
HETATM   20  O   UNL     1     -12.321  16.028  64.037  1.00  0.00    -0.752 OA 
ENDBRANCH  17  18
ENDBRANCH  16  17
BRANCH  16  21
HETATM   21  C   UNL     1     -11.885  12.633  67.317  1.00  0.00    -0.328 C  
BRANCH  21  22
HETATM   22  C   UNL     1     -11.231  13.569  68.356  1.00  0.00    -0.278 C  
HETATM   23  O   UNL     1     -12.126  14.626  68.695  1.00  0.00    -0.512 OA 
HETATM   24  H   UNL     1     -11.723  15.202  69.335  1.00  0.00     0.000 HD 
ENDBRANCH  21  22
ENDBRANCH  16  21
ENDBRANCH  15  16
ENDBRANCH   4  15
TORSDOF 6
ENDMDL
MODEL       76
REMARK 921   NORMALIZED FREE ENERGY PREDICTED BY IDOCK:   -4.40 KCAL/MOL
REMARK 922        TOTAL FREE ENERGY PREDICTED BY IDOCK:   -6.81 KCAL/MOL
REMARK 923 INTER-LIGAND FREE ENERGY PREDICTED BY IDOCK:   -5.47 KCAL/MOL
REMARK 924 INTRA-LIGAND FREE ENERGY PREDICTED BY IDOCK:   -1.33 KCAL/MOL
REMARK 927      BINDING AFFINITY PREDICTED BY RF-SCORE:    0.00 PKD
ROOT
HETATM    1  O   UNL     1     -12.734  10.270  69.649  1.00  0.00    -0.599 OA 
HETATM    2  H   UNL     1     -13.423  10.480  70.267  1.00  0.00     0.000 HD 
HETATM    3  O   UNL     2     -12.637  14.655  69.603  1.00  0.00    -0.220 OA 
HETATM    4  C   UNL     1     -12.015  11.406  69.181  1.00  0.00    -0.328 C  
HETATM    5  O   UNL     2      -9.239  16.118  67.821  1.00  0.00    -0.201 OA 
HETATM    6  C   UNL     2     -11.384  14.724  69.112  1.00  0.00    -0.282 C  
HETATM    7  C   UNL     2     -11.292  14.825  67.642  1.00  0.00    -0.352 A  
HETATM    8  O   UNL     2     -10.382  14.712  69.817  1.00  0.00    -0.088 OA 
HETATM    9  C   UNL     2     -10.985  14.930  64.864  1.00  0.00    -0.422 A  
HETATM   10  C   UNL     2     -10.217  15.522  67.076  1.00  0.00    -0.271 A  
HETATM   11  C   UNL     2     -10.091  15.606  65.695  1.00  0.00    -0.395 A  
HETATM   12  C   UNL     2     -12.188  14.150  66.805  1.00  0.00    -0.429 A  
HETATM   13  H   UNL     2      -8.510  16.590  67.437  1.00  0.00     0.000 HD 
HETATM   14  C   UNL     2     -12.020  14.183  65.421  1.00  0.00    -0.382 A  
ENDROOT
BRANCH   4  15
HETATM   15  C   UNL     1     -10.888  11.063  68.170  1.00  0.00    -0.226 C  
BRANCH  15  16
HETATM   16  N   UNL     1      -9.500  11.388  68.592  1.00  0.00    -0.187 NA 
BRANCH  16  17
HETATM   17  C   UNL     1      -8.707  10.174  68.944  1.00  0.00    -0.149 C  
BRANCH  17  18
HETATM   18  C   UNL     1      -9.191   8.783  68.499  1.00  0.00    -0.141 C  
HETATM   19  H   UNL     1      -9.978   7.135  69.297  1.00  0.00     0.000 HD 
HETATM   20  O   UNL     1      -9.679   7.994  69.572  1.00  0.00    -0.167 OA 
ENDBRANCH  17  18
ENDBRANCH  16  17
BRANCH  16  21
HETATM   21  C   UNL     1      -8.772  12.119  67.525  1.00  0.00    -0.173 C  
BRANCH  21  22
HETATM   22  C   UNL     1      -7.575  12.996  67.951  1.00  0.00    -0.144 C  
HETATM   23  O   UNL     1      -7.944  13.827  69.050  1.00  0.00    -0.319 OA 
HETATM   24  H   UNL     1      -7.207  14.367  69.312  1.00  0.00     0.000 HD 
ENDBRANCH  21  22
ENDBRANCH  16  21
ENDBRANCH  15  16
ENDBRANCH   4  15
TORSDOF 6
ENDMDL
MODEL       77
REMARK 921   NORMALIZED FREE ENERGY PREDICTED BY IDOCK:   -4.38 KCAL/MOL
REMARK 922        TOTAL FREE ENERGY PREDICTED BY IDOCK:   -6.77 KCAL/MOL
REMARK 923 INTER-LIGAND FREE ENERGY PREDICTED BY IDOCK:   -6.21 KCAL/MOL
REMARK 924 INTRA-LIGAND FREE ENERGY PREDICTED BY IDOCK:   -0.57 KCAL/MOL
REMARK 927      BINDING AFFINITY PREDICTED BY RF-SCORE:    0.00 PKD
ROOT
HETATM    1  O   UNL     1     -13.078  14.168  65.106  1.00  0.00    -0.757 OA 
HETATM    2  H   UNL     1     -12.997  13.922  64.193  1.00  0.00     0.000 HD 
HETATM    3  O   UNL     2      -9.761  11.301  65.268  1.00  0.00    -0.221 OA 
HETATM    4  C   UNL     1     -12.070  13.612  65.943  1.00  0.00    -0.439 C  
HETATM    5  O   UNL     2      -7.739  11.461  68.838  1.00  0.00    -0.138 OA 
HETATM    6  C   UNL     2      -9.297  11.751  66.450  1.00  0.00    -0.220 C  
HETATM    7  C   UNL     2      -9.812  11.040  67.637  1.00  0.00    -0.192 A  
HETATM    8  O   UNL     2      -8.499  12.675  66.554  1.00  0.00    -0.043 OA 
HETATM    9  C   UNL     2     -10.785   9.829  69.963  1.00  0.00    -0.326 A  
HETATM   10  C   UNL     2      -8.998  10.934  68.771  1.00  0.00    -0.164 A  
HETATM   11  C   UNL     2      -9.471  10.296  69.912  1.00  0.00    -0.061 A  
HETATM   12  C   UNL     2     -11.129  10.568  67.692  1.00  0.00    -0.375 A  
HETATM   13  H   UNL     2      -7.187  11.389  69.608  1.00  0.00     0.000 HD 
HETATM   14  C   UNL     2     -11.620   9.987  68.860  1.00  0.00     0.029 A  
ENDROOT
BRANCH   4  15
HETATM   15  C   UNL     1     -12.202  14.013  67.437  1.00  0.00    -0.254 C  
BRANCH  15  16
HETATM   16  N   UNL     1     -11.127  14.880  67.986  1.00  0.00    -0.283 NA 
BRANCH  16  17
HETATM   17  C   UNL     1     -10.413  15.653  66.928  1.00  0.00    -0.307 C  
BRANCH  17  18
HETATM   18  C   UNL     1     -10.248  17.177  67.067  1.00  0.00    -0.313 C  
HETATM   19  H   UNL     1     -10.096  18.788  65.905  1.00  0.00     0.000 HD 
HETATM   20  O   UNL     1     -10.198  17.848  65.819  1.00  0.00    -0.577 OA 
ENDBRANCH  17  18
ENDBRANCH  16  17
BRANCH  16  21
HETATM   21  C   UNL     1     -11.668  15.846  68.975  1.00  0.00    -0.370 C  
BRANCH  21  22
HETATM   22  C   UNL     1     -12.185  15.281  70.315  1.00  0.00    -0.363 C  
HETATM   23  O   UNL     1     -13.558  15.621  70.494  1.00  0.00    -0.833 OA 
HETATM   24  H   UNL     1     -13.876  15.273  71.319  1.00  0.00     0.000 HD 
ENDBRANCH  21  22
ENDBRANCH  16  21
ENDBRANCH  15  16
ENDBRANCH   4  15
TORSDOF 6
ENDMDL
MODEL       78
REMARK 921   NORMALIZED FREE ENERGY PREDICTED BY IDOCK:   -4.33 KCAL/MOL
REMARK 922        TOTAL FREE ENERGY PREDICTED BY IDOCK:   -6.71 KCAL/MOL
REMARK 923 INTER-LIGAND FREE ENERGY PREDICTED BY IDOCK:   -6.29 KCAL/MOL
REMARK 924 INTRA-LIGAND FREE ENERGY PREDICTED BY IDOCK:   -0.42 KCAL/MOL
REMARK 927      BINDING AFFINITY PREDICTED BY RF-SCORE:    0.00 PKD
ROOT
HETATM    1  O   UNL     1      -9.573  13.108  67.849  1.00  0.00    -0.204 OA 
HETATM    2  H   UNL     1      -8.964  13.422  68.505  1.00  0.00     0.000 HD 
HETATM    3  O   UNL     2      -9.100   9.549  70.369  1.00  0.00    -0.238 OA 
HETATM    4  C   UNL     1     -10.062  11.796  68.099  1.00  0.00    -0.192 C  
HETATM    5  O   UNL     2     -11.977   6.717  69.617  1.00  0.00    -0.653 OA 
HETATM    6  C   UNL     2     -10.246   8.977  69.951  1.00  0.00    -0.202 C  
HETATM    7  C   UNL     2     -10.103   8.045  68.815  1.00  0.00    -0.206 A  
HETATM    8  O   UNL     2     -11.336   9.194  70.468  1.00  0.00    -0.261 OA 
HETATM    9  C   UNL     2      -9.972   6.327  66.611  1.00  0.00    -0.207 A  
HETATM   10  C   UNL     2     -10.983   6.960  68.712  1.00  0.00    -0.157 A  
HETATM   11  C   UNL     2     -10.888   6.085  67.636  1.00  0.00    -0.386 A  
HETATM   12  C   UNL     2      -9.185   8.282  67.785  1.00  0.00    -0.144 A  
HETATM   13  H   UNL     2     -12.573   5.981  69.547  1.00  0.00     0.000 HD 
HETATM   14  C   UNL     2      -9.137   7.440  66.675  1.00  0.00    -0.184 A  
ENDROOT
BRANCH   4  15
HETATM   15  C   UNL     1     -11.059  11.282  67.026  1.00  0.00    -0.293 C  
BRANCH  15  16
HETATM   16  N   UNL     1     -11.009  11.953  65.701  1.00  0.00    -0.297 NA 
BRANCH  16  17
HETATM   17  C   UNL     1     -10.711  11.006  64.586  1.00  0.00    -0.248 C  
BRANCH  17  18
HETATM   18  C   UNL     1      -9.366  11.091  63.844  1.00  0.00    -0.211 C  
HETATM   19  H   UNL     1      -8.672  11.513  62.024  1.00  0.00     0.000 HD 
HETATM   20  O   UNL     1      -9.503  11.461  62.482  1.00  0.00    -0.287 OA 
ENDBRANCH  17  18
ENDBRANCH  16  17
BRANCH  16  21
HETATM   21  C   UNL     1     -12.292  12.635  65.395  1.00  0.00    -0.436 C  
BRANCH  21  22
HETATM   22  C   UNL     1     -12.243  14.150  65.105  1.00  0.00    -0.433 C  
HETATM   23  O   UNL     1     -12.306  14.383  63.699  1.00  0.00    -1.051 OA 
HETATM   24  H   UNL     1     -12.276  15.316  63.521  1.00  0.00     0.000 HD 
ENDBRANCH  21  22
ENDBRANCH  16  21
ENDBRANCH  15  16
ENDBRANCH   4  15
TORSDOF 6
ENDMDL
MODEL       79
REMARK 921   NORMALIZED FREE ENERGY PREDICTED BY IDOCK:   -4.33 KCAL/MOL
REMARK 922        TOTAL FREE ENERGY PREDICTED BY IDOCK:   -6.70 KCAL/MOL
REMARK 923 INTER-LIGAND FREE ENERGY PREDICTED BY IDOCK:   -6.29 KCAL/MOL
REMARK 924 INTRA-LIGAND FREE ENERGY PREDICTED BY IDOCK:   -0.41 KCAL/MOL
REMARK 927      BINDING AFFINITY PREDICTED BY RF-SCORE:    0.00 PKD
ROOT
HETATM    1  O   UNL     1     -10.564  13.282  69.054  1.00  0.00    -0.383 OA 
HETATM    2  H   UNL     1      -9.986  13.571  69.749  1.00  0.00     0.000 HD 
HETATM    3  O   UNL     2      -9.454   9.464  70.907  1.00  0.00    -0.257 OA 
HETATM    4  C   UNL     1     -10.835  11.885  69.075  1.00  0.00    -0.190 C  
HETATM    5  O   UNL     2     -11.885   6.383  69.699  1.00  0.00    -0.594 OA 
HETATM    6  C   UNL     2     -10.513   8.797  70.407  1.00  0.00    -0.209 C  
HETATM    7  C   UNL     2     -10.270   8.109  69.123  1.00  0.00    -0.219 A  
HETATM    8  O   UNL     2     -11.603   8.747  70.964  1.00  0.00    -0.277 OA 
HETATM    9  C   UNL     2      -9.958   6.837  66.652  1.00  0.00    -0.207 A  
HETATM   10  C   UNL     2     -10.975   6.932  68.841  1.00  0.00    -0.168 A  
HETATM   11  C   UNL     2     -10.787   6.281  67.627  1.00  0.00    -0.433 A  
HETATM   12  C   UNL     2      -9.439   8.662  68.142  1.00  0.00    -0.152 A  
HETATM   13  H   UNL     2     -12.363   5.585  69.507  1.00  0.00     0.000 HD 
HETATM   14  C   UNL     2      -9.303   8.040  66.902  1.00  0.00    -0.209 A  
ENDROOT
BRANCH   4  15
HETATM   15  C   UNL     1     -11.781  11.411  67.938  1.00  0.00    -0.228 C  
BRANCH  15  16
HETATM   16  N   UNL     1     -11.452  11.880  66.567  1.00  0.00    -0.449 NA 
BRANCH  16  17
HETATM   17  C   UNL     1     -11.885  13.287  66.320  1.00  0.00    -0.395 C  
BRANCH  17  18
HETATM   18  C   UNL     1     -12.795  13.613  65.123  1.00  0.00    -0.329 C  
HETATM   19  H   UNL     1     -13.831  12.657  63.714  1.00  0.00     0.000 HD 
HETATM   20  O   UNL     1     -13.269  12.456  64.453  1.00  0.00    -0.816 OA 
ENDBRANCH  17  18
ENDBRANCH  16  17
BRANCH  16  21
HETATM   21  C   UNL     1      -9.993  11.796  66.305  1.00  0.00    -0.218 C  
BRANCH  21  22
HETATM   22  C   UNL     1      -9.543  11.523  64.854  1.00  0.00    -0.186 C  
HETATM   23  O   UNL     1     -10.622  10.967  64.103  1.00  0.00    -0.371 OA 
HETATM   24  H   UNL     1     -10.345  10.799  63.210  1.00  0.00     0.000 HD 
ENDBRANCH  21  22
ENDBRANCH  16  21
ENDBRANCH  15  16
ENDBRANCH   4  15
TORSDOF 6
ENDMDL
MODEL       80
REMARK 921   NORMALIZED FREE ENERGY PREDICTED BY IDOCK:   -4.32 KCAL/MOL
REMARK 922        TOTAL FREE ENERGY PREDICTED BY IDOCK:   -6.70 KCAL/MOL
REMARK 923 INTER-LIGAND FREE ENERGY PREDICTED BY IDOCK:   -5.67 KCAL/MOL
REMARK 924 INTRA-LIGAND FREE ENERGY PREDICTED BY IDOCK:   -1.03 KCAL/MOL
REMARK 927      BINDING AFFINITY PREDICTED BY RF-SCORE:    0.00 PKD
ROOT
HETATM    1  O   UNL     1     -10.568   7.349  66.646  1.00  0.00    -0.492 OA 
HETATM    2  H   UNL     1     -10.921   7.220  65.774  1.00  0.00     0.000 HD 
HETATM    3  O   UNL     2     -11.101  11.492  65.305  1.00  0.00    -0.271 OA 
HETATM    4  C   UNL     1     -10.530   8.711  67.056  1.00  0.00    -0.284 C  
HETATM    5  O   UNL     2     -10.839  14.175  68.401  1.00  0.00    -0.241 OA 
HETATM    6  C   UNL     2     -11.101  12.002  66.551  1.00  0.00    -0.314 C  
HETATM    7  C   UNL     2      -9.784  12.456  67.041  1.00  0.00    -0.211 A  
HETATM    8  O   UNL     2     -12.109  12.099  67.241  1.00  0.00    -0.565 OA 
HETATM    9  C   UNL     2      -7.332  13.269  68.113  1.00  0.00    -0.120 A  
HETATM   10  C   UNL     2      -9.728  13.525  67.944  1.00  0.00    -0.225 A  
HETATM   11  C   UNL     2      -8.503  13.952  68.444  1.00  0.00    -0.159 A  
HETATM   12  C   UNL     2      -8.606  11.775  66.711  1.00  0.00    -0.185 A  
HETATM   13  H   UNL     2     -10.800  14.900  69.014  1.00  0.00     0.000 HD 
HETATM   14  C   UNL     2      -7.388  12.166  67.265  1.00  0.00    -0.149 A  
ENDROOT
BRANCH   4  15
HETATM   15  C   UNL     1      -9.952   8.922  68.482  1.00  0.00    -0.177 C  
BRANCH  15  16
HETATM   16  N   UNL     1     -10.928   8.896  69.602  1.00  0.00    -0.178 NA 
BRANCH  16  17
HETATM   17  C   UNL     1     -10.697   7.759  70.541  1.00  0.00    -0.236 C  
BRANCH  17  18
HETATM   18  C   UNL     1     -11.552   6.485  70.431  1.00  0.00    -0.407 C  
HETATM   19  H   UNL     1     -11.536   4.737  69.472  1.00  0.00     0.000 HD 
HETATM   20  O   UNL     1     -11.008   5.524  69.540  1.00  0.00    -0.288 OA 
ENDBRANCH  17  18
ENDBRANCH  16  17
BRANCH  16  21
HETATM   21  C   UNL     1     -10.880  10.156  70.385  1.00  0.00    -0.301 C  
BRANCH  21  22
HETATM   22  C   UNL     1     -12.181  10.982  70.486  1.00  0.00    -0.381 C  
HETATM   23  O   UNL     1     -11.896  12.368  70.300  1.00  0.00    -0.483 OA 
HETATM   24  H   UNL     1     -12.697  12.876  70.363  1.00  0.00     0.000 HD 
ENDBRANCH  21  22
ENDBRANCH  16  21
ENDBRANCH  15  16
ENDBRANCH   4  15
TORSDOF 6
ENDMDL
MODEL       81
REMARK 921   NORMALIZED FREE ENERGY PREDICTED BY IDOCK:   -4.32 KCAL/MOL
REMARK 922        TOTAL FREE ENERGY PREDICTED BY IDOCK:   -6.69 KCAL/MOL
REMARK 923 INTER-LIGAND FREE ENERGY PREDICTED BY IDOCK:   -5.98 KCAL/MOL
REMARK 924 INTRA-LIGAND FREE ENERGY PREDICTED BY IDOCK:   -0.71 KCAL/MOL
REMARK 927      BINDING AFFINITY PREDICTED BY RF-SCORE:    0.00 PKD
ROOT
HETATM    1  O   UNL     1     -10.923  15.945  65.134  1.00  0.00    -0.398 OA 
HETATM    2  H   UNL     1     -10.699  15.976  64.212  1.00  0.00     0.000 HD 
HETATM    3  O   UNL     2      -7.179  18.230  65.227  1.00  0.00    -0.494 OA 
HETATM    4  C   UNL     1     -10.056  16.711  65.963  1.00  0.00    -0.340 C  
HETATM    5  O   UNL     2      -6.583  20.093  68.837  1.00  0.00    -0.309 OA 
HETATM    6  C   UNL     2      -7.422  18.772  66.436  1.00  0.00    -0.252 C  
HETATM    7  C   UNL     2      -6.858  18.028  67.580  1.00  0.00    -0.196 A  
HETATM    8  O   UNL     2      -8.055  19.809  66.596  1.00  0.00    -0.286 OA 
HETATM    9  C   UNL     2      -5.914  16.663  69.832  1.00  0.00    -0.214 A  
HETATM   10  C   UNL     2      -6.467  18.737  68.724  1.00  0.00    -0.252 A  
HETATM   11  C   UNL     2      -5.961  18.057  69.826  1.00  0.00    -0.227 A  
HETATM   12  C   UNL     2      -6.807  16.629  67.591  1.00  0.00    -0.162 A  
HETATM   13  H   UNL     2      -6.319  20.573  69.613  1.00  0.00     0.000 HD 
HETATM   14  C   UNL     2      -6.360  15.949  68.722  1.00  0.00    -0.114 A  
ENDROOT
BRANCH   4  15
HETATM   15  C   UNL     1     -10.423  16.660  67.471  1.00  0.00    -0.317 C  
BRANCH  15  16
HETATM   16  N   UNL     1     -11.127  15.438  67.939  1.00  0.00    -0.313 NA 
BRANCH  16  17
HETATM   17  C   UNL     1     -10.193  14.309  68.224  1.00  0.00    -0.244 C  
BRANCH  17  18
HETATM   18  C   UNL     1     -10.395  12.950  67.531  1.00  0.00    -0.223 C  
HETATM   19  H   UNL     1     -10.278  12.158  65.706  1.00  0.00     0.000 HD 
HETATM   20  O   UNL     1     -10.154  12.997  66.134  1.00  0.00    -0.274 OA 
ENDBRANCH  17  18
ENDBRANCH  16  17
BRANCH  16  21
HETATM   21  C   UNL     1     -11.911  15.708  69.171  1.00  0.00    -0.362 C  
BRANCH  21  22
HETATM   22  C   UNL     1     -11.140  15.772  70.507  1.00  0.00    -0.365 C  
HETATM   23  O   UNL     1     -11.925  16.439  71.493  1.00  0.00    -0.640 OA 
HETATM   24  H   UNL     1     -11.450  16.479  72.316  1.00  0.00     0.000 HD 
ENDBRANCH  21  22
ENDBRANCH  16  21
ENDBRANCH  15  16
ENDBRANCH   4  15
TORSDOF 6
ENDMDL
MODEL       82
REMARK 921   NORMALIZED FREE ENERGY PREDICTED BY IDOCK:   -4.32 KCAL/MOL
REMARK 922        TOTAL FREE ENERGY PREDICTED BY IDOCK:   -6.69 KCAL/MOL
REMARK 923 INTER-LIGAND FREE ENERGY PREDICTED BY IDOCK:   -6.13 KCAL/MOL
REMARK 924 INTRA-LIGAND FREE ENERGY PREDICTED BY IDOCK:   -0.56 KCAL/MOL
REMARK 927      BINDING AFFINITY PREDICTED BY RF-SCORE:    0.00 PKD
ROOT
HETATM    1  O   UNL     1      -8.376  13.714  66.807  1.00  0.00    -0.422 OA 
HETATM    2  H   UNL     1      -7.623  13.972  67.325  1.00  0.00     0.000 HD 
HETATM    3  O   UNL     2      -8.087  10.378  69.641  1.00  0.00    -0.161 OA 
HETATM    4  C   UNL     1      -9.026  12.541  67.282  1.00  0.00    -0.192 C  
HETATM    5  O   UNL     2     -11.474   8.058  69.664  1.00  0.00    -0.443 OA 
HETATM    6  C   UNL     2      -9.364   9.987  69.468  1.00  0.00    -0.229 C  
HETATM    7  C   UNL     2      -9.566   8.943  68.443  1.00  0.00    -0.157 A  
HETATM    8  O   UNL     2     -10.303  10.445  70.108  1.00  0.00    -0.218 OA 
HETATM    9  C   UNL     2     -10.084   7.033  66.467  1.00  0.00    -0.149 A  
HETATM   10  C   UNL     2     -10.617   8.031  68.601  1.00  0.00    -0.109 A  
HETATM   11  C   UNL     2     -10.846   7.057  67.636  1.00  0.00    -0.312 A  
HETATM   12  C   UNL     2      -8.803   8.913  67.269  1.00  0.00    -0.137 A  
HETATM   13  H   UNL     2     -12.187   7.439  69.771  1.00  0.00     0.000 HD 
HETATM   14  C   UNL     2      -9.078   7.976  66.274  1.00  0.00    -0.232 A  
ENDROOT
BRANCH   4  15
HETATM   15  C   UNL     1     -10.258  12.119  66.436  1.00  0.00    -0.220 C  
BRANCH  15  16
HETATM   16  N   UNL     1     -10.283  12.589  65.026  1.00  0.00    -0.289 NA 
BRANCH  16  17
HETATM   17  C   UNL     1     -10.917  11.603  64.102  1.00  0.00    -0.376 C  
BRANCH  17  18
HETATM   18  C   UNL     1     -12.111  12.026  63.228  1.00  0.00    -0.403 C  
HETATM   19  H   UNL     1     -14.096  12.155  63.349  1.00  0.00     0.000 HD 
HETATM   20  O   UNL     1     -13.359  11.895  63.889  1.00  0.00    -0.600 OA 
ENDBRANCH  17  18
ENDBRANCH  16  17
BRANCH  16  21
HETATM   21  C   UNL     1     -11.018  13.873  64.902  1.00  0.00    -0.386 C  
BRANCH  21  22
HETATM   22  C   UNL     1     -11.952  14.276  66.063  1.00  0.00    -0.400 C  
HETATM   23  O   UNL     1     -13.314  14.187  65.649  1.00  0.00    -0.697 OA 
HETATM   24  H   UNL     1     -13.889  14.435  66.364  1.00  0.00     0.000 HD 
ENDBRANCH  21  22
ENDBRANCH  16  21
ENDBRANCH  15  16
ENDBRANCH   4  15
TORSDOF 6
ENDMDL
MODEL       83
REMARK 921   NORMALIZED FREE ENERGY PREDICTED BY IDOCK:   -4.30 KCAL/MOL
REMARK 922        TOTAL FREE ENERGY PREDICTED BY IDOCK:   -6.67 KCAL/MOL
REMARK 923 INTER-LIGAND FREE ENERGY PREDICTED BY IDOCK:   -6.19 KCAL/MOL
REMARK 924 INTRA-LIGAND FREE ENERGY PREDICTED BY IDOCK:   -0.48 KCAL/MOL
REMARK 927      BINDING AFFINITY PREDICTED BY RF-SCORE:    0.00 PKD
ROOT
HETATM    1  O   UNL     1     -11.646  13.757  69.435  1.00  0.00    -0.274 OA 
HETATM    2  H   UNL     1     -11.420  13.732  70.356  1.00  0.00     0.000 HD 
HETATM    3  O   UNL     2      -9.518   9.930  69.700  1.00  0.00    -0.206 OA 
HETATM    4  C   UNL     1     -11.310  12.569  68.727  1.00  0.00    -0.293 C  
HETATM    5  O   UNL     2     -10.098   7.594  66.374  1.00  0.00    -0.448 OA 
HETATM    6  C   UNL     2     -10.056   9.437  68.568  1.00  0.00    -0.187 C  
HETATM    7  C   UNL     2      -9.259   9.660  67.346  1.00  0.00    -0.148 A  
HETATM    8  O   UNL     2     -11.124   8.837  68.535  1.00  0.00     0.075 OA 
HETATM    9  C   UNL     2      -7.882  10.097  64.951  1.00  0.00    -0.147 A  
HETATM   10  C   UNL     2      -9.325   8.718  66.311  1.00  0.00    -0.222 A  
HETATM   11  C   UNL     2      -8.607   8.920  65.138  1.00  0.00    -0.208 A  
HETATM   12  C   UNL     2      -8.528  10.838  67.154  1.00  0.00    -0.126 A  
HETATM   13  H   UNL     2     -10.143   6.956  65.672  1.00  0.00     0.000 HD 
HETATM   14  C   UNL     2      -7.862  11.066  65.951  1.00  0.00    -0.034 A  
ENDROOT
BRANCH   4  15
HETATM   15  C   UNL     1     -11.681  12.611  67.219  1.00  0.00    -0.370 C  
BRANCH  15  16
HETATM   16  N   UNL     1     -11.891  13.958  66.627  1.00  0.00    -0.396 NA 
BRANCH  16  17
HETATM   17  C   UNL     1     -10.613  14.615  66.224  1.00  0.00    -0.306 C  
BRANCH  17  18
HETATM   18  C   UNL     1     -10.553  16.144  66.060  1.00  0.00    -0.295 C  
HETATM   19  H   UNL     1     -10.710  17.512  64.619  1.00  0.00     0.000 HD 
HETATM   20  O   UNL     1     -10.747  16.568  64.720  1.00  0.00    -0.719 OA 
ENDBRANCH  17  18
ENDBRANCH  16  17
BRANCH  16  21
HETATM   21  C   UNL     1     -12.769  13.888  65.432  1.00  0.00    -0.490 C  
BRANCH  21  22
HETATM   22  C   UNL     1     -12.254  13.093  64.214  1.00  0.00    -0.396 C  
HETATM   23  O   UNL     1     -12.635  13.747  63.005  1.00  0.00    -1.005 OA 
HETATM   24  H   UNL     1     -12.317  13.257  62.255  1.00  0.00     0.000 HD 
ENDBRANCH  21  22
ENDBRANCH  16  21
ENDBRANCH  15  16
ENDBRANCH   4  15
TORSDOF 6
ENDMDL
MODEL       84
REMARK 921   NORMALIZED FREE ENERGY PREDICTED BY IDOCK:   -4.27 KCAL/MOL
REMARK 922        TOTAL FREE ENERGY PREDICTED BY IDOCK:   -6.63 KCAL/MOL
REMARK 923 INTER-LIGAND FREE ENERGY PREDICTED BY IDOCK:   -6.35 KCAL/MOL
REMARK 924 INTRA-LIGAND FREE ENERGY PREDICTED BY IDOCK:   -0.29 KCAL/MOL
REMARK 927      BINDING AFFINITY PREDICTED BY RF-SCORE:    0.00 PKD
ROOT
HETATM    1  O   UNL     1     -11.268  14.582  70.364  1.00  0.00    -0.442 OA 
HETATM    2  H   UNL     1     -10.631  15.234  70.629  1.00  0.00     0.000 HD 
HETATM    3  O   UNL     2      -8.695  14.773  66.816  1.00  0.00    -0.240 OA 
HETATM    4  C   UNL     1     -10.983  13.976  69.108  1.00  0.00    -0.230 C  
HETATM    5  O   UNL     2      -9.331  11.622  64.261  1.00  0.00    -0.421 OA 
HETATM    6  C   UNL     2      -9.076  13.568  66.350  1.00  0.00    -0.044 C  
HETATM    7  C   UNL     2     -10.198  13.594  65.391  1.00  0.00    -0.330 A  
HETATM    8  O   UNL     2      -8.539  12.517  66.679  1.00  0.00    -0.160 OA 
HETATM    9  C   UNL     2     -12.372  13.507  63.633  1.00  0.00    -0.377 A  
HETATM   10  C   UNL     2     -10.261  12.613  64.394  1.00  0.00    -0.318 A  
HETATM   11  C   UNL     2     -11.323  12.598  63.497  1.00  0.00    -0.527 A  
HETATM   12  C   UNL     2     -11.252  14.506  65.522  1.00  0.00    -0.335 A  
HETATM   13  H   UNL     2      -9.374  10.956  63.585  1.00  0.00     0.000 HD 
HETATM   14  C   UNL     2     -12.347  14.447  64.662  1.00  0.00    -0.435 A  
ENDROOT
BRANCH   4  15
HETATM   15  C   UNL     1     -12.024  12.909  68.675  1.00  0.00    -0.247 C  
BRANCH  15  16
HETATM   16  N   UNL     1     -11.829  11.537  69.214  1.00  0.00    -0.329 NA 
BRANCH  16  17
HETATM   17  C   UNL     1     -10.429  11.048  69.050  1.00  0.00    -0.216 C  
BRANCH  17  18
HETATM   18  C   UNL     1     -10.053   9.627  69.503  1.00  0.00    -0.209 C  
HETATM   19  H   UNL     1      -9.030   8.732  70.961  1.00  0.00     0.000 HD 
HETATM   20  O   UNL     1      -9.262   9.609  70.681  1.00  0.00    -0.229 OA 
ENDBRANCH  17  18
ENDBRANCH  16  17
BRANCH  16  21
HETATM   21  C   UNL     1     -12.172  11.473  70.657  1.00  0.00    -0.378 C  
BRANCH  21  22
HETATM   22  C   UNL     1     -13.252  10.458  71.089  1.00  0.00    -0.310 C  
HETATM   23  O   UNL     1     -13.499  10.572  72.489  1.00  0.00    -0.569 OA 
HETATM   24  H   UNL     1     -14.164   9.947  72.755  1.00  0.00     0.000 HD 
ENDBRANCH  21  22
ENDBRANCH  16  21
ENDBRANCH  15  16
ENDBRANCH   4  15
TORSDOF 6
ENDMDL
MODEL       85
REMARK 921   NORMALIZED FREE ENERGY PREDICTED BY IDOCK:   -4.27 KCAL/MOL
REMARK 922        TOTAL FREE ENERGY PREDICTED BY IDOCK:   -6.62 KCAL/MOL
REMARK 923 INTER-LIGAND FREE ENERGY PREDICTED BY IDOCK:   -6.06 KCAL/MOL
REMARK 924 INTRA-LIGAND FREE ENERGY PREDICTED BY IDOCK:   -0.57 KCAL/MOL
REMARK 927      BINDING AFFINITY PREDICTED BY RF-SCORE:    0.00 PKD
ROOT
HETATM    1  O   UNL     1     -12.138  15.606  69.533  1.00  0.00    -0.424 OA 
HETATM    2  H   UNL     1     -13.002  15.296  69.773  1.00  0.00     0.000 HD 
HETATM    3  O   UNL     2     -12.277  11.739  67.466  1.00  0.00    -0.526 OA 
HETATM    4  C   UNL     1     -11.465  14.769  68.599  1.00  0.00    -0.302 C  
HETATM    5  O   UNL     2      -9.285  11.354  64.682  1.00  0.00    -0.379 OA 
HETATM    6  C   UNL     2     -11.300  12.055  66.595  1.00  0.00    -0.340 C  
HETATM    7  C   UNL     2      -9.940  11.652  67.005  1.00  0.00    -0.226 A  
HETATM    8  O   UNL     2     -11.505  12.627  65.531  1.00  0.00    -0.311 OA 
HETATM    9  C   UNL     2      -7.310  11.018  67.713  1.00  0.00    -0.093 A  
HETATM   10  C   UNL     2      -9.004  11.322  66.018  1.00  0.00    -0.200 A  
HETATM   11  C   UNL     2      -7.708  10.968  66.377  1.00  0.00    -0.146 A  
HETATM   12  C   UNL     2      -9.536  11.699  68.345  1.00  0.00    -0.195 A  
HETATM   13  H   UNL     2      -8.649  11.130  64.012  1.00  0.00     0.000 HD 
HETATM   14  C   UNL     2      -8.219  11.407  68.694  1.00  0.00    -0.142 A  
ENDROOT
BRANCH   4  15
HETATM   15  C   UNL     1     -10.052  15.277  68.205  1.00  0.00    -0.225 C  
BRANCH  15  16
HETATM   16  N   UNL     1      -9.984  16.224  67.061  1.00  0.00    -0.249 NA 
BRANCH  16  17
HETATM   17  C   UNL     1     -11.146  16.091  66.135  1.00  0.00     0.027 C  
BRANCH  17  18
HETATM   18  C   UNL     1     -10.911  15.965  64.619  1.00  0.00    -0.305 C  
HETATM   19  H   UNL     1     -11.914  16.209  62.914  1.00  0.00     0.000 HD 
HETATM   20  O   UNL     1     -12.059  16.286  63.849  1.00  0.00    -0.986 OA 
ENDBRANCH  17  18
ENDBRANCH  16  17
BRANCH  16  21
HETATM   21  C   UNL     1      -9.928  17.631  67.530  1.00  0.00    -0.322 C  
BRANCH  21  22
HETATM   22  C   UNL     1      -8.737  18.493  67.059  1.00  0.00    -0.277 C  
HETATM   23  O   UNL     1      -9.088  19.207  65.875  1.00  0.00    -0.436 OA 
HETATM   24  H   UNL     1      -8.355  19.737  65.585  1.00  0.00     0.000 HD 
ENDBRANCH  21  22
ENDBRANCH  16  21
ENDBRANCH  15  16
ENDBRANCH   4  15
TORSDOF 6
ENDMDL
MODEL       86
REMARK 921   NORMALIZED FREE ENERGY PREDICTED BY IDOCK:   -4.26 KCAL/MOL
REMARK 922        TOTAL FREE ENERGY PREDICTED BY IDOCK:   -6.62 KCAL/MOL
REMARK 923 INTER-LIGAND FREE ENERGY PREDICTED BY IDOCK:   -6.09 KCAL/MOL
REMARK 924 INTRA-LIGAND FREE ENERGY PREDICTED BY IDOCK:   -0.53 KCAL/MOL
REMARK 927      BINDING AFFINITY PREDICTED BY RF-SCORE:    0.00 PKD
ROOT
HETATM    1  O   UNL     1     -10.211   9.862  66.474  1.00  0.00    -0.231 OA 
HETATM    2  H   UNL     1     -10.257  10.798  66.325  1.00  0.00     0.000 HD 
HETATM    3  O   UNL     2     -11.636  11.294  70.369  1.00  0.00    -0.311 OA 
HETATM    4  C   UNL     1     -10.717   9.456  67.741  1.00  0.00    -0.229 C  
HETATM    5  O   UNL     2     -13.079   8.248  72.713  1.00  0.00    -0.601 OA 
HETATM    6  C   UNL     2     -12.133  10.099  70.740  1.00  0.00    -0.343 C  
HETATM    7  C   UNL     2     -11.210   9.251  71.522  1.00  0.00    -0.457 A  
HETATM    8  O   UNL     2     -13.267   9.725  70.466  1.00  0.00    -0.098 OA 
HETATM    9  C   UNL     2      -9.525   7.522  72.934  1.00  0.00    -0.239 A  
HETATM   10  C   UNL     2     -11.740   8.369  72.471  1.00  0.00    -0.359 A  
HETATM   11  C   UNL     2     -10.895   7.539  73.200  1.00  0.00    -0.448 A  
HETATM   12  C   UNL     2      -9.835   9.232  71.260  1.00  0.00    -0.318 A  
HETATM   13  H   UNL     2     -13.438   7.648  73.357  1.00  0.00     0.000 HD 
HETATM   14  C   UNL     2      -9.000   8.353  71.947  1.00  0.00    -0.280 A  
ENDROOT
BRANCH   4  15
HETATM   15  C   UNL     1     -10.643   7.924  67.985  1.00  0.00    -0.132 C  
BRANCH  15  16
HETATM   16  N   UNL     1     -10.185   7.094  66.841  1.00  0.00    -0.252 NA 
BRANCH  16  17
HETATM   17  C   UNL     1      -8.755   6.685  66.962  1.00  0.00    -0.113 C  
BRANCH  17  18
HETATM   18  C   UNL     1      -7.950   7.067  68.217  1.00  0.00    -0.123 C  
HETATM   19  H   UNL     1      -6.704   8.497  68.830  1.00  0.00     0.000 HD 
HETATM   20  O   UNL     1      -7.201   8.261  68.055  1.00  0.00    -0.090 OA 
ENDBRANCH  17  18
ENDBRANCH  16  17
BRANCH  16  21
HETATM   21  C   UNL     1     -11.005   5.864  66.708  1.00  0.00    -0.197 C  
BRANCH  21  22
HETATM   22  C   UNL     1     -10.449   4.729  65.821  1.00  0.00    -0.238 C  
HETATM   23  O   UNL     1     -11.423   4.340  64.854  1.00  0.00    -1.029 OA 
HETATM   24  H   UNL     1     -11.081   3.642  64.309  1.00  0.00     0.000 HD 
ENDBRANCH  21  22
ENDBRANCH  16  21
ENDBRANCH  15  16
ENDBRANCH   4  15
TORSDOF 6
ENDMDL
MODEL       87
REMARK 921   NORMALIZED FREE ENERGY PREDICTED BY IDOCK:   -4.24 KCAL/MOL
REMARK 922        TOTAL FREE ENERGY PREDICTED BY IDOCK:   -6.59 KCAL/MOL
REMARK 923 INTER-LIGAND FREE ENERGY PREDICTED BY IDOCK:   -6.11 KCAL/MOL
REMARK 924 INTRA-LIGAND FREE ENERGY PREDICTED BY IDOCK:   -0.48 KCAL/MOL
REMARK 927      BINDING AFFINITY PREDICTED BY RF-SCORE:    0.00 PKD
ROOT
HETATM    1  O   UNL     1     -11.638  13.795  70.331  1.00  0.00    -0.490 OA 
HETATM    2  H   UNL     1     -12.126  14.235  71.018  1.00  0.00     0.000 HD 
HETATM    3  O   UNL     2     -13.322  10.386  72.519  1.00  0.00    -0.170 OA 
HETATM    4  C   UNL     1     -11.816  12.384  70.313  1.00  0.00    -0.232 C  
HETATM    5  O   UNL     2     -13.027   6.880  70.403  1.00  0.00    -0.464 OA 
HETATM    6  C   UNL     2     -13.180   9.527  71.492  1.00  0.00    -0.390 C  
HETATM    7  C   UNL     2     -11.922   8.753  71.493  1.00  0.00    -0.386 A  
HETATM    8  O   UNL     2     -14.023   9.377  70.616  1.00  0.00     0.078 OA 
HETATM    9  C   UNL     2      -9.540   7.295  71.338  1.00  0.00    -0.165 A  
HETATM   10  C   UNL     2     -11.917   7.464  70.945  1.00  0.00    -0.277 A  
HETATM   11  C   UNL     2     -10.739   6.727  70.907  1.00  0.00    -0.269 A  
HETATM   12  C   UNL     2     -10.716   9.318  71.926  1.00  0.00    -0.209 A  
HETATM   13  H   UNL     2     -13.023   6.006  70.031  1.00  0.00     0.000 HD 
HETATM   14  C   UNL     2      -9.526   8.599  71.826  1.00  0.00    -0.354 A  
ENDROOT
BRANCH   4  15
HETATM   15  C   UNL     1     -11.020  11.665  69.190  1.00  0.00    -0.219 C  
BRANCH  15  16
HETATM   16  N   UNL     1     -11.734  11.455  67.904  1.00  0.00    -0.574 NA 
BRANCH  16  17
HETATM   17  C   UNL     1     -11.782  12.689  67.065  1.00  0.00    -0.369 C  
BRANCH  17  18
HETATM   18  C   UNL     1     -11.799  12.575  65.530  1.00  0.00    -0.439 C  
HETATM   19  H   UNL     1     -13.120  12.485  64.041  1.00  0.00     0.000 HD 
HETATM   20  O   UNL     1     -13.110  12.556  64.988  1.00  0.00    -0.765 OA 
ENDBRANCH  17  18
ENDBRANCH  16  17
BRANCH  16  21
HETATM   21  C   UNL     1     -11.095  10.380  67.104  1.00  0.00    -0.122 C  
BRANCH  21  22
HETATM   22  C   UNL     1      -9.626  10.030  67.426  1.00  0.00    -0.154 C  
HETATM   23  O   UNL     1      -9.502   8.632  67.683  1.00  0.00    -0.138 OA 
HETATM   24  H   UNL     1      -8.598   8.416  67.882  1.00  0.00     0.000 HD 
ENDBRANCH  21  22
ENDBRANCH  16  21
ENDBRANCH  15  16
ENDBRANCH   4  15
TORSDOF 6
ENDMDL
MODEL       88
REMARK 921   NORMALIZED FREE ENERGY PREDICTED BY IDOCK:   -4.24 KCAL/MOL
REMARK 922        TOTAL FREE ENERGY PREDICTED BY IDOCK:   -6.58 KCAL/MOL
REMARK 923 INTER-LIGAND FREE ENERGY PREDICTED BY IDOCK:   -5.83 KCAL/MOL
REMARK 924 INTRA-LIGAND FREE ENERGY PREDICTED BY IDOCK:   -0.75 KCAL/MOL
REMARK 927      BINDING AFFINITY PREDICTED BY RF-SCORE:    0.00 PKD
ROOT
HETATM    1  O   UNL     1     -10.933  10.358  68.019  1.00  0.00    -0.252 OA 
HETATM    2  H   UNL     1     -11.504  11.101  68.170  1.00  0.00     0.000 HD 
HETATM    3  O   UNL     2     -12.552   9.415  71.985  1.00  0.00    -0.371 OA 
HETATM    4  C   UNL     1     -11.010   9.359  69.028  1.00  0.00    -0.067 C  
HETATM    5  O   UNL     2     -11.838   5.521  73.071  1.00  0.00    -0.537 OA 
HETATM    6  C   UNL     2     -12.265   8.102  71.902  1.00  0.00    -0.331 C  
HETATM    7  C   UNL     2     -10.961   7.709  72.472  1.00  0.00    -0.377 A  
HETATM    8  O   UNL     2     -13.019   7.277  71.401  1.00  0.00    -0.371 OA 
HETATM    9  C   UNL     2      -8.479   6.856  73.439  1.00  0.00    -0.139 A  
HETATM   10  C   UNL     2     -10.821   6.431  73.029  1.00  0.00    -0.259 A  
HETATM   11  C   UNL     2      -9.596   6.026  73.545  1.00  0.00    -0.142 A  
HETATM   12  C   UNL     2      -9.838   8.538  72.370  1.00  0.00    -0.358 A  
HETATM   13  H   UNL     2     -11.743   4.654  73.449  1.00  0.00     0.000 HD 
HETATM   14  C   UNL     2      -8.596   8.103  72.830  1.00  0.00    -0.269 A  
ENDROOT
BRANCH   4  15
HETATM   15  C   UNL     1     -10.075   8.144  68.781  1.00  0.00    -0.199 C  
BRANCH  15  16
HETATM   16  N   UNL     1     -10.195   7.475  67.460  1.00  0.00    -0.201 NA 
BRANCH  16  17
HETATM   17  C   UNL     1      -8.960   7.608  66.633  1.00  0.00    -0.156 C  
BRANCH  17  18
HETATM   18  C   UNL     1      -8.917   8.616  65.471  1.00  0.00    -0.158 C  
HETATM   19  H   UNL     1      -9.989  10.135  64.754  1.00  0.00     0.000 HD 
HETATM   20  O   UNL     1     -10.016   9.512  65.471  1.00  0.00    -0.304 OA 
ENDBRANCH  17  18
ENDBRANCH  16  17
BRANCH  16  21
HETATM   21  C   UNL     1     -10.491   6.028  67.615  1.00  0.00    -0.235 C  
BRANCH  21  22
HETATM   22  C   UNL     1     -10.287   5.123  66.381  1.00  0.00    -0.288 C  
HETATM   23  O   UNL     1     -11.512   4.994  65.661  1.00  0.00    -0.821 OA 
HETATM   24  H   UNL     1     -11.386   4.437  64.902  1.00  0.00     0.000 HD 
ENDBRANCH  21  22
ENDBRANCH  16  21
ENDBRANCH  15  16
ENDBRANCH   4  15
TORSDOF 6
ENDMDL
MODEL       89
REMARK 921   NORMALIZED FREE ENERGY PREDICTED BY IDOCK:   -4.23 KCAL/MOL
REMARK 922        TOTAL FREE ENERGY PREDICTED BY IDOCK:   -6.57 KCAL/MOL
REMARK 923 INTER-LIGAND FREE ENERGY PREDICTED BY IDOCK:   -6.08 KCAL/MOL
REMARK 924 INTRA-LIGAND FREE ENERGY PREDICTED BY IDOCK:   -0.49 KCAL/MOL
REMARK 927      BINDING AFFINITY PREDICTED BY RF-SCORE:    0.00 PKD
ROOT
HETATM    1  O   UNL     1      -9.049   8.319  65.637  1.00  0.00    -0.328 OA 
HETATM    2  H   UNL     1      -8.561   8.205  64.831  1.00  0.00     0.000 HD 
HETATM    3  O   UNL     2     -10.071  11.999  63.481  1.00  0.00    -0.408 OA 
HETATM    4  C   UNL     1      -9.883   9.471  65.648  1.00  0.00    -0.272 C  
HETATM    5  O   UNL     2     -13.267  13.952  65.163  1.00  0.00    -0.768 OA 
HETATM    6  C   UNL     2     -11.182  12.235  64.204  1.00  0.00    -0.369 C  
HETATM    7  C   UNL     2     -10.993  13.115  65.375  1.00  0.00    -0.298 A  
HETATM    8  O   UNL     2     -12.281  11.770  63.924  1.00  0.00    -0.373 OA 
HETATM    9  C   UNL     2     -10.742  14.697  67.667  1.00  0.00    -0.271 A  
HETATM   10  C   UNL     2     -12.054  13.929  65.790  1.00  0.00    -0.425 A  
HETATM   11  C   UNL     2     -11.911  14.745  66.907  1.00  0.00    -0.279 A  
HETATM   12  C   UNL     2      -9.822  13.072  66.140  1.00  0.00    -0.275 A  
HETATM   13  H   UNL     2     -13.987  14.504  65.445  1.00  0.00     0.000 HD 
HETATM   14  C   UNL     2      -9.707  13.842  67.296  1.00  0.00    -0.245 A  
ENDROOT
BRANCH   4  15
HETATM   15  C   UNL     1     -10.681   9.657  66.967  1.00  0.00    -0.155 C  
BRANCH  15  16
HETATM   16  N   UNL     1      -9.948   9.373  68.229  1.00  0.00    -0.167 NA 
BRANCH  16  17
HETATM   17  C   UNL     1      -9.034  10.484  68.625  1.00  0.00    -0.162 C  
BRANCH  17  18
HETATM   18  C   UNL     1      -7.721  10.172  69.366  1.00  0.00    -0.138 C  
HETATM   19  H   UNL     1      -6.123  11.134  70.068  1.00  0.00     0.000 HD 
HETATM   20  O   UNL     1      -6.933  11.326  69.611  1.00  0.00    -0.122 OA 
ENDBRANCH  17  18
ENDBRANCH  16  17
BRANCH  16  21
HETATM   21  C   UNL     1     -10.887   9.127  69.352  1.00  0.00    -0.151 C  
BRANCH  21  22
HETATM   22  C   UNL     1     -11.496  10.359  70.054  1.00  0.00    -0.308 C  
HETATM   23  O   UNL     1     -12.920  10.271  70.050  1.00  0.00    -0.568 OA 
HETATM   24  H   UNL     1     -13.295  11.030  70.482  1.00  0.00     0.000 HD 
ENDBRANCH  21  22
ENDBRANCH  16  21
ENDBRANCH  15  16
ENDBRANCH   4  15
TORSDOF 6
ENDMDL
MODEL       90
REMARK 921   NORMALIZED FREE ENERGY PREDICTED BY IDOCK:   -4.22 KCAL/MOL
REMARK 922        TOTAL FREE ENERGY PREDICTED BY IDOCK:   -6.56 KCAL/MOL
REMARK 923 INTER-LIGAND FREE ENERGY PREDICTED BY IDOCK:   -5.92 KCAL/MOL
REMARK 924 INTRA-LIGAND FREE ENERGY PREDICTED BY IDOCK:   -0.64 KCAL/MOL
REMARK 927      BINDING AFFINITY PREDICTED BY RF-SCORE:    0.00 PKD
ROOT
HETATM    1  O   UNL     1     -10.269  13.922  64.394  1.00  0.00    -0.654 OA 
HETATM    2  H   UNL     1     -10.480  13.497  63.572  1.00  0.00     0.000 HD 
HETATM    3  O   UNL     2     -10.168   9.691  65.551  1.00  0.00    -0.228 OA 
HETATM    4  C   UNL     1      -9.933  13.016  65.439  1.00  0.00    -0.188 C  
HETATM    5  O   UNL     2      -8.378   9.118  69.201  1.00  0.00    -0.117 OA 
HETATM    6  C   UNL     2      -9.418   9.904  66.649  1.00  0.00    -0.173 C  
HETATM    7  C   UNL     2     -10.179  10.105  67.898  1.00  0.00    -0.217 A  
HETATM    8  O   UNL     2      -8.193   9.927  66.635  1.00  0.00    -0.119 OA 
HETATM    9  C   UNL     2     -11.511  10.586  70.310  1.00  0.00    -0.416 A  
HETATM   10  C   UNL     2      -9.612   9.696  69.111  1.00  0.00    -0.174 A  
HETATM   11  C   UNL     2     -10.295   9.901  70.304  1.00  0.00    -0.339 A  
HETATM   12  C   UNL     2     -11.401  10.789  67.909  1.00  0.00    -0.372 A  
HETATM   13  H   UNL     2      -7.993   8.841  70.024  1.00  0.00     0.000 HD 
HETATM   14  C   UNL     2     -12.051  11.050  69.114  1.00  0.00    -0.333 A  
ENDROOT
BRANCH   4  15
HETATM   15  C   UNL     1      -9.587  13.711  66.784  1.00  0.00    -0.275 C  
BRANCH  15  16
HETATM   16  N   UNL     1      -9.604  15.197  66.785  1.00  0.00    -0.234 NA 
BRANCH  16  17
HETATM   17  C   UNL     1     -10.807  15.759  67.466  1.00  0.00    -0.315 C  
BRANCH  17  18
HETATM   18  C   UNL     1     -10.714  17.104  68.207  1.00  0.00    -0.363 C  
HETATM   19  H   UNL     1     -10.670  19.053  67.791  1.00  0.00     0.000 HD 
HETATM   20  O   UNL     1     -10.728  18.222  67.334  1.00  0.00    -0.412 OA 
ENDBRANCH  17  18
ENDBRANCH  16  17
BRANCH  16  21
HETATM   21  C   UNL     1      -8.398  15.748  67.454  1.00  0.00    -0.168 C  
BRANCH  21  22
HETATM   22  C   UNL     1      -7.460  16.639  66.611  1.00  0.00    -0.276 C  
HETATM   23  O   UNL     1      -8.227  17.522  65.794  1.00  0.00    -0.545 OA 
HETATM   24  H   UNL     1      -7.649  18.070  65.276  1.00  0.00     0.000 HD 
ENDBRANCH  21  22
ENDBRANCH  16  21
ENDBRANCH  15  16
ENDBRANCH   4  15
TORSDOF 6
ENDMDL
MODEL       91
REMARK 921   NORMALIZED FREE ENERGY PREDICTED BY IDOCK:   -4.22 KCAL/MOL
REMARK 922        TOTAL FREE ENERGY PREDICTED BY IDOCK:   -6.56 KCAL/MOL
REMARK 923 INTER-LIGAND FREE ENERGY PREDICTED BY IDOCK:   -6.01 KCAL/MOL
REMARK 924 INTRA-LIGAND FREE ENERGY PREDICTED BY IDOCK:   -0.55 KCAL/MOL
REMARK 927      BINDING AFFINITY PREDICTED BY RF-SCORE:    0.00 PKD
ROOT
HETATM    1  O   UNL     1     -12.158  10.312  68.749  1.00  0.00    -0.685 OA 
HETATM    2  H   UNL     1     -11.884  10.031  67.885  1.00  0.00     0.000 HD 
HETATM    3  O   UNL     2      -8.521   8.046  69.687  1.00  0.00    -0.128 OA 
HETATM    4  C   UNL     1     -11.237   9.979  69.781  1.00  0.00    -0.258 C  
HETATM    5  O   UNL     2      -7.196   8.743  73.510  1.00  0.00    -0.358 OA 
HETATM    6  C   UNL     2      -8.343   8.633  70.886  1.00  0.00    -0.157 C  
HETATM    7  C   UNL     2      -8.941   7.917  72.030  1.00  0.00    -0.189 A  
HETATM    8  O   UNL     2      -7.725   9.681  71.038  1.00  0.00    -0.323 OA 
HETATM    9  C   UNL     2     -10.105   6.700  74.263  1.00  0.00    -0.378 A  
HETATM   10  C   UNL     2      -8.329   8.013  73.286  1.00  0.00    -0.211 A  
HETATM   11  C   UNL     2      -8.889   7.373  74.385  1.00  0.00    -0.220 A  
HETATM   12  C   UNL     2     -10.160   7.239  71.912  1.00  0.00    -0.196 A  
HETATM   13  H   UNL     2      -6.781   8.808  74.362  1.00  0.00     0.000 HD 
HETATM   14  C   UNL     2     -10.751   6.653  73.030  1.00  0.00    -0.299 A  
ENDROOT
BRANCH   4  15
HETATM   15  C   UNL     1     -11.686  10.440  71.195  1.00  0.00    -0.296 C  
BRANCH  15  16
HETATM   16  N   UNL     1     -13.148  10.602  71.405  1.00  0.00    -0.405 NA 
BRANCH  16  17
HETATM   17  C   UNL     1     -13.745   9.483  72.192  1.00  0.00    -0.372 C  
BRANCH  17  18
HETATM   18  C   UNL     1     -14.400   8.296  71.465  1.00  0.00    -0.428 C  
HETATM   19  H   UNL     1     -13.900   6.501  70.757  1.00  0.00     0.000 HD 
HETATM   20  O   UNL     1     -13.496   7.234  71.206  1.00  0.00    -0.369 OA 
ENDBRANCH  17  18
ENDBRANCH  16  17
BRANCH  16  21
HETATM   21  C   UNL     1     -13.452  11.873  72.109  1.00  0.00    -0.195 C  
BRANCH  21  22
HETATM   22  C   UNL     1     -13.231  13.189  71.333  1.00  0.00    -0.207 C  
HETATM   23  O   UNL     1     -12.889  14.239  72.236  1.00  0.00    -0.336 OA 
HETATM   24  H   UNL     1     -12.753  15.049  71.757  1.00  0.00     0.000 HD 
ENDBRANCH  21  22
ENDBRANCH  16  21
ENDBRANCH  15  16
ENDBRANCH   4  15
TORSDOF 6
ENDMDL
MODEL       92
REMARK 921   NORMALIZED FREE ENERGY PREDICTED BY IDOCK:   -4.20 KCAL/MOL
REMARK 922        TOTAL FREE ENERGY PREDICTED BY IDOCK:   -6.53 KCAL/MOL
REMARK 923 INTER-LIGAND FREE ENERGY PREDICTED BY IDOCK:   -5.92 KCAL/MOL
REMARK 924 INTRA-LIGAND FREE ENERGY PREDICTED BY IDOCK:   -0.62 KCAL/MOL
REMARK 927      BINDING AFFINITY PREDICTED BY RF-SCORE:    0.00 PKD
ROOT
HETATM    1  O   UNL     1      -9.024   8.793  64.815  1.00  0.00    -0.398 OA 
HETATM    2  H   UNL     1      -8.794   8.686  63.900  1.00  0.00     0.000 HD 
HETATM    3  O   UNL     2     -10.904  12.332  63.030  1.00  0.00    -0.271 OA 
HETATM    4  C   UNL     1      -9.896   9.890  65.065  1.00  0.00    -0.252 C  
HETATM    5  O   UNL     2     -13.576  14.126  65.578  1.00  0.00    -0.685 OA 
HETATM    6  C   UNL     2     -11.761  12.518  64.052  1.00  0.00    -0.423 C  
HETATM    7  C   UNL     2     -11.291  13.444  65.102  1.00  0.00    -0.316 A  
HETATM    8  O   UNL     2     -12.857  11.974  64.122  1.00  0.00    -0.523 OA 
HETATM    9  C   UNL     2     -10.475  15.110  67.196  1.00  0.00    -0.280 A  
HETATM   10  C   UNL     2     -12.232  14.201  65.810  1.00  0.00    -0.442 A  
HETATM   11  C   UNL     2     -11.818  15.059  66.823  1.00  0.00    -0.093 A  
HETATM   12  C   UNL     2      -9.944  13.501  65.478  1.00  0.00    -0.238 A  
HETATM   13  H   UNL     2     -14.215  14.640  66.059  1.00  0.00     0.000 HD 
HETATM   14  C   UNL     2      -9.541  14.312  66.538  1.00  0.00    -0.313 A  
ENDROOT
BRANCH   4  15
HETATM   15  C   UNL     1     -10.271  10.064  66.562  1.00  0.00    -0.224 C  
BRANCH  15  16
HETATM   16  N   UNL     1      -9.262  10.737  67.422  1.00  0.00    -0.147 NA 
BRANCH  16  17
HETATM   17  C   UNL     1      -9.786  11.051  68.784  1.00  0.00    -0.191 C  
BRANCH  17  18
HETATM   18  C   UNL     1     -11.129  11.785  68.942  1.00  0.00    -0.243 C  
HETATM   19  H   UNL     1     -12.922  11.486  69.758  1.00  0.00     0.000 HD 
HETATM   20  O   UNL     1     -12.093  11.033  69.661  1.00  0.00    -0.318 OA 
ENDBRANCH  17  18
ENDBRANCH  16  17
BRANCH  16  21
HETATM   21  C   UNL     1      -8.046   9.900  67.578  1.00  0.00    -0.110 C  
BRANCH  21  22
HETATM   22  C   UNL     1      -6.756  10.381  66.880  1.00  0.00    -0.083 C  
HETATM   23  O   UNL     1      -6.983  11.637  66.242  1.00  0.00    -0.371 OA 
HETATM   24  H   UNL     1      -6.189  11.933  65.812  1.00  0.00     0.000 HD 
ENDBRANCH  21  22
ENDBRANCH  16  21
ENDBRANCH  15  16
ENDBRANCH   4  15
TORSDOF 6
ENDMDL
MODEL       93
REMARK 921   NORMALIZED FREE ENERGY PREDICTED BY IDOCK:   -4.17 KCAL/MOL
REMARK 922        TOTAL FREE ENERGY PREDICTED BY IDOCK:   -6.49 KCAL/MOL
REMARK 923 INTER-LIGAND FREE ENERGY PREDICTED BY IDOCK:   -6.18 KCAL/MOL
REMARK 924 INTRA-LIGAND FREE ENERGY PREDICTED BY IDOCK:   -0.31 KCAL/MOL
REMARK 927      BINDING AFFINITY PREDICTED BY RF-SCORE:    0.00 PKD
ROOT
HETATM    1  O   UNL     1     -13.036  12.548  64.666  1.00  0.00    -0.845 OA 
HETATM    2  H   UNL     1     -13.567  11.761  64.677  1.00  0.00     0.000 HD 
HETATM    3  O   UNL     2     -10.028   9.486  65.574  1.00  0.00    -0.304 OA 
HETATM    4  C   UNL     1     -11.642  12.304  64.811  1.00  0.00    -0.337 C  
HETATM    5  O   UNL     2      -6.196  10.882  65.102  1.00  0.00    -0.364 OA 
HETATM    6  C   UNL     2      -8.989  10.244  65.175  1.00  0.00    -0.191 C  
HETATM    7  C   UNL     2      -8.339  11.030  66.243  1.00  0.00    -0.166 A  
HETATM    8  O   UNL     2      -8.591  10.287  64.017  1.00  0.00    -0.171 OA 
HETATM    9  C   UNL     2      -7.082  12.630  68.162  1.00  0.00    -0.102 A  
HETATM   10  C   UNL     2      -6.970  11.305  66.145  1.00  0.00     0.067 A  
HETATM   11  C   UNL     2      -6.340  12.067  67.123  1.00  0.00    -0.149 A  
HETATM   12  C   UNL     2      -9.079  11.595  67.289  1.00  0.00    -0.167 A  
HETATM   13  H   UNL     2      -5.267  11.069  65.036  1.00  0.00     0.000 HD 
HETATM   14  C   UNL     2      -8.456  12.412  68.230  1.00  0.00    -0.170 A  
ENDROOT
BRANCH   4  15
HETATM   15  C   UNL     1     -10.774  13.591  64.793  1.00  0.00    -0.401 C  
BRANCH  15  16
HETATM   16  N   UNL     1     -10.492  14.216  66.112  1.00  0.00    -0.289 NA 
BRANCH  16  17
HETATM   17  C   UNL     1      -9.764  15.514  65.989  1.00  0.00    -0.345 C  
BRANCH  17  18
HETATM   18  C   UNL     1     -10.550  16.837  65.970  1.00  0.00    -0.228 C  
HETATM   19  H   UNL     1     -11.504  18.004  64.666  1.00  0.00     0.000 HD 
HETATM   20  O   UNL     1     -11.019  17.187  64.678  1.00  0.00    -1.005 OA 
ENDBRANCH  17  18
ENDBRANCH  16  17
BRANCH  16  21
HETATM   21  C   UNL     1     -11.744  14.461  66.869  1.00  0.00    -0.402 C  
BRANCH  21  22
HETATM   22  C   UNL     1     -12.000  13.596  68.122  1.00  0.00    -0.355 C  
HETATM   23  O   UNL     1     -11.450  14.229  69.276  1.00  0.00    -0.256 OA 
HETATM   24  H   UNL     1     -11.608  13.697  70.047  1.00  0.00     0.000 HD 
ENDBRANCH  21  22
ENDBRANCH  16  21
ENDBRANCH  15  16
ENDBRANCH   4  15
TORSDOF 6
ENDMDL
MODEL       94
REMARK 921   NORMALIZED FREE ENERGY PREDICTED BY IDOCK:   -4.17 KCAL/MOL
REMARK 922        TOTAL FREE ENERGY PREDICTED BY IDOCK:   -6.49 KCAL/MOL
REMARK 923 INTER-LIGAND FREE ENERGY PREDICTED BY IDOCK:   -5.67 KCAL/MOL
REMARK 924 INTRA-LIGAND FREE ENERGY PREDICTED BY IDOCK:   -0.82 KCAL/MOL
REMARK 927      BINDING AFFINITY PREDICTED BY RF-SCORE:    0.00 PKD
ROOT
HETATM    1  O   UNL     1      -9.039  15.993  65.832  1.00  0.00    -0.333 OA 
HETATM    2  H   UNL     1      -9.519  16.240  65.051  1.00  0.00     0.000 HD 
HETATM    3  O   UNL     2     -12.374  13.145  65.926  1.00  0.00    -0.434 OA 
HETATM    4  C   UNL     1      -9.554  14.837  66.482  1.00  0.00    -0.284 C  
HETATM    5  O   UNL     2     -11.721  10.071  68.568  1.00  0.00    -0.570 OA 
HETATM    6  C   UNL     2     -11.742  12.276  66.737  1.00  0.00    -0.342 C  
HETATM    7  C   UNL     2     -12.009  12.454  68.178  1.00  0.00    -0.272 A  
HETATM    8  O   UNL     2     -11.000  11.389  66.329  1.00  0.00    -0.285 OA 
HETATM    9  C   UNL     2     -12.370  12.749  70.936  1.00  0.00    -0.356 A  
HETATM   10  C   UNL     2     -11.984  11.333  69.017  1.00  0.00    -0.325 A  
HETATM   11  C   UNL     2     -12.204  11.479  70.382  1.00  0.00    -0.442 A  
HETATM   12  C   UNL     2     -12.178  13.726  68.738  1.00  0.00    -0.221 A  
HETATM   13  H   UNL     2     -11.703   9.310  69.137  1.00  0.00     0.000 HD 
HETATM   14  C   UNL     2     -12.333  13.874  70.116  1.00  0.00    -0.400 A  
ENDROOT
BRANCH   4  15
HETATM   15  C   UNL     1      -8.768  14.432  67.758  1.00  0.00    -0.180 C  
BRANCH  15  16
HETATM   16  N   UNL     1      -7.633  13.492  67.566  1.00  0.00    -0.170 NA 
BRANCH  16  17
HETATM   17  C   UNL     1      -6.433  13.867  68.369  1.00  0.00    -0.103 C  
BRANCH  17  18
HETATM   18  C   UNL     1      -6.065  13.059  69.626  1.00  0.00    -0.122 C  
HETATM   19  H   UNL     1      -5.903  13.325  71.594  1.00  0.00     0.000 HD 
HETATM   20  O   UNL     1      -6.130  13.824  70.818  1.00  0.00    -0.171 OA 
ENDBRANCH  17  18
ENDBRANCH  16  17
BRANCH  16  21
HETATM   21  C   UNL     1      -8.016  12.105  67.931  1.00  0.00    -0.150 C  
BRANCH  21  22
HETATM   22  C   UNL     1      -7.703  10.987  66.913  1.00  0.00    -0.140 C  
HETATM   23  O   UNL     1      -8.038  11.418  65.595  1.00  0.00    -0.369 OA 
HETATM   24  H   UNL     1      -7.846  10.730  64.969  1.00  0.00     0.000 HD 
ENDBRANCH  21  22
ENDBRANCH  16  21
ENDBRANCH  15  16
ENDBRANCH   4  15
TORSDOF 6
ENDMDL
MODEL       95
REMARK 921   NORMALIZED FREE ENERGY PREDICTED BY IDOCK:   -4.17 KCAL/MOL
REMARK 922        TOTAL FREE ENERGY PREDICTED BY IDOCK:   -6.49 KCAL/MOL
REMARK 923 INTER-LIGAND FREE ENERGY PREDICTED BY IDOCK:   -5.89 KCAL/MOL
REMARK 924 INTRA-LIGAND FREE ENERGY PREDICTED BY IDOCK:   -0.60 KCAL/MOL
REMARK 927      BINDING AFFINITY PREDICTED BY RF-SCORE:    0.00 PKD
ROOT
HETATM    1  O   UNL     1     -13.571  12.005  72.420  1.00  0.00    -0.587 OA 
HETATM    2  H   UNL     1     -13.771  11.861  73.337  1.00  0.00     0.000 HD 
HETATM    3  O   UNL     2     -11.874   8.011  73.061  1.00  0.00    -0.264 OA 
HETATM    4  C   UNL     1     -12.991  10.878  71.774  1.00  0.00    -0.451 C  
HETATM    5  O   UNL     2     -11.004   6.106  69.529  1.00  0.00    -0.320 OA 
HETATM    6  C   UNL     2     -11.877   7.689  71.753  1.00  0.00    -0.290 C  
HETATM    7  C   UNL     2     -10.620   7.978  71.034  1.00  0.00    -0.239 A  
HETATM    8  O   UNL     2     -12.838   7.186  71.184  1.00  0.00    -0.370 OA 
HETATM    9  C   UNL     2      -8.324   8.559  69.546  1.00  0.00    -0.118 A  
HETATM   10  C   UNL     2     -10.252   7.163  69.956  1.00  0.00    -0.196 A  
HETATM   11  C   UNL     2      -9.088   7.432  69.244  1.00  0.00    -0.135 A  
HETATM   12  C   UNL     2      -9.848   9.107  71.334  1.00  0.00    -0.354 A  
HETATM   13  H   UNL     2     -10.754   5.553  68.798  1.00  0.00     0.000 HD 
HETATM   14  C   UNL     2      -8.718   9.409  70.577  1.00  0.00    -0.276 A  
ENDROOT
BRANCH   4  15
HETATM   15  C   UNL     1     -12.665  11.114  70.274  1.00  0.00    -0.139 C  
BRANCH  15  16
HETATM   16  N   UNL     1     -11.597  12.104  69.977  1.00  0.00    -0.229 NA 
BRANCH  16  17
HETATM   17  C   UNL     1     -10.869  11.804  68.710  1.00  0.00    -0.227 C  
BRANCH  17  18
HETATM   18  C   UNL     1     -11.209  10.534  67.910  1.00  0.00    -0.289 C  
HETATM   19  H   UNL     1     -10.627   9.597  66.250  1.00  0.00     0.000 HD 
HETATM   20  O   UNL     1     -10.417  10.381  66.744  1.00  0.00    -0.234 OA 
ENDBRANCH  17  18
ENDBRANCH  16  17
BRANCH  16  21
HETATM   21  C   UNL     1     -12.152  13.477  69.874  1.00  0.00    -0.341 C  
BRANCH  21  22
HETATM   22  C   UNL     1     -11.377  14.496  69.010  1.00  0.00    -0.272 C  
HETATM   23  O   UNL     1     -12.100  15.724  68.935  1.00  0.00    -0.556 OA 
HETATM   24  H   UNL     1     -11.623  16.350  68.403  1.00  0.00     0.000 HD 
ENDBRANCH  21  22
ENDBRANCH  16  21
ENDBRANCH  15  16
ENDBRANCH   4  15
TORSDOF 6
ENDMDL
MODEL       96
REMARK 921   NORMALIZED FREE ENERGY PREDICTED BY IDOCK:   -4.15 KCAL/MOL
REMARK 922        TOTAL FREE ENERGY PREDICTED BY IDOCK:   -6.47 KCAL/MOL
REMARK 923 INTER-LIGAND FREE ENERGY PREDICTED BY IDOCK:   -5.95 KCAL/MOL
REMARK 924 INTRA-LIGAND FREE ENERGY PREDICTED BY IDOCK:   -0.52 KCAL/MOL
REMARK 927      BINDING AFFINITY PREDICTED BY RF-SCORE:    0.00 PKD
ROOT
HETATM    1  O   UNL     1      -7.349  17.526  65.612  1.00  0.00    -0.436 OA 
HETATM    2  H   UNL     1      -7.660  17.962  64.828  1.00  0.00     0.000 HD 
HETATM    3  O   UNL     2     -11.301  15.689  65.110  1.00  0.00    -0.290 OA 
HETATM    4  C   UNL     1      -8.215  16.500  66.082  1.00  0.00    -0.244 C  
HETATM    5  O   UNL     2     -11.763  12.333  67.429  1.00  0.00    -0.394 OA 
HETATM    6  C   UNL     2     -11.009  14.613  65.865  1.00  0.00    -0.332 C  
HETATM    7  C   UNL     2     -11.376  14.731  67.291  1.00  0.00    -0.366 A  
HETATM    8  O   UNL     2     -10.485  13.599  65.421  1.00  0.00    -0.299 OA 
HETATM    9  C   UNL     2     -11.945  14.868  70.026  1.00  0.00    -0.377 A  
HETATM   10  C   UNL     2     -11.736  13.575  67.996  1.00  0.00    -0.359 A  
HETATM   11  C   UNL     2     -12.057  13.654  69.346  1.00  0.00    -0.364 A  
HETATM   12  C   UNL     2     -11.268  15.946  67.976  1.00  0.00    -0.319 A  
HETATM   13  H   UNL     2     -12.006  11.549  67.908  1.00  0.00     0.000 HD 
HETATM   14  C   UNL     2     -11.528  16.009  69.345  1.00  0.00    -0.336 A  
ENDROOT
BRANCH   4  15
HETATM   15  C   UNL     1      -7.706  15.787  67.364  1.00  0.00    -0.183 C  
BRANCH  15  16
HETATM   16  N   UNL     1      -7.157  16.661  68.434  1.00  0.00    -0.160 NA 
BRANCH  16  17
HETATM   17  C   UNL     1      -8.151  17.659  68.927  1.00  0.00    -0.162 C  
BRANCH  17  18
HETATM   18  C   UNL     1      -7.903  19.163  68.712  1.00  0.00    -0.348 C  
HETATM   19  H   UNL     1      -6.868  20.653  69.538  1.00  0.00     0.000 HD 
HETATM   20  O   UNL     1      -7.021  19.724  69.671  1.00  0.00    -0.337 OA 
ENDBRANCH  17  18
ENDBRANCH  16  17
BRANCH  16  21
HETATM   21  C   UNL     1      -6.693  15.862  69.595  1.00  0.00    -0.173 C  
BRANCH  21  22
HETATM   22  C   UNL     1      -6.066  14.481  69.306  1.00  0.00    -0.107 C  
HETATM   23  O   UNL     1      -6.630  13.497  70.171  1.00  0.00    -0.364 OA 
HETATM   24  H   UNL     1      -6.244  12.647  69.992  1.00  0.00     0.000 HD 
ENDBRANCH  21  22
ENDBRANCH  16  21
ENDBRANCH  15  16
ENDBRANCH   4  15
TORSDOF 6
ENDMDL
MODEL       97
REMARK 921   NORMALIZED FREE ENERGY PREDICTED BY IDOCK:   -4.15 KCAL/MOL
REMARK 922        TOTAL FREE ENERGY PREDICTED BY IDOCK:   -6.46 KCAL/MOL
REMARK 923 INTER-LIGAND FREE ENERGY PREDICTED BY IDOCK:   -5.90 KCAL/MOL
REMARK 924 INTRA-LIGAND FREE ENERGY PREDICTED BY IDOCK:   -0.56 KCAL/MOL
REMARK 927      BINDING AFFINITY PREDICTED BY RF-SCORE:    0.00 PKD
ROOT
HETATM    1  O   UNL     1      -8.261  10.817  64.992  1.00  0.00    -0.316 OA 
HETATM    2  H   UNL     1      -8.764  10.388  64.310  1.00  0.00     0.000 HD 
HETATM    3  O   UNL     2     -12.294  12.344  65.795  1.00  0.00    -0.644 OA 
HETATM    4  C   UNL     1      -9.055  11.560  65.910  1.00  0.00    -0.177 C  
HETATM    5  O   UNL     2     -12.577  14.126  69.483  1.00  0.00    -0.481 OA 
HETATM    6  C   UNL     2     -12.021  12.685  67.069  1.00  0.00    -0.260 C  
HETATM    7  C   UNL     2     -11.583  14.081  67.263  1.00  0.00    -0.396 A  
HETATM    8  O   UNL     2     -12.130  11.911  68.013  1.00  0.00    -0.541 OA 
HETATM    9  C   UNL     2     -10.658  16.677  67.746  1.00  0.00    -0.342 A  
HETATM   10  C   UNL     2     -11.889  14.727  68.468  1.00  0.00    -0.306 A  
HETATM   11  C   UNL     2     -11.462  16.032  68.687  1.00  0.00    -0.377 A  
HETATM   12  C   UNL     2     -10.778  14.733  66.321  1.00  0.00    -0.313 A  
HETATM   13  H   UNL     2     -12.785  14.565  70.300  1.00  0.00     0.000 HD 
HETATM   14  C   UNL     2     -10.298  16.017  66.574  1.00  0.00    -0.303 A  
ENDROOT
BRANCH   4  15
HETATM   15  C   UNL     1      -8.233  12.261  67.025  1.00  0.00    -0.155 C  
BRANCH  15  16
HETATM   16  N   UNL     1      -8.387  11.719  68.401  1.00  0.00    -0.154 NA 
BRANCH  16  17
HETATM   17  C   UNL     1      -9.024  10.370  68.419  1.00  0.00    -0.137 C  
BRANCH  17  18
HETATM   18  C   UNL     1      -9.868   9.934  69.630  1.00  0.00    -0.232 C  
HETATM   19  H   UNL     1      -9.668   8.867  71.301  1.00  0.00     0.000 HD 
HETATM   20  O   UNL     1      -9.147   9.135  70.553  1.00  0.00    -0.199 OA 
ENDBRANCH  17  18
ENDBRANCH  16  17
BRANCH  16  21
HETATM   21  C   UNL     1      -7.075  11.617  69.088  1.00  0.00    -0.090 C  
BRANCH  21  22
HETATM   22  C   UNL     1      -6.190  12.881  69.125  1.00  0.00    -0.101 C  
HETATM   23  O   UNL     1      -6.670  13.786  70.119  1.00  0.00    -0.373 OA 
HETATM   24  H   UNL     1      -6.125  14.564  70.141  1.00  0.00     0.000 HD 
ENDBRANCH  21  22
ENDBRANCH  16  21
ENDBRANCH  15  16
ENDBRANCH   4  15
TORSDOF 6
ENDMDL
MODEL       98
REMARK 921   NORMALIZED FREE ENERGY PREDICTED BY IDOCK:   -4.15 KCAL/MOL
REMARK 922        TOTAL FREE ENERGY PREDICTED BY IDOCK:   -6.46 KCAL/MOL
REMARK 923 INTER-LIGAND FREE ENERGY PREDICTED BY IDOCK:   -5.65 KCAL/MOL
REMARK 924 INTRA-LIGAND FREE ENERGY PREDICTED BY IDOCK:   -0.81 KCAL/MOL
REMARK 927      BINDING AFFINITY PREDICTED BY RF-SCORE:    0.00 PKD
ROOT
HETATM    1  O   UNL     1     -12.623  10.456  69.981  1.00  0.00    -0.518 OA 
HETATM    2  H   UNL     1     -13.212  10.731  70.673  1.00  0.00     0.000 HD 
HETATM    3  O   UNL     2     -12.504  14.819  69.539  1.00  0.00    -0.220 OA 
HETATM    4  C   UNL     1     -11.974  11.534  69.316  1.00  0.00    -0.330 C  
HETATM    5  O   UNL     2      -9.397  16.057  67.157  1.00  0.00    -0.207 OA 
HETATM    6  C   UNL     2     -11.337  14.821  68.866  1.00  0.00    -0.282 C  
HETATM    7  C   UNL     2     -11.462  14.794  67.395  1.00  0.00    -0.376 A  
HETATM    8  O   UNL     2     -10.242  14.849  69.415  1.00  0.00    -0.216 OA 
HETATM    9  C   UNL     2     -11.570  14.657  64.603  1.00  0.00    -0.406 A  
HETATM   10  C   UNL     2     -10.478  15.419  66.619  1.00  0.00    -0.293 A  
HETATM   11  C   UNL     2     -10.558  15.383  65.232  1.00  0.00    -0.450 A  
HETATM   12  C   UNL     2     -12.477  14.068  66.760  1.00  0.00    -0.238 A  
HETATM   13  H   UNL     2      -8.730  16.481  66.630  1.00  0.00     0.000 HD 
HETATM   14  C   UNL     2     -12.516  13.980  65.369  1.00  0.00    -0.520 A  
ENDROOT
BRANCH   4  15
HETATM   15  C   UNL     1     -11.011  11.084  68.184  1.00  0.00    -0.247 C  
BRANCH  15  16
HETATM   16  N   UNL     1     -10.398   9.738  68.333  1.00  0.00    -0.192 NA 
BRANCH  16  17
HETATM   17  C   UNL     1      -9.951   9.161  67.031  1.00  0.00    -0.230 C  
BRANCH  17  18
HETATM   18  C   UNL     1      -8.497   9.353  66.564  1.00  0.00    -0.133 C  
HETATM   19  H   UNL     1      -7.488  10.297  65.128  1.00  0.00     0.000 HD 
HETATM   20  O   UNL     1      -8.386  10.179  65.416  1.00  0.00    -0.144 OA 
ENDBRANCH  17  18
ENDBRANCH  16  17
BRANCH  16  21
HETATM   21  C   UNL     1      -9.227   9.778  69.244  1.00  0.00    -0.192 C  
BRANCH  21  22
HETATM   22  C   UNL     1      -9.402   9.181  70.657  1.00  0.00    -0.258 C  
HETATM   23  O   UNL     1     -10.586   8.388  70.710  1.00  0.00    -0.200 OA 
HETATM   24  H   UNL     1     -10.694   8.020  71.580  1.00  0.00     0.000 HD 
ENDBRANCH  21  22
ENDBRANCH  16  21
ENDBRANCH  15  16
ENDBRANCH   4  15
TORSDOF 6
ENDMDL
MODEL       99
REMARK 921   NORMALIZED FREE ENERGY PREDICTED BY IDOCK:   -4.14 KCAL/MOL
REMARK 922        TOTAL FREE ENERGY PREDICTED BY IDOCK:   -6.46 KCAL/MOL
REMARK 923 INTER-LIGAND FREE ENERGY PREDICTED BY IDOCK:   -5.72 KCAL/MOL
REMARK 924 INTRA-LIGAND FREE ENERGY PREDICTED BY IDOCK:   -0.74 KCAL/MOL
REMARK 927      BINDING AFFINITY PREDICTED BY RF-SCORE:    0.00 PKD
ROOT
HETATM    1  O   UNL     1     -12.237  12.027  66.358  1.00  0.00    -0.551 OA 
HETATM    2  H   UNL     1     -12.073  11.639  65.508  1.00  0.00     0.000 HD 
HETATM    3  O   UNL     2      -9.227   8.995  67.355  1.00  0.00    -0.136 OA 
HETATM    4  C   UNL     1     -11.385  11.538  67.388  1.00  0.00    -0.298 C  
HETATM    5  O   UNL     2      -7.626   9.562  71.093  1.00  0.00    -0.328 OA 
HETATM    6  C   UNL     2      -8.865   9.588  68.508  1.00  0.00    -0.124 C  
HETATM    7  C   UNL     2      -9.575   9.106  69.710  1.00  0.00    -0.191 A  
HETATM    8  O   UNL     2      -8.006  10.459  68.579  1.00  0.00    -0.104 OA 
HETATM    9  C   UNL     2     -10.913   8.340  72.044  1.00  0.00    -0.374 A  
HETATM   10  C   UNL     2      -8.910   9.120  70.943  1.00  0.00    -0.233 A  
HETATM   11  C   UNL     2      -9.566   8.700  72.094  1.00  0.00    -0.378 A  
HETATM   12  C   UNL     2     -10.926   8.742  69.665  1.00  0.00    -0.114 A  
HETATM   13  H   UNL     2      -7.175   9.571  71.929  1.00  0.00     0.000 HD 
HETATM   14  C   UNL     2     -11.598   8.384  70.832  1.00  0.00    -0.288 A  
ENDROOT
BRANCH   4  15
HETATM   15  C   UNL     1     -11.653  12.173  68.779  1.00  0.00    -0.327 C  
BRANCH  15  16
HETATM   16  N   UNL     1     -11.006  13.485  69.043  1.00  0.00    -0.248 NA 
BRANCH  16  17
HETATM   17  C   UNL     1     -10.049  13.881  67.969  1.00  0.00    -0.244 C  
BRANCH  17  18
HETATM   18  C   UNL     1     -10.358  15.092  67.071  1.00  0.00    -0.269 C  
HETATM   19  H   UNL     1     -11.203  15.485  65.309  1.00  0.00     0.000 HD 
HETATM   20  O   UNL     1     -11.012  14.738  65.864  1.00  0.00    -0.320 OA 
ENDBRANCH  17  18
ENDBRANCH  16  17
BRANCH  16  21
HETATM   21  C   UNL     1     -12.016  14.565  69.179  1.00  0.00    -0.309 C  
BRANCH  21  22
HETATM   22  C   UNL     1     -11.885  15.514  70.389  1.00  0.00    -0.351 C  
HETATM   23  O   UNL     1     -11.322  14.818  71.500  1.00  0.00    -0.531 OA 
HETATM   24  H   UNL     1     -11.241  15.403  72.244  1.00  0.00     0.000 HD 
ENDBRANCH  21  22
ENDBRANCH  16  21
ENDBRANCH  15  16
ENDBRANCH   4  15
TORSDOF 6
ENDMDL
MODEL      100
REMARK 921   NORMALIZED FREE ENERGY PREDICTED BY IDOCK:   -4.13 KCAL/MOL
REMARK 922        TOTAL FREE ENERGY PREDICTED BY IDOCK:   -6.44 KCAL/MOL
REMARK 923 INTER-LIGAND FREE ENERGY PREDICTED BY IDOCK:   -5.75 KCAL/MOL
REMARK 924 INTRA-LIGAND FREE ENERGY PREDICTED BY IDOCK:   -0.69 KCAL/MOL
REMARK 927      BINDING AFFINITY PREDICTED BY RF-SCORE:    0.00 PKD
ROOT
HETATM    1  O   UNL     1      -8.081  11.665  66.042  1.00  0.00    -0.377 OA 
HETATM    2  H   UNL     1      -8.505  11.134  65.379  1.00  0.00     0.000 HD 
HETATM    3  O   UNL     2     -12.153  11.366  67.646  1.00  0.00    -0.630 OA 
HETATM    4  C   UNL     1      -8.902  11.942  67.171  1.00  0.00    -0.180 C  
HETATM    5  O   UNL     2     -12.368  12.545  71.573  1.00  0.00    -0.142 OA 
HETATM    6  C   UNL     2     -11.788  11.672  68.906  1.00  0.00    -0.329 C  
HETATM    7  C   UNL     2     -11.882  13.103  69.256  1.00  0.00    -0.377 A  
HETATM    8  O   UNL     2     -11.409  10.838  69.720  1.00  0.00    -0.254 OA 
HETATM    9  C   UNL     2     -11.936  15.796  70.010  1.00  0.00    -0.352 A  
HETATM   10  C   UNL     2     -12.170  13.461  70.579  1.00  0.00    -0.352 A  
HETATM   11  C   UNL     2     -12.236  14.801  70.941  1.00  0.00    -0.384 A  
HETATM   12  C   UNL     2     -11.585  14.106  68.325  1.00  0.00    -0.356 A  
HETATM   13  H   UNL     2     -12.563  12.788  72.471  1.00  0.00     0.000 HD 
HETATM   14  C   UNL     2     -11.588  15.446  68.708  1.00  0.00    -0.382 A  
ENDROOT
BRANCH   4  15
HETATM   15  C   UNL     1      -8.208  12.810  68.255  1.00  0.00    -0.159 C  
BRANCH  15  16
HETATM   16  N   UNL     1      -6.936  13.470  67.859  1.00  0.00    -0.125 NA 
BRANCH  16  17
HETATM   17  C   UNL     1      -6.964  14.947  68.072  1.00  0.00    -0.140 C  
BRANCH  17  18
HETATM   18  C   UNL     1      -7.874  15.550  69.157  1.00  0.00    -0.215 C  
HETATM   19  H   UNL     1      -8.989  17.174  69.456  1.00  0.00     0.000 HD 
HETATM   20  O   UNL     1      -8.428  16.802  68.786  1.00  0.00    -0.245 OA 
ENDBRANCH  17  18
ENDBRANCH  16  17
BRANCH  16  21
HETATM   21  C   UNL     1      -5.785  12.918  68.616  1.00  0.00    -0.068 C  
BRANCH  21  22
HETATM   22  C   UNL     1      -6.091  12.165  69.929  1.00  0.00    -0.146 C  
HETATM   23  O   UNL     1      -6.132  13.081  71.021  1.00  0.00    -0.541 OA 
HETATM   24  H   UNL     1      -6.320  12.618  71.829  1.00  0.00     0.000 HD 
ENDBRANCH  21  22
ENDBRANCH  16  21
ENDBRANCH  15  16
ENDBRANCH   4  15
TORSDOF 6
ENDMDL
MODEL      101
REMARK 921   NORMALIZED FREE ENERGY PREDICTED BY IDOCK:   -4.12 KCAL/MOL
REMARK 922        TOTAL FREE ENERGY PREDICTED BY IDOCK:   -6.43 KCAL/MOL
REMARK 923 INTER-LIGAND FREE ENERGY PREDICTED BY IDOCK:   -5.89 KCAL/MOL
REMARK 924 INTRA-LIGAND FREE ENERGY PREDICTED BY IDOCK:   -0.54 KCAL/MOL
REMARK 927      BINDING AFFINITY PREDICTED BY RF-SCORE:    0.00 PKD
ROOT
HETATM    1  O   UNL     1      -6.871  16.377  67.336  1.00  0.00    -0.136 OA 
HETATM    2  H   UNL     1      -6.027  15.942  67.355  1.00  0.00     0.000 HD 
HETATM    3  O   UNL     2      -8.039  12.185  66.781  1.00  0.00    -0.147 OA 
HETATM    4  C   UNL     1      -7.977  15.483  67.274  1.00  0.00    -0.203 C  
HETATM    5  O   UNL     2     -12.066  11.606  67.333  1.00  0.00    -0.605 OA 
HETATM    6  C   UNL     2      -9.312  12.382  67.175  1.00  0.00    -0.199 C  
HETATM    7  C   UNL     2     -10.268  12.668  66.087  1.00  0.00    -0.272 A  
HETATM    8  O   UNL     2      -9.673  12.324  68.345  1.00  0.00    -0.213 OA 
HETATM    9  C   UNL     2     -12.155  13.305  64.123  1.00  0.00    -0.494 A  
HETATM   10  C   UNL     2     -11.600  12.260  66.229  1.00  0.00    -0.385 A  
HETATM   11  C   UNL     2     -12.526  12.544  65.231  1.00  0.00    -0.390 A  
HETATM   12  C   UNL     2      -9.900  13.430  64.972  1.00  0.00    -0.070 A  
HETATM   13  H   UNL     2     -12.970  11.330  67.429  1.00  0.00     0.000 HD 
HETATM   14  C   UNL     2     -10.846  13.768  64.006  1.00  0.00     0.076 A  
ENDROOT
BRANCH   4  15
HETATM   15  C   UNL     1      -9.357  16.193  67.243  1.00  0.00    -0.213 C  
BRANCH  15  16
HETATM   16  N   UNL     1      -9.604  17.205  68.304  1.00  0.00    -0.270 NA 
BRANCH  16  17
HETATM   17  C   UNL     1     -10.372  18.384  67.807  1.00  0.00    -0.405 C  
BRANCH  17  18
HETATM   18  C   UNL     1      -9.713  19.374  66.830  1.00  0.00    -0.350 C  
HETATM   19  H   UNL     1     -10.042  20.156  65.026  1.00  0.00     0.000 HD 
HETATM   20  O   UNL     1     -10.449  19.545  65.630  1.00  0.00    -0.456 OA 
ENDBRANCH  17  18
ENDBRANCH  16  17
BRANCH  16  21
HETATM   21  C   UNL     1     -10.353  16.616  69.443  1.00  0.00    -0.294 C  
BRANCH  21  22
HETATM   22  C   UNL     1     -11.158  15.326  69.176  1.00  0.00    -0.263 C  
HETATM   23  O   UNL     1     -12.554  15.582  69.318  1.00  0.00    -0.594 OA 
HETATM   24  H   UNL     1     -13.050  14.788  69.154  1.00  0.00     0.000 HD 
ENDBRANCH  21  22
ENDBRANCH  16  21
ENDBRANCH  15  16
ENDBRANCH   4  15
TORSDOF 6
ENDMDL
MODEL      102
REMARK 921   NORMALIZED FREE ENERGY PREDICTED BY IDOCK:   -4.12 KCAL/MOL
REMARK 922        TOTAL FREE ENERGY PREDICTED BY IDOCK:   -6.43 KCAL/MOL
REMARK 923 INTER-LIGAND FREE ENERGY PREDICTED BY IDOCK:   -5.67 KCAL/MOL
REMARK 924 INTRA-LIGAND FREE ENERGY PREDICTED BY IDOCK:   -0.76 KCAL/MOL
REMARK 927      BINDING AFFINITY PREDICTED BY RF-SCORE:    0.00 PKD
ROOT
HETATM    1  O   UNL     1     -11.750  12.481  68.262  1.00  0.00    -0.307 OA 
HETATM    2  H   UNL     1     -12.096  13.257  68.686  1.00  0.00     0.000 HD 
HETATM    3  O   UNL     2     -13.111  10.842  72.097  1.00  0.00    -0.460 OA 
HETATM    4  C   UNL     1     -11.967  11.280  68.995  1.00  0.00    -0.325 C  
HETATM    5  O   UNL     2     -13.290   6.740  72.060  1.00  0.00    -0.526 OA 
HETATM    6  C   UNL     2     -13.176   9.574  71.648  1.00  0.00    -0.406 C  
HETATM    7  C   UNL     2     -11.959   8.767  71.870  1.00  0.00    -0.435 A  
HETATM    8  O   UNL     2     -14.165   9.102  71.099  1.00  0.00    -0.186 OA 
HETATM    9  C   UNL     2      -9.683   7.167  72.156  1.00  0.00    -0.163 A  
HETATM   10  C   UNL     2     -12.087   7.386  72.066  1.00  0.00    -0.289 A  
HETATM   11  C   UNL     2     -10.955   6.600  72.248  1.00  0.00    -0.278 A  
HETATM   12  C   UNL     2     -10.681   9.331  71.781  1.00  0.00    -0.324 A  
HETATM   13  H   UNL     2     -13.376   5.803  72.193  1.00  0.00     0.000 HD 
HETATM   14  C   UNL     2      -9.547   8.529  71.899  1.00  0.00    -0.353 A  
ENDROOT
BRANCH   4  15
HETATM   15  C   UNL     1     -11.402  10.011  68.302  1.00  0.00    -0.049 C  
BRANCH  15  16
HETATM   16  N   UNL     1     -10.353  10.231  67.272  1.00  0.00    -0.218 NA 
BRANCH  16  17
HETATM   17  C   UNL     1      -8.997  10.426  67.865  1.00  0.00    -0.128 C  
BRANCH  17  18
HETATM   18  C   UNL     1      -8.222  11.729  67.601  1.00  0.00    -0.145 C  
HETATM   19  H   UNL     1      -8.394  13.683  67.957  1.00  0.00     0.000 HD 
HETATM   20  O   UNL     1      -8.873  12.878  68.120  1.00  0.00    -0.186 OA 
ENDBRANCH  17  18
ENDBRANCH  16  17
BRANCH  16  21
HETATM   21  C   UNL     1     -10.281   9.090  66.325  1.00  0.00    -0.167 C  
BRANCH  21  22
HETATM   22  C   UNL     1      -9.774   7.739  66.874  1.00  0.00    -0.216 C  
HETATM   23  O   UNL     1     -10.691   6.699  66.541  1.00  0.00    -0.507 OA 
HETATM   24  H   UNL     1     -10.379   5.868  66.879  1.00  0.00     0.000 HD 
ENDBRANCH  21  22
ENDBRANCH  16  21
ENDBRANCH  15  16
ENDBRANCH   4  15
TORSDOF 6
ENDMDL
MODEL      103
REMARK 921   NORMALIZED FREE ENERGY PREDICTED BY IDOCK:   -4.12 KCAL/MOL
REMARK 922        TOTAL FREE ENERGY PREDICTED BY IDOCK:   -6.42 KCAL/MOL
REMARK 923 INTER-LIGAND FREE ENERGY PREDICTED BY IDOCK:   -5.85 KCAL/MOL
REMARK 924 INTRA-LIGAND FREE ENERGY PREDICTED BY IDOCK:   -0.57 KCAL/MOL
REMARK 927      BINDING AFFINITY PREDICTED BY RF-SCORE:    0.00 PKD
ROOT
HETATM    1  O   UNL     1      -9.861  14.404  64.955  1.00  0.00    -0.512 OA 
HETATM    2  H   UNL     1      -9.928  15.259  65.362  1.00  0.00     0.000 HD 
HETATM    3  O   UNL     2     -10.678  13.315  69.125  1.00  0.00    -0.172 OA 
HETATM    4  C   UNL     1     -10.169  13.324  65.829  1.00  0.00    -0.292 C  
HETATM    5  O   UNL     2     -11.752   9.372  69.522  1.00  0.00    -0.419 OA 
HETATM    6  C   UNL     2     -11.115  12.077  68.823  1.00  0.00    -0.249 C  
HETATM    7  C   UNL     2     -10.085  11.020  68.873  1.00  0.00    -0.212 A  
HETATM    8  O   UNL     2     -12.278  11.824  68.532  1.00  0.00    -0.430 OA 
HETATM    9  C   UNL     2      -8.206   8.948  68.850  1.00  0.00    -0.117 A  
HETATM   10  C   UNL     2     -10.465   9.719  69.223  1.00  0.00    -0.219 A  
HETATM   11  C   UNL     2      -9.520   8.700  69.250  1.00  0.00    -0.158 A  
HETATM   12  C   UNL     2      -8.765  11.265  68.475  1.00  0.00    -0.156 A  
HETATM   13  H   UNL     2     -12.010   8.489  69.759  1.00  0.00     0.000 HD 
HETATM   14  C   UNL     2      -7.836  10.227  68.440  1.00  0.00    -0.102 A  
ENDROOT
BRANCH   4  15
HETATM   15  C   UNL     1     -10.060  11.926  65.162  1.00  0.00    -0.261 C  
BRANCH  15  16
HETATM   16  N   UNL     1     -10.157  11.891  63.679  1.00  0.00    -0.399 NA 
BRANCH  16  17
HETATM   17  C   UNL     1      -9.287  10.843  63.070  1.00  0.00    -0.337 C  
BRANCH  17  18
HETATM   18  C   UNL     1      -8.195  10.163  63.915  1.00  0.00    -0.164 C  
HETATM   19  H   UNL     1      -7.232   8.421  64.013  1.00  0.00     0.000 HD 
HETATM   20  O   UNL     1      -7.906   8.840  63.491  1.00  0.00    -0.133 OA 
ENDBRANCH  17  18
ENDBRANCH  16  17
BRANCH  16  21
HETATM   21  C   UNL     1     -11.553  11.643  63.238  1.00  0.00    -0.144 C  
BRANCH  21  22
HETATM   22  C   UNL     1     -12.610  12.715  63.583  1.00  0.00    -0.337 C  
HETATM   23  O   UNL     1     -12.245  13.966  63.005  1.00  0.00    -1.039 OA 
HETATM   24  H   UNL     1     -12.896  14.626  63.217  1.00  0.00     0.000 HD 
ENDBRANCH  21  22
ENDBRANCH  16  21
ENDBRANCH  15  16
ENDBRANCH   4  15
TORSDOF 6
ENDMDL
MODEL      104
REMARK 921   NORMALIZED FREE ENERGY PREDICTED BY IDOCK:   -4.10 KCAL/MOL
REMARK 922        TOTAL FREE ENERGY PREDICTED BY IDOCK:   -6.40 KCAL/MOL
REMARK 923 INTER-LIGAND FREE ENERGY PREDICTED BY IDOCK:   -6.09 KCAL/MOL
REMARK 924 INTRA-LIGAND FREE ENERGY PREDICTED BY IDOCK:   -0.31 KCAL/MOL
REMARK 927      BINDING AFFINITY PREDICTED BY RF-SCORE:    0.00 PKD
ROOT
HETATM    1  O   UNL     1     -12.434  14.850  67.888  1.00  0.00    -0.494 OA 
HETATM    2  H   UNL     1     -13.378  14.894  67.798  1.00  0.00     0.000 HD 
HETATM    3  O   UNL     2     -13.103  12.216  64.444  1.00  0.00    -0.740 OA 
HETATM    4  C   UNL     1     -11.792  14.113  66.854  1.00  0.00    -0.431 C  
HETATM    5  O   UNL     2      -9.628  11.384  62.423  1.00  0.00    -0.524 OA 
HETATM    6  C   UNL     2     -11.836  12.310  63.998  1.00  0.00    -0.444 C  
HETATM    7  C   UNL     2     -10.924  11.253  64.478  1.00  0.00    -0.301 A  
HETATM    8  O   UNL     2     -11.450  13.194  63.243  1.00  0.00    -0.301 OA 
HETATM    9  C   UNL     2      -9.080   9.356  65.389  1.00  0.00    -0.280 A  
HETATM   10  C   UNL     2      -9.864  10.847  63.657  1.00  0.00    -0.351 A  
HETATM   11  C   UNL     2      -8.974   9.874  64.097  1.00  0.00    -0.274 A  
HETATM   12  C   UNL     2     -11.028  10.728  65.772  1.00  0.00     0.021 A  
HETATM   13  H   UNL     2      -8.908  11.108  61.867  1.00  0.00     0.000 HD 
HETATM   14  C   UNL     2     -10.094   9.802  66.233  1.00  0.00    -0.313 A  
ENDROOT
BRANCH   4  15
HETATM   15  C   UNL     1     -10.248  14.040  67.001  1.00  0.00    -0.261 C  
BRANCH  15  16
HETATM   16  N   UNL     1      -9.727  13.719  68.355  1.00  0.00    -0.223 NA 
BRANCH  16  17
HETATM   17  C   UNL     1      -9.646  12.250  68.607  1.00  0.00    -0.043 C  
BRANCH  17  18
HETATM   18  C   UNL     1     -10.798  11.529  69.328  1.00  0.00    -0.167 C  
HETATM   19  H   UNL     1     -12.687  11.867  69.863  1.00  0.00     0.000 HD 
HETATM   20  O   UNL     1     -11.976  12.313  69.418  1.00  0.00    -0.297 OA 
ENDBRANCH  17  18
ENDBRANCH  16  17
BRANCH  16  21
HETATM   21  C   UNL     1      -8.375  14.296  68.562  1.00  0.00    -0.156 C  
BRANCH  21  22
HETATM   22  C   UNL     1      -8.291  15.726  69.138  1.00  0.00    -0.249 C  
HETATM   23  O   UNL     1      -9.574  16.347  69.095  1.00  0.00    -0.259 OA 
HETATM   24  H   UNL     1      -9.522  17.227  69.450  1.00  0.00     0.000 HD 
ENDBRANCH  21  22
ENDBRANCH  16  21
ENDBRANCH  15  16
ENDBRANCH   4  15
TORSDOF 6
ENDMDL
MODEL      105
REMARK 921   NORMALIZED FREE ENERGY PREDICTED BY IDOCK:   -4.09 KCAL/MOL
REMARK 922        TOTAL FREE ENERGY PREDICTED BY IDOCK:   -6.38 KCAL/MOL
REMARK 923 INTER-LIGAND FREE ENERGY PREDICTED BY IDOCK:   -5.99 KCAL/MOL
REMARK 924 INTRA-LIGAND FREE ENERGY PREDICTED BY IDOCK:   -0.39 KCAL/MOL
REMARK 927      BINDING AFFINITY PREDICTED BY RF-SCORE:    0.00 PKD
ROOT
HETATM    1  O   UNL     1     -11.554  13.508  68.657  1.00  0.00    -0.283 OA 
HETATM    2  H   UNL     1     -11.781  14.172  69.296  1.00  0.00     0.000 HD 
HETATM    3  O   UNL     2     -12.835  11.042  72.051  1.00  0.00    -0.380 OA 
HETATM    4  C   UNL     1     -11.855  12.182  69.073  1.00  0.00    -0.306 C  
HETATM    5  O   UNL     2     -13.476   7.131  70.978  1.00  0.00    -0.546 OA 
HETATM    6  C   UNL     2     -13.071   9.950  71.299  1.00  0.00    -0.400 C  
HETATM    7  C   UNL     2     -11.941   9.006  71.192  1.00  0.00    -0.356 A  
HETATM    8  O   UNL     2     -14.141   9.734  70.742  1.00  0.00     0.071 OA 
HETATM    9  C   UNL     2      -9.846   7.186  70.844  1.00  0.00    -0.182 A  
HETATM   10  C   UNL     2     -12.210   7.640  71.038  1.00  0.00    -0.236 A  
HETATM   11  C   UNL     2     -11.164   6.734  70.905  1.00  0.00    -0.338 A  
HETATM   12  C   UNL     2     -10.616   9.454  71.132  1.00  0.00    -0.403 A  
HETATM   13  H   UNL     2     -13.658   6.205  70.873  1.00  0.00     0.000 HD 
HETATM   14  C   UNL     2      -9.575   8.550  70.934  1.00  0.00    -0.228 A  
ENDROOT
BRANCH   4  15
HETATM   15  C   UNL     1     -11.484  11.096  68.027  1.00  0.00    -0.293 C  
BRANCH  15  16
HETATM   16  N   UNL     1     -10.616  11.531  66.902  1.00  0.00    -0.235 NA 
BRANCH  16  17
HETATM   17  C   UNL     1      -9.788  10.419  66.350  1.00  0.00    -0.213 C  
BRANCH  17  18
HETATM   18  C   UNL     1      -9.325   9.275  67.270  1.00  0.00    -0.131 C  
HETATM   19  H   UNL     1      -9.699   7.342  67.576  1.00  0.00     0.000 HD 
HETATM   20  O   UNL     1      -9.985   8.048  67.008  1.00  0.00    -0.202 OA 
ENDBRANCH  17  18
ENDBRANCH  16  17
BRANCH  16  21
HETATM   21  C   UNL     1     -11.421  12.099  65.791  1.00  0.00    -0.361 C  
BRANCH  21  22
HETATM   22  C   UNL     1     -11.008  13.484  65.248  1.00  0.00    -0.295 C  
HETATM   23  O   UNL     1     -10.156  13.330  64.114  1.00  0.00    -0.672 OA 
HETATM   24  H   UNL     1      -9.902  14.182  63.779  1.00  0.00     0.000 HD 
ENDBRANCH  21  22
ENDBRANCH  16  21
ENDBRANCH  15  16
ENDBRANCH   4  15
TORSDOF 6
ENDMDL
MODEL      106
REMARK 921   NORMALIZED FREE ENERGY PREDICTED BY IDOCK:   -4.08 KCAL/MOL
REMARK 922        TOTAL FREE ENERGY PREDICTED BY IDOCK:   -6.36 KCAL/MOL
REMARK 923 INTER-LIGAND FREE ENERGY PREDICTED BY IDOCK:   -5.41 KCAL/MOL
REMARK 924 INTRA-LIGAND FREE ENERGY PREDICTED BY IDOCK:   -0.96 KCAL/MOL
REMARK 927      BINDING AFFINITY PREDICTED BY RF-SCORE:    0.00 PKD
ROOT
HETATM    1  O   UNL     1      -9.067  11.720  63.915  1.00  0.00    -0.436 OA 
HETATM    2  H   UNL     1      -8.971  12.653  63.769  1.00  0.00     0.000 HD 
HETATM    3  O   UNL     2     -10.552  13.350  67.707  1.00  0.00    -0.239 OA 
HETATM    4  C   UNL     1      -9.714  11.393  65.140  1.00  0.00    -0.244 C  
HETATM    5  O   UNL     2     -12.571  10.544  69.923  1.00  0.00    -0.528 OA 
HETATM    6  C   UNL     2     -11.237  12.238  68.034  1.00  0.00    -0.269 C  
HETATM    7  C   UNL     2     -10.500  11.273  68.875  1.00  0.00    -0.232 A  
HETATM    8  O   UNL     2     -12.390  12.026  67.677  1.00  0.00    -0.345 OA 
HETATM    9  C   UNL     2      -9.178   9.330  70.392  1.00  0.00    -0.291 A  
HETATM   10  C   UNL     2     -11.214  10.476  69.778  1.00  0.00    -0.298 A  
HETATM   11  C   UNL     2     -10.548   9.540  70.560  1.00  0.00    -0.358 A  
HETATM   12  C   UNL     2      -9.126  11.061  68.711  1.00  0.00    -0.161 A  
HETATM   13  H   UNL     2     -13.055  10.004  70.536  1.00  0.00     0.000 HD 
HETATM   14  C   UNL     2      -8.473  10.075  69.450  1.00  0.00    -0.176 A  
ENDROOT
BRANCH   4  15
HETATM   15  C   UNL     1      -9.872   9.867  65.379  1.00  0.00    -0.313 C  
BRANCH  15  16
HETATM   16  N   UNL     1      -8.648   9.132  65.790  1.00  0.00    -0.144 NA 
BRANCH  16  17
HETATM   17  C   UNL     1      -8.953   7.901  66.577  1.00  0.00    -0.161 C  
BRANCH  17  18
HETATM   18  C   UNL     1     -10.340   7.722  67.218  1.00  0.00    -0.301 C  
HETATM   19  H   UNL     1     -11.862   6.436  67.183  1.00  0.00     0.000 HD 
HETATM   20  O   UNL     1     -11.005   6.546  66.788  1.00  0.00    -0.354 OA 
ENDBRANCH  17  18
ENDBRANCH  16  17
BRANCH  16  21
HETATM   21  C   UNL     1      -7.838   8.734  64.612  1.00  0.00    -0.127 C  
BRANCH  21  22
HETATM   22  C   UNL     1      -6.379   9.237  64.546  1.00  0.00    -0.077 C  
HETATM   23  O   UNL     1      -6.355  10.629  64.235  1.00  0.00    -0.355 OA 
HETATM   24  H   UNL     1      -5.457  10.938  64.194  1.00  0.00     0.000 HD 
ENDBRANCH  21  22
ENDBRANCH  16  21
ENDBRANCH  15  16
ENDBRANCH   4  15
TORSDOF 6
ENDMDL
MODEL      107
REMARK 921   NORMALIZED FREE ENERGY PREDICTED BY IDOCK:   -4.06 KCAL/MOL
REMARK 922        TOTAL FREE ENERGY PREDICTED BY IDOCK:   -6.35 KCAL/MOL
REMARK 923 INTER-LIGAND FREE ENERGY PREDICTED BY IDOCK:   -5.80 KCAL/MOL
REMARK 924 INTRA-LIGAND FREE ENERGY PREDICTED BY IDOCK:   -0.55 KCAL/MOL
REMARK 927      BINDING AFFINITY PREDICTED BY RF-SCORE:    0.00 PKD
ROOT
HETATM    1  O   UNL     1      -9.759   9.971  65.412  1.00  0.00    -0.260 OA 
HETATM    2  H   UNL     1      -8.986   9.626  64.981  1.00  0.00     0.000 HD 
HETATM    3  O   UNL     2      -7.819   7.818  68.705  1.00  0.00    -0.117 OA 
HETATM    4  C   UNL     1      -9.793   9.728  66.813  1.00  0.00    -0.208 C  
HETATM    5  O   UNL     2      -9.393   8.823  72.361  1.00  0.00    -0.331 OA 
HETATM    6  C   UNL     2      -8.469   8.499  69.668  1.00  0.00    -0.130 C  
HETATM    7  C   UNL     2      -9.715   7.868  70.147  1.00  0.00    -0.179 A  
HETATM    8  O   UNL     2      -8.070   9.561  70.131  1.00  0.00    -0.138 OA 
HETATM    9  C   UNL     2     -12.136   6.817  71.075  1.00  0.00    -0.426 A  
HETATM   10  C   UNL     2     -10.108   8.067  71.477  1.00  0.00    -0.180 A  
HETATM   11  C   UNL     2     -11.292   7.509  71.945  1.00  0.00    -0.298 A  
HETATM   12  C   UNL     2     -10.564   7.171  69.279  1.00  0.00    -0.233 A  
HETATM   13  H   UNL     2      -9.660   8.958  73.263  1.00  0.00     0.000 HD 
HETATM   14  C   UNL     2     -11.781   6.668  69.736  1.00  0.00    -0.279 A  
ENDROOT
BRANCH   4  15
HETATM   15  C   UNL     1     -11.057  10.292  67.517  1.00  0.00    -0.232 C  
BRANCH  15  16
HETATM   16  N   UNL     1     -11.011  11.725  67.911  1.00  0.00    -0.208 NA 
BRANCH  16  17
HETATM   17  C   UNL     1     -11.899  12.581  67.071  1.00  0.00    -0.323 C  
BRANCH  17  18
HETATM   18  C   UNL     1     -11.862  12.456  65.538  1.00  0.00    -0.412 C  
HETATM   19  H   UNL     1     -13.102  12.596  63.984  1.00  0.00     0.000 HD 
HETATM   20  O   UNL     1     -13.125  12.673  64.931  1.00  0.00    -0.850 OA 
ENDBRANCH  17  18
ENDBRANCH  16  17
BRANCH  16  21
HETATM   21  C   UNL     1     -11.406  11.905  69.330  1.00  0.00    -0.277 C  
BRANCH  21  22
HETATM   22  C   UNL     1     -12.216  10.770  69.994  1.00  0.00    -0.334 C  
HETATM   23  O   UNL     1     -12.554  11.128  71.333  1.00  0.00    -0.385 OA 
HETATM   24  H   UNL     1     -13.052  10.430  71.741  1.00  0.00     0.000 HD 
ENDBRANCH  21  22
ENDBRANCH  16  21
ENDBRANCH  15  16
ENDBRANCH   4  15
TORSDOF 6
ENDMDL
MODEL      108
REMARK 921   NORMALIZED FREE ENERGY PREDICTED BY IDOCK:   -4.05 KCAL/MOL
REMARK 922        TOTAL FREE ENERGY PREDICTED BY IDOCK:   -6.33 KCAL/MOL
REMARK 923 INTER-LIGAND FREE ENERGY PREDICTED BY IDOCK:   -5.86 KCAL/MOL
REMARK 924 INTRA-LIGAND FREE ENERGY PREDICTED BY IDOCK:   -0.47 KCAL/MOL
REMARK 927      BINDING AFFINITY PREDICTED BY RF-SCORE:    0.00 PKD
ROOT
HETATM    1  O   UNL     1     -12.454  12.785  66.289  1.00  0.00    -0.477 OA 
HETATM    2  H   UNL     1     -12.163  12.817  65.385  1.00  0.00     0.000 HD 
HETATM    3  O   UNL     2      -8.501  10.906  66.584  1.00  0.00    -0.140 OA 
HETATM    4  C   UNL     1     -11.469  12.301  67.194  1.00  0.00    -0.352 C  
HETATM    5  O   UNL     2      -7.198  10.625  70.467  1.00  0.00    -0.463 OA 
HETATM    6  C   UNL     2      -8.380  11.131  67.906  1.00  0.00    -0.129 C  
HETATM    7  C   UNL     2      -8.838  10.027  68.773  1.00  0.00    -0.137 A  
HETATM    8  O   UNL     2      -7.921  12.165  68.376  1.00  0.00    -0.147 OA 
HETATM    9  C   UNL     2      -9.754   8.043  70.519  1.00  0.00    -0.179 A  
HETATM   10  C   UNL     2      -8.216   9.836  70.013  1.00  0.00    -0.191 A  
HETATM   11  C   UNL     2      -8.648   8.822  70.861  1.00  0.00    -0.229 A  
HETATM   12  C   UNL     2      -9.947   9.242  68.434  1.00  0.00    -0.196 A  
HETATM   13  H   UNL     2      -6.776  10.495  71.308  1.00  0.00     0.000 HD 
HETATM   14  C   UNL     2     -10.417   8.270  69.316  1.00  0.00    -0.218 A  
ENDROOT
BRANCH   4  15
HETATM   15  C   UNL     1     -11.944  12.249  68.671  1.00  0.00    -0.227 C  
BRANCH  15  16
HETATM   16  N   UNL     1     -12.201  13.556  69.330  1.00  0.00    -0.272 NA 
BRANCH  16  17
HETATM   17  C   UNL     1     -12.488  13.419  70.788  1.00  0.00    -0.341 C  
BRANCH  17  18
HETATM   18  C   UNL     1     -13.533  14.332  71.454  1.00  0.00    -0.330 C  
HETATM   19  H   UNL     1     -14.907  14.248  72.895  1.00  0.00     0.000 HD 
HETATM   20  O   UNL     1     -14.262  13.684  72.484  1.00  0.00    -0.724 OA 
ENDBRANCH  17  18
ENDBRANCH  16  17
BRANCH  16  21
HETATM   21  C   UNL     1     -11.044  14.473  69.173  1.00  0.00    -0.263 C  
BRANCH  21  22
HETATM   22  C   UNL     1     -11.345  15.975  68.982  1.00  0.00    -0.363 C  
HETATM   23  O   UNL     1     -11.239  16.658  70.229  1.00  0.00    -0.479 OA 
HETATM   24  H   UNL     1     -11.425  17.583  70.112  1.00  0.00     0.000 HD 
ENDBRANCH  21  22
ENDBRANCH  16  21
ENDBRANCH  15  16
ENDBRANCH   4  15
TORSDOF 6
ENDMDL
MODEL      109
REMARK 921   NORMALIZED FREE ENERGY PREDICTED BY IDOCK:   -4.05 KCAL/MOL
REMARK 922        TOTAL FREE ENERGY PREDICTED BY IDOCK:   -6.32 KCAL/MOL
REMARK 923 INTER-LIGAND FREE ENERGY PREDICTED BY IDOCK:   -5.50 KCAL/MOL
REMARK 924 INTRA-LIGAND FREE ENERGY PREDICTED BY IDOCK:   -0.83 KCAL/MOL
REMARK 927      BINDING AFFINITY PREDICTED BY RF-SCORE:    0.00 PKD
ROOT
HETATM    1  O   UNL     1     -10.587  17.821  69.121  1.00  0.00    -0.406 OA 
HETATM    2  H   UNL     1     -11.272  17.863  69.777  1.00  0.00     0.000 HD 
HETATM    3  O   UNL     2     -12.513  13.912  68.615  1.00  0.00    -0.144 OA 
HETATM    4  C   UNL     1     -10.639  16.654  68.308  1.00  0.00    -0.338 C  
HETATM    5  O   UNL     2     -11.384  12.062  65.128  1.00  0.00    -0.319 OA 
HETATM    6  C   UNL     2     -12.033  13.724  67.371  1.00  0.00    -0.388 C  
HETATM    7  C   UNL     2     -10.763  12.975  67.295  1.00  0.00    -0.261 A  
HETATM    8  O   UNL     2     -12.598  14.129  66.362  1.00  0.00    -0.427 OA 
HETATM    9  C   UNL     2      -8.317  11.644  67.031  1.00  0.00    -0.169 A  
HETATM   10  C   UNL     2     -10.510  12.180  66.170  1.00  0.00    -0.248 A  
HETATM   11  C   UNL     2      -9.309  11.488  66.062  1.00  0.00    -0.239 A  
HETATM   12  C   UNL     2      -9.766  13.126  68.266  1.00  0.00    -0.223 A  
HETATM   13  H   UNL     2     -11.212  11.523  64.365  1.00  0.00     0.000 HD 
HETATM   14  C   UNL     2      -8.538  12.483  68.121  1.00  0.00    -0.189 A  
ENDROOT
BRANCH   4  15
HETATM   15  C   UNL     1      -9.518  16.586  67.236  1.00  0.00    -0.235 C  
BRANCH  15  16
HETATM   16  N   UNL     1      -8.412  17.569  67.372  1.00  0.00    -0.214 NA 
BRANCH  16  17
HETATM   17  C   UNL     1      -7.067  16.954  67.174  1.00  0.00    -0.181 C  
BRANCH  17  18
HETATM   18  C   UNL     1      -6.612  15.794  68.076  1.00  0.00    -0.135 C  
HETATM   19  H   UNL     1      -5.515  14.134  67.957  1.00  0.00     0.000 HD 
HETATM   20  O   UNL     1      -5.796  14.850  67.400  1.00  0.00    -0.341 OA 
ENDBRANCH  17  18
ENDBRANCH  16  17
BRANCH  16  21
HETATM   21  C   UNL     1      -8.558  18.679  66.397  1.00  0.00    -0.271 C  
BRANCH  21  22
HETATM   22  C   UNL     1      -8.972  20.061  66.947  1.00  0.00    -0.353 C  
HETATM   23  O   UNL     1     -10.378  20.092  67.184  1.00  0.00    -0.419 OA 
HETATM   24  H   UNL     1     -10.633  20.943  67.523  1.00  0.00     0.000 HD 
ENDBRANCH  21  22
ENDBRANCH  16  21
ENDBRANCH  15  16
ENDBRANCH   4  15
TORSDOF 6
ENDMDL
MODEL      110
REMARK 921   NORMALIZED FREE ENERGY PREDICTED BY IDOCK:   -4.04 KCAL/MOL
REMARK 922        TOTAL FREE ENERGY PREDICTED BY IDOCK:   -6.32 KCAL/MOL
REMARK 923 INTER-LIGAND FREE ENERGY PREDICTED BY IDOCK:   -5.81 KCAL/MOL
REMARK 924 INTRA-LIGAND FREE ENERGY PREDICTED BY IDOCK:   -0.51 KCAL/MOL
REMARK 927      BINDING AFFINITY PREDICTED BY RF-SCORE:    0.00 PKD
ROOT
HETATM    1  O   UNL     1      -7.513  17.895  65.552  1.00  0.00    -0.524 OA 
HETATM    2  H   UNL     1      -7.862  18.423  64.845  1.00  0.00     0.000 HD 
HETATM    3  O   UNL     2     -11.325  15.872  64.764  1.00  0.00    -0.394 OA 
HETATM    4  C   UNL     1      -8.297  16.747  65.856  1.00  0.00     0.041 C  
HETATM    5  O   UNL     2     -11.518  12.173  66.534  1.00  0.00    -0.344 OA 
HETATM    6  C   UNL     2     -10.948  14.717  65.344  1.00  0.00    -0.353 C  
HETATM    7  C   UNL     2     -11.309  14.585  66.769  1.00  0.00    -0.358 A  
HETATM    8  O   UNL     2     -10.355  13.825  64.748  1.00  0.00    -0.410 OA 
HETATM    9  C   UNL     2     -11.860  14.255  69.492  1.00  0.00    -0.378 A  
HETATM   10  C   UNL     2     -11.576  13.311  67.286  1.00  0.00    -0.359 A  
HETATM   11  C   UNL     2     -11.889  13.156  68.632  1.00  0.00    -0.363 A  
HETATM   12  C   UNL     2     -11.283  15.684  67.636  1.00  0.00    -0.274 A  
HETATM   13  H   UNL     2     -11.700  11.309  66.885  1.00  0.00     0.000 HD 
HETATM   14  C   UNL     2     -11.533  15.515  68.997  1.00  0.00    -0.361 A  
ENDROOT
BRANCH   4  15
HETATM   15  C   UNL     1      -7.725  15.884  67.013  1.00  0.00    -0.233 C  
BRANCH  15  16
HETATM   16  N   UNL     1      -8.077  16.310  68.392  1.00  0.00    -0.175 NA 
BRANCH  16  17
HETATM   17  C   UNL     1      -7.697  15.298  69.421  1.00  0.00    -0.225 C  
BRANCH  17  18
HETATM   18  C   UNL     1      -6.225  15.143  69.842  1.00  0.00    -0.154 C  
HETATM   19  H   UNL     1      -4.670  13.953  69.472  1.00  0.00     0.000 HD 
HETATM   20  O   UNL     1      -5.578  14.049  69.212  1.00  0.00    -0.081 OA 
ENDBRANCH  17  18
ENDBRANCH  16  17
BRANCH  16  21
HETATM   21  C   UNL     1      -7.416  17.592  68.744  1.00  0.00    -0.258 C  
BRANCH  21  22
HETATM   22  C   UNL     1      -8.281  18.871  68.712  1.00  0.00    -0.312 C  
HETATM   23  O   UNL     1      -7.611  19.897  67.982  1.00  0.00    -0.294 OA 
HETATM   24  H   UNL     1      -8.143  20.684  67.963  1.00  0.00     0.000 HD 
ENDBRANCH  21  22
ENDBRANCH  16  21
ENDBRANCH  15  16
ENDBRANCH   4  15
TORSDOF 6
ENDMDL
MODEL      111
REMARK 921   NORMALIZED FREE ENERGY PREDICTED BY IDOCK:   -4.02 KCAL/MOL
REMARK 922        TOTAL FREE ENERGY PREDICTED BY IDOCK:   -6.29 KCAL/MOL
REMARK 923 INTER-LIGAND FREE ENERGY PREDICTED BY IDOCK:   -4.94 KCAL/MOL
REMARK 924 INTRA-LIGAND FREE ENERGY PREDICTED BY IDOCK:   -1.35 KCAL/MOL
REMARK 927      BINDING AFFINITY PREDICTED BY RF-SCORE:    0.00 PKD
ROOT
HETATM    1  O   UNL     1      -7.873  12.635  66.931  1.00  0.00    -0.369 OA 
HETATM    2  H   UNL     1      -6.930  12.684  67.029  1.00  0.00     0.000 HD 
HETATM    3  O   UNL     2      -7.056   9.028  69.290  1.00  0.00    -0.056 OA 
HETATM    4  C   UNL     1      -8.472  11.570  67.660  1.00  0.00    -0.135 C  
HETATM    5  O   UNL     2     -10.468   7.431  70.922  1.00  0.00    -0.215 OA 
HETATM    6  C   UNL     2      -8.319   8.916  69.745  1.00  0.00    -0.125 C  
HETATM    7  C   UNL     2      -9.200   8.047  68.940  1.00  0.00    -0.147 A  
HETATM    8  O   UNL     2      -8.725   9.481  70.754  1.00  0.00    -0.204 OA 
HETATM    9  C   UNL     2     -10.987   6.495  67.450  1.00  0.00    -0.458 A  
HETATM   10  C   UNL     2     -10.231   7.348  69.580  1.00  0.00    -0.204 A  
HETATM   11  C   UNL     2     -11.093   6.546  68.840  1.00  0.00    -0.371 A  
HETATM   12  C   UNL     2      -9.097   7.991  67.545  1.00  0.00    -0.146 A  
HETATM   13  H   UNL     2     -11.168   6.956  71.356  1.00  0.00     0.000 HD 
HETATM   14  C   UNL     2     -10.003   7.237  66.801  1.00  0.00    -0.287 A  
ENDROOT
BRANCH   4  15
HETATM   15  C   UNL     1     -10.015  11.490  67.501  1.00  0.00    -0.190 C  
BRANCH  15  16
HETATM   16  N   UNL     1     -10.791  12.659  67.990  1.00  0.00    -0.217 NA 
BRANCH  16  17
HETATM   17  C   UNL     1     -11.476  13.397  66.888  1.00  0.00    -0.342 C  
BRANCH  17  18
HETATM   18  C   UNL     1     -10.888  14.721  66.368  1.00  0.00    -0.322 C  
HETATM   19  H   UNL     1      -9.229  15.810  66.555  1.00  0.00     0.000 HD 
HETATM   20  O   UNL     1      -9.592  14.993  66.876  1.00  0.00    -0.224 OA 
ENDBRANCH  17  18
ENDBRANCH  16  17
BRANCH  16  21
HETATM   21  C   UNL     1     -11.822  12.246  68.975  1.00  0.00    -0.305 C  
BRANCH  21  22
HETATM   22  C   UNL     1     -11.891  10.749  69.348  1.00  0.00    -0.298 C  
HETATM   23  O   UNL     1     -11.376  10.547  70.662  1.00  0.00    -0.322 OA 
HETATM   24  H   UNL     1     -11.419   9.626  70.891  1.00  0.00     0.000 HD 
ENDBRANCH  21  22
ENDBRANCH  16  21
ENDBRANCH  15  16
ENDBRANCH   4  15
TORSDOF 6
ENDMDL
MODEL      112
REMARK 921   NORMALIZED FREE ENERGY PREDICTED BY IDOCK:   -4.00 KCAL/MOL
REMARK 922        TOTAL FREE ENERGY PREDICTED BY IDOCK:   -6.26 KCAL/MOL
REMARK 923 INTER-LIGAND FREE ENERGY PREDICTED BY IDOCK:   -5.12 KCAL/MOL
REMARK 924 INTRA-LIGAND FREE ENERGY PREDICTED BY IDOCK:   -1.14 KCAL/MOL
REMARK 927      BINDING AFFINITY PREDICTED BY RF-SCORE:    0.00 PKD
ROOT
HETATM    1  O   UNL     1      -5.728  14.316  67.444  1.00  0.00    -0.344 OA 
HETATM    2  H   UNL     1      -5.107  13.600  67.507  1.00  0.00     0.000 HD 
HETATM    3  O   UNL     2      -8.385  10.837  67.167  1.00  0.00    -0.123 OA 
HETATM    4  C   UNL     1      -7.088  13.898  67.428  1.00  0.00    -0.070 C  
HETATM    5  O   UNL     2     -12.330  11.846  67.697  1.00  0.00    -0.357 OA 
HETATM    6  C   UNL     2      -9.487  11.522  67.527  1.00  0.00    -0.169 C  
HETATM    7  C   UNL     2     -10.280  12.068  66.407  1.00  0.00    -0.243 A  
HETATM    8  O   UNL     2      -9.829  11.687  68.692  1.00  0.00    -0.203 OA 
HETATM    9  C   UNL     2     -11.815  13.223  64.374  1.00  0.00    -0.448 A  
HETATM   10  C   UNL     2     -11.666  12.198  66.556  1.00  0.00    -0.321 A  
HETATM   11  C   UNL     2     -12.431  12.736  65.528  1.00  0.00    -0.419 A  
HETATM   12  C   UNL     2      -9.667  12.556  65.246  1.00  0.00    -0.074 A  
HETATM   13  H   UNL     2     -13.270  11.935  67.798  1.00  0.00     0.000 HD 
HETATM   14  C   UNL     2     -10.430  13.153  64.245  1.00  0.00    -0.410 A  
ENDROOT
BRANCH   4  15
HETATM   15  C   UNL     1      -8.103  15.069  67.326  1.00  0.00    -0.210 C  
BRANCH  15  16
HETATM   16  N   UNL     1      -8.464  15.744  68.600  1.00  0.00    -0.180 NA 
BRANCH  16  17
HETATM   17  C   UNL     1      -7.905  17.124  68.698  1.00  0.00    -0.265 C  
BRANCH  17  18
HETATM   18  C   UNL     1      -6.435  17.331  69.107  1.00  0.00    -0.235 C  
HETATM   19  H   UNL     1      -4.642  17.492  68.252  1.00  0.00     0.000 HD 
HETATM   20  O   UNL     1      -5.549  17.365  68.000  1.00  0.00    -0.129 OA 
ENDBRANCH  17  18
ENDBRANCH  16  17
BRANCH  16  21
HETATM   21  C   UNL     1      -9.937  15.833  68.762  1.00  0.00    -0.214 C  
BRANCH  21  22
HETATM   22  C   UNL     1     -10.549  15.240  70.050  1.00  0.00    -0.270 C  
HETATM   23  O   UNL     1     -11.090  13.947  69.785  1.00  0.00    -0.436 OA 
HETATM   24  H   UNL     1     -11.466  13.583  70.578  1.00  0.00     0.000 HD 
ENDBRANCH  21  22
ENDBRANCH  16  21
ENDBRANCH  15  16
ENDBRANCH   4  15
TORSDOF 6
ENDMDL
MODEL      113
REMARK 921   NORMALIZED FREE ENERGY PREDICTED BY IDOCK:   -3.99 KCAL/MOL
REMARK 922        TOTAL FREE ENERGY PREDICTED BY IDOCK:   -6.24 KCAL/MOL
REMARK 923 INTER-LIGAND FREE ENERGY PREDICTED BY IDOCK:   -5.66 KCAL/MOL
REMARK 924 INTRA-LIGAND FREE ENERGY PREDICTED BY IDOCK:   -0.59 KCAL/MOL
REMARK 927      BINDING AFFINITY PREDICTED BY RF-SCORE:    0.00 PKD
ROOT
HETATM    1  O   UNL     1      -7.226  17.062  69.156  1.00  0.00    -0.245 OA 
HETATM    2  H   UNL     1      -6.328  17.087  68.850  1.00  0.00     0.000 HD 
HETATM    3  O   UNL     2      -6.951  13.274  66.960  1.00  0.00    -0.020 OA 
HETATM    4  C   UNL     1      -7.898  15.841  68.867  1.00  0.00    -0.190 C  
HETATM    5  O   UNL     2     -10.087  10.759  67.796  1.00  0.00    -0.168 OA 
HETATM    6  C   UNL     2      -8.003  12.716  67.588  1.00  0.00    -0.169 C  
HETATM    7  C   UNL     2      -9.301  12.881  66.904  1.00  0.00    -0.240 A  
HETATM    8  O   UNL     2      -7.911  12.106  68.647  1.00  0.00    -0.130 OA 
HETATM    9  C   UNL     2     -11.827  13.204  65.748  1.00  0.00    -0.442 A  
HETATM   10  C   UNL     2     -10.275  11.886  67.047  1.00  0.00    -0.210 A  
HETATM   11  C   UNL     2     -11.516  12.032  66.437  1.00  0.00    -0.417 A  
HETATM   12  C   UNL     2      -9.618  14.055  66.209  1.00  0.00    -0.284 A  
HETATM   13  H   UNL     2     -10.748  10.084  67.893  1.00  0.00     0.000 HD 
HETATM   14  C   UNL     2     -10.885  14.225  65.654  1.00  0.00    -0.311 A  
ENDROOT
BRANCH   4  15
HETATM   15  C   UNL     1      -9.367  15.799  69.369  1.00  0.00    -0.269 C  
BRANCH  15  16
HETATM   16  N   UNL     1     -10.415  16.160  68.378  1.00  0.00    -0.261 NA 
BRANCH  16  17
HETATM   17  C   UNL     1     -11.783  15.755  68.814  1.00  0.00    -0.378 C  
BRANCH  17  18
HETATM   18  C   UNL     1     -12.032  14.332  69.342  1.00  0.00    -0.337 C  
HETATM   19  H   UNL     1     -12.933  13.429  70.874  1.00  0.00     0.000 HD 
HETATM   20  O   UNL     1     -12.779  14.308  70.548  1.00  0.00    -0.343 OA 
ENDBRANCH  17  18
ENDBRANCH  16  17
BRANCH  16  21
HETATM   21  C   UNL     1     -10.428  17.622  68.119  1.00  0.00    -0.385 C  
BRANCH  21  22
HETATM   22  C   UNL     1     -10.322  18.086  66.650  1.00  0.00    -0.371 C  
HETATM   23  O   UNL     1      -9.124  17.582  66.062  1.00  0.00    -0.489 OA 
HETATM   24  H   UNL     1      -9.059  17.868  65.159  1.00  0.00     0.000 HD 
ENDBRANCH  21  22
ENDBRANCH  16  21
ENDBRANCH  15  16
ENDBRANCH   4  15
TORSDOF 6
ENDMDL
MODEL      114
REMARK 921   NORMALIZED FREE ENERGY PREDICTED BY IDOCK:   -3.97 KCAL/MOL
REMARK 922        TOTAL FREE ENERGY PREDICTED BY IDOCK:   -6.22 KCAL/MOL
REMARK 923 INTER-LIGAND FREE ENERGY PREDICTED BY IDOCK:   -5.82 KCAL/MOL
REMARK 924 INTRA-LIGAND FREE ENERGY PREDICTED BY IDOCK:   -0.40 KCAL/MOL
REMARK 927      BINDING AFFINITY PREDICTED BY RF-SCORE:    0.00 PKD
ROOT
HETATM    1  O   UNL     1      -8.042   9.973  70.624  1.00  0.00    -0.411 OA 
HETATM    2  H   UNL     1      -7.117  10.181  70.657  1.00  0.00     0.000 HD 
HETATM    3  O   UNL     2      -7.299  11.288  66.505  1.00  0.00    -0.143 OA 
HETATM    4  C   UNL     1      -8.607  10.070  69.321  1.00  0.00    -0.168 C  
HETATM    5  O   UNL     2     -10.370  10.282  63.973  1.00  0.00    -0.441 OA 
HETATM    6  C   UNL     2      -8.387  10.672  66.005  1.00  0.00    -0.160 C  
HETATM    7  C   UNL     2      -9.601  11.510  65.927  1.00  0.00    -0.254 A  
HETATM    8  O   UNL     2      -8.389   9.506  65.629  1.00  0.00    -0.119 OA 
HETATM    9  C   UNL     2     -11.984  12.969  65.811  1.00  0.00    -0.482 A  
HETATM   10  C   UNL     2     -10.529  11.266  64.907  1.00  0.00    -0.314 A  
HETATM   11  C   UNL     2     -11.694  12.021  64.830  1.00  0.00    -0.342 A  
HETATM   12  C   UNL     2      -9.895  12.464  66.908  1.00  0.00    -0.219 A  
HETATM   13  H   UNL     2     -11.001  10.117  63.281  1.00  0.00     0.000 HD 
HETATM   14  C   UNL     2     -11.094  13.173  66.863  1.00  0.00    -0.308 A  
ENDROOT
BRANCH   4  15
HETATM   15  C   UNL     1     -10.121   9.730  69.267  1.00  0.00    -0.198 C  
BRANCH  15  16
HETATM   16  N   UNL     1     -10.621   8.772  70.287  1.00  0.00    -0.210 NA 
BRANCH  16  17
HETATM   17  C   UNL     1     -12.023   9.060  70.709  1.00  0.00    -0.170 C  
BRANCH  17  18
HETATM   18  C   UNL     1     -12.684   8.214  71.812  1.00  0.00    -0.330 C  
HETATM   19  H   UNL     1     -14.339   8.213  72.922  1.00  0.00     0.000 HD 
HETATM   20  O   UNL     1     -13.931   8.735  72.241  1.00  0.00    -0.430 OA 
ENDBRANCH  17  18
ENDBRANCH  16  17
BRANCH  16  21
HETATM   21  C   UNL     1     -10.570   7.376  69.785  1.00  0.00    -0.236 C  
BRANCH  21  22
HETATM   22  C   UNL     1     -10.359   7.172  68.269  1.00  0.00    -0.195 C  
HETATM   23  O   UNL     1     -11.497   6.529  67.698  1.00  0.00    -0.694 OA 
HETATM   24  H   UNL     1     -11.367   6.403  66.765  1.00  0.00     0.000 HD 
ENDBRANCH  21  22
ENDBRANCH  16  21
ENDBRANCH  15  16
ENDBRANCH   4  15
TORSDOF 6
ENDMDL
MODEL      115
REMARK 921   NORMALIZED FREE ENERGY PREDICTED BY IDOCK:   -3.97 KCAL/MOL
REMARK 922        TOTAL FREE ENERGY PREDICTED BY IDOCK:   -6.22 KCAL/MOL
REMARK 923 INTER-LIGAND FREE ENERGY PREDICTED BY IDOCK:   -5.68 KCAL/MOL
REMARK 924 INTRA-LIGAND FREE ENERGY PREDICTED BY IDOCK:   -0.54 KCAL/MOL
REMARK 927      BINDING AFFINITY PREDICTED BY RF-SCORE:    0.00 PKD
ROOT
HETATM    1  O   UNL     1      -9.543   8.859  72.066  1.00  0.00    -0.305 OA 
HETATM    2  H   UNL     1      -8.646   8.879  72.378  1.00  0.00     0.000 HD 
HETATM    3  O   UNL     2      -7.374   9.942  68.410  1.00  0.00    -0.076 OA 
HETATM    4  C   UNL     1      -9.667   9.048  70.661  1.00  0.00    -0.234 C  
HETATM    5  O   UNL     2      -9.693   9.531  65.046  1.00  0.00    -0.434 OA 
HETATM    6  C   UNL     2      -8.363   9.548  67.585  1.00  0.00    -0.125 C  
HETATM    7  C   UNL     2      -9.313  10.608  67.194  1.00  0.00    -0.172 A  
HETATM    8  O   UNL     2      -8.480   8.400  67.172  1.00  0.00    -0.120 OA 
HETATM    9  C   UNL     2     -11.225  12.510  66.453  1.00  0.00    -0.353 A  
HETATM   10  C   UNL     2      -9.927  10.539  65.937  1.00  0.00    -0.254 A  
HETATM   11  C   UNL     2     -10.848  11.510  65.557  1.00  0.00    -0.313 A  
HETATM   12  C   UNL     2      -9.694  11.616  68.089  1.00  0.00    -0.189 A  
HETATM   13  H   UNL     2     -10.110   9.485  64.194  1.00  0.00     0.000 HD 
HETATM   14  C   UNL     2     -10.665  12.548  67.728  1.00  0.00    -0.242 A  
ENDROOT
BRANCH   4  15
HETATM   15  C   UNL     1     -11.133   9.014  70.151  1.00  0.00    -0.207 C  
BRANCH  15  16
HETATM   16  N   UNL     1     -11.883   7.751  70.376  1.00  0.00    -0.050 NA 
BRANCH  16  17
HETATM   17  C   UNL     1     -11.026   6.539  70.232  1.00  0.00    -0.310 C  
BRANCH  17  18
HETATM   18  C   UNL     1     -10.787   5.617  71.440  1.00  0.00    -0.222 C  
HETATM   19  H   UNL     1      -9.395   5.277  72.825  1.00  0.00     0.000 HD 
HETATM   20  O   UNL     1      -9.542   5.847  72.079  1.00  0.00    -0.151 OA 
ENDBRANCH  17  18
ENDBRANCH  16  17
BRANCH  16  21
HETATM   21  C   UNL     1     -12.494   7.724  71.729  1.00  0.00    -0.320 C  
BRANCH  21  22
HETATM   22  C   UNL     1     -13.128   9.031  72.252  1.00  0.00    -0.445 C  
HETATM   23  O   UNL     1     -14.024   8.745  73.325  1.00  0.00    -1.160 OA 
HETATM   24  H   UNL     1     -14.414   9.550  73.646  1.00  0.00     0.000 HD 
ENDBRANCH  21  22
ENDBRANCH  16  21
ENDBRANCH  15  16
ENDBRANCH   4  15
TORSDOF 6
ENDMDL
MODEL      116
REMARK 921   NORMALIZED FREE ENERGY PREDICTED BY IDOCK:   -3.97 KCAL/MOL
REMARK 922        TOTAL FREE ENERGY PREDICTED BY IDOCK:   -6.21 KCAL/MOL
REMARK 923 INTER-LIGAND FREE ENERGY PREDICTED BY IDOCK:   -5.47 KCAL/MOL
REMARK 924 INTRA-LIGAND FREE ENERGY PREDICTED BY IDOCK:   -0.74 KCAL/MOL
REMARK 927      BINDING AFFINITY PREDICTED BY RF-SCORE:    0.00 PKD
ROOT
HETATM    1  O   UNL     1     -10.508  10.843  64.668  1.00  0.00    -0.337 OA 
HETATM    2  H   UNL     1     -11.299  10.866  64.143  1.00  0.00     0.000 HD 
HETATM    3  O   UNL     2     -12.485  14.431  66.236  1.00  0.00    -0.393 OA 
HETATM    4  C   UNL     1     -10.464  11.836  65.686  1.00  0.00    -0.265 C  
HETATM    5  O   UNL     2     -10.825  15.705  69.768  1.00  0.00    -0.256 OA 
HETATM    6  C   UNL     2     -11.796  14.429  67.393  1.00  0.00    -0.400 C  
HETATM    7  C   UNL     2     -10.569  15.250  67.392  1.00  0.00    -0.282 A  
HETATM    8  O   UNL     2     -12.148  13.804  68.387  1.00  0.00    -0.368 OA 
HETATM    9  C   UNL     2      -8.179  16.700  67.486  1.00  0.00    -0.180 A  
HETATM   10  C   UNL     2     -10.151  15.846  68.589  1.00  0.00    -0.216 A  
HETATM   11  C   UNL     2      -8.983  16.600  68.622  1.00  0.00    -0.246 A  
HETATM   12  C   UNL     2      -9.759  15.356  66.255  1.00  0.00    -0.325 A  
HETATM   13  H   UNL     2     -10.541  16.109  70.580  1.00  0.00     0.000 HD 
HETATM   14  C   UNL     2      -8.556  16.058  66.309  1.00  0.00    -0.363 A  
ENDROOT
BRANCH   4  15
HETATM   15  C   UNL     1      -9.171  11.798  66.544  1.00  0.00    -0.201 C  
BRANCH  15  16
HETATM   16  N   UNL     1      -9.135  10.799  67.644  1.00  0.00    -0.146 NA 
BRANCH  16  17
HETATM   17  C   UNL     1      -7.746  10.473  68.081  1.00  0.00    -0.096 C  
BRANCH  17  18
HETATM   18  C   UNL     1      -7.504   9.835  69.461  1.00  0.00    -0.101 C  
HETATM   19  H   UNL     1      -6.006   9.541  70.743  1.00  0.00     0.000 HD 
HETATM   20  O   UNL     1      -6.156   9.935  69.891  1.00  0.00    -0.041 OA 
ENDBRANCH  17  18
ENDBRANCH  16  17
BRANCH  16  21
HETATM   21  C   UNL     1      -9.890  11.278  68.829  1.00  0.00    -0.184 C  
BRANCH  21  22
HETATM   22  C   UNL     1     -11.110  10.446  69.282  1.00  0.00    -0.253 C  
HETATM   23  O   UNL     1     -12.220  10.698  68.422  1.00  0.00    -0.822 OA 
HETATM   24  H   UNL     1     -12.971  10.187  68.701  1.00  0.00     0.000 HD 
ENDBRANCH  21  22
ENDBRANCH  16  21
ENDBRANCH  15  16
ENDBRANCH   4  15
TORSDOF 6
ENDMDL
MODEL      117
REMARK 921   NORMALIZED FREE ENERGY PREDICTED BY IDOCK:   -3.96 KCAL/MOL
REMARK 922        TOTAL FREE ENERGY PREDICTED BY IDOCK:   -6.21 KCAL/MOL
REMARK 923 INTER-LIGAND FREE ENERGY PREDICTED BY IDOCK:   -5.45 KCAL/MOL
REMARK 924 INTRA-LIGAND FREE ENERGY PREDICTED BY IDOCK:   -0.76 KCAL/MOL
REMARK 927      BINDING AFFINITY PREDICTED BY RF-SCORE:    0.00 PKD
ROOT
HETATM    1  O   UNL     1     -13.195  10.431  71.142  1.00  0.00    -0.373 OA 
HETATM    2  H   UNL     1     -13.994  10.678  71.591  1.00  0.00     0.000 HD 
HETATM    3  O   UNL     2     -13.216  14.778  70.548  1.00  0.00    -0.310 OA 
HETATM    4  C   UNL     1     -12.434  11.538  70.672  1.00  0.00    -0.314 C  
HETATM    5  O   UNL     2      -9.587  16.188  69.248  1.00  0.00    -0.238 OA 
HETATM    6  C   UNL     2     -11.896  14.851  70.292  1.00  0.00    -0.307 C  
HETATM    7  C   UNL     2     -11.530  14.777  68.863  1.00  0.00    -0.321 A  
HETATM    8  O   UNL     2     -11.046  14.978  71.165  1.00  0.00    -0.267 OA 
HETATM    9  C   UNL     2     -10.708  14.561  66.199  1.00  0.00    -0.310 A  
HETATM   10  C   UNL     2     -10.388  15.456  68.420  1.00  0.00    -0.229 A  
HETATM   11  C   UNL     2     -10.006  15.378  67.085  1.00  0.00    -0.234 A  
HETATM   12  C   UNL     2     -12.233  13.960  67.970  1.00  0.00    -0.188 A  
HETATM   13  H   UNL     2      -8.812  16.648  68.946  1.00  0.00     0.000 HD 
HETATM   14  C   UNL     2     -11.807  13.834  66.648  1.00  0.00    -0.445 A  
ENDROOT
BRANCH   4  15
HETATM   15  C   UNL     1     -11.126  11.134  69.938  1.00  0.00    -0.162 C  
BRANCH  15  16
HETATM   16  N   UNL     1     -10.839   9.678  69.852  1.00  0.00    -0.243 NA 
BRANCH  16  17
HETATM   17  C   UNL     1     -10.623   9.217  68.449  1.00  0.00    -0.172 C  
BRANCH  17  18
HETATM   18  C   UNL     1      -9.920   7.874  68.181  1.00  0.00    -0.180 C  
HETATM   19  H   UNL     1     -10.330   5.924  68.221  1.00  0.00     0.000 HD 
HETATM   20  O   UNL     1     -10.764   6.753  68.386  1.00  0.00    -0.213 OA 
ENDBRANCH  17  18
ENDBRANCH  16  17
BRANCH  16  21
HETATM   21  C   UNL     1      -9.636   9.320  70.644  1.00  0.00    -0.273 C  
BRANCH  21  22
HETATM   22  C   UNL     1      -9.859   8.620  72.002  1.00  0.00    -0.325 C  
HETATM   23  O   UNL     1     -11.254   8.549  72.293  1.00  0.00    -0.342 OA 
HETATM   24  H   UNL     1     -11.391   8.118  73.129  1.00  0.00     0.000 HD 
ENDBRANCH  21  22
ENDBRANCH  16  21
ENDBRANCH  15  16
ENDBRANCH   4  15
TORSDOF 6
ENDMDL
MODEL      118
REMARK 921   NORMALIZED FREE ENERGY PREDICTED BY IDOCK:   -3.96 KCAL/MOL
REMARK 922        TOTAL FREE ENERGY PREDICTED BY IDOCK:   -6.21 KCAL/MOL
REMARK 923 INTER-LIGAND FREE ENERGY PREDICTED BY IDOCK:   -5.32 KCAL/MOL
REMARK 924 INTRA-LIGAND FREE ENERGY PREDICTED BY IDOCK:   -0.89 KCAL/MOL
REMARK 927      BINDING AFFINITY PREDICTED BY RF-SCORE:    0.00 PKD
ROOT
HETATM    1  O   UNL     1      -9.607   8.156  73.573  1.00  0.00    -0.222 OA 
HETATM    2  H   UNL     1      -9.421   7.339  74.020  1.00  0.00     0.000 HD 
HETATM    3  O   UNL     2      -9.709   5.303  70.243  1.00  0.00    -0.168 OA 
HETATM    4  C   UNL     1      -9.923   7.999  72.195  1.00  0.00    -0.225 C  
HETATM    5  O   UNL     2     -11.408   6.910  66.868  1.00  0.00    -0.681 OA 
HETATM    6  C   UNL     2     -10.429   6.110  69.440  1.00  0.00    -0.256 C  
HETATM    7  C   UNL     2      -9.634   6.960  68.532  1.00  0.00    -0.131 A  
HETATM    8  O   UNL     2     -11.654   6.146  69.443  1.00  0.00    -0.372 OA 
HETATM    9  C   UNL     2      -8.236   8.682  66.827  1.00  0.00    -0.108 A  
HETATM   10  C   UNL     2     -10.173   7.313  67.288  1.00  0.00    -0.253 A  
HETATM   11  C   UNL     2      -9.457   8.137  66.427  1.00  0.00    -0.285 A  
HETATM   12  C   UNL     2      -8.408   7.508  68.928  1.00  0.00    -0.129 A  
HETATM   13  H   UNL     2     -11.774   7.150  66.025  1.00  0.00     0.000 HD 
HETATM   14  C   UNL     2      -7.724   8.385  68.087  1.00  0.00    -0.103 A  
ENDROOT
BRANCH   4  15
HETATM   15  C   UNL     1     -10.228   9.335  71.464  1.00  0.00    -0.268 C  
BRANCH  15  16
HETATM   16  N   UNL     1     -11.567   9.449  70.828  1.00  0.00    -0.286 NA 
BRANCH  16  17
HETATM   17  C   UNL     1     -12.542  10.202  71.671  1.00  0.00    -0.434 C  
BRANCH  17  18
HETATM   18  C   UNL     1     -13.648   9.445  72.428  1.00  0.00    -0.429 C  
HETATM   19  H   UNL     1     -14.770   7.812  72.220  1.00  0.00     0.000 HD 
HETATM   20  O   UNL     1     -14.087   8.278  71.752  1.00  0.00    -0.393 OA 
ENDBRANCH  17  18
ENDBRANCH  16  17
BRANCH  16  21
HETATM   21  C   UNL     1     -11.479  10.128  69.511  1.00  0.00    -0.168 C  
BRANCH  21  22
HETATM   22  C   UNL     1     -10.213  10.963  69.222  1.00  0.00    -0.166 C  
HETATM   23  O   UNL     1     -10.578  12.264  68.763  1.00  0.00    -0.245 OA 
HETATM   24  H   UNL     1      -9.799  12.778  68.585  1.00  0.00     0.000 HD 
ENDBRANCH  21  22
ENDBRANCH  16  21
ENDBRANCH  15  16
ENDBRANCH   4  15
TORSDOF 6
ENDMDL
MODEL      119
REMARK 921   NORMALIZED FREE ENERGY PREDICTED BY IDOCK:   -3.95 KCAL/MOL
REMARK 922        TOTAL FREE ENERGY PREDICTED BY IDOCK:   -6.20 KCAL/MOL
REMARK 923 INTER-LIGAND FREE ENERGY PREDICTED BY IDOCK:   -5.87 KCAL/MOL
REMARK 924 INTRA-LIGAND FREE ENERGY PREDICTED BY IDOCK:   -0.33 KCAL/MOL
REMARK 927      BINDING AFFINITY PREDICTED BY RF-SCORE:    0.00 PKD
ROOT
HETATM    1  O   UNL     1     -12.772  13.875  64.302  1.00  0.00    -0.664 OA 
HETATM    2  H   UNL     1     -12.817  14.373  63.495  1.00  0.00     0.000 HD 
HETATM    3  O   UNL     2     -10.260  17.338  65.275  1.00  0.00    -0.563 OA 
HETATM    4  C   UNL     1     -12.074  14.540  65.349  1.00  0.00    -0.317 C  
HETATM    5  O   UNL     2      -9.508  17.632  69.301  1.00  0.00    -0.071 OA 
HETATM    6  C   UNL     2     -10.372  17.173  66.607  1.00  0.00    -0.310 C  
HETATM    7  C   UNL     2      -9.301  16.370  67.232  1.00  0.00    -0.227 A  
HETATM    8  O   UNL     2     -11.284  17.651  67.272  1.00  0.00     0.012 OA 
HETATM    9  C   UNL     2      -7.379  14.794  68.515  1.00  0.00    -0.118 A  
HETATM   10  C   UNL     2      -8.928  16.648  68.552  1.00  0.00    -0.235 A  
HETATM   11  C   UNL     2      -7.943  15.888  69.173  1.00  0.00    -0.233 A  
HETATM   12  C   UNL     2      -8.732  15.273  66.575  1.00  0.00    -0.314 A  
HETATM   13  H   UNL     2      -9.255  17.820  70.197  1.00  0.00     0.000 HD 
HETATM   14  C   UNL     2      -7.792  14.474  67.224  1.00  0.00    -0.199 A  
ENDROOT
BRANCH   4  15
HETATM   15  C   UNL     1     -12.000  13.726  66.669  1.00  0.00    -0.431 C  
BRANCH  15  16
HETATM   16  N   UNL     1     -11.485  12.336  66.561  1.00  0.00    -0.364 NA 
BRANCH  16  17
HETATM   17  C   UNL     1     -10.425  12.194  65.521  1.00  0.00    -0.265 C  
BRANCH  17  18
HETATM   18  C   UNL     1     -10.556  11.115  64.431  1.00  0.00    -0.343 C  
HETATM   19  H   UNL     1      -9.500   9.605  63.672  1.00  0.00     0.000 HD 
HETATM   20  O   UNL     1      -9.419  10.271  64.344  1.00  0.00    -0.255 OA 
ENDBRANCH  17  18
ENDBRANCH  16  17
BRANCH  16  21
HETATM   21  C   UNL     1     -10.924  11.869  67.854  1.00  0.00    -0.222 C  
BRANCH  21  22
HETATM   22  C   UNL     1     -11.921  11.386  68.930  1.00  0.00    -0.304 C  
HETATM   23  O   UNL     1     -11.866   9.965  69.046  1.00  0.00    -0.445 OA 
HETATM   24  H   UNL     1     -12.480   9.668  69.708  1.00  0.00     0.000 HD 
ENDBRANCH  21  22
ENDBRANCH  16  21
ENDBRANCH  15  16
ENDBRANCH   4  15
TORSDOF 6
ENDMDL
MODEL      120
REMARK 921   NORMALIZED FREE ENERGY PREDICTED BY IDOCK:   -3.95 KCAL/MOL
REMARK 922        TOTAL FREE ENERGY PREDICTED BY IDOCK:   -6.19 KCAL/MOL
REMARK 923 INTER-LIGAND FREE ENERGY PREDICTED BY IDOCK:   -5.53 KCAL/MOL
REMARK 924 INTRA-LIGAND FREE ENERGY PREDICTED BY IDOCK:   -0.66 KCAL/MOL
REMARK 927      BINDING AFFINITY PREDICTED BY RF-SCORE:    0.00 PKD
ROOT
HETATM    1  O   UNL     1     -11.792  15.891  64.065  1.00  0.00    -1.008 OA 
HETATM    2  H   UNL     1     -12.163  15.590  63.245  1.00  0.00     0.000 HD 
HETATM    3  O   UNL     2     -11.199  11.556  64.383  1.00  0.00    -0.321 OA 
HETATM    4  C   UNL     1     -11.177  14.861  64.830  1.00  0.00    -0.410 C  
HETATM    5  O   UNL     2      -8.590  10.560  67.393  1.00  0.00    -0.122 OA 
HETATM    6  C   UNL     2     -10.230  11.655  65.313  1.00  0.00    -0.272 C  
HETATM    7  C   UNL     2     -10.693  11.574  66.713  1.00  0.00    -0.311 A  
HETATM    8  O   UNL     2      -9.043  11.794  65.039  1.00  0.00     0.017 OA 
HETATM    9  C   UNL     2     -11.460  11.523  69.402  1.00  0.00    -0.376 A  
HETATM   10  C   UNL     2      -9.841  11.026  67.679  1.00  0.00    -0.172 A  
HETATM   11  C   UNL     2     -10.242  10.966  69.009  1.00  0.00    -0.219 A  
HETATM   12  C   UNL     2     -11.915  12.130  67.112  1.00  0.00    -0.149 A  
HETATM   13  H   UNL     2      -8.012  10.188  68.049  1.00  0.00     0.000 HD 
HETATM   14  C   UNL     2     -12.285  12.126  68.456  1.00  0.00     0.099 A  
ENDROOT
BRANCH   4  15
HETATM   15  C   UNL     1     -10.570  15.354  66.172  1.00  0.00    -0.316 C  
BRANCH  15  16
HETATM   16  N   UNL     1      -9.086  15.399  66.250  1.00  0.00    -0.309 NA 
BRANCH  16  17
HETATM   17  C   UNL     1      -8.556  16.792  66.325  1.00  0.00    -0.305 C  
BRANCH  17  18
HETATM   18  C   UNL     1      -9.526  17.976  66.486  1.00  0.00    -0.301 C  
HETATM   19  H   UNL     1     -10.923  18.933  65.435  1.00  0.00     0.000 HD 
HETATM   20  O   UNL     1     -10.325  18.202  65.336  1.00  0.00    -0.537 OA 
ENDBRANCH  17  18
ENDBRANCH  16  17
BRANCH  16  21
HETATM   21  C   UNL     1      -8.587  14.653  67.432  1.00  0.00    -0.199 C  
BRANCH  21  22
HETATM   22  C   UNL     1      -7.295  13.825  67.259  1.00  0.00     0.002 C  
HETATM   23  O   UNL     1      -6.154  14.631  67.549  1.00  0.00    -0.323 OA 
HETATM   24  H   UNL     1      -5.360  14.121  67.443  1.00  0.00     0.000 HD 
ENDBRANCH  21  22
ENDBRANCH  16  21
ENDBRANCH  15  16
ENDBRANCH   4  15
TORSDOF 6
ENDMDL
MODEL      121
REMARK 921   NORMALIZED FREE ENERGY PREDICTED BY IDOCK:   -3.94 KCAL/MOL
REMARK 922        TOTAL FREE ENERGY PREDICTED BY IDOCK:   -6.19 KCAL/MOL
REMARK 923 INTER-LIGAND FREE ENERGY PREDICTED BY IDOCK:   -5.68 KCAL/MOL
REMARK 924 INTRA-LIGAND FREE ENERGY PREDICTED BY IDOCK:   -0.51 KCAL/MOL
REMARK 927      BINDING AFFINITY PREDICTED BY RF-SCORE:    0.00 PKD
ROOT
HETATM    1  O   UNL     1      -9.661  15.792  65.495  1.00  0.00    -0.322 OA 
HETATM    2  H   UNL     1      -9.625  15.586  64.569  1.00  0.00     0.000 HD 
HETATM    3  O   UNL     2      -9.334  11.419  65.593  1.00  0.00    -0.223 OA 
HETATM    4  C   UNL     1      -9.471  14.666  66.343  1.00  0.00    -0.299 C  
HETATM    5  O   UNL     2      -8.380  10.013  69.330  1.00  0.00    -0.137 OA 
HETATM    6  C   UNL     2      -8.888  11.379  66.863  1.00  0.00    -0.173 C  
HETATM    7  C   UNL     2      -9.935  11.205  67.889  1.00  0.00    -0.189 A  
HETATM    8  O   UNL     2      -7.704  11.471  67.165  1.00  0.00    -0.143 OA 
HETATM    9  C   UNL     2     -11.835  10.967  69.929  1.00  0.00    -0.427 A  
HETATM   10  C   UNL     2      -9.619  10.526  69.073  1.00  0.00    -0.202 A  
HETATM   11  C   UNL     2     -10.578  10.375  70.067  1.00  0.00    -0.282 A  
HETATM   12  C   UNL     2     -11.198  11.795  67.754  1.00  0.00    -0.331 A  
HETATM   13  H   UNL     2      -8.166   9.553  70.134  1.00  0.00     0.000 HD 
HETATM   14  C   UNL     2     -12.135  11.697  68.781  1.00  0.00    -0.221 A  
ENDROOT
BRANCH   4  15
HETATM   15  C   UNL     1      -9.529  15.003  67.857  1.00  0.00    -0.195 C  
BRANCH  15  16
HETATM   16  N   UNL     1     -10.550  16.000  68.274  1.00  0.00    -0.271 NA 
BRANCH  16  17
HETATM   17  C   UNL     1     -11.480  15.470  69.314  1.00  0.00    -0.340 C  
BRANCH  17  18
HETATM   18  C   UNL     1     -11.069  15.494  70.797  1.00  0.00    -0.351 C  
HETATM   19  H   UNL     1     -11.472  14.520  72.488  1.00  0.00     0.000 HD 
HETATM   20  O   UNL     1     -11.726  14.505  71.573  1.00  0.00    -0.300 OA 
ENDBRANCH  17  18
ENDBRANCH  16  17
BRANCH  16  21
HETATM   21  C   UNL     1      -9.914  17.229  68.810  1.00  0.00    -0.325 C  
BRANCH  21  22
HETATM   22  C   UNL     1     -10.094  18.534  68.004  1.00  0.00    -0.371 C  
HETATM   23  O   UNL     1     -10.318  19.630  68.889  1.00  0.00    -0.577 OA 
HETATM   24  H   UNL     1     -10.429  20.432  68.393  1.00  0.00     0.000 HD 
ENDBRANCH  21  22
ENDBRANCH  16  21
ENDBRANCH  15  16
ENDBRANCH   4  15
TORSDOF 6
ENDMDL
MODEL      122
REMARK 921   NORMALIZED FREE ENERGY PREDICTED BY IDOCK:   -3.93 KCAL/MOL
REMARK 922        TOTAL FREE ENERGY PREDICTED BY IDOCK:   -6.17 KCAL/MOL
REMARK 923 INTER-LIGAND FREE ENERGY PREDICTED BY IDOCK:   -5.57 KCAL/MOL
REMARK 924 INTRA-LIGAND FREE ENERGY PREDICTED BY IDOCK:   -0.60 KCAL/MOL
REMARK 927      BINDING AFFINITY PREDICTED BY RF-SCORE:    0.00 PKD
ROOT
HETATM    1  O   UNL     1      -8.028  15.789  66.564  1.00  0.00    -0.248 OA 
HETATM    2  H   UNL     1      -8.361  16.140  65.748  1.00  0.00     0.000 HD 
HETATM    3  O   UNL     2     -11.871  13.701  66.226  1.00  0.00    -0.352 OA 
HETATM    4  C   UNL     1      -8.837  14.759  67.120  1.00  0.00    -0.216 C  
HETATM    5  O   UNL     2     -12.151  10.528  68.816  1.00  0.00    -0.739 OA 
HETATM    6  C   UNL     2     -11.521  12.709  67.067  1.00  0.00    -0.346 C  
HETATM    7  C   UNL     2     -11.897  12.923  68.479  1.00  0.00    -0.350 A  
HETATM    8  O   UNL     2     -10.941  11.692  66.707  1.00  0.00    -0.264 OA 
HETATM    9  C   UNL     2     -12.479  13.255  71.194  1.00  0.00    -0.397 A  
HETATM   10  C   UNL     2     -12.194  11.812  69.278  1.00  0.00    -0.140 A  
HETATM   11  C   UNL     2     -12.522  11.985  70.618  1.00  0.00    -0.335 A  
HETATM   12  C   UNL     2     -11.858  14.196  69.061  1.00  0.00    -0.384 A  
HETATM   13  H   UNL     2     -12.352   9.774  69.359  1.00  0.00     0.000 HD 
HETATM   14  C   UNL     2     -12.124  14.357  70.420  1.00  0.00    -0.399 A  
ENDROOT
BRANCH   4  15
HETATM   15  C   UNL     1      -8.291  14.184  68.455  1.00  0.00    -0.155 C  
BRANCH  15  16
HETATM   16  N   UNL     1      -7.691  12.825  68.394  1.00  0.00    -0.131 NA 
BRANCH  16  17
HETATM   17  C   UNL     1      -7.615  12.292  67.002  1.00  0.00    -0.071 C  
BRANCH  17  18
HETATM   18  C   UNL     1      -7.198  10.830  66.761  1.00  0.00    -0.128 C  
HETATM   19  H   UNL     1      -7.929   8.993  67.011  1.00  0.00     0.000 HD 
HETATM   20  O   UNL     1      -8.187   9.896  67.160  1.00  0.00    -0.119 OA 
ENDBRANCH  17  18
ENDBRANCH  16  17
BRANCH  16  21
HETATM   21  C   UNL     1      -6.320  12.818  68.964  1.00  0.00    -0.096 C  
BRANCH  21  22
HETATM   22  C   UNL     1      -5.968  13.919  69.988  1.00  0.00    -0.143 C  
HETATM   23  O   UNL     1      -6.153  13.430  71.315  1.00  0.00    -0.554 OA 
HETATM   24  H   UNL     1      -5.936  14.108  71.945  1.00  0.00     0.000 HD 
ENDBRANCH  21  22
ENDBRANCH  16  21
ENDBRANCH  15  16
ENDBRANCH   4  15
TORSDOF 6
ENDMDL
MODEL      123
REMARK 921   NORMALIZED FREE ENERGY PREDICTED BY IDOCK:   -3.93 KCAL/MOL
REMARK 922        TOTAL FREE ENERGY PREDICTED BY IDOCK:   -6.17 KCAL/MOL
REMARK 923 INTER-LIGAND FREE ENERGY PREDICTED BY IDOCK:   -5.98 KCAL/MOL
REMARK 924 INTRA-LIGAND FREE ENERGY PREDICTED BY IDOCK:   -0.19 KCAL/MOL
REMARK 927      BINDING AFFINITY PREDICTED BY RF-SCORE:    0.00 PKD
ROOT
HETATM    1  O   UNL     1     -12.544  14.254  63.491  1.00  0.00    -1.039 OA 
HETATM    2  H   UNL     1     -12.339  14.805  62.745  1.00  0.00     0.000 HD 
HETATM    3  O   UNL     2      -9.853  17.205  65.306  1.00  0.00    -0.330 OA 
HETATM    4  C   UNL     1     -12.011  14.730  64.722  1.00  0.00    -0.404 C  
HETATM    5  O   UNL     2      -9.982  17.112  69.409  1.00  0.00    -0.186 OA 
HETATM    6  C   UNL     2     -10.281  16.973  66.562  1.00  0.00    -0.320 C  
HETATM    7  C   UNL     2      -9.499  15.972  67.315  1.00  0.00    -0.220 A  
HETATM    8  O   UNL     2     -11.242  17.544  67.064  1.00  0.00     0.137 OA 
HETATM    9  C   UNL     2      -8.149  14.032  68.811  1.00  0.00    -0.065 A  
HETATM   10  C   UNL     2      -9.393  16.100  68.706  1.00  0.00    -0.229 A  
HETATM   11  C   UNL     2      -8.687  15.155  69.441  1.00  0.00    -0.173 A  
HETATM   12  C   UNL     2      -8.956  14.844  66.688  1.00  0.00    -0.301 A  
HETATM   13  H   UNL     2      -9.911  17.198  70.353  1.00  0.00     0.000 HD 
HETATM   14  C   UNL     2      -8.305  13.866  67.437  1.00  0.00    -0.208 A  
ENDROOT
BRANCH   4  15
HETATM   15  C   UNL     1     -12.347  13.829  65.941  1.00  0.00    -0.476 C  
BRANCH  15  16
HETATM   16  N   UNL     1     -11.318  12.828  66.328  1.00  0.00    -0.304 NA 
BRANCH  16  17
HETATM   17  C   UNL     1     -11.672  12.093  67.577  1.00  0.00    -0.315 C  
BRANCH  17  18
HETATM   18  C   UNL     1     -11.460  12.760  68.948  1.00  0.00    -0.305 C  
HETATM   19  H   UNL     1     -12.068  14.373  69.949  1.00  0.00     0.000 HD 
HETATM   20  O   UNL     1     -12.198  13.961  69.102  1.00  0.00    -0.356 OA 
ENDBRANCH  17  18
ENDBRANCH  16  17
BRANCH  16  21
HETATM   21  C   UNL     1     -11.109  11.829  65.250  1.00  0.00    -0.276 C  
BRANCH  21  22
HETATM   22  C   UNL     1      -9.926  12.060  64.285  1.00  0.00    -0.240 C  
HETATM   23  O   UNL     1      -8.896  11.104  64.535  1.00  0.00    -0.367 OA 
HETATM   24  H   UNL     1      -8.168  11.246  63.941  1.00  0.00     0.000 HD 
ENDBRANCH  21  22
ENDBRANCH  16  21
ENDBRANCH  15  16
ENDBRANCH   4  15
TORSDOF 6
ENDMDL
MODEL      124
REMARK 921   NORMALIZED FREE ENERGY PREDICTED BY IDOCK:   -3.92 KCAL/MOL
REMARK 922        TOTAL FREE ENERGY PREDICTED BY IDOCK:   -6.15 KCAL/MOL
REMARK 923 INTER-LIGAND FREE ENERGY PREDICTED BY IDOCK:   -5.83 KCAL/MOL
REMARK 924 INTRA-LIGAND FREE ENERGY PREDICTED BY IDOCK:   -0.32 KCAL/MOL
REMARK 927      BINDING AFFINITY PREDICTED BY RF-SCORE:    0.00 PKD
ROOT
HETATM    1  O   UNL     1      -9.877   7.528  69.121  1.00  0.00    -0.165 OA 
HETATM    2  H   UNL     1      -9.925   7.032  68.312  1.00  0.00     0.000 HD 
HETATM    3  O   UNL     2     -10.738  10.694  66.209  1.00  0.00    -0.197 OA 
HETATM    4  C   UNL     1     -10.215   8.903  68.973  1.00  0.00    -0.206 C  
HETATM    5  O   UNL     2     -11.909  14.191  68.014  1.00  0.00    -0.341 OA 
HETATM    6  C   UNL     2     -11.203  11.557  67.132  1.00  0.00    -0.301 C  
HETATM    7  C   UNL     2     -10.200  12.494  67.676  1.00  0.00    -0.220 A  
HETATM    8  O   UNL     2     -12.371  11.584  67.503  1.00  0.00    -0.202 OA 
HETATM    9  C   UNL     2      -8.373  14.261  68.844  1.00  0.00    -0.041 A  
HETATM   10  C   UNL     2     -10.613  13.767  68.088  1.00  0.00    -0.253 A  
HETATM   11  C   UNL     2      -9.694  14.657  68.631  1.00  0.00    -0.220 A  
HETATM   12  C   UNL     2      -8.873  12.102  67.890  1.00  0.00    -0.177 A  
HETATM   13  H   UNL     2     -12.190  15.055  68.293  1.00  0.00     0.000 HD 
HETATM   14  C   UNL     2      -7.969  12.975  68.494  1.00  0.00    -0.090 A  
ENDROOT
BRANCH   4  15
HETATM   15  C   UNL     1     -10.138   9.714  70.295  1.00  0.00    -0.275 C  
BRANCH  15  16
HETATM   16  N   UNL     1     -11.385   9.788  71.099  1.00  0.00    -0.373 NA 
BRANCH  16  17
HETATM   17  C   UNL     1     -12.389  10.727  70.517  1.00  0.00    -0.369 C  
BRANCH  17  18
HETATM   18  C   UNL     1     -12.487  12.170  71.042  1.00  0.00    -0.269 C  
HETATM   19  H   UNL     1     -13.394  13.186  72.498  1.00  0.00     0.000 HD 
HETATM   20  O   UNL     1     -13.333  12.295  72.174  1.00  0.00    -0.526 OA 
ENDBRANCH  17  18
ENDBRANCH  16  17
BRANCH  16  21
HETATM   21  C   UNL     1     -12.023   8.454  71.226  1.00  0.00    -0.288 C  
BRANCH  21  22
HETATM   22  C   UNL     1     -13.473   8.405  71.753  1.00  0.00    -0.364 C  
HETATM   23  O   UNL     1     -13.505   8.760  73.135  1.00  0.00    -0.953 OA 
HETATM   24  H   UNL     1     -14.398   8.730  73.459  1.00  0.00     0.000 HD 
ENDBRANCH  21  22
ENDBRANCH  16  21
ENDBRANCH  15  16
ENDBRANCH   4  15
TORSDOF 6
ENDMDL
MODEL      125
REMARK 921   NORMALIZED FREE ENERGY PREDICTED BY IDOCK:   -3.92 KCAL/MOL
REMARK 922        TOTAL FREE ENERGY PREDICTED BY IDOCK:   -6.15 KCAL/MOL
REMARK 923 INTER-LIGAND FREE ENERGY PREDICTED BY IDOCK:   -5.64 KCAL/MOL
REMARK 924 INTRA-LIGAND FREE ENERGY PREDICTED BY IDOCK:   -0.50 KCAL/MOL
REMARK 927      BINDING AFFINITY PREDICTED BY RF-SCORE:    0.00 PKD
ROOT
HETATM    1  O   UNL     1      -8.759  14.346  66.213  1.00  0.00    -0.457 OA 
HETATM    2  H   UNL     1      -7.868  14.549  65.954  1.00  0.00     0.000 HD 
HETATM    3  O   UNL     2      -6.607  10.803  67.650  1.00  0.00    -0.060 OA 
HETATM    4  C   UNL     1      -8.877  13.155  66.982  1.00  0.00    -0.210 C  
HETATM    5  O   UNL     2      -8.863   8.559  70.244  1.00  0.00    -0.138 OA 
HETATM    6  C   UNL     2      -7.565  10.453  68.529  1.00  0.00    -0.095 C  
HETATM    7  C   UNL     2      -8.564   9.493  68.018  1.00  0.00    -0.120 A  
HETATM    8  O   UNL     2      -7.618  10.882  69.676  1.00  0.00    -0.100 OA 
HETATM    9  C   UNL     2     -10.563   7.746  67.138  1.00  0.00    -0.401 A  
HETATM   10  C   UNL     2      -9.159   8.593  68.911  1.00  0.00    -0.145 A  
HETATM   11  C   UNL     2     -10.124   7.699  68.461  1.00  0.00    -0.205 A  
HETATM   12  C   UNL     2      -9.006   9.534  66.691  1.00  0.00    -0.168 A  
HETATM   13  H   UNL     2      -9.267   7.949  70.850  1.00  0.00     0.000 HD 
HETATM   14  C   UNL     2     -10.020   8.680  66.259  1.00  0.00    -0.287 A  
ENDROOT
BRANCH   4  15
HETATM   15  C   UNL     1     -10.333  12.822  67.406  1.00  0.00    -0.222 C  
BRANCH  15  16
HETATM   16  N   UNL     1     -11.287  13.961  67.443  1.00  0.00    -0.311 NA 
BRANCH  16  17
HETATM   17  C   UNL     1     -12.363  13.844  66.416  1.00  0.00    -0.426 C  
BRANCH  17  18
HETATM   18  C   UNL     1     -12.099  13.074  65.110  1.00  0.00    -0.433 C  
HETATM   19  H   UNL     1     -13.113  12.051  63.733  1.00  0.00     0.000 HD 
HETATM   20  O   UNL     1     -13.276  12.526  64.539  1.00  0.00    -0.832 OA 
ENDBRANCH  17  18
ENDBRANCH  16  17
BRANCH  16  21
HETATM   21  C   UNL     1     -11.933  14.078  68.775  1.00  0.00    -0.347 C  
BRANCH  21  22
HETATM   22  C   UNL     1     -11.664  12.954  69.798  1.00  0.00    -0.281 C  
HETATM   23  O   UNL     1     -12.201  13.312  71.071  1.00  0.00    -0.406 OA 
HETATM   24  H   UNL     1     -12.035  12.620  71.701  1.00  0.00     0.000 HD 
ENDBRANCH  21  22
ENDBRANCH  16  21
ENDBRANCH  15  16
ENDBRANCH   4  15
TORSDOF 6
ENDMDL
MODEL      126
REMARK 921   NORMALIZED FREE ENERGY PREDICTED BY IDOCK:   -3.91 KCAL/MOL
REMARK 922        TOTAL FREE ENERGY PREDICTED BY IDOCK:   -6.14 KCAL/MOL
REMARK 923 INTER-LIGAND FREE ENERGY PREDICTED BY IDOCK:   -5.05 KCAL/MOL
REMARK 924 INTRA-LIGAND FREE ENERGY PREDICTED BY IDOCK:   -1.09 KCAL/MOL
REMARK 927      BINDING AFFINITY PREDICTED BY RF-SCORE:    0.00 PKD
ROOT
HETATM    1  O   UNL     1     -12.001  12.059  69.675  1.00  0.00    -0.307 OA 
HETATM    2  H   UNL     1     -12.728  12.310  70.232  1.00  0.00     0.000 HD 
HETATM    3  O   UNL     2     -12.469   8.471  72.154  1.00  0.00    -0.336 OA 
HETATM    4  C   UNL     1     -11.581  10.711  69.848  1.00  0.00    -0.316 C  
HETATM    5  O   UNL     2     -10.434   5.248  70.627  1.00  0.00    -0.260 OA 
HETATM    6  C   UNL     2     -11.826   7.665  71.287  1.00  0.00    -0.292 C  
HETATM    7  C   UNL     2     -10.380   7.503  71.537  1.00  0.00    -0.216 A  
HETATM    8  O   UNL     2     -12.383   7.092  70.358  1.00  0.00    -0.208 OA 
HETATM    9  C   UNL     2      -7.619   7.190  71.854  1.00  0.00    -0.087 A  
HETATM   10  C   UNL     2      -9.762   6.295  71.190  1.00  0.00    -0.175 A  
HETATM   11  C   UNL     2      -8.396   6.129  71.388  1.00  0.00    -0.123 A  
HETATM   12  C   UNL     2      -9.596   8.564  72.007  1.00  0.00    -0.371 A  
HETATM   13  H   UNL     2     -10.015   4.429  70.391  1.00  0.00     0.000 HD 
HETATM   14  C   UNL     2      -8.217   8.414  72.142  1.00  0.00    -0.207 A  
ENDROOT
BRANCH   4  15
HETATM   15  C   UNL     1     -10.393  10.301  68.936  1.00  0.00    -0.204 C  
BRANCH  15  16
HETATM   16  N   UNL     1     -10.728   9.475  67.746  1.00  0.00    -0.262 NA 
BRANCH  16  17
HETATM   17  C   UNL     1     -10.225  10.069  66.473  1.00  0.00    -0.224 C  
BRANCH  17  18
HETATM   18  C   UNL     1     -10.591  11.517  66.103  1.00  0.00    -0.266 C  
HETATM   19  H   UNL     1     -11.337  12.536  64.561  1.00  0.00     0.000 HD 
HETATM   20  O   UNL     1     -11.111  11.642  64.789  1.00  0.00    -0.304 OA 
ENDBRANCH  17  18
ENDBRANCH  16  17
BRANCH  16  21
HETATM   21  C   UNL     1     -10.165   8.106  67.868  1.00  0.00    -0.218 C  
BRANCH  21  22
HETATM   22  C   UNL     1     -10.795   6.997  66.998  1.00  0.00    -0.343 C  
HETATM   23  O   UNL     1     -11.141   5.875  67.810  1.00  0.00    -0.329 OA 
HETATM   24  H   UNL     1     -11.528   5.193  67.274  1.00  0.00     0.000 HD 
ENDBRANCH  21  22
ENDBRANCH  16  21
ENDBRANCH  15  16
ENDBRANCH   4  15
TORSDOF 6
ENDMDL
MODEL      127
REMARK 921   NORMALIZED FREE ENERGY PREDICTED BY IDOCK:   -3.91 KCAL/MOL
REMARK 922        TOTAL FREE ENERGY PREDICTED BY IDOCK:   -6.13 KCAL/MOL
REMARK 923 INTER-LIGAND FREE ENERGY PREDICTED BY IDOCK:   -5.73 KCAL/MOL
REMARK 924 INTRA-LIGAND FREE ENERGY PREDICTED BY IDOCK:   -0.40 KCAL/MOL
REMARK 927      BINDING AFFINITY PREDICTED BY RF-SCORE:    0.00 PKD
ROOT
HETATM    1  O   UNL     1     -10.699  13.322  69.314  1.00  0.00    -0.430 OA 
HETATM    2  H   UNL     1     -10.368  13.046  70.160  1.00  0.00     0.000 HD 
HETATM    3  O   UNL     2      -6.924  15.545  69.540  1.00  0.00    -0.168 OA 
HETATM    4  C   UNL     1      -9.794  14.142  68.583  1.00  0.00    -0.206 C  
HETATM    5  O   UNL     2      -5.811  17.098  65.906  1.00  0.00    -0.190 OA 
HETATM    6  C   UNL     2      -6.841  15.741  68.210  1.00  0.00    -0.118 C  
HETATM    7  C   UNL     2      -7.422  17.010  67.727  1.00  0.00    -0.177 A  
HETATM    8  O   UNL     2      -6.321  14.941  67.442  1.00  0.00    -0.315 OA 
HETATM    9  C   UNL     2      -8.565  19.338  66.680  1.00  0.00    -0.339 A  
HETATM   10  C   UNL     2      -6.869  17.620  66.594  1.00  0.00    -0.217 A  
HETATM   11  C   UNL     2      -7.416  18.800  66.101  1.00  0.00    -0.287 A  
HETATM   12  C   UNL     2      -8.574  17.555  68.306  1.00  0.00    -0.266 A  
HETATM   13  H   UNL     2      -5.437  17.512  65.137  1.00  0.00     0.000 HD 
HETATM   14  C   UNL     2      -9.157  18.701  67.769  1.00  0.00    -0.303 A  
ENDROOT
BRANCH   4  15
HETATM   15  C   UNL     1     -10.334  14.594  67.199  1.00  0.00    -0.265 C  
BRANCH  15  16
HETATM   16  N   UNL     1     -10.987  13.548  66.370  1.00  0.00    -0.292 NA 
BRANCH  16  17
HETATM   17  C   UNL     1     -11.709  14.114  65.193  1.00  0.00    -0.361 C  
BRANCH  17  18
HETATM   18  C   UNL     1     -11.146  15.347  64.465  1.00  0.00    -0.256 C  
HETATM   19  H   UNL     1     -11.786  17.083  63.725  1.00  0.00     0.000 HD 
HETATM   20  O   UNL     1     -12.134  16.322  64.175  1.00  0.00    -0.796 OA 
ENDBRANCH  17  18
ENDBRANCH  16  17
BRANCH  16  21
HETATM   21  C   UNL     1      -9.996  12.562  65.870  1.00  0.00    -0.257 C  
BRANCH  21  22
HETATM   22  C   UNL     1     -10.537  11.232  65.303  1.00  0.00    -0.261 C  
HETATM   23  O   UNL     1     -10.010  10.133  66.045  1.00  0.00    -0.229 OA 
HETATM   24  H   UNL     1     -10.343   9.314  65.696  1.00  0.00     0.000 HD 
ENDBRANCH  21  22
ENDBRANCH  16  21
ENDBRANCH  15  16
ENDBRANCH   4  15
TORSDOF 6
ENDMDL
MODEL      128
REMARK 921   NORMALIZED FREE ENERGY PREDICTED BY IDOCK:   -3.90 KCAL/MOL
REMARK 922        TOTAL FREE ENERGY PREDICTED BY IDOCK:   -6.13 KCAL/MOL
REMARK 923 INTER-LIGAND FREE ENERGY PREDICTED BY IDOCK:   -5.57 KCAL/MOL
REMARK 924 INTRA-LIGAND FREE ENERGY PREDICTED BY IDOCK:   -0.56 KCAL/MOL
REMARK 927      BINDING AFFINITY PREDICTED BY RF-SCORE:    0.00 PKD
ROOT
HETATM    1  O   UNL     1      -5.634  14.407  67.570  1.00  0.00    -0.341 OA 
HETATM    2  H   UNL     1      -5.021  13.708  67.379  1.00  0.00     0.000 HD 
HETATM    3  O   UNL     2      -8.357  11.101  66.620  1.00  0.00    -0.149 OA 
HETATM    4  C   UNL     1      -6.995  13.994  67.571  1.00  0.00    -0.148 C  
HETATM    5  O   UNL     2     -12.218  11.887  67.772  1.00  0.00    -0.508 OA 
HETATM    6  C   UNL     2      -9.409  11.653  67.254  1.00  0.00    -0.169 C  
HETATM    7  C   UNL     2     -10.296  12.470  66.401  1.00  0.00    -0.261 A  
HETATM    8  O   UNL     2      -9.638  11.494  68.447  1.00  0.00    -0.186 OA 
HETATM    9  C   UNL     2     -11.998  14.113  64.909  1.00  0.00    -0.424 A  
HETATM   10  C   UNL     2     -11.660  12.540  66.711  1.00  0.00    -0.382 A  
HETATM   11  C   UNL     2     -12.509  13.327  65.942  1.00  0.00    -0.433 A  
HETATM   12  C   UNL     2      -9.787  13.259  65.363  1.00  0.00    -0.128 A  
HETATM   13  H   UNL     2     -13.144  11.935  67.982  1.00  0.00     0.000 HD 
HETATM   14  C   UNL     2     -10.632  14.096  64.635  1.00  0.00    -0.391 A  
ENDROOT
BRANCH   4  15
HETATM   15  C   UNL     1      -7.998  15.138  67.884  1.00  0.00    -0.135 C  
BRANCH  15  16
HETATM   16  N   UNL     1      -7.761  16.433  67.194  1.00  0.00    -0.166 NA 
BRANCH  16  17
HETATM   17  C   UNL     1      -8.799  16.735  66.166  1.00  0.00    -0.263 C  
BRANCH  17  18
HETATM   18  C   UNL     1     -10.178  17.265  66.598  1.00  0.00    -0.319 C  
HETATM   19  H   UNL     1     -11.458  18.711  66.106  1.00  0.00     0.000 HD 
HETATM   20  O   UNL     1     -10.607  18.384  65.839  1.00  0.00    -0.494 OA 
ENDBRANCH  17  18
ENDBRANCH  16  17
BRANCH  16  21
HETATM   21  C   UNL     1      -7.729  17.559  68.161  1.00  0.00    -0.231 C  
BRANCH  21  22
HETATM   22  C   UNL     1      -6.345  18.041  68.647  1.00  0.00    -0.211 C  
HETATM   23  O   UNL     1      -6.113  17.597  69.983  1.00  0.00    -0.232 OA 
HETATM   24  H   UNL     1      -5.262  17.894  70.282  1.00  0.00     0.000 HD 
ENDBRANCH  21  22
ENDBRANCH  16  21
ENDBRANCH  15  16
ENDBRANCH   4  15
TORSDOF 6
ENDMDL
MODEL      129
REMARK 921   NORMALIZED FREE ENERGY PREDICTED BY IDOCK:   -3.90 KCAL/MOL
REMARK 922        TOTAL FREE ENERGY PREDICTED BY IDOCK:   -6.13 KCAL/MOL
REMARK 923 INTER-LIGAND FREE ENERGY PREDICTED BY IDOCK:   -5.32 KCAL/MOL
REMARK 924 INTRA-LIGAND FREE ENERGY PREDICTED BY IDOCK:   -0.80 KCAL/MOL
REMARK 927      BINDING AFFINITY PREDICTED BY RF-SCORE:    0.00 PKD
ROOT
HETATM    1  O   UNL     1     -11.568  13.336  70.229  1.00  0.00    -0.514 OA 
HETATM    2  H   UNL     1     -11.247  13.392  71.121  1.00  0.00     0.000 HD 
HETATM    3  O   UNL     2     -10.037   9.273  70.858  1.00  0.00    -0.258 OA 
HETATM    4  C   UNL     1     -11.499  12.027  69.675  1.00  0.00    -0.252 C  
HETATM    5  O   UNL     2     -11.334   6.657  67.972  1.00  0.00    -0.552 OA 
HETATM    6  C   UNL     2     -10.766   8.735  69.863  1.00  0.00    -0.223 C  
HETATM    7  C   UNL     2     -10.085   8.661  68.555  1.00  0.00    -0.211 A  
HETATM    8  O   UNL     2     -11.911   8.323  70.012  1.00  0.00     0.175 OA 
HETATM    9  C   UNL     2      -8.931   8.549  66.009  1.00  0.00    -0.228 A  
HETATM   10  C   UNL     2     -10.409   7.619  67.678  1.00  0.00    -0.237 A  
HETATM   11  C   UNL     2      -9.803   7.544  66.429  1.00  0.00    -0.152 A  
HETATM   12  C   UNL     2      -9.207   9.666  68.130  1.00  0.00    -0.130 A  
HETATM   13  H   UNL     2     -11.554   5.950  67.376  1.00  0.00     0.000 HD 
HETATM   14  C   UNL     2      -8.652   9.622  66.852  1.00  0.00    -0.132 A  
ENDROOT
BRANCH   4  15
HETATM   15  C   UNL     1     -12.024  11.935  68.216  1.00  0.00    -0.167 C  
BRANCH  15  16
HETATM   16  N   UNL     1     -11.627  13.037  67.300  1.00  0.00    -0.335 NA 
BRANCH  16  17
HETATM   17  C   UNL     1     -10.147  13.177  67.175  1.00  0.00    -0.242 C  
BRANCH  17  18
HETATM   18  C   UNL     1      -9.463  14.499  67.568  1.00  0.00    -0.203 C  
HETATM   19  H   UNL     1      -9.813  16.094  68.710  1.00  0.00     0.000 HD 
HETATM   20  O   UNL     1     -10.235  15.278  68.468  1.00  0.00    -0.216 OA 
ENDBRANCH  17  18
ENDBRANCH  16  17
BRANCH  16  21
HETATM   21  C   UNL     1     -12.186  12.832  65.940  1.00  0.00    -0.359 C  
BRANCH  21  22
HETATM   22  C   UNL     1     -12.487  14.089  65.096  1.00  0.00    -0.452 C  
HETATM   23  O   UNL     1     -11.707  14.076  63.902  1.00  0.00    -0.637 OA 
HETATM   24  H   UNL     1     -11.892  14.850  63.383  1.00  0.00     0.000 HD 
ENDBRANCH  21  22
ENDBRANCH  16  21
ENDBRANCH  15  16
ENDBRANCH   4  15
TORSDOF 6
ENDMDL
MODEL      130
REMARK 921   NORMALIZED FREE ENERGY PREDICTED BY IDOCK:   -3.89 KCAL/MOL
REMARK 922        TOTAL FREE ENERGY PREDICTED BY IDOCK:   -6.11 KCAL/MOL
REMARK 923 INTER-LIGAND FREE ENERGY PREDICTED BY IDOCK:   -5.35 KCAL/MOL
REMARK 924 INTRA-LIGAND FREE ENERGY PREDICTED BY IDOCK:   -0.76 KCAL/MOL
REMARK 927      BINDING AFFINITY PREDICTED BY RF-SCORE:    0.00 PKD
ROOT
HETATM    1  O   UNL     1      -8.507  10.211  64.875  1.00  0.00    -0.156 OA 
HETATM    2  H   UNL     1      -9.071   9.756  64.261  1.00  0.00     0.000 HD 
HETATM    3  O   UNL     2     -12.320  12.284  65.507  1.00  0.00    -0.602 OA 
HETATM    4  C   UNL     1      -9.188  11.154  65.693  1.00  0.00    -0.218 C  
HETATM    5  O   UNL     2     -12.307  14.557  68.926  1.00  0.00    -0.562 OA 
HETATM    6  C   UNL     2     -11.979  12.756  66.721  1.00  0.00    -0.319 C  
HETATM    7  C   UNL     2     -11.381  14.106  66.723  1.00  0.00    -0.353 A  
HETATM    8  O   UNL     2     -12.150  12.130  67.761  1.00  0.00    -0.508 OA 
HETATM    9  C   UNL     2     -10.158  16.619  66.845  1.00  0.00    -0.280 A  
HETATM   10  C   UNL     2     -11.581  14.936  67.833  1.00  0.00    -0.344 A  
HETATM   11  C   UNL     2     -11.005  16.200  67.872  1.00  0.00    -0.318 A  
HETATM   12  C   UNL     2     -10.532  14.531  65.694  1.00  0.00    -0.351 A  
HETATM   13  H   UNL     2     -12.443  15.120  69.679  1.00  0.00     0.000 HD 
HETATM   14  C   UNL     2      -9.904  15.774  65.767  1.00  0.00    -0.383 A  
ENDROOT
BRANCH   4  15
HETATM   15  C   UNL     1      -8.264  11.897  66.696  1.00  0.00    -0.088 C  
BRANCH  15  16
HETATM   16  N   UNL     1      -8.054  11.240  68.013  1.00  0.00    -0.122 NA 
BRANCH  16  17
HETATM   17  C   UNL     1      -9.322  10.723  68.607  1.00  0.00    -0.184 C  
BRANCH  17  18
HETATM   18  C   UNL     1      -9.567   9.206  68.694  1.00  0.00    -0.152 C  
HETATM   19  H   UNL     1     -10.810   7.835  67.954  1.00  0.00     0.000 HD 
HETATM   20  O   UNL     1     -10.659   8.772  67.900  1.00  0.00    -0.229 OA 
ENDBRANCH  17  18
ENDBRANCH  16  17
BRANCH  16  21
HETATM   21  C   UNL     1      -7.102  10.107  67.903  1.00  0.00    -0.085 C  
BRANCH  21  22
HETATM   22  C   UNL     1      -5.787  10.353  67.132  1.00  0.00    -0.050 C  
HETATM   23  O   UNL     1      -5.748   9.542  65.959  1.00  0.00    -0.047 OA 
HETATM   24  H   UNL     1      -4.938   9.693  65.485  1.00  0.00     0.000 HD 
ENDBRANCH  21  22
ENDBRANCH  16  21
ENDBRANCH  15  16
ENDBRANCH   4  15
TORSDOF 6
ENDMDL
MODEL      131
REMARK 921   NORMALIZED FREE ENERGY PREDICTED BY IDOCK:   -3.87 KCAL/MOL
REMARK 922        TOTAL FREE ENERGY PREDICTED BY IDOCK:   -6.08 KCAL/MOL
REMARK 923 INTER-LIGAND FREE ENERGY PREDICTED BY IDOCK:   -5.40 KCAL/MOL
REMARK 924 INTRA-LIGAND FREE ENERGY PREDICTED BY IDOCK:   -0.68 KCAL/MOL
REMARK 927      BINDING AFFINITY PREDICTED BY RF-SCORE:    0.00 PKD
ROOT
HETATM    1  O   UNL     1      -6.077   7.637  67.394  1.00  0.00    -0.045 OA 
HETATM    2  H   UNL     1      -5.412   8.296  67.237  1.00  0.00     0.000 HD 
HETATM    3  O   UNL     2      -8.230  11.309  68.455  1.00  0.00    -0.135 OA 
HETATM    4  C   UNL     1      -7.350   8.173  67.735  1.00  0.00    -0.093 C  
HETATM    5  O   UNL     2     -12.280  10.706  68.754  1.00  0.00    -0.790 OA 
HETATM    6  C   UNL     2      -9.450  10.756  68.309  1.00  0.00    -0.164 C  
HETATM    7  C   UNL     2     -10.036  10.197  69.543  1.00  0.00    -0.258 A  
HETATM    8  O   UNL     2     -10.049  10.717  67.241  1.00  0.00    -0.184 OA 
HETATM    9  C   UNL     2     -11.213   9.026  71.794  1.00  0.00    -0.448 A  
HETATM   10  C   UNL     2     -11.428  10.205  69.697  1.00  0.00    -0.198 A  
HETATM   11  C   UNL     2     -12.007   9.658  70.836  1.00  0.00    -0.391 A  
HETATM   12  C   UNL     2      -9.244   9.564  70.508  1.00  0.00    -0.284 A  
HETATM   13  H   UNL     2     -13.225  10.711  68.859  1.00  0.00     0.000 HD 
HETATM   14  C   UNL     2      -9.833   8.960  71.617  1.00  0.00    -0.387 A  
ENDROOT
BRANCH   4  15
HETATM   15  C   UNL     1      -8.438   7.094  67.991  1.00  0.00    -0.122 C  
BRANCH  15  16
HETATM   16  N   UNL     1      -9.542   7.021  66.999  1.00  0.00    -0.149 NA 
BRANCH  16  17
HETATM   17  C   UNL     1      -9.333   5.947  65.984  1.00  0.00    -0.097 C  
BRANCH  17  18
HETATM   18  C   UNL     1     -10.240   4.704  65.981  1.00  0.00    -0.277 C  
HETATM   19  H   UNL     1     -10.132   2.762  65.546  1.00  0.00     0.000 HD 
HETATM   20  O   UNL     1      -9.573   3.529  65.548  1.00  0.00    -0.170 OA 
ENDBRANCH  17  18
ENDBRANCH  16  17
BRANCH  16  21
HETATM   21  C   UNL     1     -10.846   6.776  67.664  1.00  0.00    -0.289 C  
BRANCH  21  22
HETATM   22  C   UNL     1     -10.820   6.332  69.143  1.00  0.00    -0.340 C  
HETATM   23  O   UNL     1     -12.093   6.559  69.745  1.00  0.00    -0.579 OA 
HETATM   24  H   UNL     1     -12.077   6.286  70.655  1.00  0.00     0.000 HD 
ENDBRANCH  21  22
ENDBRANCH  16  21
ENDBRANCH  15  16
ENDBRANCH   4  15
TORSDOF 6
ENDMDL
MODEL      132
REMARK 921   NORMALIZED FREE ENERGY PREDICTED BY IDOCK:   -3.85 KCAL/MOL
REMARK 922        TOTAL FREE ENERGY PREDICTED BY IDOCK:   -6.07 KCAL/MOL
REMARK 923 INTER-LIGAND FREE ENERGY PREDICTED BY IDOCK:   -6.58 KCAL/MOL
REMARK 924 INTRA-LIGAND FREE ENERGY PREDICTED BY IDOCK:    0.52 KCAL/MOL
REMARK 927      BINDING AFFINITY PREDICTED BY RF-SCORE:    0.00 PKD
ROOT
HETATM    1  O   UNL     1      -8.656  13.640  69.182  1.00  0.00    -0.334 OA 
HETATM    2  H   UNL     1      -8.955  13.138  69.930  1.00  0.00     0.000 HD 
HETATM    3  O   UNL     2     -11.027  10.507  67.231  1.00  0.00    -0.291 OA 
HETATM    4  C   UNL     1      -9.207  13.209  67.942  1.00  0.00    -0.207 C  
HETATM    5  O   UNL     2     -11.839  11.389  63.304  1.00  0.00    -0.824 OA 
HETATM    6  C   UNL     2     -11.196  11.204  66.091  1.00  0.00     0.011 C  
HETATM    7  C   UNL     2     -10.196  10.935  65.039  1.00  0.00    -0.367 A  
HETATM    8  O   UNL     2     -12.111  12.000  65.916  1.00  0.00    -0.546 OA 
HETATM    9  C   UNL     2      -8.310  10.577  63.003  1.00  0.00    -0.159 A  
HETATM   10  C   UNL     2     -10.577  11.043  63.695  1.00  0.00    -0.269 A  
HETATM   11  C   UNL     2      -9.647  10.825  62.686  1.00  0.00    -0.296 A  
HETATM   12  C   UNL     2      -8.854  10.685  65.352  1.00  0.00    -0.204 A  
HETATM   13  H   UNL     2     -12.098  11.462  62.393  1.00  0.00     0.000 HD 
HETATM   14  C   UNL     2      -7.911  10.531  64.337  1.00  0.00     0.015 A  
ENDROOT
BRANCH   4  15
HETATM   15  C   UNL     1      -8.717  14.031  66.719  1.00  0.00    -0.110 C  
BRANCH  15  16
HETATM   16  N   UNL     1      -9.667  15.036  66.174  1.00  0.00    -0.287 NA 
BRANCH  16  17
HETATM   17  C   UNL     1     -10.422  14.532  64.990  1.00  0.00    -0.429 C  
BRANCH  17  18
HETATM   18  C   UNL     1     -11.543  15.386  64.372  1.00  0.00    -0.264 C  
HETATM   19  H   UNL     1     -13.195  15.144  63.283  1.00  0.00     0.000 HD 
HETATM   20  O   UNL     1     -12.503  14.617  63.665  1.00  0.00    -0.754 OA 
ENDBRANCH  17  18
ENDBRANCH  16  17
BRANCH  16  21
HETATM   21  C   UNL     1     -10.652  15.457  67.202  1.00  0.00    -0.305 C  
BRANCH  21  22
HETATM   22  C   UNL     1     -11.895  14.563  67.407  1.00  0.00    -0.388 C  
HETATM   23  O   UNL     1     -12.400  14.722  68.731  1.00  0.00    -0.574 OA 
HETATM   24  H   UNL     1     -13.164  14.172  68.857  1.00  0.00     0.000 HD 
ENDBRANCH  21  22
ENDBRANCH  16  21
ENDBRANCH  15  16
ENDBRANCH   4  15
TORSDOF 6
ENDMDL
MODEL      133
REMARK 921   NORMALIZED FREE ENERGY PREDICTED BY IDOCK:   -3.85 KCAL/MOL
REMARK 922        TOTAL FREE ENERGY PREDICTED BY IDOCK:   -6.05 KCAL/MOL
REMARK 923 INTER-LIGAND FREE ENERGY PREDICTED BY IDOCK:   -5.20 KCAL/MOL
REMARK 924 INTRA-LIGAND FREE ENERGY PREDICTED BY IDOCK:   -0.86 KCAL/MOL
REMARK 927      BINDING AFFINITY PREDICTED BY RF-SCORE:    0.00 PKD
ROOT
HETATM    1  O   UNL     1      -9.683   4.136  72.104  1.00  0.00    -0.146 OA 
HETATM    2  H   UNL     1      -9.089   4.092  72.843  1.00  0.00     0.000 HD 
HETATM    3  O   UNL     2      -9.112   8.390  73.009  1.00  0.00    -0.253 OA 
HETATM    4  C   UNL     1      -9.938   5.459  71.648  1.00  0.00    -0.186 C  
HETATM    5  O   UNL     2     -10.440  10.818  69.975  1.00  0.00    -0.447 OA 
HETATM    6  C   UNL     2      -9.503   8.806  71.789  1.00  0.00    -0.293 C  
HETATM    7  C   UNL     2     -10.935   9.145  71.671  1.00  0.00    -0.445 A  
HETATM    8  O   UNL     2      -8.740   8.910  70.835  1.00  0.00    -0.172 OA 
HETATM    9  C   UNL     2     -13.645   9.733  71.302  1.00  0.00    -0.285 A  
HETATM   10  C   UNL     2     -11.325  10.139  70.765  1.00  0.00    -0.354 A  
HETATM   11  C   UNL     2     -12.670  10.457  70.614  1.00  0.00    -0.417 A  
HETATM   12  C   UNL     2     -11.917   8.424  72.361  1.00  0.00    -0.451 A  
HETATM   13  H   UNL     2     -10.705  11.492  69.361  1.00  0.00     0.000 HD 
HETATM   14  C   UNL     2     -13.268   8.701  72.158  1.00  0.00    -0.420 A  
ENDROOT
BRANCH   4  15
HETATM   15  C   UNL     1     -10.909   5.530  70.438  1.00  0.00    -0.204 C  
BRANCH  15  16
HETATM   16  N   UNL     1     -10.284   5.596  69.091  1.00  0.00    -0.213 NA 
BRANCH  16  17
HETATM   17  C   UNL     1     -10.872   6.668  68.235  1.00  0.00    -0.254 C  
BRANCH  17  18
HETATM   18  C   UNL     1     -10.056   7.933  67.918  1.00  0.00    -0.191 C  
HETATM   19  H   UNL     1     -10.352   9.792  67.263  1.00  0.00     0.000 HD 
HETATM   20  O   UNL     1     -10.856   9.011  67.459  1.00  0.00    -0.232 OA 
ENDBRANCH  17  18
ENDBRANCH  16  17
BRANCH  16  21
HETATM   21  C   UNL     1      -8.822   5.837  69.189  1.00  0.00    -0.112 C  
BRANCH  21  22
HETATM   22  C   UNL     1      -7.887   4.861  68.441  1.00  0.00    -0.082 C  
HETATM   23  O   UNL     1      -6.580   4.904  69.009  1.00  0.00    -0.042 OA 
HETATM   24  H   UNL     1      -6.005   4.303  68.549  1.00  0.00     0.000 HD 
ENDBRANCH  21  22
ENDBRANCH  16  21
ENDBRANCH  15  16
ENDBRANCH   4  15
TORSDOF 6
ENDMDL
MODEL      134
REMARK 921   NORMALIZED FREE ENERGY PREDICTED BY IDOCK:   -3.84 KCAL/MOL
REMARK 922        TOTAL FREE ENERGY PREDICTED BY IDOCK:   -6.05 KCAL/MOL
REMARK 923 INTER-LIGAND FREE ENERGY PREDICTED BY IDOCK:   -5.27 KCAL/MOL
REMARK 924 INTRA-LIGAND FREE ENERGY PREDICTED BY IDOCK:   -0.78 KCAL/MOL
REMARK 927      BINDING AFFINITY PREDICTED BY RF-SCORE:    0.00 PKD
ROOT
HETATM    1  O   UNL     1      -7.529  17.151  69.175  1.00  0.00    -0.232 OA 
HETATM    2  H   UNL     1      -6.690  17.333  68.768  1.00  0.00     0.000 HD 
HETATM    3  O   UNL     2      -6.800  13.418  66.989  1.00  0.00    -0.041 OA 
HETATM    4  C   UNL     1      -7.991  15.821  68.973  1.00  0.00    -0.214 C  
HETATM    5  O   UNL     2      -9.303  10.396  68.195  1.00  0.00    -0.141 OA 
HETATM    6  C   UNL     2      -7.655  12.695  67.737  1.00  0.00    -0.141 C  
HETATM    7  C   UNL     2      -9.028  12.600  67.204  1.00  0.00    -0.205 A  
HETATM    8  O   UNL     2      -7.335  12.142  68.783  1.00  0.00    -0.109 OA 
HETATM    9  C   UNL     2     -11.682  12.421  66.339  1.00  0.00    -0.453 A  
HETATM   10  C   UNL     2      -9.779  11.447  67.464  1.00  0.00    -0.178 A  
HETATM   11  C   UNL     2     -11.085  11.345  66.998  1.00  0.00    -0.364 A  
HETATM   12  C   UNL     2      -9.631  13.675  66.541  1.00  0.00    -0.294 A  
HETATM   13  H   UNL     2      -9.813   9.613  68.371  1.00  0.00     0.000 HD 
HETATM   14  C   UNL     2     -10.962  13.594  66.132  1.00  0.00    -0.285 A  
ENDROOT
BRANCH   4  15
HETATM   15  C   UNL     1      -9.362  15.524  69.638  1.00  0.00    -0.223 C  
BRANCH  15  16
HETATM   16  N   UNL     1     -10.401  16.580  69.511  1.00  0.00    -0.286 NA 
BRANCH  16  17
HETATM   17  C   UNL     1     -10.739  16.885  68.090  1.00  0.00    -0.375 C  
BRANCH  17  18
HETATM   18  C   UNL     1     -10.578  18.318  67.552  1.00  0.00    -0.409 C  
HETATM   19  H   UNL     1      -9.575  19.985  67.982  1.00  0.00     0.000 HD 
HETATM   20  O   UNL     1      -9.674  19.100  68.314  1.00  0.00    -0.327 OA 
ENDBRANCH  17  18
ENDBRANCH  16  17
BRANCH  16  21
HETATM   21  C   UNL     1     -11.652  16.189  70.208  1.00  0.00    -0.259 C  
BRANCH  21  22
HETATM   22  C   UNL     1     -11.547  15.115  71.312  1.00  0.00    -0.358 C  
HETATM   23  O   UNL     1     -12.078  15.619  72.536  1.00  0.00    -0.374 OA 
HETATM   24  H   UNL     1     -12.013  14.958  73.216  1.00  0.00     0.000 HD 
ENDBRANCH  21  22
ENDBRANCH  16  21
ENDBRANCH  15  16
ENDBRANCH   4  15
TORSDOF 6
ENDMDL
MODEL      135
REMARK 921   NORMALIZED FREE ENERGY PREDICTED BY IDOCK:   -3.83 KCAL/MOL
REMARK 922        TOTAL FREE ENERGY PREDICTED BY IDOCK:   -6.03 KCAL/MOL
REMARK 923 INTER-LIGAND FREE ENERGY PREDICTED BY IDOCK:   -5.41 KCAL/MOL
REMARK 924 INTRA-LIGAND FREE ENERGY PREDICTED BY IDOCK:   -0.61 KCAL/MOL
REMARK 927      BINDING AFFINITY PREDICTED BY RF-SCORE:    0.00 PKD
ROOT
HETATM    1  O   UNL     1      -8.943  15.179  65.987  1.00  0.00    -0.462 OA 
HETATM    2  H   UNL     1      -8.150  15.672  66.158  1.00  0.00     0.000 HD 
HETATM    3  O   UNL     2      -6.340  12.077  67.673  1.00  0.00    -0.074 OA 
HETATM    4  C   UNL     1      -8.899  13.837  66.457  1.00  0.00     0.020 C  
HETATM    5  O   UNL     2      -8.425   8.701  68.729  1.00  0.00    -0.127 OA 
HETATM    6  C   UNL     2      -7.358  11.262  68.008  1.00  0.00    -0.092 C  
HETATM    7  C   UNL     2      -7.710  10.248  66.994  1.00  0.00    -0.100 A  
HETATM    8  O   UNL     2      -7.958  11.334  69.075  1.00  0.00    -0.132 OA 
HETATM    9  C   UNL     2      -8.525   8.343  65.115  1.00  0.00    -0.179 A  
HETATM   10  C   UNL     2      -8.226   9.017  67.415  1.00  0.00    -0.108 A  
HETATM   11  C   UNL     2      -8.593   8.057  66.479  1.00  0.00    -0.148 A  
HETATM   12  C   UNL     2      -7.642  10.530  65.624  1.00  0.00    -0.134 A  
HETATM   13  H   UNL     2      -8.776   7.866  69.015  1.00  0.00     0.000 HD 
HETATM   14  C   UNL     2      -8.072   9.589  64.689  1.00  0.00    -0.136 A  
ENDROOT
BRANCH   4  15
HETATM   15  C   UNL     1     -10.197  13.031  66.178  1.00  0.00    -0.284 C  
BRANCH  15  16
HETATM   16  N   UNL     1     -11.459  13.605  66.711  1.00  0.00    -0.331 NA 
BRANCH  16  17
HETATM   17  C   UNL     1     -12.529  13.704  65.676  1.00  0.00    -0.496 C  
BRANCH  17  18
HETATM   18  C   UNL     1     -12.285  14.519  64.394  1.00  0.00    -0.458 C  
HETATM   19  H   UNL     1     -12.351  14.275  62.417  1.00  0.00     0.000 HD 
HETATM   20  O   UNL     1     -12.502  13.771  63.208  1.00  0.00    -0.819 OA 
ENDBRANCH  17  18
ENDBRANCH  16  17
BRANCH  16  21
HETATM   21  C   UNL     1     -11.984  12.793  67.838  1.00  0.00    -0.266 C  
BRANCH  21  22
HETATM   22  C   UNL     1     -11.340  11.411  68.082  1.00  0.00    -0.304 C  
HETATM   23  O   UNL     1     -12.308  10.506  68.609  1.00  0.00    -0.785 OA 
HETATM   24  H   UNL     1     -11.912   9.656  68.759  1.00  0.00     0.000 HD 
ENDBRANCH  21  22
ENDBRANCH  16  21
ENDBRANCH  15  16
ENDBRANCH   4  15
TORSDOF 6
ENDMDL
MODEL      136
REMARK 921   NORMALIZED FREE ENERGY PREDICTED BY IDOCK:   -3.82 KCAL/MOL
REMARK 922        TOTAL FREE ENERGY PREDICTED BY IDOCK:   -6.02 KCAL/MOL
REMARK 923 INTER-LIGAND FREE ENERGY PREDICTED BY IDOCK:   -5.13 KCAL/MOL
REMARK 924 INTRA-LIGAND FREE ENERGY PREDICTED BY IDOCK:   -0.88 KCAL/MOL
REMARK 927      BINDING AFFINITY PREDICTED BY RF-SCORE:    0.00 PKD
ROOT
HETATM    1  O   UNL     1     -13.112  10.364  69.963  1.00  0.00    -0.504 OA 
HETATM    2  H   UNL     1     -13.827  10.878  69.609  1.00  0.00     0.000 HD 
HETATM    3  O   UNL     2     -11.113  12.483  66.684  1.00  0.00    -0.260 OA 
HETATM    4  C   UNL     1     -11.852  10.641  69.364  1.00  0.00    -0.253 C  
HETATM    5  O   UNL     2      -7.022  12.250  66.946  1.00  0.00    -0.344 OA 
HETATM    6  C   UNL     2      -9.877  12.310  67.190  1.00  0.00    -0.203 C  
HETATM    7  C   UNL     2      -9.160  11.117  66.698  1.00  0.00    -0.180 A  
HETATM    8  O   UNL     2      -9.364  13.078  67.995  1.00  0.00    -0.200 OA 
HETATM    9  C   UNL     2      -7.737   8.843  65.906  1.00  0.00    -0.098 A  
HETATM   10  C   UNL     2      -7.764  11.156  66.602  1.00  0.00    -0.155 A  
HETATM   11  C   UNL     2      -7.063  10.036  66.170  1.00  0.00    -0.108 A  
HETATM   12  C   UNL     2      -9.832   9.918  66.430  1.00  0.00    -0.288 A  
HETATM   13  H   UNL     2      -6.075  12.276  66.881  1.00  0.00     0.000 HD 
HETATM   14  C   UNL     2      -9.120   8.778  66.059  1.00  0.00    -0.265 A  
ENDROOT
BRANCH   4  15
HETATM   15  C   UNL     1     -10.683   9.800  69.944  1.00  0.00    -0.268 C  
BRANCH  15  16
HETATM   16  N   UNL     1     -10.923   8.339  70.081  1.00  0.00    -0.244 NA 
BRANCH  16  17
HETATM   17  C   UNL     1      -9.810   7.518  69.520  1.00  0.00    -0.169 C  
BRANCH  17  18
HETATM   18  C   UNL     1     -10.121   6.207  68.776  1.00  0.00    -0.169 C  
HETATM   19  H   UNL     1     -10.612   4.320  69.189  1.00  0.00     0.000 HD 
HETATM   20  O   UNL     1     -10.420   5.129  69.649  1.00  0.00    -0.280 OA 
ENDBRANCH  17  18
ENDBRANCH  16  17
BRANCH  16  21
HETATM   21  C   UNL     1     -11.106   7.955  71.503  1.00  0.00    -0.241 C  
BRANCH  21  22
HETATM   22  C   UNL     1     -12.443   7.292  71.896  1.00  0.00    -0.303 C  
HETATM   23  O   UNL     1     -13.365   7.367  70.810  1.00  0.00    -0.600 OA 
HETATM   24  H   UNL     1     -14.188   6.959  71.053  1.00  0.00     0.000 HD 
ENDBRANCH  21  22
ENDBRANCH  16  21
ENDBRANCH  15  16
ENDBRANCH   4  15
TORSDOF 6
ENDMDL
MODEL      137
REMARK 921   NORMALIZED FREE ENERGY PREDICTED BY IDOCK:   -3.82 KCAL/MOL
REMARK 922        TOTAL FREE ENERGY PREDICTED BY IDOCK:   -6.01 KCAL/MOL
REMARK 923 INTER-LIGAND FREE ENERGY PREDICTED BY IDOCK:   -5.09 KCAL/MOL
REMARK 924 INTRA-LIGAND FREE ENERGY PREDICTED BY IDOCK:   -0.92 KCAL/MOL
REMARK 927      BINDING AFFINITY PREDICTED BY RF-SCORE:    0.00 PKD
ROOT
HETATM    1  O   UNL     1     -13.797   7.403  70.957  1.00  0.00    -0.625 OA 
HETATM    2  H   UNL     1     -14.482   6.921  71.404  1.00  0.00     0.000 HD 
HETATM    3  O   UNL     2     -11.446   4.636  73.419  1.00  0.00    -0.328 OA 
HETATM    4  C   UNL     1     -12.486   6.911  71.214  1.00  0.00    -0.361 C  
HETATM    5  O   UNL     2      -7.513   4.472  72.252  1.00  0.00    -0.076 OA 
HETATM    6  C   UNL     2     -10.336   4.749  72.666  1.00  0.00    -0.198 C  
HETATM    7  C   UNL     2      -9.376   5.777  73.116  1.00  0.00    -0.139 A  
HETATM    8  O   UNL     2     -10.115   4.055  71.681  1.00  0.00    -0.178 OA 
HETATM    9  C   UNL     2      -7.523   7.751  73.818  1.00  0.00    -0.164 A  
HETATM   10  C   UNL     2      -8.009   5.578  72.882  1.00  0.00    -0.101 A  
HETATM   11  C   UNL     2      -7.088   6.544  73.270  1.00  0.00    -0.078 A  
HETATM   12  C   UNL     2      -9.807   6.989  73.669  1.00  0.00    -0.318 A  
HETATM   13  H   UNL     2      -6.586   4.338  72.094  1.00  0.00     0.000 HD 
HETATM   14  C   UNL     2      -8.885   7.982  73.996  1.00  0.00    -0.208 A  
ENDROOT
BRANCH   4  15
HETATM   15  C   UNL     1     -11.366   7.700  70.483  1.00  0.00    -0.250 C  
BRANCH  15  16
HETATM   16  N   UNL     1     -11.057   9.054  71.012  1.00  0.00    -0.266 NA 
BRANCH  16  17
HETATM   17  C   UNL     1      -9.647   9.467  70.747  1.00  0.00    -0.255 C  
BRANCH  17  18
HETATM   18  C   UNL     1      -8.649   8.458  70.153  1.00  0.00    -0.131 C  
HETATM   19  H   UNL     1      -7.786   8.043  68.405  1.00  0.00     0.000 HD 
HETATM   20  O   UNL     1      -8.402   8.666  68.772  1.00  0.00    -0.119 OA 
ENDBRANCH  17  18
ENDBRANCH  16  17
BRANCH  16  21
HETATM   21  C   UNL     1     -11.954  10.079  70.422  1.00  0.00    -0.236 C  
BRANCH  21  22
HETATM   22  C   UNL     1     -12.902  10.832  71.380  1.00  0.00    -0.452 C  
HETATM   23  O   UNL     1     -13.423   9.935  72.359  1.00  0.00    -0.609 OA 
HETATM   24  H   UNL     1     -14.006  10.399  72.949  1.00  0.00     0.000 HD 
ENDBRANCH  21  22
ENDBRANCH  16  21
ENDBRANCH  15  16
ENDBRANCH   4  15
TORSDOF 6
ENDMDL
MODEL      138
REMARK 921   NORMALIZED FREE ENERGY PREDICTED BY IDOCK:   -3.80 KCAL/MOL
REMARK 922        TOTAL FREE ENERGY PREDICTED BY IDOCK:   -5.99 KCAL/MOL
REMARK 923 INTER-LIGAND FREE ENERGY PREDICTED BY IDOCK:   -5.25 KCAL/MOL
REMARK 924 INTRA-LIGAND FREE ENERGY PREDICTED BY IDOCK:   -0.75 KCAL/MOL
REMARK 927      BINDING AFFINITY PREDICTED BY RF-SCORE:    0.00 PKD
ROOT
HETATM    1  O   UNL     1      -7.930   8.742  72.648  1.00  0.00    -0.380 OA 
HETATM    2  H   UNL     1      -7.173   8.213  72.865  1.00  0.00     0.000 HD 
HETATM    3  O   UNL     2      -7.184   6.699  68.839  1.00  0.00    -0.085 OA 
HETATM    4  C   UNL     1      -8.447   8.502  71.345  1.00  0.00    -0.172 C  
HETATM    5  O   UNL     2     -10.352   7.033  66.248  1.00  0.00    -0.459 OA 
HETATM    6  C   UNL     2      -8.431   6.899  68.371  1.00  0.00    -0.123 C  
HETATM    7  C   UNL     2      -8.604   8.114  67.549  1.00  0.00    -0.129 A  
HETATM    8  O   UNL     2      -9.366   6.138  68.592  1.00  0.00    -0.122 OA 
HETATM    9  C   UNL     2      -9.075  10.429  66.052  1.00  0.00    -0.187 A  
HETATM   10  C   UNL     2      -9.561   8.111  66.526  1.00  0.00    -0.234 A  
HETATM   11  C   UNL     2      -9.763   9.251  65.758  1.00  0.00    -0.339 A  
HETATM   12  C   UNL     2      -7.914   9.297  67.838  1.00  0.00    -0.100 A  
HETATM   13  H   UNL     2     -11.001   7.031  65.554  1.00  0.00     0.000 HD 
HETATM   14  C   UNL     2      -8.167  10.457  67.108  1.00  0.00    -0.122 A  
ENDROOT
BRANCH   4  15
HETATM   15  C   UNL     1      -9.687   9.368  70.991  1.00  0.00    -0.223 C  
BRANCH  15  16
HETATM   16  N   UNL     1     -10.998   8.885  71.500  1.00  0.00    -0.300 NA 
BRANCH  16  17
HETATM   17  C   UNL     1     -12.050   9.943  71.471  1.00  0.00    -0.410 C  
BRANCH  17  18
HETATM   18  C   UNL     1     -13.535   9.547  71.386  1.00  0.00    -0.333 C  
HETATM   19  H   UNL     1     -14.929   8.677  72.514  1.00  0.00     0.000 HD 
HETATM   20  O   UNL     1     -14.013   8.921  72.566  1.00  0.00    -0.462 OA 
ENDBRANCH  17  18
ENDBRANCH  16  17
BRANCH  16  21
HETATM   21  C   UNL     1     -11.487   7.727  70.710  1.00  0.00    -0.272 C  
BRANCH  21  22
HETATM   22  C   UNL     1     -11.660   6.383  71.450  1.00  0.00    -0.311 C  
HETATM   23  O   UNL     1     -12.022   6.616  72.810  1.00  0.00    -0.483 OA 
HETATM   24  H   UNL     1     -12.128   5.788  73.265  1.00  0.00     0.000 HD 
ENDBRANCH  21  22
ENDBRANCH  16  21
ENDBRANCH  15  16
ENDBRANCH   4  15
TORSDOF 6
ENDMDL
MODEL      139
REMARK 921   NORMALIZED FREE ENERGY PREDICTED BY IDOCK:   -3.77 KCAL/MOL
REMARK 922        TOTAL FREE ENERGY PREDICTED BY IDOCK:   -5.96 KCAL/MOL
REMARK 923 INTER-LIGAND FREE ENERGY PREDICTED BY IDOCK:   -5.41 KCAL/MOL
REMARK 924 INTRA-LIGAND FREE ENERGY PREDICTED BY IDOCK:   -0.54 KCAL/MOL
REMARK 927      BINDING AFFINITY PREDICTED BY RF-SCORE:    0.00 PKD
ROOT
HETATM    1  O   UNL     1      -6.659  16.461  66.693  1.00  0.00    -0.255 OA 
HETATM    2  H   UNL     1      -5.851  15.970  66.776  1.00  0.00     0.000 HD 
HETATM    3  O   UNL     2      -8.163  12.347  66.935  1.00  0.00    -0.164 OA 
HETATM    4  C   UNL     1      -7.832  15.663  66.815  1.00  0.00    -0.176 C  
HETATM    5  O   UNL     2     -12.203  12.207  67.655  1.00  0.00    -0.462 OA 
HETATM    6  C   UNL     2      -9.403  12.715  67.309  1.00  0.00    -0.195 C  
HETATM    7  C   UNL     2     -10.369  12.876  66.204  1.00  0.00    -0.286 A  
HETATM    8  O   UNL     2      -9.730  12.899  68.476  1.00  0.00    -0.206 OA 
HETATM    9  C   UNL     2     -12.264  13.299  64.190  1.00  0.00    -0.465 A  
HETATM   10  C   UNL     2     -11.723  12.610  66.441  1.00  0.00    -0.405 A  
HETATM   11  C   UNL     2     -12.656  12.783  65.426  1.00  0.00    -0.387 A  
HETATM   12  C   UNL     2      -9.980  13.391  64.962  1.00  0.00    -0.179 A  
HETATM   13  H   UNL     2     -13.122  12.027  67.816  1.00  0.00     0.000 HD 
HETATM   14  C   UNL     2     -10.928  13.625  63.967  1.00  0.00    -0.076 A  
ENDROOT
BRANCH   4  15
HETATM   15  C   UNL     1      -9.154  16.466  66.679  1.00  0.00    -0.250 C  
BRANCH  15  16
HETATM   16  N   UNL     1      -9.550  17.291  67.850  1.00  0.00    -0.263 NA 
BRANCH  16  17
HETATM   17  C   UNL     1      -9.800  16.473  69.073  1.00  0.00    -0.266 C  
BRANCH  17  18
HETATM   18  C   UNL     1     -11.242  16.212  69.542  1.00  0.00    -0.337 C  
HETATM   19  H   UNL     1     -12.604  14.758  69.492  1.00  0.00     0.000 HD 
HETATM   20  O   UNL     1     -11.713  14.918  69.202  1.00  0.00    -0.282 OA 
ENDBRANCH  17  18
ENDBRANCH  16  17
BRANCH  16  21
HETATM   21  C   UNL     1      -8.508  18.298  68.176  1.00  0.00    -0.278 C  
BRANCH  21  22
HETATM   22  C   UNL     1      -8.312  19.466  67.186  1.00  0.00    -0.287 C  
HETATM   23  O   UNL     1      -6.985  19.449  66.664  1.00  0.00    -0.196 OA 
HETATM   24  H   UNL     1      -6.865  20.169  66.055  1.00  0.00     0.000 HD 
ENDBRANCH  21  22
ENDBRANCH  16  21
ENDBRANCH  15  16
ENDBRANCH   4  15
TORSDOF 6
ENDMDL
MODEL      140
REMARK 921   NORMALIZED FREE ENERGY PREDICTED BY IDOCK:   -3.76 KCAL/MOL
REMARK 922        TOTAL FREE ENERGY PREDICTED BY IDOCK:   -5.94 KCAL/MOL
REMARK 923 INTER-LIGAND FREE ENERGY PREDICTED BY IDOCK:   -5.20 KCAL/MOL
REMARK 924 INTRA-LIGAND FREE ENERGY PREDICTED BY IDOCK:   -0.75 KCAL/MOL
REMARK 927      BINDING AFFINITY PREDICTED BY RF-SCORE:    0.00 PKD
ROOT
HETATM    1  O   UNL     1     -10.878   8.143  67.179  1.00  0.00    -0.464 OA 
HETATM    2  H   UNL     1     -11.431   7.890  67.908  1.00  0.00     0.000 HD 
HETATM    3  O   UNL     2     -12.270  12.050  68.608  1.00  0.00    -0.299 OA 
HETATM    4  C   UNL     1     -10.713   9.550  67.043  1.00  0.00    -0.149 C  
HETATM    5  O   UNL     2     -10.080  15.150  67.042  1.00  0.00    -0.239 OA 
HETATM    6  C   UNL     2     -11.266  12.734  68.027  1.00  0.00    -0.270 C  
HETATM    7  C   UNL     2     -11.561  13.255  66.677  1.00  0.00    -0.408 A  
HETATM    8  O   UNL     2     -10.181  12.927  68.564  1.00  0.00    -0.234 OA 
HETATM    9  C   UNL     2     -11.971  14.217  64.083  1.00  0.00    -0.421 A  
HETATM   10  C   UNL     2     -10.947  14.443  66.259  1.00  0.00    -0.318 A  
HETATM   11  C   UNL     2     -11.186  14.939  64.983  1.00  0.00    -0.408 A  
HETATM   12  C   UNL     2     -12.350  12.536  65.771  1.00  0.00    -0.227 A  
HETATM   13  H   UNL     2      -9.664  15.956  66.758  1.00  0.00     0.000 HD 
HETATM   14  C   UNL     2     -12.534  13.003  64.471  1.00  0.00    -0.427 A  
ENDROOT
BRANCH   4  15
HETATM   15  C   UNL     1      -9.807   9.964  65.851  1.00  0.00    -0.274 C  
BRANCH  15  16
HETATM   16  N   UNL     1      -8.619   9.108  65.595  1.00  0.00    -0.148 NA 
BRANCH  16  17
HETATM   17  C   UNL     1      -7.929   9.448  64.316  1.00  0.00    -0.133 C  
BRANCH  17  18
HETATM   18  C   UNL     1      -8.727   9.495  63.001  1.00  0.00    -0.229 C  
HETATM   19  H   UNL     1      -9.489  10.844  61.748  1.00  0.00     0.000 HD 
HETATM   20  O   UNL     1      -8.996  10.816  62.560  1.00  0.00    -0.251 OA 
ENDBRANCH  17  18
ENDBRANCH  16  17
BRANCH  16  21
HETATM   21  C   UNL     1      -7.629   9.221  66.696  1.00  0.00    -0.093 C  
BRANCH  21  22
HETATM   22  C   UNL     1      -7.244   7.926  67.444  1.00  0.00    -0.088 C  
HETATM   23  O   UNL     1      -8.166   6.885  67.126  1.00  0.00    -0.115 OA 
HETATM   24  H   UNL     1      -7.929   6.088  67.587  1.00  0.00     0.000 HD 
ENDBRANCH  21  22
ENDBRANCH  16  21
ENDBRANCH  15  16
ENDBRANCH   4  15
TORSDOF 6
ENDMDL
MODEL      141
REMARK 921   NORMALIZED FREE ENERGY PREDICTED BY IDOCK:   -3.76 KCAL/MOL
REMARK 922        TOTAL FREE ENERGY PREDICTED BY IDOCK:   -5.93 KCAL/MOL
REMARK 923 INTER-LIGAND FREE ENERGY PREDICTED BY IDOCK:   -5.32 KCAL/MOL
REMARK 924 INTRA-LIGAND FREE ENERGY PREDICTED BY IDOCK:   -0.61 KCAL/MOL
REMARK 927      BINDING AFFINITY PREDICTED BY RF-SCORE:    0.00 PKD
ROOT
HETATM    1  O   UNL     1     -10.156  16.527  65.414  1.00  0.00    -0.570 OA 
HETATM    2  H   UNL     1     -10.668  16.550  64.614  1.00  0.00     0.000 HD 
HETATM    3  O   UNL     2     -11.477  12.355  65.110  1.00  0.00    -0.313 OA 
HETATM    4  C   UNL     1     -10.003  15.223  65.961  1.00  0.00    -0.319 C  
HETATM    5  O   UNL     2      -9.385   9.874  67.624  1.00  0.00    -0.139 OA 
HETATM    6  C   UNL     2     -10.508  11.883  65.917  1.00  0.00    -0.258 C  
HETATM    7  C   UNL     2     -10.879  11.772  67.342  1.00  0.00    -0.299 A  
HETATM    8  O   UNL     2      -9.396  11.557  65.518  1.00  0.00    -0.223 OA 
HETATM    9  C   UNL     2     -11.434  11.600  70.078  1.00  0.00    -0.266 A  
HETATM   10  C   UNL     2     -10.292  10.766  68.120  1.00  0.00    -0.171 A  
HETATM   11  C   UNL     2     -10.602  10.659  69.471  1.00  0.00    -0.265 A  
HETATM   12  C   UNL     2     -11.715  12.713  67.956  1.00  0.00    -0.402 A  
HETATM   13  H   UNL     2      -8.987   9.191  68.152  1.00  0.00     0.000 HD 
HETATM   14  C   UNL     2     -11.971  12.640  69.324  1.00  0.00    -0.301 A  
ENDROOT
BRANCH   4  15
HETATM   15  C   UNL     1      -9.166  15.186  67.269  1.00  0.00    -0.198 C  
BRANCH  15  16
HETATM   16  N   UNL     1      -8.920  16.492  67.934  1.00  0.00    -0.203 NA 
BRANCH  16  17
HETATM   17  C   UNL     1      -9.906  16.782  69.015  1.00  0.00    -0.260 C  
BRANCH  17  18
HETATM   18  C   UNL     1     -10.298  15.679  70.015  1.00  0.00    -0.298 C  
HETATM   19  H   UNL     1     -11.800  15.221  71.242  1.00  0.00     0.000 HD 
HETATM   20  O   UNL     1     -11.559  15.902  70.625  1.00  0.00    -0.344 OA 
ENDBRANCH  17  18
ENDBRANCH  16  17
BRANCH  16  21
HETATM   21  C   UNL     1      -7.560  16.546  68.526  1.00  0.00    -0.200 C  
BRANCH  21  22
HETATM   22  C   UNL     1      -6.815  15.208  68.724  1.00  0.00    -0.108 C  
HETATM   23  O   UNL     1      -6.791  14.861  70.108  1.00  0.00    -0.184 OA 
HETATM   24  H   UNL     1      -6.333  14.038  70.230  1.00  0.00     0.000 HD 
ENDBRANCH  21  22
ENDBRANCH  16  21
ENDBRANCH  15  16
ENDBRANCH   4  15
TORSDOF 6
ENDMDL
MODEL      142
REMARK 921   NORMALIZED FREE ENERGY PREDICTED BY IDOCK:   -3.74 KCAL/MOL
REMARK 922        TOTAL FREE ENERGY PREDICTED BY IDOCK:   -5.92 KCAL/MOL
REMARK 923 INTER-LIGAND FREE ENERGY PREDICTED BY IDOCK:   -5.29 KCAL/MOL
REMARK 924 INTRA-LIGAND FREE ENERGY PREDICTED BY IDOCK:   -0.62 KCAL/MOL
REMARK 927      BINDING AFFINITY PREDICTED BY RF-SCORE:    0.00 PKD
ROOT
HETATM    1  O   UNL     1     -10.814  11.944  67.612  1.00  0.00    -0.209 OA 
HETATM    2  H   UNL     1     -11.025  12.831  67.879  1.00  0.00     0.000 HD 
HETATM    3  O   UNL     2     -12.722  11.250  71.500  1.00  0.00    -0.397 OA 
HETATM    4  C   UNL     1     -11.313  10.944  68.493  1.00  0.00    -0.299 C  
HETATM    5  O   UNL     2     -13.713   7.306  72.065  1.00  0.00    -0.526 OA 
HETATM    6  C   UNL     2     -13.009   9.959  71.243  1.00  0.00    -0.395 C  
HETATM    7  C   UNL     2     -11.995   8.989  71.701  1.00  0.00    -0.426 A  
HETATM    8  O   UNL     2     -14.034   9.596  70.679  1.00  0.00     0.036 OA 
HETATM    9  C   UNL     2     -10.108   7.062  72.443  1.00  0.00    -0.193 A  
HETATM   10  C   UNL     2     -12.408   7.708  72.089  1.00  0.00    -0.241 A  
HETATM   11  C   UNL     2     -11.470   6.766  72.496  1.00  0.00    -0.270 A  
HETATM   12  C   UNL     2     -10.627   9.281  71.651  1.00  0.00    -0.360 A  
HETATM   13  H   UNL     2     -13.993   6.437  72.328  1.00  0.00     0.000 HD 
HETATM   14  C   UNL     2      -9.686   8.313  71.998  1.00  0.00    -0.322 A  
ENDROOT
BRANCH   4  15
HETATM   15  C   UNL     1     -10.969   9.495  68.056  1.00  0.00    -0.096 C  
BRANCH  15  16
HETATM   16  N   UNL     1      -9.603   9.011  68.387  1.00  0.00    -0.150 NA 
BRANCH  16  17
HETATM   17  C   UNL     1      -9.534   7.525  68.514  1.00  0.00    -0.146 C  
BRANCH  17  18
HETATM   18  C   UNL     1     -10.715   6.658  68.045  1.00  0.00    -0.265 C  
HETATM   19  H   UNL     1     -12.217   5.607  68.828  1.00  0.00     0.000 HD 
HETATM   20  O   UNL     1     -11.488   6.143  69.117  1.00  0.00    -0.379 OA 
ENDBRANCH  17  18
ENDBRANCH  16  17
BRANCH  16  21
HETATM   21  C   UNL     1      -8.620   9.430  67.357  1.00  0.00    -0.125 C  
BRANCH  21  22
HETATM   22  C   UNL     1      -9.061   9.357  65.879  1.00  0.00    -0.195 C  
HETATM   23  O   UNL     1      -8.825   8.048  65.362  1.00  0.00    -0.336 OA 
HETATM   24  H   UNL     1      -9.097   8.003  64.453  1.00  0.00     0.000 HD 
ENDBRANCH  21  22
ENDBRANCH  16  21
ENDBRANCH  15  16
ENDBRANCH   4  15
TORSDOF 6
ENDMDL
MODEL      143
REMARK 921   NORMALIZED FREE ENERGY PREDICTED BY IDOCK:   -3.74 KCAL/MOL
REMARK 922        TOTAL FREE ENERGY PREDICTED BY IDOCK:   -5.92 KCAL/MOL
REMARK 923 INTER-LIGAND FREE ENERGY PREDICTED BY IDOCK:   -5.27 KCAL/MOL
REMARK 924 INTRA-LIGAND FREE ENERGY PREDICTED BY IDOCK:   -0.65 KCAL/MOL
REMARK 927      BINDING AFFINITY PREDICTED BY RF-SCORE:    0.00 PKD
ROOT
HETATM    1  O   UNL     1     -10.455  12.587  68.620  1.00  0.00    -0.230 OA 
HETATM    2  H   UNL     1     -10.702  12.392  69.516  1.00  0.00     0.000 HD 
HETATM    3  O   UNL     2      -9.658   8.278  68.825  1.00  0.00    -0.148 OA 
HETATM    4  C   UNL     1     -10.113  11.437  67.855  1.00  0.00    -0.183 C  
HETATM    5  O   UNL     2      -9.131   6.615  65.108  1.00  0.00    -0.350 OA 
HETATM    6  C   UNL     2      -9.699   8.104  67.490  1.00  0.00    -0.161 C  
HETATM    7  C   UNL     2      -8.393   8.192  66.806  1.00  0.00    -0.115 A  
HETATM    8  O   UNL     2     -10.732   7.880  66.870  1.00  0.00    -0.333 OA 
HETATM    9  C   UNL     2      -5.993   8.425  65.390  1.00  0.00    -0.045 A  
HETATM   10  C   UNL     2      -8.182   7.437  65.646  1.00  0.00    -0.137 A  
HETATM   11  C   UNL     2      -6.972   7.525  64.968  1.00  0.00    -0.058 A  
HETATM   12  C   UNL     2      -7.407   9.092  67.227  1.00  0.00    -0.087 A  
HETATM   13  H   UNL     2      -8.987   6.102  64.321  1.00  0.00     0.000 HD 
HETATM   14  C   UNL     2      -6.221   9.225  66.506  1.00  0.00    -0.065 A  
ENDROOT
BRANCH   4  15
HETATM   15  C   UNL     1      -9.709  11.754  66.390  1.00  0.00    -0.214 C  
BRANCH  15  16
HETATM   16  N   UNL     1     -10.610  12.668  65.639  1.00  0.00    -0.268 NA 
BRANCH  16  17
HETATM   17  C   UNL     1     -10.168  14.092  65.704  1.00  0.00    -0.339 C  
BRANCH  17  18
HETATM   18  C   UNL     1     -11.105  15.162  66.291  1.00  0.00    -0.309 C  
HETATM   19  H   UNL     1     -12.532  15.321  67.673  1.00  0.00     0.000 HD 
HETATM   20  O   UNL     1     -11.954  14.660  67.311  1.00  0.00    -0.391 OA 
ENDBRANCH  17  18
ENDBRANCH  16  17
BRANCH  16  21
HETATM   21  C   UNL     1     -10.700  12.279  64.210  1.00  0.00    -0.351 C  
BRANCH  21  22
HETATM   22  C   UNL     1     -11.985  12.664  63.446  1.00  0.00    -0.528 C  
HETATM   23  O   UNL     1     -12.655  11.489  62.992  1.00  0.00    -0.958 OA 
HETATM   24  H   UNL     1     -13.446  11.726  62.521  1.00  0.00     0.000 HD 
ENDBRANCH  21  22
ENDBRANCH  16  21
ENDBRANCH  15  16
ENDBRANCH   4  15
TORSDOF 6
ENDMDL
MODEL      144
REMARK 921   NORMALIZED FREE ENERGY PREDICTED BY IDOCK:   -3.74 KCAL/MOL
REMARK 922        TOTAL FREE ENERGY PREDICTED BY IDOCK:   -5.91 KCAL/MOL
REMARK 923 INTER-LIGAND FREE ENERGY PREDICTED BY IDOCK:   -5.36 KCAL/MOL
REMARK 924 INTRA-LIGAND FREE ENERGY PREDICTED BY IDOCK:   -0.55 KCAL/MOL
REMARK 927      BINDING AFFINITY PREDICTED BY RF-SCORE:    0.00 PKD
ROOT
HETATM    1  O   UNL     1      -8.451  11.066  64.773  1.00  0.00    -0.370 OA 
HETATM    2  H   UNL     1      -8.988  10.702  64.080  1.00  0.00     0.000 HD 
HETATM    3  O   UNL     2     -12.458  12.355  66.009  1.00  0.00    -0.551 OA 
HETATM    4  C   UNL     1      -9.199  11.672  65.821  1.00  0.00    -0.173 C  
HETATM    5  O   UNL     2     -12.535  13.692  69.890  1.00  0.00    -0.274 OA 
HETATM    6  C   UNL     2     -12.108  12.557  67.293  1.00  0.00    -0.062 C  
HETATM    7  C   UNL     2     -11.693  13.936  67.621  1.00  0.00    -0.403 A  
HETATM    8  O   UNL     2     -12.132  11.676  68.145  1.00  0.00    -0.577 OA 
HETATM    9  C   UNL     2     -10.805  16.488  68.342  1.00  0.00    -0.348 A  
HETATM   10  C   UNL     2     -11.933  14.428  68.909  1.00  0.00    -0.302 A  
HETATM   11  C   UNL     2     -11.525  15.713  69.251  1.00  0.00    -0.368 A  
HETATM   12  C   UNL     2     -10.972  14.718  66.711  1.00  0.00    -0.327 A  
HETATM   13  H   UNL     2     -12.697  14.027  70.764  1.00  0.00     0.000 HD 
HETATM   14  C   UNL     2     -10.508  15.980  67.080  1.00  0.00    -0.307 A  
ENDROOT
BRANCH   4  15
HETATM   15  C   UNL     1      -8.321  12.268  66.955  1.00  0.00    -0.168 C  
BRANCH  15  16
HETATM   16  N   UNL     1      -6.998  11.627  67.173  1.00  0.00    -0.134 NA 
BRANCH  16  17
HETATM   17  C   UNL     1      -5.993  12.565  67.755  1.00  0.00    -0.119 C  
BRANCH  17  18
HETATM   18  C   UNL     1      -6.288  14.074  67.803  1.00  0.00    -0.159 C  
HETATM   19  H   UNL     1      -6.668  15.494  69.149  1.00  0.00     0.000 HD 
HETATM   20  O   UNL     1      -6.486  14.562  69.120  1.00  0.00    -0.094 OA 
ENDBRANCH  17  18
ENDBRANCH  16  17
BRANCH  16  21
HETATM   21  C   UNL     1      -7.111  10.455  68.077  1.00  0.00    -0.082 C  
BRANCH  21  22
HETATM   22  C   UNL     1      -8.104  10.557  69.255  1.00  0.00    -0.148 C  
HETATM   23  O   UNL     1      -7.398  10.788  70.473  1.00  0.00    -0.397 OA 
HETATM   24  H   UNL     1      -8.009  10.850  71.198  1.00  0.00     0.000 HD 
ENDBRANCH  21  22
ENDBRANCH  16  21
ENDBRANCH  15  16
ENDBRANCH   4  15
TORSDOF 6
ENDMDL
MODEL      145
REMARK 921   NORMALIZED FREE ENERGY PREDICTED BY IDOCK:   -3.73 KCAL/MOL
REMARK 922        TOTAL FREE ENERGY PREDICTED BY IDOCK:   -5.90 KCAL/MOL
REMARK 923 INTER-LIGAND FREE ENERGY PREDICTED BY IDOCK:   -5.35 KCAL/MOL
REMARK 924 INTRA-LIGAND FREE ENERGY PREDICTED BY IDOCK:   -0.56 KCAL/MOL
REMARK 927      BINDING AFFINITY PREDICTED BY RF-SCORE:    0.00 PKD
ROOT
HETATM    1  O   UNL     1      -9.496  11.501  63.957  1.00  0.00    -0.381 OA 
HETATM    2  H   UNL     1      -9.647  10.823  63.309  1.00  0.00     0.000 HD 
HETATM    3  O   UNL     2      -9.878   7.943  66.494  1.00  0.00    -0.228 OA 
HETATM    4  C   UNL     1      -9.357  11.007  65.284  1.00  0.00    -0.216 C  
HETATM    5  O   UNL     2      -8.568   8.617  70.326  1.00  0.00    -0.127 OA 
HETATM    6  C   UNL     2      -9.243   8.498  67.543  1.00  0.00    -0.133 C  
HETATM    7  C   UNL     2     -10.122   9.152  68.533  1.00  0.00    -0.212 A  
HETATM    8  O   UNL     2      -8.026   8.468  67.689  1.00  0.00    -0.105 OA 
HETATM    9  C   UNL     2     -11.674  10.498  70.431  1.00  0.00    -0.434 A  
HETATM   10  C   UNL     2      -9.731   9.174  69.878  1.00  0.00    -0.191 A  
HETATM   11  C   UNL     2     -10.527   9.809  70.825  1.00  0.00    -0.339 A  
HETATM   12  C   UNL     2     -11.275   9.843  68.144  1.00  0.00    -0.142 A  
HETATM   13  H   UNL     2      -8.303   8.632  71.239  1.00  0.00     0.000 HD 
HETATM   14  C   UNL     2     -12.035  10.534  69.086  1.00  0.00    -0.149 A  
ENDROOT
BRANCH   4  15
HETATM   15  C   UNL     1      -9.110  12.115  66.343  1.00  0.00    -0.177 C  
BRANCH  15  16
HETATM   16  N   UNL     1      -9.915  13.356  66.201  1.00  0.00    -0.291 NA 
BRANCH  16  17
HETATM   17  C   UNL     1     -11.371  13.129  66.439  1.00  0.00    -0.315 C  
BRANCH  17  18
HETATM   18  C   UNL     1     -12.411  13.763  65.499  1.00  0.00    -0.512 C  
HETATM   19  H   UNL     1     -13.281  13.390  63.745  1.00  0.00     0.000 HD 
HETATM   20  O   UNL     1     -12.638  12.999  64.325  1.00  0.00    -0.613 OA 
ENDBRANCH  17  18
ENDBRANCH  16  17
BRANCH  16  21
HETATM   21  C   UNL     1      -9.453  14.406  67.144  1.00  0.00    -0.222 C  
BRANCH  21  22
HETATM   22  C   UNL     1      -8.682  13.947  68.400  1.00  0.00    -0.173 C  
HETATM   23  O   UNL     1      -9.336  14.420  69.577  1.00  0.00    -0.384 OA 
HETATM   24  H   UNL     1      -8.861  14.138  70.350  1.00  0.00     0.000 HD 
ENDBRANCH  21  22
ENDBRANCH  16  21
ENDBRANCH  15  16
ENDBRANCH   4  15
TORSDOF 6
ENDMDL
MODEL      146
REMARK 921   NORMALIZED FREE ENERGY PREDICTED BY IDOCK:   -3.73 KCAL/MOL
REMARK 922        TOTAL FREE ENERGY PREDICTED BY IDOCK:   -5.89 KCAL/MOL
REMARK 923 INTER-LIGAND FREE ENERGY PREDICTED BY IDOCK:   -5.02 KCAL/MOL
REMARK 924 INTRA-LIGAND FREE ENERGY PREDICTED BY IDOCK:   -0.87 KCAL/MOL
REMARK 927      BINDING AFFINITY PREDICTED BY RF-SCORE:    0.00 PKD
ROOT
HETATM    1  O   UNL     1      -9.993  10.923  64.412  1.00  0.00    -0.267 OA 
HETATM    2  H   UNL     1     -10.729  10.854  63.816  1.00  0.00     0.000 HD 
HETATM    3  O   UNL     2     -12.544  14.209  65.804  1.00  0.00    -0.488 OA 
HETATM    4  C   UNL     1     -10.169  11.896  65.434  1.00  0.00    -0.263 C  
HETATM    5  O   UNL     2     -11.390  15.625  69.480  1.00  0.00    -0.278 OA 
HETATM    6  C   UNL     2     -11.969  14.275  67.020  1.00  0.00    -0.433 C  
HETATM    7  C   UNL     2     -10.861  15.244  67.137  1.00  0.00    -0.322 A  
HETATM    8  O   UNL     2     -12.329  13.596  67.974  1.00  0.00    -0.238 OA 
HETATM    9  C   UNL     2      -8.693  16.981  67.458  1.00  0.00    -0.215 A  
HETATM   10  C   UNL     2     -10.634  15.868  68.369  1.00  0.00    -0.266 A  
HETATM   11  C   UNL     2      -9.579  16.762  68.514  1.00  0.00    -0.245 A  
HETATM   12  C   UNL     2      -9.971  15.468  66.080  1.00  0.00    -0.332 A  
HETATM   13  H   UNL     2     -11.235  16.049  70.317  1.00  0.00     0.000 HD 
HETATM   14  C   UNL     2      -8.876  16.315  66.249  1.00  0.00    -0.367 A  
ENDROOT
BRANCH   4  15
HETATM   15  C   UNL     1      -8.965  12.008  66.409  1.00  0.00    -0.161 C  
BRANCH  15  16
HETATM   16  N   UNL     1      -8.981  11.101  67.586  1.00  0.00    -0.139 NA 
BRANCH  16  17
HETATM   17  C   UNL     1     -10.353  10.622  67.925  1.00  0.00    -0.199 C  
BRANCH  17  18
HETATM   18  C   UNL     1     -10.868  10.727  69.371  1.00  0.00    -0.244 C  
HETATM   19  H   UNL     1     -10.629   9.813  71.126  1.00  0.00     0.000 HD 
HETATM   20  O   UNL     1     -10.310   9.748  70.234  1.00  0.00    -0.258 OA 
ENDBRANCH  17  18
ENDBRANCH  16  17
BRANCH  16  21
HETATM   21  C   UNL     1      -8.122   9.912  67.359  1.00  0.00    -0.113 C  
BRANCH  21  22
HETATM   22  C   UNL     1      -7.194   9.472  68.512  1.00  0.00    -0.071 C  
HETATM   23  O   UNL     1      -7.450  10.260  69.674  1.00  0.00    -0.127 OA 
HETATM   24  H   UNL     1      -6.879   9.989  70.383  1.00  0.00     0.000 HD 
ENDBRANCH  21  22
ENDBRANCH  16  21
ENDBRANCH  15  16
ENDBRANCH   4  15
TORSDOF 6
ENDMDL
MODEL      147
REMARK 921   NORMALIZED FREE ENERGY PREDICTED BY IDOCK:   -3.71 KCAL/MOL
REMARK 922        TOTAL FREE ENERGY PREDICTED BY IDOCK:   -5.87 KCAL/MOL
REMARK 923 INTER-LIGAND FREE ENERGY PREDICTED BY IDOCK:   -5.69 KCAL/MOL
REMARK 924 INTRA-LIGAND FREE ENERGY PREDICTED BY IDOCK:   -0.18 KCAL/MOL
REMARK 927      BINDING AFFINITY PREDICTED BY RF-SCORE:    0.00 PKD
ROOT
HETATM    1  O   UNL     1      -8.361  12.282  69.102  1.00  0.00    -0.317 OA 
HETATM    2  H   UNL     1      -8.758  12.448  69.949  1.00  0.00     0.000 HD 
HETATM    3  O   UNL     2     -11.993  14.453  67.947  1.00  0.00    -0.353 OA 
HETATM    4  C   UNL     1      -9.045  12.895  68.016  1.00  0.00    -0.211 C  
HETATM    5  O   UNL     2     -11.866  15.734  64.048  1.00  0.00    -0.932 OA 
HETATM    6  C   UNL     2     -11.518  14.810  66.738  1.00  0.00    -0.338 C  
HETATM    7  C   UNL     2     -11.860  13.890  65.635  1.00  0.00    -0.383 A  
HETATM    8  O   UNL     2     -10.855  15.822  66.546  1.00  0.00    -0.304 OA 
HETATM    9  C   UNL     2     -12.368  12.180  63.480  1.00  0.00    -0.682 A  
HETATM   10  C   UNL     2     -12.016  14.409  64.343  1.00  0.00    -0.452 A  
HETATM   11  C   UNL     2     -12.309  13.560  63.282  1.00  0.00    -0.150 A  
HETATM   12  C   UNL     2     -11.922  12.505  65.829  1.00  0.00    -0.482 A  
HETATM   13  H   UNL     2     -11.972  16.085  63.171  1.00  0.00     0.000 HD 
HETATM   14  C   UNL     2     -12.151  11.652  64.751  1.00  0.00     0.106 A  
ENDROOT
BRANCH   4  15
HETATM   15  C   UNL     1      -8.396  12.623  66.632  1.00  0.00     0.084 C  
BRANCH  15  16
HETATM   16  N   UNL     1      -8.405  11.212  66.164  1.00  0.00    -0.165 NA 
BRANCH  16  17
HETATM   17  C   UNL     1      -7.031  10.665  65.961  1.00  0.00    -0.128 C  
BRANCH  17  18
HETATM   18  C   UNL     1      -6.277  10.024  67.139  1.00  0.00    -0.066 C  
HETATM   19  H   UNL     1      -5.448   8.279  67.626  1.00  0.00     0.000 HD 
HETATM   20  O   UNL     1      -5.913   8.674  66.899  1.00  0.00    -0.054 OA 
ENDBRANCH  17  18
ENDBRANCH  16  17
BRANCH  16  21
HETATM   21  C   UNL     1      -9.113  10.331  67.126  1.00  0.00    -0.142 C  
BRANCH  21  22
HETATM   22  C   UNL     1     -10.098   9.292  66.548  1.00  0.00    -0.273 C  
HETATM   23  O   UNL     1      -9.739   8.970  65.206  1.00  0.00    -0.452 OA 
HETATM   24  H   UNL     1     -10.345   8.330  64.851  1.00  0.00     0.000 HD 
ENDBRANCH  21  22
ENDBRANCH  16  21
ENDBRANCH  15  16
ENDBRANCH   4  15
TORSDOF 6
ENDMDL
MODEL      148
REMARK 921   NORMALIZED FREE ENERGY PREDICTED BY IDOCK:   -3.71 KCAL/MOL
REMARK 922        TOTAL FREE ENERGY PREDICTED BY IDOCK:   -5.87 KCAL/MOL
REMARK 923 INTER-LIGAND FREE ENERGY PREDICTED BY IDOCK:   -5.62 KCAL/MOL
REMARK 924 INTRA-LIGAND FREE ENERGY PREDICTED BY IDOCK:   -0.25 KCAL/MOL
REMARK 927      BINDING AFFINITY PREDICTED BY RF-SCORE:    0.00 PKD
ROOT
HETATM    1  O   UNL     1     -10.427  10.172  68.437  1.00  0.00    -0.187 OA 
HETATM    2  H   UNL     1     -11.160   9.889  68.970  1.00  0.00     0.000 HD 
HETATM    3  O   UNL     2     -12.378  13.998  69.334  1.00  0.00    -0.333 OA 
HETATM    4  C   UNL     1     -10.300  11.586  68.339  1.00  0.00    -0.202 C  
HETATM    5  O   UNL     2      -9.978  17.211  68.455  1.00  0.00    -0.274 OA 
HETATM    6  C   UNL     2     -11.281  14.734  69.071  1.00  0.00    -0.270 C  
HETATM    7  C   UNL     2     -11.185  15.244  67.689  1.00  0.00    -0.320 A  
HETATM    8  O   UNL     2     -10.419  14.982  69.906  1.00  0.00    -0.225 OA 
HETATM    9  C   UNL     2     -10.847  16.190  65.078  1.00  0.00    -0.380 A  
HETATM   10  C   UNL     2     -10.534  16.462  67.458  1.00  0.00    -0.304 A  
HETATM   11  C   UNL     2     -10.404  16.949  66.162  1.00  0.00    -0.327 A  
HETATM   12  C   UNL     2     -11.629  14.487  66.598  1.00  0.00    -0.385 A  
HETATM   13  H   UNL     2      -9.536  18.038  68.298  1.00  0.00     0.000 HD 
HETATM   14  C   UNL     2     -11.438  14.948  65.296  1.00  0.00    -0.336 A  
ENDROOT
BRANCH   4  15
HETATM   15  C   UNL     1      -9.101  12.049  67.467  1.00  0.00    -0.177 C  
BRANCH  15  16
HETATM   16  N   UNL     1      -9.075  11.559  66.064  1.00  0.00    -0.210 NA 
BRANCH  16  17
HETATM   17  C   UNL     1      -8.338  10.270  65.918  1.00  0.00    -0.145 C  
BRANCH  17  18
HETATM   18  C   UNL     1      -7.385  10.059  64.728  1.00  0.00    -0.143 C  
HETATM   19  H   UNL     1      -6.201   8.642  63.979  1.00  0.00     0.000 HD 
HETATM   20  O   UNL     1      -6.789   8.772  64.714  1.00  0.00    -0.072 OA 
ENDBRANCH  17  18
ENDBRANCH  16  17
BRANCH  16  21
HETATM   21  C   UNL     1     -10.450  11.364  65.538  1.00  0.00    -0.268 C  
BRANCH  21  22
HETATM   22  C   UNL     1     -10.678  11.617  64.032  1.00  0.00    -0.384 C  
HETATM   23  O   UNL     1      -9.640  12.445  63.511  1.00  0.00    -0.672 OA 
HETATM   24  H   UNL     1      -9.781  12.601  62.584  1.00  0.00     0.000 HD 
ENDBRANCH  21  22
ENDBRANCH  16  21
ENDBRANCH  15  16
ENDBRANCH   4  15
TORSDOF 6
ENDMDL
MODEL      149
REMARK 921   NORMALIZED FREE ENERGY PREDICTED BY IDOCK:   -3.69 KCAL/MOL
REMARK 922        TOTAL FREE ENERGY PREDICTED BY IDOCK:   -5.84 KCAL/MOL
REMARK 923 INTER-LIGAND FREE ENERGY PREDICTED BY IDOCK:   -4.70 KCAL/MOL
REMARK 924 INTRA-LIGAND FREE ENERGY PREDICTED BY IDOCK:   -1.14 KCAL/MOL
REMARK 927      BINDING AFFINITY PREDICTED BY RF-SCORE:    0.00 PKD
ROOT
HETATM    1  O   UNL     1      -9.487   9.307  69.490  1.00  0.00    -0.160 OA 
HETATM    2  H   UNL     1     -10.126   9.076  70.153  1.00  0.00     0.000 HD 
HETATM    3  O   UNL     2     -12.403  12.555  69.053  1.00  0.00    -0.071 OA 
HETATM    4  C   UNL     1      -9.740  10.556  68.857  1.00  0.00    -0.199 C  
HETATM    5  O   UNL     2     -10.933  15.676  66.826  1.00  0.00    -0.310 OA 
HETATM    6  C   UNL     2     -11.538  13.385  68.438  1.00  0.00    -0.332 C  
HETATM    7  C   UNL     2     -11.558  13.329  66.963  1.00  0.00    -0.404 A  
HETATM    8  O   UNL     2     -10.788  14.144  69.040  1.00  0.00    -0.249 OA 
HETATM    9  C   UNL     2     -11.441  13.249  64.170  1.00  0.00    -0.438 A  
HETATM   10  C   UNL     2     -11.253  14.486  66.236  1.00  0.00    -0.342 A  
HETATM   11  C   UNL     2     -11.236  14.452  64.846  1.00  0.00    -0.392 A  
HETATM   12  C   UNL     2     -11.766  12.125  66.279  1.00  0.00    -0.389 A  
HETATM   13  H   UNL     2     -10.726  16.461  66.333  1.00  0.00     0.000 HD 
HETATM   14  C   UNL     2     -11.683  12.081  64.889  1.00  0.00    -0.321 A  
ENDROOT
BRANCH   4  15
HETATM   15  C   UNL     1      -8.694  10.935  67.774  1.00  0.00    -0.129 C  
BRANCH  15  16
HETATM   16  N   UNL     1      -7.413  11.507  68.264  1.00  0.00    -0.096 NA 
BRANCH  16  17
HETATM   17  C   UNL     1      -6.336  10.482  68.394  1.00  0.00    -0.054 C  
BRANCH  17  18
HETATM   18  C   UNL     1      -6.022   9.868  69.770  1.00  0.00    -0.043 C  
HETATM   19  H   UNL     1      -6.821   9.767  71.593  1.00  0.00     0.000 HD 
HETATM   20  O   UNL     1      -7.015  10.146  70.744  1.00  0.00    -0.329 OA 
ENDBRANCH  17  18
ENDBRANCH  16  17
BRANCH  16  21
HETATM   21  C   UNL     1      -6.921  12.576  67.358  1.00  0.00    -0.147 C  
BRANCH  21  22
HETATM   22  C   UNL     1      -6.841  14.010  67.925  1.00  0.00    -0.164 C  
HETATM   23  O   UNL     1      -8.106  14.658  67.798  1.00  0.00    -0.129 OA 
HETATM   24  H   UNL     1      -8.056  15.541  68.147  1.00  0.00     0.000 HD 
ENDBRANCH  21  22
ENDBRANCH  16  21
ENDBRANCH  15  16
ENDBRANCH   4  15
TORSDOF 6
ENDMDL
MODEL      150
REMARK 921   NORMALIZED FREE ENERGY PREDICTED BY IDOCK:   -3.68 KCAL/MOL
REMARK 922        TOTAL FREE ENERGY PREDICTED BY IDOCK:   -5.84 KCAL/MOL
REMARK 923 INTER-LIGAND FREE ENERGY PREDICTED BY IDOCK:   -5.12 KCAL/MOL
REMARK 924 INTRA-LIGAND FREE ENERGY PREDICTED BY IDOCK:   -0.71 KCAL/MOL
REMARK 927      BINDING AFFINITY PREDICTED BY RF-SCORE:    0.00 PKD
ROOT
HETATM    1  O   UNL     1      -9.861   7.531  65.830  1.00  0.00    -0.401 OA 
HETATM    2  H   UNL     1      -9.783   6.694  65.389  1.00  0.00     0.000 HD 
HETATM    3  O   UNL     2      -9.547   4.781  69.234  1.00  0.00    -0.142 OA 
HETATM    4  C   UNL     1      -9.712   7.452  67.243  1.00  0.00    -0.157 C  
HETATM    5  O   UNL     2      -8.767   6.746  72.754  1.00  0.00    -0.122 OA 
HETATM    6  C   UNL     2      -9.159   5.737  70.100  1.00  0.00    -0.140 C  
HETATM    7  C   UNL     2     -10.253   6.369  70.865  1.00  0.00    -0.226 A  
HETATM    8  O   UNL     2      -7.991   6.067  70.263  1.00  0.00    -0.102 OA 
HETATM    9  C   UNL     2     -12.244   7.702  72.308  1.00  0.00    -0.261 A  
HETATM   10  C   UNL     2      -9.992   6.840  72.158  1.00  0.00    -0.162 A  
HETATM   11  C   UNL     2     -10.997   7.466  72.887  1.00  0.00    -0.408 A  
HETATM   12  C   UNL     2     -11.507   6.606  70.289  1.00  0.00    -0.449 A  
HETATM   13  H   UNL     2      -8.591   7.065  73.631  1.00  0.00     0.000 HD 
HETATM   14  C   UNL     2     -12.490   7.292  71.000  1.00  0.00    -0.323 A  
ENDROOT
BRANCH   4  15
HETATM   15  C   UNL     1      -9.839   8.821  67.965  1.00  0.00    -0.169 C  
BRANCH  15  16
HETATM   16  N   UNL     1     -10.527   9.904  67.214  1.00  0.00    -0.248 NA 
BRANCH  16  17
HETATM   17  C   UNL     1     -11.400  10.744  68.085  1.00  0.00    -0.308 C  
BRANCH  17  18
HETATM   18  C   UNL     1     -11.244  10.685  69.615  1.00  0.00    -0.289 C  
HETATM   19  H   UNL     1     -11.883  11.657  71.233  1.00  0.00     0.000 HD 
HETATM   20  O   UNL     1     -11.980  11.694  70.289  1.00  0.00    -0.338 OA 
ENDBRANCH  17  18
ENDBRANCH  16  17
BRANCH  16  21
HETATM   21  C   UNL     1      -9.550  10.798  66.544  1.00  0.00    -0.183 C  
BRANCH  21  22
HETATM   22  C   UNL     1      -9.788  11.124  65.053  1.00  0.00    -0.266 C  
HETATM   23  O   UNL     1     -10.092   9.931  64.333  1.00  0.00    -0.427 OA 
HETATM   24  H   UNL     1     -10.238  10.132  63.416  1.00  0.00     0.000 HD 
ENDBRANCH  21  22
ENDBRANCH  16  21
ENDBRANCH  15  16
ENDBRANCH   4  15
TORSDOF 6
ENDMDL
MODEL      151
REMARK 921   NORMALIZED FREE ENERGY PREDICTED BY IDOCK:   -3.68 KCAL/MOL
REMARK 922        TOTAL FREE ENERGY PREDICTED BY IDOCK:   -5.83 KCAL/MOL
REMARK 923 INTER-LIGAND FREE ENERGY PREDICTED BY IDOCK:   -5.16 KCAL/MOL
REMARK 924 INTRA-LIGAND FREE ENERGY PREDICTED BY IDOCK:   -0.67 KCAL/MOL
REMARK 927      BINDING AFFINITY PREDICTED BY RF-SCORE:    0.00 PKD
ROOT
HETATM    1  O   UNL     1     -11.149   8.961  67.433  1.00  0.00    -0.422 OA 
HETATM    2  H   UNL     1     -11.845   8.954  66.788  1.00  0.00     0.000 HD 
HETATM    3  O   UNL     2     -12.090  13.235  67.121  1.00  0.00    -0.361 OA 
HETATM    4  C   UNL     1     -10.902  10.244  67.997  1.00  0.00    -0.275 C  
HETATM    5  O   UNL     2     -10.453  15.416  70.190  1.00  0.00    -0.324 OA 
HETATM    6  C   UNL     2     -11.542  13.546  68.311  1.00  0.00    -0.346 C  
HETATM    7  C   UNL     2     -10.130  13.975  68.258  1.00  0.00    -0.246 A  
HETATM    8  O   UNL     2     -12.154  13.491  69.371  1.00  0.00    -0.316 OA 
HETATM    9  C   UNL     2      -7.434  14.717  68.294  1.00  0.00    -0.117 A  
HETATM   10  C   UNL     2      -9.663  14.893  69.207  1.00  0.00    -0.143 A  
HETATM   11  C   UNL     2      -8.331  15.290  69.196  1.00  0.00    -0.233 A  
HETATM   12  C   UNL     2      -9.226  13.404  67.353  1.00  0.00    -0.213 A  
HETATM   13  H   UNL     2     -10.136  16.039  70.834  1.00  0.00     0.000 HD 
HETATM   14  C   UNL     2      -7.878  13.757  67.388  1.00  0.00    -0.167 A  
ENDROOT
BRANCH   4  15
HETATM   15  C   UNL     1      -9.763  10.256  69.053  1.00  0.00    -0.205 C  
BRANCH  15  16
HETATM   16  N   UNL     1     -10.099   9.712  70.395  1.00  0.00    -0.265 NA 
BRANCH  16  17
HETATM   17  C   UNL     1     -11.490  10.046  70.819  1.00  0.00    -0.356 C  
BRANCH  17  18
HETATM   18  C   UNL     1     -12.345   8.994  71.549  1.00  0.00    -0.331 C  
HETATM   19  H   UNL     1     -14.264   8.606  71.919  1.00  0.00     0.000 HD 
HETATM   20  O   UNL     1     -13.737   9.255  71.468  1.00  0.00    -0.378 OA 
ENDBRANCH  17  18
ENDBRANCH  16  17
BRANCH  16  21
HETATM   21  C   UNL     1      -9.950   8.236  70.428  1.00  0.00    -0.188 C  
BRANCH  21  22
HETATM   22  C   UNL     1      -8.736   7.625  69.696  1.00  0.00    -0.136 C  
HETATM   23  O   UNL     1      -9.178   6.753  68.658  1.00  0.00    -0.134 OA 
HETATM   24  H   UNL     1      -8.431   6.377  68.207  1.00  0.00     0.000 HD 
ENDBRANCH  21  22
ENDBRANCH  16  21
ENDBRANCH  15  16
ENDBRANCH   4  15
TORSDOF 6
ENDMDL
MODEL      152
REMARK 921   NORMALIZED FREE ENERGY PREDICTED BY IDOCK:   -3.68 KCAL/MOL
REMARK 922        TOTAL FREE ENERGY PREDICTED BY IDOCK:   -5.83 KCAL/MOL
REMARK 923 INTER-LIGAND FREE ENERGY PREDICTED BY IDOCK:   -4.83 KCAL/MOL
REMARK 924 INTRA-LIGAND FREE ENERGY PREDICTED BY IDOCK:   -1.00 KCAL/MOL
REMARK 927      BINDING AFFINITY PREDICTED BY RF-SCORE:    0.00 PKD
ROOT
HETATM    1  O   UNL     1     -11.918  10.716  68.515  1.00  0.00    -0.743 OA 
HETATM    2  H   UNL     1     -12.867  10.729  68.549  1.00  0.00     0.000 HD 
HETATM    3  O   UNL     2     -12.754   7.100  70.855  1.00  0.00    -0.314 OA 
HETATM    4  C   UNL     1     -11.338   9.548  69.087  1.00  0.00     0.133 C  
HETATM    5  O   UNL     2      -9.471   4.654  71.166  1.00  0.00    -0.138 OA 
HETATM    6  C   UNL     2     -11.557   6.538  70.603  1.00  0.00    -0.381 C  
HETATM    7  C   UNL     2     -10.513   6.806  71.613  1.00  0.00    -0.231 A  
HETATM    8  O   UNL     2     -11.331   5.844  69.618  1.00  0.00    -0.370 OA 
HETATM    9  C   UNL     2      -8.432   7.316  73.410  1.00  0.00    -0.167 A  
HETATM   10  C   UNL     2      -9.523   5.842  71.839  1.00  0.00    -0.151 A  
HETATM   11  C   UNL     2      -8.513   6.083  72.763  1.00  0.00    -0.121 A  
HETATM   12  C   UNL     2     -10.429   8.041  72.267  1.00  0.00    -0.344 A  
HETATM   13  H   UNL     2      -8.799   4.000  71.319  1.00  0.00     0.000 HD 
HETATM   14  C   UNL     2      -9.378   8.303  73.144  1.00  0.00    -0.281 A  
ENDROOT
BRANCH   4  15
HETATM   15  C   UNL     1      -9.787   9.526  69.031  1.00  0.00    -0.176 C  
BRANCH  15  16
HETATM   16  N   UNL     1      -9.174   8.614  68.030  1.00  0.00    -0.140 NA 
BRANCH  16  17
HETATM   17  C   UNL     1      -8.421   7.491  68.661  1.00  0.00    -0.129 C  
BRANCH  17  18
HETATM   18  C   UNL     1      -7.276   7.789  69.645  1.00  0.00    -0.075 C  
HETATM   19  H   UNL     1      -5.711   9.012  69.811  1.00  0.00     0.000 HD 
HETATM   20  O   UNL     1      -6.418   8.828  69.203  1.00  0.00    -0.042 OA 
ENDBRANCH  17  18
ENDBRANCH  16  17
BRANCH  16  21
HETATM   21  C   UNL     1     -10.203   8.031  67.133  1.00  0.00    -0.292 C  
BRANCH  21  22
HETATM   22  C   UNL     1      -9.970   6.594  66.621  1.00  0.00    -0.140 C  
HETATM   23  O   UNL     1     -11.218   5.916  66.481  1.00  0.00    -0.724 OA 
HETATM   24  H   UNL     1     -11.075   5.031  66.166  1.00  0.00     0.000 HD 
ENDBRANCH  21  22
ENDBRANCH  16  21
ENDBRANCH  15  16
ENDBRANCH   4  15
TORSDOF 6
ENDMDL
MODEL      153
REMARK 921   NORMALIZED FREE ENERGY PREDICTED BY IDOCK:   -3.67 KCAL/MOL
REMARK 922        TOTAL FREE ENERGY PREDICTED BY IDOCK:   -5.82 KCAL/MOL
REMARK 923 INTER-LIGAND FREE ENERGY PREDICTED BY IDOCK:   -5.87 KCAL/MOL
REMARK 924 INTRA-LIGAND FREE ENERGY PREDICTED BY IDOCK:    0.05 KCAL/MOL
REMARK 927      BINDING AFFINITY PREDICTED BY RF-SCORE:    0.00 PKD
ROOT
HETATM    1  O   UNL     1     -11.291  17.068  64.097  1.00  0.00    -1.292 OA 
HETATM    2  H   UNL     1     -11.960  16.801  63.478  1.00  0.00     0.000 HD 
HETATM    3  O   UNL     2     -12.928  13.509  66.071  1.00  0.00    -0.238 OA 
HETATM    4  C   UNL     1     -11.113  16.162  65.179  1.00  0.00    -0.249 C  
HETATM    5  O   UNL     2     -10.520  12.174  69.117  1.00  0.00    -0.415 OA 
HETATM    6  C   UNL     2     -11.843  13.315  66.845  1.00  0.00    -0.392 C  
HETATM    7  C   UNL     2     -11.907  13.940  68.182  1.00  0.00    -0.407 A  
HETATM    8  O   UNL     2     -10.867  12.665  66.489  1.00  0.00    -0.251 OA 
HETATM    9  C   UNL     2     -11.874  15.150  70.704  1.00  0.00    -0.371 A  
HETATM   10  C   UNL     2     -11.237  13.329  69.249  1.00  0.00    -0.208 A  
HETATM   11  C   UNL     2     -11.257  13.913  70.511  1.00  0.00     0.314 A  
HETATM   12  C   UNL     2     -12.526  15.180  68.381  1.00  0.00     0.406 A  
HETATM   13  H   UNL     2     -10.065  11.760  69.842  1.00  0.00     0.000 HD 
HETATM   14  C   UNL     2     -12.488  15.793  69.632  1.00  0.00    -0.006 A  
ENDROOT
BRANCH   4  15
HETATM   15  C   UNL     1     -10.020  16.600  66.191  1.00  0.00    -0.337 C  
BRANCH  15  16
HETATM   16  N   UNL     1      -9.306  17.867  65.886  1.00  0.00    -0.514 NA 
BRANCH  16  17
HETATM   17  C   UNL     1     -10.105  19.077  66.240  1.00  0.00    -0.422 C  
BRANCH  17  18
HETATM   18  C   UNL     1     -10.720  19.209  67.644  1.00  0.00    -0.417 C  
HETATM   19  H   UNL     1     -10.140  19.191  69.551  1.00  0.00     0.000 HD 
HETATM   20  O   UNL     1      -9.760  19.109  68.684  1.00  0.00    -0.369 OA 
ENDBRANCH  17  18
ENDBRANCH  16  17
BRANCH  16  21
HETATM   21  C   UNL     1      -8.012  17.942  66.611  1.00  0.00    -0.249 C  
BRANCH  21  22
HETATM   22  C   UNL     1      -6.744  18.225  65.777  1.00  0.00    -0.282 C  
HETATM   23  O   UNL     1      -5.618  17.573  66.362  1.00  0.00    -0.175 OA 
HETATM   24  H   UNL     1      -4.837  17.748  65.849  1.00  0.00     0.000 HD 
ENDBRANCH  21  22
ENDBRANCH  16  21
ENDBRANCH  15  16
ENDBRANCH   4  15
TORSDOF 6
ENDMDL
MODEL      154
REMARK 921   NORMALIZED FREE ENERGY PREDICTED BY IDOCK:   -3.67 KCAL/MOL
REMARK 922        TOTAL FREE ENERGY PREDICTED BY IDOCK:   -5.82 KCAL/MOL
REMARK 923 INTER-LIGAND FREE ENERGY PREDICTED BY IDOCK:   -5.70 KCAL/MOL
REMARK 924 INTRA-LIGAND FREE ENERGY PREDICTED BY IDOCK:   -0.12 KCAL/MOL
REMARK 927      BINDING AFFINITY PREDICTED BY RF-SCORE:    0.00 PKD
ROOT
HETATM    1  O   UNL     1     -12.452  15.074  68.185  1.00  0.00    -0.464 OA 
HETATM    2  H   UNL     1     -13.212  15.510  67.817  1.00  0.00     0.000 HD 
HETATM    3  O   UNL     2     -10.891  19.118  67.515  1.00  0.00    -0.473 OA 
HETATM    4  C   UNL     1     -11.349  15.941  68.420  1.00  0.00    -0.361 C  
HETATM    5  O   UNL     2      -7.339  19.759  69.472  1.00  0.00    -0.293 OA 
HETATM    6  C   UNL     2      -9.876  18.981  68.389  1.00  0.00    -0.392 C  
HETATM    7  C   UNL     2      -8.602  18.520  67.803  1.00  0.00    -0.286 A  
HETATM    8  O   UNL     2      -9.979  19.222  69.586  1.00  0.00    -0.139 OA 
HETATM    9  C   UNL     2      -6.160  17.569  66.823  1.00  0.00    -0.219 A  
HETATM   10  C   UNL     2      -7.397  18.939  68.381  1.00  0.00    -0.288 A  
HETATM   11  C   UNL     2      -6.185  18.496  67.866  1.00  0.00    -0.188 A  
HETATM   12  C   UNL     2      -8.572  17.592  66.755  1.00  0.00    -0.276 A  
HETATM   13  H   UNL     2      -6.522  20.043  69.865  1.00  0.00     0.000 HD 
HETATM   14  C   UNL     2      -7.356  17.100  66.284  1.00  0.00    -0.326 A  
ENDROOT
BRANCH   4  15
HETATM   15  C   UNL     1     -10.108  15.228  69.023  1.00  0.00    -0.239 C  
BRANCH  15  16
HETATM   16  N   UNL     1      -9.688  13.963  68.365  1.00  0.00    -0.226 NA 
BRANCH  16  17
HETATM   17  C   UNL     1     -10.768  12.934  68.354  1.00  0.00    -0.255 C  
BRANCH  17  18
HETATM   18  C   UNL     1     -11.168  12.226  69.660  1.00  0.00    -0.050 C  
HETATM   19  H   UNL     1     -12.504  12.415  71.128  1.00  0.00     0.000 HD 
HETATM   20  O   UNL     1     -12.256  12.852  70.321  1.00  0.00    -0.339 OA 
ENDBRANCH  17  18
ENDBRANCH  16  17
BRANCH  16  21
HETATM   21  C   UNL     1      -9.266  14.202  66.961  1.00  0.00    -0.239 C  
BRANCH  21  22
HETATM   22  C   UNL     1     -10.186  13.672  65.841  1.00  0.00    -0.311 C  
HETATM   23  O   UNL     1     -10.884  14.754  65.226  1.00  0.00    -0.333 OA 
HETATM   24  H   UNL     1     -11.450  14.427  64.537  1.00  0.00     0.000 HD 
ENDBRANCH  21  22
ENDBRANCH  16  21
ENDBRANCH  15  16
ENDBRANCH   4  15
TORSDOF 6
ENDMDL
MODEL      155
REMARK 921   NORMALIZED FREE ENERGY PREDICTED BY IDOCK:   -3.66 KCAL/MOL
REMARK 922        TOTAL FREE ENERGY PREDICTED BY IDOCK:   -5.81 KCAL/MOL
REMARK 923 INTER-LIGAND FREE ENERGY PREDICTED BY IDOCK:   -5.30 KCAL/MOL
REMARK 924 INTRA-LIGAND FREE ENERGY PREDICTED BY IDOCK:   -0.51 KCAL/MOL
REMARK 927      BINDING AFFINITY PREDICTED BY RF-SCORE:    0.00 PKD
ROOT
HETATM    1  O   UNL     1     -11.704  13.310  70.325  1.00  0.00    -0.502 OA 
HETATM    2  H   UNL     1     -11.528  13.443  71.249  1.00  0.00     0.000 HD 
HETATM    3  O   UNL     2     -10.504   9.277  71.567  1.00  0.00    -0.334 OA 
HETATM    4  C   UNL     1     -11.615  11.951  69.912  1.00  0.00    -0.256 C  
HETATM    5  O   UNL     2     -11.456   6.437  68.759  1.00  0.00    -0.572 OA 
HETATM    6  C   UNL     2     -11.092   8.670  70.519  1.00  0.00    -0.242 C  
HETATM    7  C   UNL     2     -10.215   8.443  69.353  1.00  0.00    -0.208 A  
HETATM    8  O   UNL     2     -12.266   8.316  70.515  1.00  0.00     0.007 OA 
HETATM    9  C   UNL     2      -8.676   8.038  67.053  1.00  0.00    -0.132 A  
HETATM   10  C   UNL     2     -10.448   7.331  68.534  1.00  0.00    -0.188 A  
HETATM   11  C   UNL     2      -9.655   7.111  67.414  1.00  0.00    -0.168 A  
HETATM   12  C   UNL     2      -9.230   9.369  68.987  1.00  0.00    -0.145 A  
HETATM   13  H   UNL     2     -11.614   5.683  68.203  1.00  0.00     0.000 HD 
HETATM   14  C   UNL     2      -8.480   9.179  67.828  1.00  0.00    -0.117 A  
ENDROOT
BRANCH   4  15
HETATM   15  C   UNL     1     -11.903  11.735  68.401  1.00  0.00    -0.282 C  
BRANCH  15  16
HETATM   16  N   UNL     1     -11.107  12.556  67.452  1.00  0.00    -0.259 NA 
BRANCH  16  17
HETATM   17  C   UNL     1     -11.831  13.782  67.005  1.00  0.00    -0.410 C  
BRANCH  17  18
HETATM   18  C   UNL     1     -11.386  14.514  65.726  1.00  0.00    -0.336 C  
HETATM   19  H   UNL     1     -10.795  14.084  63.872  1.00  0.00     0.000 HD 
HETATM   20  O   UNL     1     -11.069  13.632  64.661  1.00  0.00    -0.347 OA 
ENDBRANCH  17  18
ENDBRANCH  16  17
BRANCH  16  21
HETATM   21  C   UNL     1      -9.818  12.977  68.055  1.00  0.00    -0.224 C  
BRANCH  21  22
HETATM   22  C   UNL     1      -8.549  12.850  67.185  1.00  0.00    -0.198 C  
HETATM   23  O   UNL     1      -8.822  12.056  66.032  1.00  0.00    -0.387 OA 
HETATM   24  H   UNL     1      -8.041  11.979  65.497  1.00  0.00     0.000 HD 
ENDBRANCH  21  22
ENDBRANCH  16  21
ENDBRANCH  15  16
ENDBRANCH   4  15
TORSDOF 6
ENDMDL
MODEL      156
REMARK 921   NORMALIZED FREE ENERGY PREDICTED BY IDOCK:   -3.65 KCAL/MOL
REMARK 922        TOTAL FREE ENERGY PREDICTED BY IDOCK:   -5.78 KCAL/MOL
REMARK 923 INTER-LIGAND FREE ENERGY PREDICTED BY IDOCK:   -5.24 KCAL/MOL
REMARK 924 INTRA-LIGAND FREE ENERGY PREDICTED BY IDOCK:   -0.54 KCAL/MOL
REMARK 927      BINDING AFFINITY PREDICTED BY RF-SCORE:    0.00 PKD
ROOT
HETATM    1  O   UNL     1      -7.280   7.788  68.170  1.00  0.00    -0.085 OA 
HETATM    2  H   UNL     1      -6.349   7.895  68.014  1.00  0.00     0.000 HD 
HETATM    3  O   UNL     2      -7.281  10.591  64.796  1.00  0.00    -0.078 OA 
HETATM    4  C   UNL     1      -8.102   8.444  67.212  1.00  0.00    -0.105 C  
HETATM    5  O   UNL     2     -10.982  10.924  63.051  1.00  0.00    -0.738 OA 
HETATM    6  C   UNL     2      -8.547  10.312  64.433  1.00  0.00    -0.187 C  
HETATM    7  C   UNL     2      -9.575  11.199  65.016  1.00  0.00    -0.278 A  
HETATM    8  O   UNL     2      -8.846   9.400  63.672  1.00  0.00    -0.221 OA 
HETATM    9  C   UNL     2     -11.618  12.755  66.124  1.00  0.00    -0.431 A  
HETATM   10  C   UNL     2     -10.742  11.456  64.285  1.00  0.00    -0.356 A  
HETATM   11  C   UNL     2     -11.737  12.264  64.824  1.00  0.00    -0.419 A  
HETATM   12  C   UNL     2      -9.459  11.696  66.319  1.00  0.00    -0.233 A  
HETATM   13  H   UNL     2     -11.774  11.099  62.556  1.00  0.00     0.000 HD 
HETATM   14  C   UNL     2     -10.488  12.451  66.880  1.00  0.00    -0.243 A  
ENDROOT
BRANCH   4  15
HETATM   15  C   UNL     1      -9.624   8.269  67.466  1.00  0.00    -0.154 C  
BRANCH  15  16
HETATM   16  N   UNL     1     -10.039   8.064  68.879  1.00  0.00    -0.196 NA 
BRANCH  16  17
HETATM   17  C   UNL     1     -10.750   9.247  69.447  1.00  0.00    -0.208 C  
BRANCH  17  18
HETATM   18  C   UNL     1     -11.470   9.133  70.802  1.00  0.00    -0.282 C  
HETATM   19  H   UNL     1     -11.023   8.990  72.739  1.00  0.00     0.000 HD 
HETATM   20  O   UNL     1     -10.578   9.060  71.902  1.00  0.00    -0.344 OA 
ENDBRANCH  17  18
ENDBRANCH  16  17
BRANCH  16  21
HETATM   21  C   UNL     1     -10.932   6.885  69.011  1.00  0.00    -0.181 C  
BRANCH  21  22
HETATM   22  C   UNL     1     -10.363   5.636  69.718  1.00  0.00    -0.282 C  
HETATM   23  O   UNL     1     -10.940   5.503  71.016  1.00  0.00    -0.222 OA 
HETATM   24  H   UNL     1     -10.589   4.735  71.451  1.00  0.00     0.000 HD 
ENDBRANCH  21  22
ENDBRANCH  16  21
ENDBRANCH  15  16
ENDBRANCH   4  15
TORSDOF 6
ENDMDL
MODEL      157
REMARK 921   NORMALIZED FREE ENERGY PREDICTED BY IDOCK:   -3.64 KCAL/MOL
REMARK 922        TOTAL FREE ENERGY PREDICTED BY IDOCK:   -5.78 KCAL/MOL
REMARK 923 INTER-LIGAND FREE ENERGY PREDICTED BY IDOCK:   -5.54 KCAL/MOL
REMARK 924 INTRA-LIGAND FREE ENERGY PREDICTED BY IDOCK:   -0.24 KCAL/MOL
REMARK 927      BINDING AFFINITY PREDICTED BY RF-SCORE:    0.00 PKD
ROOT
HETATM    1  O   UNL     1      -9.355   9.040  67.255  1.00  0.00    -0.135 OA 
HETATM    2  H   UNL     1      -8.647   8.616  66.786  1.00  0.00     0.000 HD 
HETATM    3  O   UNL     2      -9.216  11.406  63.563  1.00  0.00    -0.177 OA 
HETATM    4  C   UNL     1     -10.018  10.050  66.503  1.00  0.00    -0.225 C  
HETATM    5  O   UNL     2     -12.555  13.748  63.090  1.00  0.00    -1.024 OA 
HETATM    6  C   UNL     2     -10.470  11.879  63.699  1.00  0.00    -0.447 C  
HETATM    7  C   UNL     2     -10.578  13.180  64.388  1.00  0.00    -0.441 A  
HETATM    8  O   UNL     2     -11.461  11.291  63.281  1.00  0.00    -0.159 OA 
HETATM    9  C   UNL     2     -10.917  15.596  65.756  1.00  0.00    -0.250 A  
HETATM   10  C   UNL     2     -11.621  14.047  64.041  1.00  0.00    -0.177 A  
HETATM   11  C   UNL     2     -11.762  15.265  64.696  1.00  0.00    -0.308 A  
HETATM   12  C   UNL     2      -9.731  13.518  65.451  1.00  0.00    -0.043 A  
HETATM   13  H   UNL     2     -13.263  14.337  62.855  1.00  0.00     0.000 HD 
HETATM   14  C   UNL     2      -9.916  14.711  66.147  1.00  0.00    -0.323 A  
ENDROOT
BRANCH   4  15
HETATM   15  C   UNL     1     -11.177  10.744  67.270  1.00  0.00    -0.197 C  
BRANCH  15  16
HETATM   16  N   UNL     1     -10.972  10.956  68.727  1.00  0.00    -0.217 NA 
BRANCH  16  17
HETATM   17  C   UNL     1     -11.924  11.952  69.302  1.00  0.00    -0.281 C  
BRANCH  17  18
HETATM   18  C   UNL     1     -11.448  13.383  69.606  1.00  0.00    -0.207 C  
HETATM   19  H   UNL     1     -11.706  15.235  68.917  1.00  0.00     0.000 HD 
HETATM   20  O   UNL     1     -12.000  14.351  68.729  1.00  0.00    -0.319 OA 
ENDBRANCH  17  18
ENDBRANCH  16  17
BRANCH  16  21
HETATM   21  C   UNL     1     -11.124   9.686  69.480  1.00  0.00    -0.168 C  
BRANCH  21  22
HETATM   22  C   UNL     1     -10.114   9.405  70.613  1.00  0.00    -0.291 C  
HETATM   23  O   UNL     1      -9.137   8.462  70.176  1.00  0.00    -0.146 OA 
HETATM   24  H   UNL     1      -8.515   8.289  70.873  1.00  0.00     0.000 HD 
ENDBRANCH  21  22
ENDBRANCH  16  21
ENDBRANCH  15  16
ENDBRANCH   4  15
TORSDOF 6
ENDMDL
MODEL      158
REMARK 921   NORMALIZED FREE ENERGY PREDICTED BY IDOCK:   -3.61 KCAL/MOL
REMARK 922        TOTAL FREE ENERGY PREDICTED BY IDOCK:   -5.74 KCAL/MOL
REMARK 923 INTER-LIGAND FREE ENERGY PREDICTED BY IDOCK:   -5.39 KCAL/MOL
REMARK 924 INTRA-LIGAND FREE ENERGY PREDICTED BY IDOCK:   -0.35 KCAL/MOL
REMARK 927      BINDING AFFINITY PREDICTED BY RF-SCORE:    0.00 PKD
ROOT
HETATM    1  O   UNL     1     -12.502  14.401  66.959  1.00  0.00    -0.579 OA 
HETATM    2  H   UNL     1     -12.594  14.780  66.093  1.00  0.00     0.000 HD 
HETATM    3  O   UNL     2      -8.463  15.964  66.261  1.00  0.00    -0.311 OA 
HETATM    4  C   UNL     1     -11.237  14.646  67.562  1.00  0.00    -0.333 C  
HETATM    5  O   UNL     2      -6.229  16.094  69.703  1.00  0.00    -0.173 OA 
HETATM    6  C   UNL     2      -8.137  15.988  67.567  1.00  0.00    -0.148 C  
HETATM    7  C   UNL     2      -7.454  14.778  68.065  1.00  0.00    -0.135 A  
HETATM    8  O   UNL     2      -8.374  16.938  68.304  1.00  0.00    -0.208 OA 
HETATM    9  C   UNL     2      -6.234  12.504  69.144  1.00  0.00    -0.094 A  
HETATM   10  C   UNL     2      -6.531  14.901  69.111  1.00  0.00    -0.112 A  
HETATM   11  C   UNL     2      -5.897  13.772  69.617  1.00  0.00    -0.106 A  
HETATM   12  C   UNL     2      -7.787  13.503  67.591  1.00  0.00    -0.178 A  
HETATM   13  H   UNL     2      -5.603  16.177  70.413  1.00  0.00     0.000 HD 
HETATM   14  C   UNL     2      -7.196  12.369  68.146  1.00  0.00    -0.100 A  
ENDROOT
BRANCH   4  15
HETATM   15  C   UNL     1     -11.086  14.028  68.978  1.00  0.00    -0.264 C  
BRANCH  15  16
HETATM   16  N   UNL     1     -12.333  13.888  69.775  1.00  0.00    -0.316 NA 
BRANCH  16  17
HETATM   17  C   UNL     1     -12.251  12.794  70.786  1.00  0.00    -0.248 C  
BRANCH  17  18
HETATM   18  C   UNL     1     -12.244  11.324  70.331  1.00  0.00    -0.365 C  
HETATM   19  H   UNL     1     -12.510  10.262  68.665  1.00  0.00     0.000 HD 
HETATM   20  O   UNL     1     -12.514  11.170  68.947  1.00  0.00    -0.460 OA 
ENDBRANCH  17  18
ENDBRANCH  16  17
BRANCH  16  21
HETATM   21  C   UNL     1     -12.659  15.149  70.487  1.00  0.00    -0.380 C  
BRANCH  21  22
HETATM   22  C   UNL     1     -12.565  15.142  72.028  1.00  0.00    -0.343 C  
HETATM   23  O   UNL     1     -13.811  15.543  72.597  1.00  0.00    -0.534 OA 
HETATM   24  H   UNL     1     -13.752  15.539  73.545  1.00  0.00     0.000 HD 
ENDBRANCH  21  22
ENDBRANCH  16  21
ENDBRANCH  15  16
ENDBRANCH   4  15
TORSDOF 6
ENDMDL
MODEL      159
REMARK 921   NORMALIZED FREE ENERGY PREDICTED BY IDOCK:   -3.61 KCAL/MOL
REMARK 922        TOTAL FREE ENERGY PREDICTED BY IDOCK:   -5.73 KCAL/MOL
REMARK 923 INTER-LIGAND FREE ENERGY PREDICTED BY IDOCK:   -4.93 KCAL/MOL
REMARK 924 INTRA-LIGAND FREE ENERGY PREDICTED BY IDOCK:   -0.80 KCAL/MOL
REMARK 927      BINDING AFFINITY PREDICTED BY RF-SCORE:    0.00 PKD
ROOT
HETATM    1  O   UNL     1      -7.258  14.632  68.364  1.00  0.00    -0.104 OA 
HETATM    2  H   UNL     1      -6.625  14.632  69.071  1.00  0.00     0.000 HD 
HETATM    3  O   UNL     2      -7.564  10.500  69.803  1.00  0.00    -0.151 OA 
HETATM    4  C   UNL     1      -7.996  13.421  68.253  1.00  0.00    -0.147 C  
HETATM    5  O   UNL     2     -10.895   8.588  68.351  1.00  0.00    -0.428 OA 
HETATM    6  C   UNL     2      -8.780  10.294  69.264  1.00  0.00    -0.174 C  
HETATM    7  C   UNL     2      -8.775   9.698  67.914  1.00  0.00    -0.119 A  
HETATM    8  O   UNL     2      -9.828  10.568  69.838  1.00  0.00    -0.107 OA 
HETATM    9  C   UNL     2      -8.890   8.653  65.322  1.00  0.00    -0.178 A  
HETATM   10  C   UNL     2      -9.839   8.872  67.532  1.00  0.00    -0.184 A  
HETATM   11  C   UNL     2      -9.872   8.322  66.256  1.00  0.00    -0.227 A  
HETATM   12  C   UNL     2      -7.790  10.025  66.973  1.00  0.00    -0.102 A  
HETATM   13  H   UNL     2     -11.617   8.028  68.092  1.00  0.00     0.000 HD 
HETATM   14  C   UNL     2      -7.862   9.523  65.675  1.00  0.00    -0.101 A  
ENDROOT
BRANCH   4  15
HETATM   15  C   UNL     1      -9.032  13.420  67.096  1.00  0.00    -0.226 C  
BRANCH  15  16
HETATM   16  N   UNL     1     -10.310  14.135  67.352  1.00  0.00    -0.255 NA 
BRANCH  16  17
HETATM   17  C   UNL     1     -11.478  13.480  66.695  1.00  0.00    -0.339 C  
BRANCH  17  18
HETATM   18  C   UNL     1     -11.479  11.957  66.468  1.00  0.00    -0.314 C  
HETATM   19  H   UNL     1     -12.033  10.294  67.415  1.00  0.00     0.000 HD 
HETATM   20  O   UNL     1     -12.033  11.233  67.555  1.00  0.00    -0.612 OA 
ENDBRANCH  17  18
ENDBRANCH  16  17
BRANCH  16  21
HETATM   21  C   UNL     1     -10.593  14.225  68.807  1.00  0.00    -0.252 C  
BRANCH  21  22
HETATM   22  C   UNL     1     -12.071  14.176  69.250  1.00  0.00    -0.324 C  
HETATM   23  O   UNL     1     -12.530  15.487  69.573  1.00  0.00    -0.587 OA 
HETATM   24  H   UNL     1     -13.439  15.457  69.846  1.00  0.00     0.000 HD 
ENDBRANCH  21  22
ENDBRANCH  16  21
ENDBRANCH  15  16
ENDBRANCH   4  15
TORSDOF 6
ENDMDL
MODEL      160
REMARK 921   NORMALIZED FREE ENERGY PREDICTED BY IDOCK:   -3.60 KCAL/MOL
REMARK 922        TOTAL FREE ENERGY PREDICTED BY IDOCK:   -5.72 KCAL/MOL
REMARK 923 INTER-LIGAND FREE ENERGY PREDICTED BY IDOCK:   -4.93 KCAL/MOL
REMARK 924 INTRA-LIGAND FREE ENERGY PREDICTED BY IDOCK:   -0.79 KCAL/MOL
REMARK 927      BINDING AFFINITY PREDICTED BY RF-SCORE:    0.00 PKD
ROOT
HETATM    1  O   UNL     1      -8.495  15.519  67.156  1.00  0.00    -0.179 OA 
HETATM    2  H   UNL     1      -7.914  15.743  67.873  1.00  0.00     0.000 HD 
HETATM    3  O   UNL     2      -7.912  11.607  69.053  1.00  0.00    -0.064 OA 
HETATM    4  C   UNL     1      -8.929  14.164  67.168  1.00  0.00    -0.225 C  
HETATM    5  O   UNL     2     -10.640   8.827  67.755  1.00  0.00    -0.333 OA 
HETATM    6  C   UNL     2      -9.022  11.067  68.514  1.00  0.00    -0.163 C  
HETATM    7  C   UNL     2      -8.813  10.348  67.241  1.00  0.00    -0.135 A  
HETATM    8  O   UNL     2     -10.131  11.148  69.028  1.00  0.00    -0.204 OA 
HETATM    9  C   UNL     2      -8.559   9.036  64.784  1.00  0.00    -0.201 A  
HETATM   10  C   UNL     2      -9.640   9.261  66.932  1.00  0.00    -0.174 A  
HETATM   11  C   UNL     2      -9.483   8.586  65.727  1.00  0.00    -0.134 A  
HETATM   12  C   UNL     2      -7.885  10.795  66.292  1.00  0.00    -0.156 A  
HETATM   13  H   UNL     2     -11.201   8.089  67.545  1.00  0.00     0.000 HD 
HETATM   14  C   UNL     2      -7.776  10.155  65.058  1.00  0.00    -0.141 A  
ENDROOT
BRANCH   4  15
HETATM   15  C   UNL     1      -9.879  13.799  65.996  1.00  0.00    -0.282 C  
BRANCH  15  16
HETATM   16  N   UNL     1     -11.109  13.044  66.352  1.00  0.00    -0.281 NA 
BRANCH  16  17
HETATM   17  C   UNL     1     -12.256  13.938  66.687  1.00  0.00    -0.424 C  
BRANCH  17  18
HETATM   18  C   UNL     1     -12.341  14.591  68.078  1.00  0.00     0.067 C  
HETATM   19  H   UNL     1     -11.855  14.183  69.967  1.00  0.00     0.000 HD 
HETATM   20  O   UNL     1     -11.802  13.780  69.108  1.00  0.00    -0.310 OA 
ENDBRANCH  17  18
ENDBRANCH  16  17
BRANCH  16  21
HETATM   21  C   UNL     1     -11.531  12.151  65.245  1.00  0.00    -0.336 C  
BRANCH  21  22
HETATM   22  C   UNL     1     -10.914  12.402  63.852  1.00  0.00    -0.414 C  
HETATM   23  O   UNL     1     -11.853  13.077  63.015  1.00  0.00    -0.841 OA 
HETATM   24  H   UNL     1     -11.474  13.231  62.158  1.00  0.00     0.000 HD 
ENDBRANCH  21  22
ENDBRANCH  16  21
ENDBRANCH  15  16
ENDBRANCH   4  15
TORSDOF 6
ENDMDL
MODEL      161
REMARK 921   NORMALIZED FREE ENERGY PREDICTED BY IDOCK:   -3.57 KCAL/MOL
REMARK 922        TOTAL FREE ENERGY PREDICTED BY IDOCK:   -5.68 KCAL/MOL
REMARK 923 INTER-LIGAND FREE ENERGY PREDICTED BY IDOCK:   -5.41 KCAL/MOL
REMARK 924 INTRA-LIGAND FREE ENERGY PREDICTED BY IDOCK:   -0.27 KCAL/MOL
REMARK 927      BINDING AFFINITY PREDICTED BY RF-SCORE:    0.00 PKD
ROOT
HETATM    1  O   UNL     1      -8.791   9.511  71.204  1.00  0.00    -0.311 OA 
HETATM    2  H   UNL     1      -7.857   9.650  71.305  1.00  0.00     0.000 HD 
HETATM    3  O   UNL     2      -7.749  11.281  67.327  1.00  0.00    -0.123 OA 
HETATM    4  C   UNL     1      -9.278   9.810  69.901  1.00  0.00    -0.234 C  
HETATM    5  O   UNL     2     -10.738  10.815  64.551  1.00  0.00    -0.297 OA 
HETATM    6  C   UNL     2      -8.845  10.809  66.703  1.00  0.00    -0.145 C  
HETATM    7  C   UNL     2      -9.999  11.731  66.680  1.00  0.00    -0.224 A  
HETATM    8  O   UNL     2      -8.900   9.703  66.180  1.00  0.00    -0.142 OA 
HETATM    9  C   UNL     2     -12.278  13.352  66.647  1.00  0.00    -0.391 A  
HETATM   10  C   UNL     2     -10.885  11.681  65.597  1.00  0.00    -0.276 A  
HETATM   11  C   UNL     2     -11.995  12.518  65.565  1.00  0.00    -0.500 A  
HETATM   12  C   UNL     2     -10.286  12.571  67.762  1.00  0.00    -0.217 A  
HETATM   13  H   UNL     2     -11.339  10.782  63.816  1.00  0.00     0.000 HD 
HETATM   14  C   UNL     2     -11.435  13.361  67.756  1.00  0.00    -0.351 A  
ENDROOT
BRANCH   4  15
HETATM   15  C   UNL     1     -10.806   9.584  69.735  1.00  0.00    -0.243 C  
BRANCH  15  16
HETATM   16  N   UNL     1     -11.282   8.181  69.852  1.00  0.00    -0.107 NA 
BRANCH  16  17
HETATM   17  C   UNL     1     -10.249   7.185  69.442  1.00  0.00    -0.189 C  
BRANCH  17  18
HETATM   18  C   UNL     1      -9.949   6.958  67.950  1.00  0.00    -0.147 C  
HETATM   19  H   UNL     1     -10.857   6.257  66.320  1.00  0.00     0.000 HD 
HETATM   20  O   UNL     1     -11.042   6.397  67.241  1.00  0.00    -0.368 OA 
ENDBRANCH  17  18
ENDBRANCH  16  17
BRANCH  16  21
HETATM   21  C   UNL     1     -11.696   7.868  71.243  1.00  0.00    -0.287 C  
BRANCH  21  22
HETATM   22  C   UNL     1     -13.189   7.565  71.491  1.00  0.00    -0.354 C  
HETATM   23  O   UNL     1     -13.954   8.766  71.405  1.00  0.00    -0.508 OA 
HETATM   24  H   UNL     1     -14.873   8.579  71.558  1.00  0.00     0.000 HD 
ENDBRANCH  21  22
ENDBRANCH  16  21
ENDBRANCH  15  16
ENDBRANCH   4  15
TORSDOF 6
ENDMDL
MODEL      162
REMARK 921   NORMALIZED FREE ENERGY PREDICTED BY IDOCK:   -3.57 KCAL/MOL
REMARK 922        TOTAL FREE ENERGY PREDICTED BY IDOCK:   -5.68 KCAL/MOL
REMARK 923 INTER-LIGAND FREE ENERGY PREDICTED BY IDOCK:   -4.27 KCAL/MOL
REMARK 924 INTRA-LIGAND FREE ENERGY PREDICTED BY IDOCK:   -1.41 KCAL/MOL
REMARK 927      BINDING AFFINITY PREDICTED BY RF-SCORE:    0.00 PKD
ROOT
HETATM    1  O   UNL     1      -7.638   6.321  68.901  1.00  0.00    -0.089 OA 
HETATM    2  H   UNL     1      -7.431   5.689  68.222  1.00  0.00     0.000 HD 
HETATM    3  O   UNL     2      -8.524   8.623  65.273  1.00  0.00    -0.161 OA 
HETATM    4  C   UNL     1      -8.204   7.530  68.408  1.00  0.00    -0.125 C  
HETATM    5  O   UNL     2     -10.683  12.022  66.076  1.00  0.00    -0.260 OA 
HETATM    6  C   UNL     2      -9.318   9.507  65.906  1.00  0.00    -0.226 C  
HETATM    7  C   UNL     2      -8.642  10.733  66.376  1.00  0.00    -0.159 A  
HETATM    8  O   UNL     2     -10.518   9.331  66.083  1.00  0.00    -0.150 OA 
HETATM    9  C   UNL     2      -7.456  13.055  67.388  1.00  0.00    -0.136 A  
HETATM   10  C   UNL     2      -9.368  11.929  66.433  1.00  0.00    -0.226 A  
HETATM   11  C   UNL     2      -8.762  13.090  66.900  1.00  0.00    -0.158 A  
HETATM   12  C   UNL     2      -7.330  10.703  66.865  1.00  0.00    -0.114 A  
HETATM   13  H   UNL     2     -11.175  12.834  66.116  1.00  0.00     0.000 HD 
HETATM   14  C   UNL     2      -6.749  11.855  67.392  1.00  0.00    -0.126 A  
ENDROOT
BRANCH   4  15
HETATM   15  C   UNL     1      -8.543   8.562  69.517  1.00  0.00    -0.131 C  
BRANCH  15  16
HETATM   16  N   UNL     1      -9.984   8.851  69.733  1.00  0.00    -0.186 NA 
BRANCH  16  17
HETATM   17  C   UNL     1     -10.520   8.213  70.972  1.00  0.00    -0.201 C  
BRANCH  17  18
HETATM   18  C   UNL     1     -11.113   6.794  70.911  1.00  0.00    -0.277 C  
HETATM   19  H   UNL     1     -10.489   4.904  70.802  1.00  0.00     0.000 HD 
HETATM   20  O   UNL     1     -10.123   5.780  70.840  1.00  0.00    -0.183 OA 
ENDBRANCH  17  18
ENDBRANCH  16  17
BRANCH  16  21
HETATM   21  C   UNL     1     -10.231  10.312  69.825  1.00  0.00    -0.220 C  
BRANCH  21  22
HETATM   22  C   UNL     1     -11.686  10.801  69.653  1.00  0.00    -0.323 C  
HETATM   23  O   UNL     1     -12.072  10.717  68.282  1.00  0.00    -0.817 OA 
HETATM   24  H   UNL     1     -12.967  11.018  68.177  1.00  0.00     0.000 HD 
ENDBRANCH  21  22
ENDBRANCH  16  21
ENDBRANCH  15  16
ENDBRANCH   4  15
TORSDOF 6
ENDMDL
MODEL      163
REMARK 921   NORMALIZED FREE ENERGY PREDICTED BY IDOCK:   -3.57 KCAL/MOL
REMARK 922        TOTAL FREE ENERGY PREDICTED BY IDOCK:   -5.68 KCAL/MOL
REMARK 923 INTER-LIGAND FREE ENERGY PREDICTED BY IDOCK:   -4.62 KCAL/MOL
REMARK 924 INTRA-LIGAND FREE ENERGY PREDICTED BY IDOCK:   -1.06 KCAL/MOL
REMARK 927      BINDING AFFINITY PREDICTED BY RF-SCORE:    0.00 PKD
ROOT
HETATM    1  O   UNL     1     -10.409   6.208  69.769  1.00  0.00    -0.180 OA 
HETATM    2  H   UNL     1     -10.450   5.446  69.205  1.00  0.00     0.000 HD 
HETATM    3  O   UNL     2      -8.947   7.857  65.976  1.00  0.00    -0.169 OA 
HETATM    4  C   UNL     1     -10.047   7.406  69.092  1.00  0.00    -0.189 C  
HETATM    5  O   UNL     2      -8.885  11.962  65.985  1.00  0.00    -0.367 OA 
HETATM    6  C   UNL     2      -9.212   9.134  66.312  1.00  0.00    -0.194 C  
HETATM    7  C   UNL     2      -8.087   9.866  66.927  1.00  0.00    -0.113 A  
HETATM    8  O   UNL     2     -10.297   9.670  66.123  1.00  0.00    -0.230 OA 
HETATM    9  C   UNL     2      -6.060  11.330  68.181  1.00  0.00    -0.045 A  
HETATM   10  C   UNL     2      -7.987  11.249  66.727  1.00  0.00    -0.159 A  
HETATM   11  C   UNL     2      -6.954  11.966  67.319  1.00  0.00    -0.145 A  
HETATM   12  C   UNL     2      -7.186   9.232  67.791  1.00  0.00    -0.083 A  
HETATM   13  H   UNL     2      -8.817  12.900  65.850  1.00  0.00     0.000 HD 
HETATM   14  C   UNL     2      -6.192   9.967  68.435  1.00  0.00    -0.050 A  
ENDROOT
BRANCH   4  15
HETATM   15  C   UNL     1      -9.980   8.653  70.016  1.00  0.00    -0.185 C  
BRANCH  15  16
HETATM   16  N   UNL     1     -11.135   9.586  69.952  1.00  0.00    -0.234 NA 
BRANCH  16  17
HETATM   17  C   UNL     1     -11.738   9.849  71.291  1.00  0.00    -0.392 C  
BRANCH  17  18
HETATM   18  C   UNL     1     -12.540   8.746  72.004  1.00  0.00    -0.385 C  
HETATM   19  H   UNL     1     -14.439   8.249  72.351  1.00  0.00     0.000 HD 
HETATM   20  O   UNL     1     -13.943   8.930  71.911  1.00  0.00    -0.407 OA 
ENDBRANCH  17  18
ENDBRANCH  16  17
BRANCH  16  21
HETATM   21  C   UNL     1     -10.740  10.890  69.361  1.00  0.00    -0.225 C  
BRANCH  21  22
HETATM   22  C   UNL     1     -11.856  11.759  68.741  1.00  0.00    -0.320 C  
HETATM   23  O   UNL     1     -11.726  11.783  67.321  1.00  0.00    -0.546 OA 
HETATM   24  H   UNL     1     -12.413  12.318  66.940  1.00  0.00     0.000 HD 
ENDBRANCH  21  22
ENDBRANCH  16  21
ENDBRANCH  15  16
ENDBRANCH   4  15
TORSDOF 6
ENDMDL
MODEL      164
REMARK 921   NORMALIZED FREE ENERGY PREDICTED BY IDOCK:   -3.56 KCAL/MOL
REMARK 922        TOTAL FREE ENERGY PREDICTED BY IDOCK:   -5.67 KCAL/MOL
REMARK 923 INTER-LIGAND FREE ENERGY PREDICTED BY IDOCK:   -4.60 KCAL/MOL
REMARK 924 INTRA-LIGAND FREE ENERGY PREDICTED BY IDOCK:   -1.07 KCAL/MOL
REMARK 927      BINDING AFFINITY PREDICTED BY RF-SCORE:    0.00 PKD
ROOT
HETATM    1  O   UNL     1     -11.473   6.366  67.434  1.00  0.00    -0.705 OA 
HETATM    2  H   UNL     1     -12.320   6.732  67.211  1.00  0.00     0.000 HD 
HETATM    3  O   UNL     2     -12.957   7.590  71.376  1.00  0.00    -0.351 OA 
HETATM    4  C   UNL     1     -11.225   6.302  68.834  1.00  0.00    -0.309 C  
HETATM    5  O   UNL     2     -10.771   5.950  74.440  1.00  0.00    -0.337 OA 
HETATM    6  C   UNL     2     -12.129   6.773  72.054  1.00  0.00    -0.305 C  
HETATM    7  C   UNL     2     -10.853   7.384  72.477  1.00  0.00    -0.327 A  
HETATM    8  O   UNL     2     -12.399   5.607  72.318  1.00  0.00    -0.045 OA 
HETATM    9  C   UNL     2      -8.367   8.404  73.254  1.00  0.00    -0.183 A  
HETATM   10  C   UNL     2     -10.243   6.935  73.655  1.00  0.00    -0.340 A  
HETATM   11  C   UNL     2      -9.026   7.474  74.059  1.00  0.00    -0.292 A  
HETATM   12  C   UNL     2     -10.189   8.319  71.674  1.00  0.00    -0.286 A  
HETATM   13  H   UNL     2     -10.356   5.646  75.239  1.00  0.00     0.000 HD 
HETATM   14  C   UNL     2      -8.939   8.808  72.050  1.00  0.00    -0.227 A  
ENDROOT
BRANCH   4  15
HETATM   15  C   UNL     1      -9.840   5.704  69.199  1.00  0.00    -0.162 C  
BRANCH  15  16
HETATM   16  N   UNL     1      -9.772   4.225  69.332  1.00  0.00    -0.200 NA 
BRANCH  16  17
HETATM   17  C   UNL     1      -8.995   3.583  68.232  1.00  0.00    -0.133 C  
BRANCH  17  18
HETATM   18  C   UNL     1      -7.977   4.410  67.426  1.00  0.00    -0.100 C  
HETATM   19  H   UNL     1      -6.059   4.943  67.517  1.00  0.00     0.000 HD 
HETATM   20  O   UNL     1      -6.687   4.432  68.015  1.00  0.00    -0.045 OA 
ENDBRANCH  17  18
ENDBRANCH  16  17
BRANCH  16  21
HETATM   21  C   UNL     1      -9.155   3.829  70.623  1.00  0.00    -0.111 C  
BRANCH  21  22
HETATM   22  C   UNL     1      -8.251   4.863  71.327  1.00  0.00    -0.110 C  
HETATM   23  O   UNL     1      -6.879   4.579  71.056  1.00  0.00    -0.034 OA 
HETATM   24  H   UNL     1      -6.323   5.216  71.489  1.00  0.00     0.000 HD 
ENDBRANCH  21  22
ENDBRANCH  16  21
ENDBRANCH  15  16
ENDBRANCH   4  15
TORSDOF 6
ENDMDL
MODEL      165
REMARK 921   NORMALIZED FREE ENERGY PREDICTED BY IDOCK:   -3.56 KCAL/MOL
REMARK 922        TOTAL FREE ENERGY PREDICTED BY IDOCK:   -5.67 KCAL/MOL
REMARK 923 INTER-LIGAND FREE ENERGY PREDICTED BY IDOCK:   -5.72 KCAL/MOL
REMARK 924 INTRA-LIGAND FREE ENERGY PREDICTED BY IDOCK:    0.05 KCAL/MOL
REMARK 927      BINDING AFFINITY PREDICTED BY RF-SCORE:    0.00 PKD
ROOT
HETATM    1  O   UNL     1      -8.596   9.251  71.224  1.00  0.00    -0.310 OA 
HETATM    2  H   UNL     1      -7.797   9.568  71.627  1.00  0.00     0.000 HD 
HETATM    3  O   UNL     2      -7.273  12.239  68.298  1.00  0.00    -0.085 OA 
HETATM    4  C   UNL     1      -8.837   9.786  69.927  1.00  0.00    -0.225 C  
HETATM    5  O   UNL     2      -9.257  11.899  64.719  1.00  0.00    -0.418 OA 
HETATM    6  C   UNL     2      -8.000  11.723  67.289  1.00  0.00    -0.161 C  
HETATM    7  C   UNL     2      -9.340  12.319  67.114  1.00  0.00    -0.196 A  
HETATM    8  O   UNL     2      -7.597  10.829  66.554  1.00  0.00    -0.126 OA 
HETATM    9  C   UNL     2     -11.930  13.306  66.739  1.00  0.00    -0.438 A  
HETATM   10  C   UNL     2      -9.896  12.374  65.830  1.00  0.00    -0.240 A  
HETATM   11  C   UNL     2     -11.167  12.903  65.642  1.00  0.00    -0.325 A  
HETATM   12  C   UNL     2     -10.108  12.727  68.211  1.00  0.00    -0.237 A  
HETATM   13  H   UNL     2      -9.635  11.936  63.848  1.00  0.00     0.000 HD 
HETATM   14  C   UNL     2     -11.408  13.196  68.025  1.00  0.00    -0.327 A  
ENDROOT
BRANCH   4  15
HETATM   15  C   UNL     1     -10.144   9.267  69.267  1.00  0.00    -0.200 C  
BRANCH  15  16
HETATM   16  N   UNL     1     -11.342   9.191  70.143  1.00  0.00    -0.195 NA 
BRANCH  16  17
HETATM   17  C   UNL     1     -11.253   8.091  71.147  1.00  0.00    -0.261 C  
BRANCH  17  18
HETATM   18  C   UNL     1     -12.396   7.069  71.271  1.00  0.00    -0.383 C  
HETATM   19  H   UNL     1     -12.880   5.474  72.365  1.00  0.00     0.000 HD 
HETATM   20  O   UNL     1     -12.174   6.106  72.289  1.00  0.00    -0.293 OA 
ENDBRANCH  17  18
ENDBRANCH  16  17
BRANCH  16  21
HETATM   21  C   UNL     1     -11.554  10.466  70.875  1.00  0.00    -0.337 C  
BRANCH  21  22
HETATM   22  C   UNL     1     -13.011  10.919  71.108  1.00  0.00    -0.352 C  
HETATM   23  O   UNL     1     -13.425  10.575  72.429  1.00  0.00    -0.606 OA 
HETATM   24  H   UNL     1     -14.322  10.854  72.573  1.00  0.00     0.000 HD 
ENDBRANCH  21  22
ENDBRANCH  16  21
ENDBRANCH  15  16
ENDBRANCH   4  15
TORSDOF 6
ENDMDL
MODEL      166
REMARK 921   NORMALIZED FREE ENERGY PREDICTED BY IDOCK:   -3.55 KCAL/MOL
REMARK 922        TOTAL FREE ENERGY PREDICTED BY IDOCK:   -5.66 KCAL/MOL
REMARK 923 INTER-LIGAND FREE ENERGY PREDICTED BY IDOCK:   -5.03 KCAL/MOL
REMARK 924 INTRA-LIGAND FREE ENERGY PREDICTED BY IDOCK:   -0.62 KCAL/MOL
REMARK 927      BINDING AFFINITY PREDICTED BY RF-SCORE:    0.00 PKD
ROOT
HETATM    1  O   UNL     1     -12.691  10.235  69.998  1.00  0.00    -0.554 OA 
HETATM    2  H   UNL     1     -13.031  11.081  70.264  1.00  0.00     0.000 HD 
HETATM    3  O   UNL     2      -9.811  12.958  68.119  1.00  0.00    -0.217 OA 
HETATM    4  C   UNL     1     -11.454  10.306  69.299  1.00  0.00    -0.160 C  
HETATM    5  O   UNL     2      -6.430  11.009  66.844  1.00  0.00    -0.087 OA 
HETATM    6  C   UNL     2      -8.852  12.021  67.994  1.00  0.00    -0.179 C  
HETATM    7  C   UNL     2      -8.840  11.307  66.701  1.00  0.00    -0.175 A  
HETATM    8  O   UNL     2      -8.036  11.769  68.872  1.00  0.00    -0.097 OA 
HETATM    9  C   UNL     2      -8.770   9.825  64.330  1.00  0.00    -0.227 A  
HETATM   10  C   UNL     2      -7.620  10.839  66.196  1.00  0.00    -0.139 A  
HETATM   11  C   UNL     2      -7.585  10.138  64.997  1.00  0.00    -0.141 A  
HETATM   12  C   UNL     2     -10.026  10.992  66.027  1.00  0.00    -0.285 A  
HETATM   13  H   UNL     2      -5.602  10.691  66.501  1.00  0.00     0.000 HD 
HETATM   14  C   UNL     2      -9.992  10.233  64.859  1.00  0.00    -0.393 A  
ENDROOT
BRANCH   4  15
HETATM   15  C   UNL     1     -10.898   8.923  68.864  1.00  0.00    -0.022 C  
BRANCH  15  16
HETATM   16  N   UNL     1     -10.445   8.020  69.955  1.00  0.00    -0.229 NA 
BRANCH  16  17
HETATM   17  C   UNL     1     -10.192   8.745  71.234  1.00  0.00    -0.262 C  
BRANCH  17  18
HETATM   18  C   UNL     1      -8.833   8.605  71.942  1.00  0.00    -0.205 C  
HETATM   19  H   UNL     1      -6.981   9.329  71.805  1.00  0.00     0.000 HD 
HETATM   20  O   UNL     1      -7.820   9.416  71.368  1.00  0.00    -0.325 OA 
ENDBRANCH  17  18
ENDBRANCH  16  17
BRANCH  16  21
HETATM   21  C   UNL     1     -11.444   6.955  70.219  1.00  0.00    -0.323 C  
BRANCH  21  22
HETATM   22  C   UNL     1     -12.440   7.183  71.377  1.00  0.00    -0.388 C  
HETATM   23  O   UNL     1     -13.712   7.570  70.859  1.00  0.00    -0.623 OA 
HETATM   24  H   UNL     1     -14.325   7.710  71.572  1.00  0.00     0.000 HD 
ENDBRANCH  21  22
ENDBRANCH  16  21
ENDBRANCH  15  16
ENDBRANCH   4  15
TORSDOF 6
ENDMDL
MODEL      167
REMARK 921   NORMALIZED FREE ENERGY PREDICTED BY IDOCK:   -3.54 KCAL/MOL
REMARK 922        TOTAL FREE ENERGY PREDICTED BY IDOCK:   -5.64 KCAL/MOL
REMARK 923 INTER-LIGAND FREE ENERGY PREDICTED BY IDOCK:   -4.74 KCAL/MOL
REMARK 924 INTRA-LIGAND FREE ENERGY PREDICTED BY IDOCK:   -0.90 KCAL/MOL
REMARK 927      BINDING AFFINITY PREDICTED BY RF-SCORE:    0.00 PKD
ROOT
HETATM    1  O   UNL     1      -9.664   9.703  67.931  1.00  0.00    -0.142 OA 
HETATM    2  H   UNL     1     -10.222  10.465  67.833  1.00  0.00     0.000 HD 
HETATM    3  O   UNL     2     -12.356   9.260  71.367  1.00  0.00    -0.311 OA 
HETATM    4  C   UNL     1     -10.061   8.832  68.984  1.00  0.00    -0.198 C  
HETATM    5  O   UNL     2     -12.143   5.515  73.037  1.00  0.00    -0.547 OA 
HETATM    6  C   UNL     2     -12.115   7.943  71.515  1.00  0.00    -0.306 C  
HETATM    7  C   UNL     2     -11.038   7.606  72.466  1.00  0.00    -0.388 A  
HETATM    8  O   UNL     2     -12.738   7.073  70.918  1.00  0.00    -0.334 OA 
HETATM    9  C   UNL     2      -8.960   6.845  74.177  1.00  0.00    -0.220 A  
HETATM   10  C   UNL     2     -11.114   6.402  73.179  1.00  0.00    -0.163 A  
HETATM   11  C   UNL     2     -10.098   6.048  74.059  1.00  0.00    -0.265 A  
HETATM   12  C   UNL     2      -9.894   8.404  72.590  1.00  0.00    -0.329 A  
HETATM   13  H   UNL     2     -12.194   4.699  73.521  1.00  0.00     0.000 HD 
HETATM   14  C   UNL     2      -8.849   8.012  73.424  1.00  0.00    -0.334 A  
ENDROOT
BRANCH   4  15
HETATM   15  C   UNL     1      -9.150   7.586  69.146  1.00  0.00    -0.138 C  
BRANCH  15  16
HETATM   16  N   UNL     1      -9.834   6.267  69.197  1.00  0.00    -0.141 NA 
BRANCH  16  17
HETATM   17  C   UNL     1     -10.843   6.100  68.110  1.00  0.00    -0.306 C  
BRANCH  17  18
HETATM   18  C   UNL     1     -10.462   5.363  66.814  1.00  0.00    -0.289 C  
HETATM   19  H   UNL     1      -9.374   5.666  65.172  1.00  0.00     0.000 HD 
HETATM   20  O   UNL     1      -9.609   6.121  65.972  1.00  0.00    -0.090 OA 
ENDBRANCH  17  18
ENDBRANCH  16  17
BRANCH  16  21
HETATM   21  C   UNL     1      -8.860   5.152  69.095  1.00  0.00    -0.092 C  
BRANCH  21  22
HETATM   22  C   UNL     1      -7.378   5.518  68.867  1.00  0.00    -0.081 C  
HETATM   23  O   UNL     1      -7.028   5.312  67.500  1.00  0.00    -0.062 OA 
HETATM   24  H   UNL     1      -6.115   5.538  67.359  1.00  0.00     0.000 HD 
ENDBRANCH  21  22
ENDBRANCH  16  21
ENDBRANCH  15  16
ENDBRANCH   4  15
TORSDOF 6
ENDMDL
MODEL      168
REMARK 921   NORMALIZED FREE ENERGY PREDICTED BY IDOCK:   -3.53 KCAL/MOL
REMARK 922        TOTAL FREE ENERGY PREDICTED BY IDOCK:   -5.63 KCAL/MOL
REMARK 923 INTER-LIGAND FREE ENERGY PREDICTED BY IDOCK:   -5.16 KCAL/MOL
REMARK 924 INTRA-LIGAND FREE ENERGY PREDICTED BY IDOCK:   -0.46 KCAL/MOL
REMARK 927      BINDING AFFINITY PREDICTED BY RF-SCORE:    0.00 PKD
ROOT
HETATM    1  O   UNL     1     -13.071  14.490  65.952  1.00  0.00    -0.340 OA 
HETATM    2  H   UNL     1     -13.826  14.316  65.403  1.00  0.00     0.000 HD 
HETATM    3  O   UNL     2     -11.633  11.118  63.542  1.00  0.00    -0.051 OA 
HETATM    4  C   UNL     1     -11.929  13.706  65.625  1.00  0.00    -0.395 C  
HETATM    5  O   UNL     2      -7.565  10.633  63.816  1.00  0.00    -0.347 OA 
HETATM    6  C   UNL     2     -10.332  11.381  63.767  1.00  0.00    -0.393 C  
HETATM    7  C   UNL     2      -9.736  10.662  64.912  1.00  0.00    -0.341 A  
HETATM    8  O   UNL     2      -9.670  12.150  63.080  1.00  0.00    -0.379 OA 
HETATM    9  C   UNL     2      -8.521   9.428  67.108  1.00  0.00    -0.128 A  
HETATM   10  C   UNL     2      -8.378  10.326  64.870  1.00  0.00    -0.172 A  
HETATM   11  C   UNL     2      -7.787   9.676  65.947  1.00  0.00    -0.102 A  
HETATM   12  C   UNL     2     -10.469  10.409  66.078  1.00  0.00    -0.211 A  
HETATM   13  H   UNL     2      -6.643  10.405  63.788  1.00  0.00     0.000 HD 
HETATM   14  C   UNL     2      -9.856   9.815  67.180  1.00  0.00    -0.238 A  
ENDROOT
BRANCH   4  15
HETATM   15  C   UNL     1     -10.694  13.992  66.522  1.00  0.00    -0.281 C  
BRANCH  15  16
HETATM   16  N   UNL     1     -10.958  14.685  67.810  1.00  0.00    -0.278 NA 
BRANCH  16  17
HETATM   17  C   UNL     1     -11.012  13.746  68.968  1.00  0.00    -0.243 C  
BRANCH  17  18
HETATM   18  C   UNL     1     -12.210  13.783  69.933  1.00  0.00    -0.321 C  
HETATM   19  H   UNL     1     -13.524  15.096  70.654  1.00  0.00     0.000 HD 
HETATM   20  O   UNL     1     -12.784  15.074  70.059  1.00  0.00    -0.261 OA 
ENDBRANCH  17  18
ENDBRANCH  16  17
BRANCH  16  21
HETATM   21  C   UNL     1      -9.918  15.706  68.093  1.00  0.00    -0.217 C  
BRANCH  21  22
HETATM   22  C   UNL     1      -9.301  15.720  69.508  1.00  0.00    -0.238 C  
HETATM   23  O   UNL     1      -7.889  15.906  69.425  1.00  0.00    -0.229 OA 
HETATM   24  H   UNL     1      -7.509  15.915  70.296  1.00  0.00     0.000 HD 
ENDBRANCH  21  22
ENDBRANCH  16  21
ENDBRANCH  15  16
ENDBRANCH   4  15
TORSDOF 6
ENDMDL
MODEL      169
REMARK 921   NORMALIZED FREE ENERGY PREDICTED BY IDOCK:   -3.53 KCAL/MOL
REMARK 922        TOTAL FREE ENERGY PREDICTED BY IDOCK:   -5.62 KCAL/MOL
REMARK 923 INTER-LIGAND FREE ENERGY PREDICTED BY IDOCK:   -5.09 KCAL/MOL
REMARK 924 INTRA-LIGAND FREE ENERGY PREDICTED BY IDOCK:   -0.53 KCAL/MOL
REMARK 927      BINDING AFFINITY PREDICTED BY RF-SCORE:    0.00 PKD
ROOT
HETATM    1  O   UNL     1     -12.985  13.679  65.280  1.00  0.00    -0.719 OA 
HETATM    2  H   UNL     1     -13.652  13.004  65.246  1.00  0.00     0.000 HD 
HETATM    3  O   UNL     2     -10.546  10.036  65.448  1.00  0.00    -0.050 OA 
HETATM    4  C   UNL     1     -11.655  13.174  65.238  1.00  0.00    -0.321 C  
HETATM    5  O   UNL     2      -6.572  10.790  64.744  1.00  0.00    -0.363 OA 
HETATM    6  C   UNL     2      -9.420  10.649  65.039  1.00  0.00    -0.243 C  
HETATM    7  C   UNL     2      -8.546  11.142  66.122  1.00  0.00    -0.172 A  
HETATM    8  O   UNL     2      -9.119  10.792  63.859  1.00  0.00    -0.190 OA 
HETATM    9  C   UNL     2      -6.852  12.196  68.083  1.00  0.00    -0.075 A  
HETATM   10  C   UNL     2      -7.162  11.184  65.911  1.00  0.00     0.122 A  
HETATM   11  C   UNL     2      -6.320  11.671  66.904  1.00  0.00    -0.142 A  
HETATM   12  C   UNL     2      -9.074  11.668  67.307  1.00  0.00    -0.167 A  
HETATM   13  H   UNL     2      -5.633  10.819  64.601  1.00  0.00     0.000 HD 
HETATM   14  C   UNL     2      -8.231  12.215  68.273  1.00  0.00    -0.168 A  
ENDROOT
BRANCH   4  15
HETATM   15  C   UNL     1     -10.563  14.278  65.292  1.00  0.00    -0.381 C  
BRANCH  15  16
HETATM   16  N   UNL     1     -10.820  15.417  66.211  1.00  0.00    -0.313 NA 
BRANCH  16  17
HETATM   17  C   UNL     1     -10.652  15.048  67.647  1.00  0.00    -0.267 C  
BRANCH  17  18
HETATM   18  C   UNL     1     -11.741  15.419  68.669  1.00  0.00    -0.354 C  
HETATM   19  H   UNL     1     -12.584  14.668  70.311  1.00  0.00     0.000 HD 
HETATM   20  O   UNL     1     -11.912  14.439  69.681  1.00  0.00    -0.298 OA 
ENDBRANCH  17  18
ENDBRANCH  16  17
BRANCH  16  21
HETATM   21  C   UNL     1      -9.915  16.557  65.919  1.00  0.00    -0.317 C  
BRANCH  21  22
HETATM   22  C   UNL     1     -10.479  17.982  66.107  1.00  0.00    -0.331 C  
HETATM   23  O   UNL     1     -10.180  18.458  67.418  1.00  0.00    -0.336 OA 
HETATM   24  H   UNL     1     -10.527  19.335  67.534  1.00  0.00     0.000 HD 
ENDBRANCH  21  22
ENDBRANCH  16  21
ENDBRANCH  15  16
ENDBRANCH   4  15
TORSDOF 6
ENDMDL
MODEL      170
REMARK 921   NORMALIZED FREE ENERGY PREDICTED BY IDOCK:   -3.52 KCAL/MOL
REMARK 922        TOTAL FREE ENERGY PREDICTED BY IDOCK:   -5.62 KCAL/MOL
REMARK 923 INTER-LIGAND FREE ENERGY PREDICTED BY IDOCK:   -4.92 KCAL/MOL
REMARK 924 INTRA-LIGAND FREE ENERGY PREDICTED BY IDOCK:   -0.69 KCAL/MOL
REMARK 927      BINDING AFFINITY PREDICTED BY RF-SCORE:    0.00 PKD
ROOT
HETATM    1  O   UNL     1     -11.500   6.489  67.360  1.00  0.00    -0.740 OA 
HETATM    2  H   UNL     1     -12.239   7.033  67.117  1.00  0.00     0.000 HD 
HETATM    3  O   UNL     2     -12.573   8.270  71.223  1.00  0.00    -0.296 OA 
HETATM    4  C   UNL     1     -11.248   6.453  68.760  1.00  0.00    -0.274 C  
HETATM    5  O   UNL     2     -10.783   6.343  74.376  1.00  0.00    -0.372 OA 
HETATM    6  C   UNL     2     -11.951   7.321  71.948  1.00  0.00    -0.306 C  
HETATM    7  C   UNL     2     -10.558   7.633  72.326  1.00  0.00    -0.298 A  
HETATM    8  O   UNL     2     -12.486   6.272  72.287  1.00  0.00    -0.239 OA 
HETATM    9  C   UNL     2      -7.886   8.072  73.026  1.00  0.00    -0.199 A  
HETATM   10  C   UNL     2     -10.050   7.123  73.527  1.00  0.00    -0.331 A  
HETATM   11  C   UNL     2      -8.733   7.378  73.891  1.00  0.00    -0.258 A  
HETATM   12  C   UNL     2      -9.705   8.331  71.463  1.00  0.00    -0.251 A  
HETATM   13  H   UNL     2     -10.438   5.997  75.191  1.00  0.00     0.000 HD 
HETATM   14  C   UNL     2      -8.367   8.528  71.802  1.00  0.00    -0.221 A  
ENDROOT
BRANCH   4  15
HETATM   15  C   UNL     1     -10.038   5.563  69.157  1.00  0.00    -0.216 C  
BRANCH  15  16
HETATM   16  N   UNL     1      -8.689   6.151  68.950  1.00  0.00    -0.123 NA 
BRANCH  16  17
HETATM   17  C   UNL     1      -7.660   5.564  69.859  1.00  0.00    -0.074 C  
BRANCH  17  18
HETATM   18  C   UNL     1      -7.976   4.285  70.654  1.00  0.00    -0.063 C  
HETATM   19  H   UNL     1      -8.304   3.725  72.538  1.00  0.00     0.000 HD 
HETATM   20  O   UNL     1      -8.109   4.514  72.047  1.00  0.00    -0.096 OA 
ENDBRANCH  17  18
ENDBRANCH  16  17
BRANCH  16  21
HETATM   21  C   UNL     1      -8.229   5.960  67.552  1.00  0.00    -0.105 C  
BRANCH  21  22
HETATM   22  C   UNL     1      -8.224   7.198  66.629  1.00  0.00    -0.112 C  
HETATM   23  O   UNL     1      -8.855   6.887  65.388  1.00  0.00    -0.350 OA 
HETATM   24  H   UNL     1      -8.852   7.649  64.820  1.00  0.00     0.000 HD 
ENDBRANCH  21  22
ENDBRANCH  16  21
ENDBRANCH  15  16
ENDBRANCH   4  15
TORSDOF 6
ENDMDL
MODEL      171
REMARK 921   NORMALIZED FREE ENERGY PREDICTED BY IDOCK:   -3.51 KCAL/MOL
REMARK 922        TOTAL FREE ENERGY PREDICTED BY IDOCK:   -5.60 KCAL/MOL
REMARK 923 INTER-LIGAND FREE ENERGY PREDICTED BY IDOCK:   -3.97 KCAL/MOL
REMARK 924 INTRA-LIGAND FREE ENERGY PREDICTED BY IDOCK:   -1.63 KCAL/MOL
REMARK 927      BINDING AFFINITY PREDICTED BY RF-SCORE:    0.00 PKD
ROOT
HETATM    1  O   UNL     1      -7.000   6.519  72.395  1.00  0.00    -0.068 OA 
HETATM    2  H   UNL     1      -7.496   6.407  73.197  1.00  0.00     0.000 HD 
HETATM    3  O   UNL     2     -11.056   5.922  70.834  1.00  0.00    -0.282 OA 
HETATM    4  C   UNL     1      -7.805   6.559  71.222  1.00  0.00    -0.103 C  
HETATM    5  O   UNL     2     -11.369   6.967  66.876  1.00  0.00    -0.681 OA 
HETATM    6  C   UNL     2     -10.790   6.488  69.641  1.00  0.00    -0.304 C  
HETATM    7  C   UNL     2     -10.372   5.548  68.581  1.00  0.00    -0.255 A  
HETATM    8  O   UNL     2     -10.888   7.690  69.428  1.00  0.00    -0.212 OA 
HETATM    9  C   UNL     2      -9.485   3.880  66.518  1.00  0.00    -0.211 A  
HETATM   10  C   UNL     2     -10.688   5.843  67.250  1.00  0.00    -0.297 A  
HETATM   11  C   UNL     2     -10.281   4.990  66.231  1.00  0.00    -0.306 A  
HETATM   12  C   UNL     2      -9.575   4.432  68.865  1.00  0.00    -0.233 A  
HETATM   13  H   UNL     2     -11.584   7.167  65.972  1.00  0.00     0.000 HD 
HETATM   14  C   UNL     2      -9.114   3.616  67.834  1.00  0.00    -0.196 A  
ENDROOT
BRANCH   4  15
HETATM   15  C   UNL     1      -6.995   6.743  69.910  1.00  0.00    -0.059 C  
BRANCH  15  16
HETATM   16  N   UNL     1      -7.394   7.880  69.041  1.00  0.00    -0.086 NA 
BRANCH  16  17
HETATM   17  C   UNL     1      -6.511   9.072  69.212  1.00  0.00    -0.045 C  
BRANCH  17  18
HETATM   18  C   UNL     1      -7.097  10.393  69.740  1.00  0.00    -0.148 C  
HETATM   19  H   UNL     1      -8.876  11.244  70.030  1.00  0.00     0.000 HD 
HETATM   20  O   UNL     1      -8.514  10.428  69.704  1.00  0.00    -0.145 OA 
ENDBRANCH  17  18
ENDBRANCH  16  17
BRANCH  16  21
HETATM   21  C   UNL     1      -7.372   7.494  67.608  1.00  0.00    -0.103 C  
BRANCH  21  22
HETATM   22  C   UNL     1      -8.162   8.379  66.619  1.00  0.00    -0.105 C  
HETATM   23  O   UNL     1      -9.265   8.992  67.285  1.00  0.00    -0.132 OA 
HETATM   24  H   UNL     1      -9.751   9.537  66.676  1.00  0.00     0.000 HD 
ENDBRANCH  21  22
ENDBRANCH  16  21
ENDBRANCH  15  16
ENDBRANCH   4  15
TORSDOF 6
ENDMDL
MODEL      172
REMARK 921   NORMALIZED FREE ENERGY PREDICTED BY IDOCK:   -3.51 KCAL/MOL
REMARK 922        TOTAL FREE ENERGY PREDICTED BY IDOCK:   -5.60 KCAL/MOL
REMARK 923 INTER-LIGAND FREE ENERGY PREDICTED BY IDOCK:   -5.65 KCAL/MOL
REMARK 924 INTRA-LIGAND FREE ENERGY PREDICTED BY IDOCK:    0.05 KCAL/MOL
REMARK 927      BINDING AFFINITY PREDICTED BY RF-SCORE:    0.00 PKD
ROOT
HETATM    1  O   UNL     1      -8.413   8.400  69.106  1.00  0.00    -0.120 OA 
HETATM    2  H   UNL     1      -7.464   8.426  69.110  1.00  0.00     0.000 HD 
HETATM    3  O   UNL     2      -7.588  10.613  65.409  1.00  0.00    -0.127 OA 
HETATM    4  C   UNL     1      -8.998   8.938  67.926  1.00  0.00    -0.139 C  
HETATM    5  O   UNL     2     -10.890  10.874  62.983  1.00  0.00    -0.757 OA 
HETATM    6  C   UNL     2      -8.793  10.353  64.865  1.00  0.00    -0.190 C  
HETATM    7  C   UNL     2      -9.825  11.381  65.109  1.00  0.00    -0.302 A  
HETATM    8  O   UNL     2      -9.034   9.349  64.206  1.00  0.00    -0.219 OA 
HETATM    9  C   UNL     2     -11.885  13.213  65.578  1.00  0.00    -0.420 A  
HETATM   10  C   UNL     2     -10.821  11.584  64.147  1.00  0.00    -0.372 A  
HETATM   11  C   UNL     2     -11.821  12.525  64.366  1.00  0.00    -0.455 A  
HETATM   12  C   UNL     2      -9.893  12.076  66.323  1.00  0.00    -0.250 A  
HETATM   13  H   UNL     2     -11.567  11.012  62.330  1.00  0.00     0.000 HD 
HETATM   14  C   UNL     2     -10.934  12.971  66.565  1.00  0.00    -0.307 A  
ENDROOT
BRANCH   4  15
HETATM   15  C   UNL     1     -10.550   8.896  67.919  1.00  0.00    -0.183 C  
BRANCH  15  16
HETATM   16  N   UNL     1     -11.228   9.280  69.185  1.00  0.00     0.035 NA 
BRANCH  16  17
HETATM   17  C   UNL     1     -10.947   8.328  70.299  1.00  0.00    -0.232 C  
BRANCH  17  18
HETATM   18  C   UNL     1     -11.711   8.453  71.629  1.00  0.00    -0.298 C  
HETATM   19  H   UNL     1     -13.549   8.874  72.277  1.00  0.00     0.000 HD 
HETATM   20  O   UNL     1     -13.077   8.796  71.456  1.00  0.00    -0.330 OA 
ENDBRANCH  17  18
ENDBRANCH  16  17
BRANCH  16  21
HETATM   21  C   UNL     1     -10.816  10.637  69.625  1.00  0.00    -0.268 C  
BRANCH  21  22
HETATM   22  C   UNL     1     -11.910  11.723  69.702  1.00  0.00    -0.339 C  
HETATM   23  O   UNL     1     -12.111  12.122  71.057  1.00  0.00    -0.377 OA 
HETATM   24  H   UNL     1     -12.784  12.790  71.104  1.00  0.00     0.000 HD 
ENDBRANCH  21  22
ENDBRANCH  16  21
ENDBRANCH  15  16
ENDBRANCH   4  15
TORSDOF 6
ENDMDL
MODEL      173
REMARK 921   NORMALIZED FREE ENERGY PREDICTED BY IDOCK:   -3.50 KCAL/MOL
REMARK 922        TOTAL FREE ENERGY PREDICTED BY IDOCK:   -5.59 KCAL/MOL
REMARK 923 INTER-LIGAND FREE ENERGY PREDICTED BY IDOCK:   -4.86 KCAL/MOL
REMARK 924 INTRA-LIGAND FREE ENERGY PREDICTED BY IDOCK:   -0.73 KCAL/MOL
REMARK 927      BINDING AFFINITY PREDICTED BY RF-SCORE:    0.00 PKD
ROOT
HETATM    1  O   UNL     1      -7.782  10.691  64.336  1.00  0.00    -0.347 OA 
HETATM    2  H   UNL     1      -7.242  10.050  63.889  1.00  0.00     0.000 HD 
HETATM    3  O   UNL     2      -6.711   8.004  67.634  1.00  0.00    -0.065 OA 
HETATM    4  C   UNL     1      -7.835  10.514  65.747  1.00  0.00    -0.154 C  
HETATM    5  O   UNL     2      -7.534   9.644  71.307  1.00  0.00    -0.310 OA 
HETATM    6  C   UNL     2      -6.973   8.912  68.594  1.00  0.00    -0.064 C  
HETATM    7  C   UNL     2      -8.339   8.858  69.151  1.00  0.00    -0.124 A  
HETATM    8  O   UNL     2      -6.150   9.727  68.995  1.00  0.00    -0.041 OA 
HETATM    9  C   UNL     2     -10.923   8.911  70.222  1.00  0.00    -0.266 A  
HETATM   10  C   UNL     2      -8.543   9.229  70.486  1.00  0.00    -0.233 A  
HETATM   11  C   UNL     2      -9.824   9.215  71.026  1.00  0.00    -0.366 A  
HETATM   12  C   UNL     2      -9.445   8.551  68.349  1.00  0.00    -0.141 A  
HETATM   13  H   UNL     2      -7.672   9.896  72.213  1.00  0.00     0.000 HD 
HETATM   14  C   UNL     2     -10.734   8.602  68.877  1.00  0.00    -0.109 A  
ENDROOT
BRANCH   4  15
HETATM   15  C   UNL     1      -8.717  11.561  66.479  1.00  0.00    -0.183 C  
BRANCH  15  16
HETATM   16  N   UNL     1     -10.172  11.528  66.176  1.00  0.00    -0.225 NA 
BRANCH  16  17
HETATM   17  C   UNL     1     -11.013  11.911  67.348  1.00  0.00    -0.263 C  
BRANCH  17  18
HETATM   18  C   UNL     1     -11.170  13.393  67.730  1.00  0.00    -0.279 C  
HETATM   19  H   UNL     1     -12.012  14.500  69.157  1.00  0.00     0.000 HD 
HETATM   20  O   UNL     1     -11.915  13.585  68.921  1.00  0.00    -0.336 OA 
ENDBRANCH  17  18
ENDBRANCH  16  17
BRANCH  16  21
HETATM   21  C   UNL     1     -10.507  12.438  65.052  1.00  0.00    -0.294 C  
BRANCH  21  22
HETATM   22  C   UNL     1     -11.142  11.811  63.792  1.00  0.00    -0.436 C  
HETATM   23  O   UNL     1     -10.162  11.680  62.764  1.00  0.00    -0.626 OA 
HETATM   24  H   UNL     1     -10.553  11.294  61.988  1.00  0.00     0.000 HD 
ENDBRANCH  21  22
ENDBRANCH  16  21
ENDBRANCH  15  16
ENDBRANCH   4  15
TORSDOF 6
ENDMDL
MODEL      174
REMARK 921   NORMALIZED FREE ENERGY PREDICTED BY IDOCK:   -3.50 KCAL/MOL
REMARK 922        TOTAL FREE ENERGY PREDICTED BY IDOCK:   -5.59 KCAL/MOL
REMARK 923 INTER-LIGAND FREE ENERGY PREDICTED BY IDOCK:   -5.28 KCAL/MOL
REMARK 924 INTRA-LIGAND FREE ENERGY PREDICTED BY IDOCK:   -0.31 KCAL/MOL
REMARK 927      BINDING AFFINITY PREDICTED BY RF-SCORE:    0.00 PKD
ROOT
HETATM    1  O   UNL     1      -6.496  12.700  66.624  1.00  0.00    -0.411 OA 
HETATM    2  H   UNL     1      -6.592  12.109  65.887  1.00  0.00     0.000 HD 
HETATM    3  O   UNL     2     -10.632  11.333  67.142  1.00  0.00    -0.212 OA 
HETATM    4  C   UNL     1      -7.618  12.715  67.499  1.00  0.00    -0.160 C  
HETATM    5  O   UNL     2     -12.122  12.253  70.855  1.00  0.00    -0.432 OA 
HETATM    6  C   UNL     2     -10.686  11.665  68.445  1.00  0.00    -0.217 C  
HETATM    7  C   UNL     2     -11.221  13.012  68.727  1.00  0.00    -0.325 A  
HETATM    8  O   UNL     2     -10.329  10.917  69.348  1.00  0.00    -0.212 OA 
HETATM    9  C   UNL     2     -12.137  15.574  69.380  1.00  0.00    -0.302 A  
HETATM   10  C   UNL     2     -11.915  13.231  69.924  1.00  0.00    -0.330 A  
HETATM   11  C   UNL     2     -12.403  14.497  70.226  1.00  0.00    -0.408 A  
HETATM   12  C   UNL     2     -10.959  14.096  67.880  1.00  0.00    -0.264 A  
HETATM   13  H   UNL     2     -12.592  12.402  71.667  1.00  0.00     0.000 HD 
HETATM   14  C   UNL     2     -11.394  15.376  68.218  1.00  0.00    -0.354 A  
ENDROOT
BRANCH   4  15
HETATM   15  C   UNL     1      -7.461  13.682  68.704  1.00  0.00    -0.113 C  
BRANCH  15  16
HETATM   16  N   UNL     1      -7.400  15.132  68.385  1.00  0.00    -0.110 NA 
BRANCH  16  17
HETATM   17  C   UNL     1      -6.017  15.685  68.479  1.00  0.00    -0.100 C  
BRANCH  17  18
HETATM   18  C   UNL     1      -5.588  16.475  69.728  1.00  0.00    -0.178 C  
HETATM   19  H   UNL     1      -5.033  16.132  71.611  1.00  0.00     0.000 HD 
HETATM   20  O   UNL     1      -5.298  15.644  70.840  1.00  0.00    -0.153 OA 
ENDBRANCH  17  18
ENDBRANCH  16  17
BRANCH  16  21
HETATM   21  C   UNL     1      -7.912  15.404  67.018  1.00  0.00    -0.224 C  
BRANCH  21  22
HETATM   22  C   UNL     1      -8.312  16.856  66.683  1.00  0.00    -0.253 C  
HETATM   23  O   UNL     1      -9.329  16.865  65.682  1.00  0.00    -0.519 OA 
HETATM   24  H   UNL     1      -9.575  17.760  65.475  1.00  0.00     0.000 HD 
ENDBRANCH  21  22
ENDBRANCH  16  21
ENDBRANCH  15  16
ENDBRANCH   4  15
TORSDOF 6
ENDMDL
MODEL      175
REMARK 921   NORMALIZED FREE ENERGY PREDICTED BY IDOCK:   -3.50 KCAL/MOL
REMARK 922        TOTAL FREE ENERGY PREDICTED BY IDOCK:   -5.58 KCAL/MOL
REMARK 923 INTER-LIGAND FREE ENERGY PREDICTED BY IDOCK:   -4.85 KCAL/MOL
REMARK 924 INTRA-LIGAND FREE ENERGY PREDICTED BY IDOCK:   -0.73 KCAL/MOL
REMARK 927      BINDING AFFINITY PREDICTED BY RF-SCORE:    0.00 PKD
ROOT
HETATM    1  O   UNL     1      -6.876   6.535  68.822  1.00  0.00    -0.064 OA 
HETATM    2  H   UNL     1      -6.069   7.033  68.774  1.00  0.00     0.000 HD 
HETATM    3  O   UNL     2      -8.357  10.635  69.306  1.00  0.00    -0.152 OA 
HETATM    4  C   UNL     1      -8.047   7.341  68.888  1.00  0.00    -0.128 C  
HETATM    5  O   UNL     2     -12.428  10.886  68.830  1.00  0.00    -0.745 OA 
HETATM    6  C   UNL     2      -9.618  10.331  68.945  1.00  0.00    -0.190 C  
HETATM    7  C   UNL     2     -10.527   9.997  70.061  1.00  0.00    -0.337 A  
HETATM    8  O   UNL     2     -10.006  10.331  67.783  1.00  0.00    -0.165 OA 
HETATM    9  C   UNL     2     -12.317   9.263  72.080  1.00  0.00    -0.433 A  
HETATM   10  C   UNL     2     -11.889  10.297  69.939  1.00  0.00    -0.193 A  
HETATM   11  C   UNL     2     -12.770   9.966  70.963  1.00  0.00    -0.425 A  
HETATM   12  C   UNL     2     -10.077   9.294  71.185  1.00  0.00    -0.374 A  
HETATM   13  H   UNL     2     -13.352  11.088  68.748  1.00  0.00     0.000 HD 
HETATM   14  C   UNL     2     -10.975   8.907  72.179  1.00  0.00    -0.349 A  
ENDROOT
BRANCH   4  15
HETATM   15  C   UNL     1      -9.366   6.526  68.966  1.00  0.00    -0.128 C  
BRANCH  15  16
HETATM   16  N   UNL     1      -9.401   5.417  69.954  1.00  0.00    -0.135 NA 
BRANCH  16  17
HETATM   17  C   UNL     1     -10.449   5.611  71.000  1.00  0.00    -0.250 C  
BRANCH  17  18
HETATM   18  C   UNL     1     -10.091   5.439  72.487  1.00  0.00    -0.175 C  
HETATM   19  H   UNL     1     -10.952   4.847  74.184  1.00  0.00     0.000 HD 
HETATM   20  O   UNL     1     -11.172   4.953  73.266  1.00  0.00    -0.307 OA 
ENDBRANCH  17  18
ENDBRANCH  16  17
BRANCH  16  21
HETATM   21  C   UNL     1      -9.651   4.113  69.289  1.00  0.00    -0.186 C  
BRANCH  21  22
HETATM   22  C   UNL     1      -8.445   3.168  69.100  1.00  0.00    -0.063 C  
HETATM   23  O   UNL     1      -7.232   3.855  69.401  1.00  0.00    -0.046 OA 
HETATM   24  H   UNL     1      -6.490   3.273  69.284  1.00  0.00     0.000 HD 
ENDBRANCH  21  22
ENDBRANCH  16  21
ENDBRANCH  15  16
ENDBRANCH   4  15
TORSDOF 6
ENDMDL
MODEL      176
REMARK 921   NORMALIZED FREE ENERGY PREDICTED BY IDOCK:   -3.49 KCAL/MOL
REMARK 922        TOTAL FREE ENERGY PREDICTED BY IDOCK:   -5.58 KCAL/MOL
REMARK 923 INTER-LIGAND FREE ENERGY PREDICTED BY IDOCK:   -4.22 KCAL/MOL
REMARK 924 INTRA-LIGAND FREE ENERGY PREDICTED BY IDOCK:   -1.35 KCAL/MOL
REMARK 927      BINDING AFFINITY PREDICTED BY RF-SCORE:    0.00 PKD
ROOT
HETATM    1  O   UNL     1      -7.897   8.478  74.217  1.00  0.00    -0.346 OA 
HETATM    2  H   UNL     1      -8.484   8.734  74.918  1.00  0.00     0.000 HD 
HETATM    3  O   UNL     2     -11.689   8.922  72.056  1.00  0.00    -0.350 OA 
HETATM    4  C   UNL     1      -8.497   8.505  72.926  1.00  0.00    -0.064 C  
HETATM    5  O   UNL     2     -11.157   9.033  67.986  1.00  0.00    -0.489 OA 
HETATM    6  C   UNL     2     -11.103   9.063  70.852  1.00  0.00    -0.280 C  
HETATM    7  C   UNL     2     -10.947   7.814  70.081  1.00  0.00    -0.246 A  
HETATM    8  O   UNL     2     -10.727  10.141  70.406  1.00  0.00    -0.291 OA 
HETATM    9  C   UNL     2     -10.518   5.503  68.564  1.00  0.00    -0.234 A  
HETATM   10  C   UNL     2     -10.984   7.870  68.682  1.00  0.00     0.188 A  
HETATM   11  C   UNL     2     -10.810   6.713  67.932  1.00  0.00    -0.353 A  
HETATM   12  C   UNL     2     -10.655   6.598  70.710  1.00  0.00    -0.265 A  
HETATM   13  H   UNL     2     -11.182   9.071  67.037  1.00  0.00     0.000 HD 
HETATM   14  C   UNL     2     -10.417   5.452  69.952  1.00  0.00    -0.378 A  
ENDROOT
BRANCH   4  15
HETATM   15  C   UNL     1      -7.537   8.086  71.780  1.00  0.00    -0.086 C  
BRANCH  15  16
HETATM   16  N   UNL     1      -7.127   9.159  70.836  1.00  0.00    -0.097 NA 
BRANCH  16  17
HETATM   17  C   UNL     1      -5.662   9.442  70.888  1.00  0.00    -0.055 C  
BRANCH  17  18
HETATM   18  C   UNL     1      -5.161  10.814  71.373  1.00  0.00    -0.052 C  
HETATM   19  H   UNL     1      -5.707  12.730  71.300  1.00  0.00     0.000 HD 
HETATM   20  O   UNL     1      -6.016  11.883  71.000  1.00  0.00    -0.354 OA 
ENDBRANCH  17  18
ENDBRANCH  16  17
BRANCH  16  21
HETATM   21  C   UNL     1      -7.477   8.807  69.437  1.00  0.00    -0.080 C  
BRANCH  21  22
HETATM   22  C   UNL     1      -7.772   9.967  68.463  1.00  0.00    -0.089 C  
HETATM   23  O   UNL     1      -8.292  11.087  69.177  1.00  0.00    -0.302 OA 
HETATM   24  H   UNL     1      -8.473  11.801  68.577  1.00  0.00     0.000 HD 
ENDBRANCH  21  22
ENDBRANCH  16  21
ENDBRANCH  15  16
ENDBRANCH   4  15
TORSDOF 6
ENDMDL
MODEL      177
REMARK 921   NORMALIZED FREE ENERGY PREDICTED BY IDOCK:   -3.49 KCAL/MOL
REMARK 922        TOTAL FREE ENERGY PREDICTED BY IDOCK:   -5.57 KCAL/MOL
REMARK 923 INTER-LIGAND FREE ENERGY PREDICTED BY IDOCK:   -4.83 KCAL/MOL
REMARK 924 INTRA-LIGAND FREE ENERGY PREDICTED BY IDOCK:   -0.75 KCAL/MOL
REMARK 927      BINDING AFFINITY PREDICTED BY RF-SCORE:    0.00 PKD
ROOT
HETATM    1  O   UNL     1     -11.424   6.544  67.416  1.00  0.00    -0.740 OA 
HETATM    2  H   UNL     1     -11.938   6.266  68.164  1.00  0.00     0.000 HD 
HETATM    3  O   UNL     2     -11.159  10.074  70.006  1.00  0.00    -0.256 OA 
HETATM    4  C   UNL     1     -10.790   7.806  67.589  1.00  0.00    -0.079 C  
HETATM    5  O   UNL     2      -8.222  12.675  68.795  1.00  0.00    -0.330 OA 
HETATM    6  C   UNL     2     -10.056  10.559  69.404  1.00  0.00    -0.209 C  
HETATM    7  C   UNL     2     -10.310  11.524  68.315  1.00  0.00    -0.211 A  
HETATM    8  O   UNL     2      -8.917  10.241  69.725  1.00  0.00    -0.168 OA 
HETATM    9  C   UNL     2     -10.665  13.294  66.178  1.00  0.00    -0.287 A  
HETATM   10  C   UNL     2      -9.371  12.534  68.072  1.00  0.00    -0.205 A  
HETATM   11  C   UNL     2      -9.572  13.437  67.034  1.00  0.00    -0.244 A  
HETATM   12  C   UNL     2     -11.406  11.385  67.455  1.00  0.00    -0.362 A  
HETATM   13  H   UNL     2      -7.585  13.361  68.630  1.00  0.00     0.000 HD 
HETATM   14  C   UNL     2     -11.569  12.253  66.376  1.00  0.00    -0.445 A  
ENDROOT
BRANCH   4  15
HETATM   15  C   UNL     1      -9.949   8.259  66.365  1.00  0.00    -0.194 C  
BRANCH  15  16
HETATM   16  N   UNL     1      -8.546   7.770  66.309  1.00  0.00    -0.142 NA 
BRANCH  16  17
HETATM   17  C   UNL     1      -8.433   6.411  65.704  1.00  0.00    -0.146 C  
BRANCH  17  18
HETATM   18  C   UNL     1      -8.072   5.204  66.588  1.00  0.00    -0.108 C  
HETATM   19  H   UNL     1      -8.843   3.446  67.126  1.00  0.00     0.000 HD 
HETATM   20  O   UNL     1      -9.066   4.191  66.580  1.00  0.00    -0.119 OA 
ENDBRANCH  17  18
ENDBRANCH  16  17
BRANCH  16  21
HETATM   21  C   UNL     1      -7.686   8.694  65.527  1.00  0.00    -0.092 C  
BRANCH  21  22
HETATM   22  C   UNL     1      -7.614  10.165  65.990  1.00  0.00    -0.118 C  
HETATM   23  O   UNL     1      -8.198  11.018  65.007  1.00  0.00    -0.375 OA 
HETATM   24  H   UNL     1      -8.153  11.923  65.292  1.00  0.00     0.000 HD 
ENDBRANCH  21  22
ENDBRANCH  16  21
ENDBRANCH  15  16
ENDBRANCH   4  15
TORSDOF 6
ENDMDL
MODEL      178
REMARK 921   NORMALIZED FREE ENERGY PREDICTED BY IDOCK:   -3.49 KCAL/MOL
REMARK 922        TOTAL FREE ENERGY PREDICTED BY IDOCK:   -5.57 KCAL/MOL
REMARK 923 INTER-LIGAND FREE ENERGY PREDICTED BY IDOCK:   -5.42 KCAL/MOL
REMARK 924 INTRA-LIGAND FREE ENERGY PREDICTED BY IDOCK:   -0.15 KCAL/MOL
REMARK 927      BINDING AFFINITY PREDICTED BY RF-SCORE:    0.00 PKD
ROOT
HETATM    1  O   UNL     1     -10.726   7.942  68.625  1.00  0.00    -0.364 OA 
HETATM    2  H   UNL     1     -11.061   7.468  67.874  1.00  0.00     0.000 HD 
HETATM    3  O   UNL     2     -11.152  11.168  65.683  1.00  0.00    -0.150 OA 
HETATM    4  C   UNL     1     -10.675   9.352  68.440  1.00  0.00    -0.168 C  
HETATM    5  O   UNL     2     -10.919  14.887  67.408  1.00  0.00    -0.296 OA 
HETATM    6  C   UNL     2     -11.173  12.147  66.609  1.00  0.00    -0.324 C  
HETATM    7  C   UNL     2      -9.861  12.754  66.909  1.00  0.00    -0.236 A  
HETATM    8  O   UNL     2     -12.197  12.525  67.167  1.00  0.00    -0.474 OA 
HETATM    9  C   UNL     2      -7.423  13.922  67.625  1.00  0.00    -0.187 A  
HETATM   10  C   UNL     2      -9.809  14.100  67.293  1.00  0.00    -0.238 A  
HETATM   11  C   UNL     2      -8.589  14.687  67.609  1.00  0.00    -0.182 A  
HETATM   12  C   UNL     2      -8.688  11.991  66.924  1.00  0.00    -0.193 A  
HETATM   13  H   UNL     2     -10.883  15.800  67.669  1.00  0.00     0.000 HD 
HETATM   14  C   UNL     2      -7.477  12.567  67.304  1.00  0.00    -0.125 A  
ENDROOT
BRANCH   4  15
HETATM   15  C   UNL     1     -10.129  10.127  69.669  1.00  0.00    -0.234 C  
BRANCH  15  16
HETATM   16  N   UNL     1     -10.803   9.867  70.968  1.00  0.00    -0.299 NA 
BRANCH  16  17
HETATM   17  C   UNL     1     -12.217   9.420  70.803  1.00  0.00    -0.162 C  
BRANCH  17  18
HETATM   18  C   UNL     1     -13.304   9.937  71.762  1.00  0.00    -0.404 C  
HETATM   19  H   UNL     1     -13.914  11.658  72.562  1.00  0.00     0.000 HD 
HETATM   20  O   UNL     1     -13.243  11.339  71.969  1.00  0.00    -0.506 OA 
ENDBRANCH  17  18
ENDBRANCH  16  17
BRANCH  16  21
HETATM   21  C   UNL     1     -10.082   8.832  71.750  1.00  0.00    -0.333 C  
BRANCH  21  22
HETATM   22  C   UNL     1      -8.577   8.642  71.463  1.00  0.00    -0.195 C  
HETATM   23  O   UNL     1      -7.834   8.715  72.679  1.00  0.00    -0.346 OA 
HETATM   24  H   UNL     1      -6.908   8.598  72.502  1.00  0.00     0.000 HD 
ENDBRANCH  21  22
ENDBRANCH  16  21
ENDBRANCH  15  16
ENDBRANCH   4  15
TORSDOF 6
ENDMDL
MODEL      179
REMARK 921   NORMALIZED FREE ENERGY PREDICTED BY IDOCK:   -3.48 KCAL/MOL
REMARK 922        TOTAL FREE ENERGY PREDICTED BY IDOCK:   -5.55 KCAL/MOL
REMARK 923 INTER-LIGAND FREE ENERGY PREDICTED BY IDOCK:   -5.07 KCAL/MOL
REMARK 924 INTRA-LIGAND FREE ENERGY PREDICTED BY IDOCK:   -0.49 KCAL/MOL
REMARK 927      BINDING AFFINITY PREDICTED BY RF-SCORE:    0.00 PKD
ROOT
HETATM    1  O   UNL     1      -7.646  14.700  68.403  1.00  0.00    -0.106 OA 
HETATM    2  H   UNL     1      -6.995  14.744  69.092  1.00  0.00     0.000 HD 
HETATM    3  O   UNL     2      -7.623  10.554  69.836  1.00  0.00    -0.146 OA 
HETATM    4  C   UNL     1      -8.301  13.440  68.308  1.00  0.00    -0.160 C  
HETATM    5  O   UNL     2     -10.852   8.418  68.470  1.00  0.00    -0.424 OA 
HETATM    6  C   UNL     2      -8.837  10.266  69.330  1.00  0.00    -0.177 C  
HETATM    7  C   UNL     2      -8.827   9.673  67.977  1.00  0.00    -0.119 A  
HETATM    8  O   UNL     2      -9.884  10.465  69.934  1.00  0.00    -0.165 OA 
HETATM    9  C   UNL     2      -8.942   8.626  65.386  1.00  0.00    -0.181 A  
HETATM   10  C   UNL     2      -9.842   8.776  67.623  1.00  0.00    -0.180 A  
HETATM   11  C   UNL     2      -9.872   8.226  66.346  1.00  0.00    -0.283 A  
HETATM   12  C   UNL     2      -7.894  10.069  67.012  1.00  0.00    -0.102 A  
HETATM   13  H   UNL     2     -11.540   7.809  68.229  1.00  0.00     0.000 HD 
HETATM   14  C   UNL     2      -7.967   9.566  65.714  1.00  0.00    -0.111 A  
ENDROOT
BRANCH   4  15
HETATM   15  C   UNL     1      -9.366  13.370  67.180  1.00  0.00    -0.240 C  
BRANCH  15  16
HETATM   16  N   UNL     1     -10.278  14.537  67.058  1.00  0.00    -0.260 NA 
BRANCH  16  17
HETATM   17  C   UNL     1     -10.086  15.285  65.781  1.00  0.00    -0.356 C  
BRANCH  17  18
HETATM   18  C   UNL     1     -10.168  16.822  65.770  1.00  0.00    -0.291 C  
HETATM   19  H   UNL     1      -9.720  18.363  66.952  1.00  0.00     0.000 HD 
HETATM   20  O   UNL     1      -9.670  17.414  66.959  1.00  0.00    -0.259 OA 
ENDBRANCH  17  18
ENDBRANCH  16  17
BRANCH  16  21
HETATM   21  C   UNL     1     -11.700  14.119  67.136  1.00  0.00    -0.403 C  
BRANCH  21  22
HETATM   22  C   UNL     1     -12.380  13.655  65.830  1.00  0.00    -0.471 C  
HETATM   23  O   UNL     1     -13.641  14.303  65.677  1.00  0.00    -0.633 OA 
HETATM   24  H   UNL     1     -14.060  14.017  64.873  1.00  0.00     0.000 HD 
ENDBRANCH  21  22
ENDBRANCH  16  21
ENDBRANCH  15  16
ENDBRANCH   4  15
TORSDOF 6
ENDMDL
MODEL      180
REMARK 921   NORMALIZED FREE ENERGY PREDICTED BY IDOCK:   -3.46 KCAL/MOL
REMARK 922        TOTAL FREE ENERGY PREDICTED BY IDOCK:   -5.54 KCAL/MOL
REMARK 923 INTER-LIGAND FREE ENERGY PREDICTED BY IDOCK:   -5.19 KCAL/MOL
REMARK 924 INTRA-LIGAND FREE ENERGY PREDICTED BY IDOCK:   -0.35 KCAL/MOL
REMARK 927      BINDING AFFINITY PREDICTED BY RF-SCORE:    0.00 PKD
ROOT
HETATM    1  O   UNL     1      -9.240   9.637  67.879  1.00  0.00    -0.126 OA 
HETATM    2  H   UNL     1      -9.800  10.383  67.703  1.00  0.00     0.000 HD 
HETATM    3  O   UNL     2     -12.177   9.299  71.120  1.00  0.00    -0.297 OA 
HETATM    4  C   UNL     1      -9.703   8.807  68.939  1.00  0.00    -0.172 C  
HETATM    5  O   UNL     2     -12.035   5.638  72.973  1.00  0.00    -0.538 OA 
HETATM    6  C   UNL     2     -11.929   7.995  71.346  1.00  0.00    -0.298 C  
HETATM    7  C   UNL     2     -10.922   7.721  72.390  1.00  0.00    -0.368 A  
HETATM    8  O   UNL     2     -12.492   7.087  70.746  1.00  0.00    -0.338 OA 
HETATM    9  C   UNL     2      -8.968   7.078  74.286  1.00  0.00    -0.238 A  
HETATM   10  C   UNL     2     -11.034   6.550  73.150  1.00  0.00    -0.221 A  
HETATM   11  C   UNL     2     -10.082   6.254  74.120  1.00  0.00    -0.327 A  
HETATM   12  C   UNL     2      -9.803   8.545  72.562  1.00  0.00    -0.324 A  
HETATM   13  H   UNL     2     -12.111   4.844  73.489  1.00  0.00     0.000 HD 
HETATM   14  C   UNL     2      -8.818   8.211  73.490  1.00  0.00    -0.310 A  
ENDROOT
BRANCH   4  15
HETATM   15  C   UNL     1      -8.787   7.586  69.225  1.00  0.00    -0.136 C  
BRANCH  15  16
HETATM   16  N   UNL     1      -8.792   6.502  68.209  1.00  0.00    -0.120 NA 
BRANCH  16  17
HETATM   17  C   UNL     1      -7.809   5.422  68.514  1.00  0.00    -0.088 C  
BRANCH  17  18
HETATM   18  C   UNL     1      -6.866   4.907  67.412  1.00  0.00    -0.056 C  
HETATM   19  H   UNL     1      -5.407   5.588  66.238  1.00  0.00     0.000 HD 
HETATM   20  O   UNL     1      -5.989   5.906  66.918  1.00  0.00    -0.017 OA 
ENDBRANCH  17  18
ENDBRANCH  16  17
BRANCH  16  21
HETATM   21  C   UNL     1     -10.136   5.881  68.093  1.00  0.00    -0.166 C  
BRANCH  21  22
HETATM   22  C   UNL     1     -11.040   6.350  66.933  1.00  0.00    -0.272 C  
HETATM   23  O   UNL     1     -11.233   5.287  66.001  1.00  0.00    -0.780 OA 
HETATM   24  H   UNL     1     -11.789   5.576  65.287  1.00  0.00     0.000 HD 
ENDBRANCH  21  22
ENDBRANCH  16  21
ENDBRANCH  15  16
ENDBRANCH   4  15
TORSDOF 6
ENDMDL
MODEL      181
REMARK 921   NORMALIZED FREE ENERGY PREDICTED BY IDOCK:   -3.46 KCAL/MOL
REMARK 922        TOTAL FREE ENERGY PREDICTED BY IDOCK:   -5.53 KCAL/MOL
REMARK 923 INTER-LIGAND FREE ENERGY PREDICTED BY IDOCK:   -4.65 KCAL/MOL
REMARK 924 INTRA-LIGAND FREE ENERGY PREDICTED BY IDOCK:   -0.87 KCAL/MOL
REMARK 927      BINDING AFFINITY PREDICTED BY RF-SCORE:    0.00 PKD
ROOT
HETATM    1  O   UNL     1      -9.393   9.684  68.916  1.00  0.00    -0.144 OA 
HETATM    2  H   UNL     1      -9.886   9.528  69.712  1.00  0.00     0.000 HD 
HETATM    3  O   UNL     2     -12.139  13.106  68.922  1.00  0.00    -0.301 OA 
HETATM    4  C   UNL     1      -9.704  10.919  68.279  1.00  0.00    -0.165 C  
HETATM    5  O   UNL     2     -11.007  16.013  66.253  1.00  0.00    -0.218 OA 
HETATM    6  C   UNL     2     -11.381  13.845  68.089  1.00  0.00    -0.295 C  
HETATM    7  C   UNL     2     -11.724  13.724  66.658  1.00  0.00    -0.421 A  
HETATM    8  O   UNL     2     -10.475  14.575  68.471  1.00  0.00    -0.236 OA 
HETATM    9  C   UNL     2     -12.221  13.512  63.913  1.00  0.00    -0.458 A  
HETATM   10  C   UNL     2     -11.516  14.824  65.816  1.00  0.00    -0.322 A  
HETATM   11  C   UNL     2     -11.803  14.727  64.459  1.00  0.00    -0.428 A  
HETATM   12  C   UNL     2     -12.145  12.508  66.106  1.00  0.00    -0.357 A  
HETATM   13  H   UNL     2     -10.867  16.759  65.681  1.00  0.00     0.000 HD 
HETATM   14  C   UNL     2     -12.369  12.397  64.735  1.00  0.00    -0.497 A  
ENDROOT
BRANCH   4  15
HETATM   15  C   UNL     1      -8.897  11.174  66.977  1.00  0.00    -0.149 C  
BRANCH  15  16
HETATM   16  N   UNL     1      -7.537  10.578  66.914  1.00  0.00    -0.106 NA 
BRANCH  16  17
HETATM   17  C   UNL     1      -7.271   9.890  65.617  1.00  0.00    -0.113 C  
BRANCH  17  18
HETATM   18  C   UNL     1      -7.588   8.392  65.461  1.00  0.00    -0.090 C  
HETATM   19  H   UNL     1      -8.444   6.918  66.494  1.00  0.00     0.000 HD 
HETATM   20  O   UNL     1      -8.249   7.843  66.590  1.00  0.00    -0.114 OA 
ENDBRANCH  17  18
ENDBRANCH  16  17
BRANCH  16  21
HETATM   21  C   UNL     1      -6.488  11.610  67.111  1.00  0.00    -0.137 C  
BRANCH  21  22
HETATM   22  C   UNL     1      -5.940  11.805  68.541  1.00  0.00    -0.049 C  
HETATM   23  O   UNL     1      -6.381  10.741  69.384  1.00  0.00    -0.053 OA 
HETATM   24  H   UNL     1      -6.043  10.861  70.264  1.00  0.00     0.000 HD 
ENDBRANCH  21  22
ENDBRANCH  16  21
ENDBRANCH  15  16
ENDBRANCH   4  15
TORSDOF 6
ENDMDL
MODEL      182
REMARK 921   NORMALIZED FREE ENERGY PREDICTED BY IDOCK:   -3.45 KCAL/MOL
REMARK 922        TOTAL FREE ENERGY PREDICTED BY IDOCK:   -5.52 KCAL/MOL
REMARK 923 INTER-LIGAND FREE ENERGY PREDICTED BY IDOCK:   -4.46 KCAL/MOL
REMARK 924 INTRA-LIGAND FREE ENERGY PREDICTED BY IDOCK:   -1.06 KCAL/MOL
REMARK 927      BINDING AFFINITY PREDICTED BY RF-SCORE:    0.00 PKD
ROOT
HETATM    1  O   UNL     1      -6.557  10.928  70.593  1.00  0.00    -0.447 OA 
HETATM    2  H   UNL     1      -6.857  11.827  70.539  1.00  0.00     0.000 HD 
HETATM    3  O   UNL     2     -10.909  10.388  70.489  1.00  0.00    -0.276 OA 
HETATM    4  C   UNL     1      -7.601   9.967  70.487  1.00  0.00    -0.008 C  
HETATM    5  O   UNL     2     -11.976   6.498  69.723  1.00  0.00    -0.625 OA 
HETATM    6  C   UNL     2     -10.842   9.105  70.085  1.00  0.00    -0.240 C  
HETATM    7  C   UNL     2     -10.863   8.104  71.171  1.00  0.00    -0.268 A  
HETATM    8  O   UNL     2     -10.775   8.770  68.908  1.00  0.00    -0.187 OA 
HETATM    9  C   UNL     2     -10.807   6.121  73.143  1.00  0.00    -0.279 A  
HETATM   10  C   UNL     2     -11.434   6.849  70.927  1.00  0.00    -0.323 A  
HETATM   11  C   UNL     2     -11.440   5.880  71.923  1.00  0.00    -0.287 A  
HETATM   12  C   UNL     2     -10.232   8.342  72.398  1.00  0.00    -0.399 A  
HETATM   13  H   UNL     2     -12.363   5.646  69.557  1.00  0.00     0.000 HD 
HETATM   14  C   UNL     2     -10.183   7.345  73.370  1.00  0.00    -0.402 A  
ENDROOT
BRANCH   4  15
HETATM   15  C   UNL     1      -7.110   8.496  70.575  1.00  0.00    -0.041 C  
BRANCH  15  16
HETATM   16  N   UNL     1      -7.613   7.567  69.529  1.00  0.00    -0.093 NA 
BRANCH  16  17
HETATM   17  C   UNL     1      -7.244   8.000  68.150  1.00  0.00    -0.094 C  
BRANCH  17  18
HETATM   18  C   UNL     1      -8.318   8.063  67.050  1.00  0.00    -0.116 C  
HETATM   19  H   UNL     1      -9.630   6.858  66.155  1.00  0.00     0.000 HD 
HETATM   20  O   UNL     1      -8.967   6.820  66.834  1.00  0.00    -0.121 OA 
ENDBRANCH  17  18
ENDBRANCH  16  17
BRANCH  16  21
HETATM   21  C   UNL     1      -7.091   6.193  69.735  1.00  0.00    -0.072 C  
BRANCH  21  22
HETATM   22  C   UNL     1      -8.089   5.115  70.210  1.00  0.00    -0.086 C  
HETATM   23  O   UNL     1      -9.146   4.974  69.262  1.00  0.00    -0.097 OA 
HETATM   24  H   UNL     1      -9.760   4.311  69.554  1.00  0.00     0.000 HD 
ENDBRANCH  21  22
ENDBRANCH  16  21
ENDBRANCH  15  16
ENDBRANCH   4  15
TORSDOF 6
ENDMDL
MODEL      183
REMARK 921   NORMALIZED FREE ENERGY PREDICTED BY IDOCK:   -3.45 KCAL/MOL
REMARK 922        TOTAL FREE ENERGY PREDICTED BY IDOCK:   -5.51 KCAL/MOL
REMARK 923 INTER-LIGAND FREE ENERGY PREDICTED BY IDOCK:   -4.77 KCAL/MOL
REMARK 924 INTRA-LIGAND FREE ENERGY PREDICTED BY IDOCK:   -0.74 KCAL/MOL
REMARK 927      BINDING AFFINITY PREDICTED BY RF-SCORE:    0.00 PKD
ROOT
HETATM    1  O   UNL     1      -7.732  11.077  64.580  1.00  0.00    -0.283 OA 
HETATM    2  H   UNL     1      -7.178  10.761  63.876  1.00  0.00     0.000 HD 
HETATM    3  O   UNL     2      -6.811   7.016  65.960  1.00  0.00    -0.054 OA 
HETATM    4  C   UNL     1      -7.843  10.175  65.674  1.00  0.00    -0.145 C  
HETATM    5  O   UNL     2      -7.774   6.460  69.912  1.00  0.00    -0.103 OA 
HETATM    6  C   UNL     2      -7.107   7.277  67.247  1.00  0.00    -0.091 C  
HETATM    7  C   UNL     2      -8.495   6.970  67.646  1.00  0.00    -0.123 A  
HETATM    8  O   UNL     2      -6.297   7.730  68.047  1.00  0.00    -0.047 OA 
HETATM    9  C   UNL     2     -11.120   6.511  68.496  1.00  0.00    -0.347 A  
HETATM   10  C   UNL     2      -8.751   6.575  68.965  1.00  0.00    -0.128 A  
HETATM   11  C   UNL     2     -10.053   6.309  69.373  1.00  0.00    -0.215 A  
HETATM   12  C   UNL     2      -9.569   7.169  66.769  1.00  0.00    -0.230 A  
HETATM   13  H   UNL     2      -7.948   6.193  70.807  1.00  0.00     0.000 HD 
HETATM   14  C   UNL     2     -10.878   6.964  67.202  1.00  0.00    -0.447 A  
ENDROOT
BRANCH   4  15
HETATM   15  C   UNL     1      -8.749  10.692  66.825  1.00  0.00    -0.130 C  
BRANCH  15  16
HETATM   16  N   UNL     1     -10.179  10.921  66.488  1.00  0.00    -0.225 NA 
BRANCH  16  17
HETATM   17  C   UNL     1     -11.101  10.510  67.587  1.00  0.00    -0.309 C  
BRANCH  17  18
HETATM   18  C   UNL     1     -11.567  11.544  68.628  1.00  0.00    -0.313 C  
HETATM   19  H   UNL     1     -12.592  11.606  70.336  1.00  0.00     0.000 HD 
HETATM   20  O   UNL     1     -12.304  10.967  69.693  1.00  0.00    -0.321 OA 
ENDBRANCH  17  18
ENDBRANCH  16  17
BRANCH  16  21
HETATM   21  C   UNL     1     -10.436  12.351  66.183  1.00  0.00    -0.248 C  
BRANCH  21  22
HETATM   22  C   UNL     1     -10.903  12.702  64.754  1.00  0.00    -0.302 C  
HETATM   23  O   UNL     1      -9.808  13.205  63.991  1.00  0.00    -0.715 OA 
HETATM   24  H   UNL     1     -10.096  13.421  63.111  1.00  0.00     0.000 HD 
ENDBRANCH  21  22
ENDBRANCH  16  21
ENDBRANCH  15  16
ENDBRANCH   4  15
TORSDOF 6
ENDMDL
MODEL      184
REMARK 921   NORMALIZED FREE ENERGY PREDICTED BY IDOCK:   -3.44 KCAL/MOL
REMARK 922        TOTAL FREE ENERGY PREDICTED BY IDOCK:   -5.51 KCAL/MOL
REMARK 923 INTER-LIGAND FREE ENERGY PREDICTED BY IDOCK:   -4.80 KCAL/MOL
REMARK 924 INTRA-LIGAND FREE ENERGY PREDICTED BY IDOCK:   -0.71 KCAL/MOL
REMARK 927      BINDING AFFINITY PREDICTED BY RF-SCORE:    0.00 PKD
ROOT
HETATM    1  O   UNL     1     -10.583  10.469  65.330  1.00  0.00    -0.213 OA 
HETATM    2  H   UNL     1     -11.313  10.544  64.728  1.00  0.00     0.000 HD 
HETATM    3  O   UNL     2     -12.290  14.333  66.512  1.00  0.00    -0.445 OA 
HETATM    4  C   UNL     1     -10.526  11.510  66.298  1.00  0.00    -0.251 C  
HETATM    5  O   UNL     2     -10.842  15.633  70.127  1.00  0.00    -0.294 OA 
HETATM    6  C   UNL     2     -11.718  14.327  67.731  1.00  0.00    -0.374 C  
HETATM    7  C   UNL     2     -10.413  15.013  67.814  1.00  0.00    -0.249 A  
HETATM    8  O   UNL     2     -12.230  13.804  68.714  1.00  0.00    -0.350 OA 
HETATM    9  C   UNL     2      -7.897  16.205  68.077  1.00  0.00    -0.150 A  
HETATM   10  C   UNL     2     -10.047  15.632  69.016  1.00  0.00    -0.227 A  
HETATM   11  C   UNL     2      -8.811  16.258  69.130  1.00  0.00    -0.217 A  
HETATM   12  C   UNL     2      -9.492  14.964  66.761  1.00  0.00    -0.269 A  
HETATM   13  H   UNL     2     -10.593  16.053  70.942  1.00  0.00     0.000 HD 
HETATM   14  C   UNL     2      -8.230  15.537  66.902  1.00  0.00    -0.287 A  
ENDROOT
BRANCH   4  15
HETATM   15  C   UNL     1      -9.332  11.388  67.282  1.00  0.00    -0.167 C  
BRANCH  15  16
HETATM   16  N   UNL     1      -9.164  10.075  67.958  1.00  0.00    -0.134 NA 
BRANCH  16  17
HETATM   17  C   UNL     1      -8.066   9.257  67.363  1.00  0.00    -0.110 C  
BRANCH  17  18
HETATM   18  C   UNL     1      -8.396   7.947  66.627  1.00  0.00    -0.125 C  
HETATM   19  H   UNL     1      -9.988   6.958  65.950  1.00  0.00     0.000 HD 
HETATM   20  O   UNL     1      -9.785   7.767  66.404  1.00  0.00    -0.206 OA 
ENDBRANCH  17  18
ENDBRANCH  16  17
BRANCH  16  21
HETATM   21  C   UNL     1      -8.876  10.247  69.404  1.00  0.00    -0.163 C  
BRANCH  21  22
HETATM   22  C   UNL     1      -9.483   9.215  70.379  1.00  0.00    -0.227 C  
HETATM   23  O   UNL     1      -8.659   9.093  71.537  1.00  0.00    -0.339 OA 
HETATM   24  H   UNL     1      -9.032   8.458  72.138  1.00  0.00     0.000 HD 
ENDBRANCH  21  22
ENDBRANCH  16  21
ENDBRANCH  15  16
ENDBRANCH   4  15
TORSDOF 6
ENDMDL
MODEL      185
REMARK 921   NORMALIZED FREE ENERGY PREDICTED BY IDOCK:   -3.42 KCAL/MOL
REMARK 922        TOTAL FREE ENERGY PREDICTED BY IDOCK:   -5.48 KCAL/MOL
REMARK 923 INTER-LIGAND FREE ENERGY PREDICTED BY IDOCK:   -4.68 KCAL/MOL
REMARK 924 INTRA-LIGAND FREE ENERGY PREDICTED BY IDOCK:   -0.80 KCAL/MOL
REMARK 927      BINDING AFFINITY PREDICTED BY RF-SCORE:    0.00 PKD
ROOT
HETATM    1  O   UNL     1     -12.257  11.173  70.889  1.00  0.00    -0.355 OA 
HETATM    2  H   UNL     1     -12.173  10.658  71.683  1.00  0.00     0.000 HD 
HETATM    3  O   UNL     2      -9.557   7.976  69.571  1.00  0.00    -0.163 OA 
HETATM    4  C   UNL     1     -11.614  10.595  69.759  1.00  0.00    -0.309 C  
HETATM    5  O   UNL     2      -9.204   7.825  65.484  1.00  0.00    -0.393 OA 
HETATM    6  C   UNL     2      -9.822   8.154  68.263  1.00  0.00    -0.171 C  
HETATM    7  C   UNL     2      -8.898   9.063  67.555  1.00  0.00    -0.128 A  
HETATM    8  O   UNL     2     -10.750   7.605  67.681  1.00  0.00    -0.232 OA 
HETATM    9  C   UNL     2      -7.269  10.833  66.128  1.00  0.00    -0.126 A  
HETATM   10  C   UNL     2      -8.639   8.845  66.196  1.00  0.00    -0.140 A  
HETATM   11  C   UNL     2      -7.797   9.704  65.500  1.00  0.00    -0.111 A  
HETATM   12  C   UNL     2      -8.364  10.196  68.181  1.00  0.00    -0.117 A  
HETATM   13  H   UNL     2      -9.028   7.678  64.562  1.00  0.00     0.000 HD 
HETATM   14  C   UNL     2      -7.573  11.091  67.462  1.00  0.00    -0.106 A  
ENDROOT
BRANCH   4  15
HETATM   15  C   UNL     1     -11.751  11.436  68.461  1.00  0.00    -0.318 C  
BRANCH  15  16
HETATM   16  N   UNL     1     -11.152  12.796  68.488  1.00  0.00    -0.251 NA 
BRANCH  16  17
HETATM   17  C   UNL     1     -10.578  13.198  67.170  1.00  0.00    -0.257 C  
BRANCH  17  18
HETATM   18  C   UNL     1      -9.289  14.036  67.117  1.00  0.00    -0.242 C  
HETATM   19  H   UNL     1      -7.964  14.844  68.368  1.00  0.00     0.000 HD 
HETATM   20  O   UNL     1      -8.760  14.326  68.401  1.00  0.00    -0.172 OA 
ENDBRANCH  17  18
ENDBRANCH  16  17
BRANCH  16  21
HETATM   21  C   UNL     1     -12.155  13.817  68.883  1.00  0.00    -0.313 C  
BRANCH  21  22
HETATM   22  C   UNL     1     -11.808  14.732  70.077  1.00  0.00    -0.311 C  
HETATM   23  O   UNL     1     -11.861  13.991  71.294  1.00  0.00    -0.465 OA 
HETATM   24  H   UNL     1     -11.647  14.554  72.029  1.00  0.00     0.000 HD 
ENDBRANCH  21  22
ENDBRANCH  16  21
ENDBRANCH  15  16
ENDBRANCH   4  15
TORSDOF 6
ENDMDL
MODEL      186
REMARK 921   NORMALIZED FREE ENERGY PREDICTED BY IDOCK:   -3.42 KCAL/MOL
REMARK 922        TOTAL FREE ENERGY PREDICTED BY IDOCK:   -5.48 KCAL/MOL
REMARK 923 INTER-LIGAND FREE ENERGY PREDICTED BY IDOCK:   -4.95 KCAL/MOL
REMARK 924 INTRA-LIGAND FREE ENERGY PREDICTED BY IDOCK:   -0.53 KCAL/MOL
REMARK 927      BINDING AFFINITY PREDICTED BY RF-SCORE:    0.00 PKD
ROOT
HETATM    1  O   UNL     1      -9.719   8.476  65.539  1.00  0.00    -0.421 OA 
HETATM    2  H   UNL     1      -9.923   7.922  64.795  1.00  0.00     0.000 HD 
HETATM    3  O   UNL     2     -10.029   4.538  67.448  1.00  0.00    -0.177 OA 
HETATM    4  C   UNL     1      -9.513   7.758  66.751  1.00  0.00    -0.197 C  
HETATM    5  O   UNL     2      -8.482   4.526  71.251  1.00  0.00    -0.102 OA 
HETATM    6  C   UNL     2      -9.322   4.897  68.536  1.00  0.00    -0.131 C  
HETATM    7  C   UNL     2     -10.126   5.381  69.676  1.00  0.00    -0.319 A  
HETATM    8  O   UNL     2      -8.100   4.828  68.599  1.00  0.00    -0.083 OA 
HETATM    9  C   UNL     2     -11.535   6.397  71.868  1.00  0.00    -0.352 A  
HETATM   10  C   UNL     2      -9.657   5.165  70.977  1.00  0.00    -0.171 A  
HETATM   11  C   UNL     2     -10.382   5.637  72.066  1.00  0.00    -0.261 A  
HETATM   12  C   UNL     2     -11.285   6.142  69.482  1.00  0.00    -0.482 A  
HETATM   13  H   UNL     2      -8.164   4.380  72.134  1.00  0.00     0.000 HD 
HETATM   14  C   UNL     2     -11.973   6.668  70.574  1.00  0.00    -0.377 A  
ENDROOT
BRANCH   4  15
HETATM   15  C   UNL     1      -9.180   8.664  67.968  1.00  0.00    -0.140 C  
BRANCH  15  16
HETATM   16  N   UNL     1      -9.647  10.073  67.891  1.00  0.00    -0.144 NA 
BRANCH  16  17
HETATM   17  C   UNL     1     -11.007  10.262  68.476  1.00  0.00    -0.247 C  
BRANCH  17  18
HETATM   18  C   UNL     1     -11.173  10.432  69.996  1.00  0.00    -0.316 C  
HETATM   19  H   UNL     1     -12.045  11.676  71.287  1.00  0.00     0.000 HD 
HETATM   20  O   UNL     1     -11.943  11.571  70.348  1.00  0.00    -0.349 OA 
ENDBRANCH  17  18
ENDBRANCH  16  17
BRANCH  16  21
HETATM   21  C   UNL     1      -8.713  10.988  68.594  1.00  0.00    -0.161 C  
BRANCH  21  22
HETATM   22  C   UNL     1      -8.396  12.340  67.918  1.00  0.00    -0.163 C  
HETATM   23  O   UNL     1      -8.724  13.415  68.797  1.00  0.00    -0.360 OA 
HETATM   24  H   UNL     1      -8.529  14.247  68.381  1.00  0.00     0.000 HD 
ENDBRANCH  21  22
ENDBRANCH  16  21
ENDBRANCH  15  16
ENDBRANCH   4  15
TORSDOF 6
ENDMDL
MODEL      187
REMARK 921   NORMALIZED FREE ENERGY PREDICTED BY IDOCK:   -3.41 KCAL/MOL
REMARK 922        TOTAL FREE ENERGY PREDICTED BY IDOCK:   -5.47 KCAL/MOL
REMARK 923 INTER-LIGAND FREE ENERGY PREDICTED BY IDOCK:   -5.21 KCAL/MOL
REMARK 924 INTRA-LIGAND FREE ENERGY PREDICTED BY IDOCK:   -0.26 KCAL/MOL
REMARK 927      BINDING AFFINITY PREDICTED BY RF-SCORE:    0.00 PKD
ROOT
HETATM    1  O   UNL     1     -10.495  14.292  69.355  1.00  0.00    -0.404 OA 
HETATM    2  H   UNL     1     -10.153  14.344  70.239  1.00  0.00     0.000 HD 
HETATM    3  O   UNL     2      -9.149  10.168  70.010  1.00  0.00    -0.161 OA 
HETATM    4  C   UNL     1     -10.502  12.974  68.818  1.00  0.00    -0.164 C  
HETATM    5  O   UNL     2     -10.633   7.581  67.189  1.00  0.00    -0.307 OA 
HETATM    6  C   UNL     2      -9.925   9.653  69.038  1.00  0.00    -0.185 C  
HETATM    7  C   UNL     2      -9.276   9.529  67.717  1.00  0.00    -0.136 A  
HETATM    8  O   UNL     2     -11.085   9.299  69.216  1.00  0.00    -0.147 OA 
HETATM    9  C   UNL     2      -8.185   9.327  65.150  1.00  0.00    -0.143 A  
HETATM   10  C   UNL     2      -9.670   8.492  66.862  1.00  0.00    -0.221 A  
HETATM   11  C   UNL     2      -9.095   8.371  65.602  1.00  0.00    -0.155 A  
HETATM   12  C   UNL     2      -8.361  10.484  67.259  1.00  0.00    -0.122 A  
HETATM   13  H   UNL     2     -10.900   6.877  66.608  1.00  0.00     0.000 HD 
HETATM   14  C   UNL     2      -7.836  10.396  65.971  1.00  0.00    -0.142 A  
ENDROOT
BRANCH   4  15
HETATM   15  C   UNL     1     -11.062  12.889  67.372  1.00  0.00    -0.273 C  
BRANCH  15  16
HETATM   16  N   UNL     1     -10.162  13.358  66.286  1.00  0.00    -0.291 NA 
BRANCH  16  17
HETATM   17  C   UNL     1     -10.760  13.186  64.929  1.00  0.00    -0.346 C  
BRANCH  17  18
HETATM   18  C   UNL     1     -11.591  11.931  64.609  1.00  0.00    -0.250 C  
HETATM   19  H   UNL     1     -13.136  11.398  63.468  1.00  0.00     0.000 HD 
HETATM   20  O   UNL     1     -12.623  12.173  63.666  1.00  0.00    -0.623 OA 
ENDBRANCH  17  18
ENDBRANCH  16  17
BRANCH  16  21
HETATM   21  C   UNL     1      -9.816  14.792  66.457  1.00  0.00    -0.272 C  
BRANCH  21  22
HETATM   22  C   UNL     1     -10.826  15.836  65.936  1.00  0.00    -0.268 C  
HETATM   23  O   UNL     1     -10.168  16.769  65.081  1.00  0.00    -0.599 OA 
HETATM   24  H   UNL     1     -10.790  17.412  64.760  1.00  0.00     0.000 HD 
ENDBRANCH  21  22
ENDBRANCH  16  21
ENDBRANCH  15  16
ENDBRANCH   4  15
TORSDOF 6
ENDMDL
MODEL      188
REMARK 921   NORMALIZED FREE ENERGY PREDICTED BY IDOCK:   -3.41 KCAL/MOL
REMARK 922        TOTAL FREE ENERGY PREDICTED BY IDOCK:   -5.47 KCAL/MOL
REMARK 923 INTER-LIGAND FREE ENERGY PREDICTED BY IDOCK:   -4.79 KCAL/MOL
REMARK 924 INTRA-LIGAND FREE ENERGY PREDICTED BY IDOCK:   -0.68 KCAL/MOL
REMARK 927      BINDING AFFINITY PREDICTED BY RF-SCORE:    0.00 PKD
ROOT
HETATM    1  O   UNL     1      -6.094   9.703  66.746  1.00  0.00    -0.061 OA 
HETATM    2  H   UNL     1      -6.184   8.760  66.687  1.00  0.00     0.000 HD 
HETATM    3  O   UNL     2     -10.456   9.251  66.634  1.00  0.00    -0.237 OA 
HETATM    4  C   UNL     1      -7.332  10.391  66.887  1.00  0.00    -0.106 C  
HETATM    5  O   UNL     2     -12.406  12.693  67.734  1.00  0.00    -0.250 OA 
HETATM    6  C   UNL     2     -10.697  10.462  67.173  1.00  0.00    -0.256 C  
HETATM    7  C   UNL     2     -10.904  11.551  66.198  1.00  0.00    -0.330 A  
HETATM    8  O   UNL     2     -10.752  10.664  68.380  1.00  0.00    -0.193 OA 
HETATM    9  C   UNL     2     -11.225  13.713  64.452  1.00  0.00    -0.382 A  
HETATM   10  C   UNL     2     -11.753  12.612  66.537  1.00  0.00    -0.400 A  
HETATM   11  C   UNL     2     -11.942  13.665  65.649  1.00  0.00    -0.422 A  
HETATM   12  C   UNL     2     -10.189  11.603  64.996  1.00  0.00    -0.321 A  
HETATM   13  H   UNL     2     -12.982  13.413  67.964  1.00  0.00     0.000 HD 
HETATM   14  C   UNL     2     -10.331  12.692  64.138  1.00  0.00    -0.412 A  
ENDROOT
BRANCH   4  15
HETATM   15  C   UNL     1      -7.185  11.934  66.984  1.00  0.00    -0.118 C  
BRANCH  15  16
HETATM   16  N   UNL     1      -7.679  12.568  68.235  1.00  0.00    -0.134 NA 
BRANCH  16  17
HETATM   17  C   UNL     1      -6.577  12.902  69.184  1.00  0.00    -0.104 C  
BRANCH  17  18
HETATM   18  C   UNL     1      -5.818  11.776  69.908  1.00  0.00    -0.135 C  
HETATM   19  H   UNL     1      -5.295  11.259  71.760  1.00  0.00     0.000 HD 
HETATM   20  O   UNL     1      -5.764  11.955  71.314  1.00  0.00    -0.383 OA 
ENDBRANCH  17  18
ENDBRANCH  16  17
BRANCH  16  21
HETATM   21  C   UNL     1      -8.430  13.815  67.944  1.00  0.00    -0.176 C  
BRANCH  21  22
HETATM   22  C   UNL     1      -7.790  15.150  68.381  1.00  0.00    -0.127 C  
HETATM   23  O   UNL     1      -8.657  15.837  69.282  1.00  0.00    -0.240 OA 
HETATM   24  H   UNL     1      -8.263  16.659  69.551  1.00  0.00     0.000 HD 
ENDBRANCH  21  22
ENDBRANCH  16  21
ENDBRANCH  15  16
ENDBRANCH   4  15
TORSDOF 6
ENDMDL
MODEL      189
REMARK 921   NORMALIZED FREE ENERGY PREDICTED BY IDOCK:   -3.40 KCAL/MOL
REMARK 922        TOTAL FREE ENERGY PREDICTED BY IDOCK:   -5.46 KCAL/MOL
REMARK 923 INTER-LIGAND FREE ENERGY PREDICTED BY IDOCK:   -5.69 KCAL/MOL
REMARK 924 INTRA-LIGAND FREE ENERGY PREDICTED BY IDOCK:    0.24 KCAL/MOL
REMARK 927      BINDING AFFINITY PREDICTED BY RF-SCORE:    0.00 PKD
ROOT
HETATM    1  O   UNL     1      -8.918   8.271  65.425  1.00  0.00    -0.349 OA 
HETATM    2  H   UNL     1      -8.386   8.233  64.639  1.00  0.00     0.000 HD 
HETATM    3  O   UNL     2      -9.837  12.136  63.565  1.00  0.00    -0.362 OA 
HETATM    4  C   UNL     1      -9.757   9.418  65.496  1.00  0.00    -0.230 C  
HETATM    5  O   UNL     2     -13.130  13.926  65.243  1.00  0.00    -0.777 OA 
HETATM    6  C   UNL     2     -10.988  12.305  64.245  1.00  0.00    -0.343 C  
HETATM    7  C   UNL     2     -10.867  13.072  65.501  1.00  0.00    -0.298 A  
HETATM    8  O   UNL     2     -12.067  11.868  63.863  1.00  0.00    -0.420 OA 
HETATM    9  C   UNL     2     -10.750  14.435  67.941  1.00  0.00    -0.246 A  
HETATM   10  C   UNL     2     -11.953  13.845  65.930  1.00  0.00    -0.407 A  
HETATM   11  C   UNL     2     -11.875  14.553  67.124  1.00  0.00    -0.412 A  
HETATM   12  C   UNL     2      -9.739  12.958  66.322  1.00  0.00    -0.268 A  
HETATM   13  H   UNL     2     -13.866  14.451  65.535  1.00  0.00     0.000 HD 
HETATM   14  C   UNL     2      -9.692  13.618  67.549  1.00  0.00    -0.227 A  
ENDROOT
BRANCH   4  15
HETATM   15  C   UNL     1     -10.627   9.481  66.781  1.00  0.00    -0.137 C  
BRANCH  15  16
HETATM   16  N   UNL     1     -10.021   8.921  68.018  1.00  0.00    -0.169 NA 
BRANCH  16  17
HETATM   17  C   UNL     1     -10.148   7.436  68.099  1.00  0.00    -0.179 C  
BRANCH  17  18
HETATM   18  C   UNL     1     -10.803   6.786  69.330  1.00  0.00    -0.271 C  
HETATM   19  H   UNL     1     -10.986   4.986  70.166  1.00  0.00     0.000 HD 
HETATM   20  O   UNL     1     -10.581   5.387  69.406  1.00  0.00    -0.276 OA 
ENDBRANCH  17  18
ENDBRANCH  16  17
BRANCH  16  21
HETATM   21  C   UNL     1      -8.581   9.266  68.114  1.00  0.00    -0.125 C  
BRANCH  21  22
HETATM   22  C   UNL     1      -8.199  10.504  68.953  1.00  0.00    -0.141 C  
HETATM   23  O   UNL     1      -6.853  10.888  68.674  1.00  0.00    -0.056 OA 
HETATM   24  H   UNL     1      -6.618  11.651  69.190  1.00  0.00     0.000 HD 
ENDBRANCH  21  22
ENDBRANCH  16  21
ENDBRANCH  15  16
ENDBRANCH   4  15
TORSDOF 6
ENDMDL
MODEL      190
REMARK 921   NORMALIZED FREE ENERGY PREDICTED BY IDOCK:   -3.40 KCAL/MOL
REMARK 922        TOTAL FREE ENERGY PREDICTED BY IDOCK:   -5.45 KCAL/MOL
REMARK 923 INTER-LIGAND FREE ENERGY PREDICTED BY IDOCK:   -5.34 KCAL/MOL
REMARK 924 INTRA-LIGAND FREE ENERGY PREDICTED BY IDOCK:   -0.11 KCAL/MOL
REMARK 927      BINDING AFFINITY PREDICTED BY RF-SCORE:    0.00 PKD
ROOT
HETATM    1  O   UNL     1      -9.884   9.918  69.444  1.00  0.00    -0.191 OA 
HETATM    2  H   UNL     1     -10.391   9.942  70.247  1.00  0.00     0.000 HD 
HETATM    3  O   UNL     2     -12.154  13.636  68.928  1.00  0.00    -0.347 OA 
HETATM    4  C   UNL     1     -10.032  11.079  68.636  1.00  0.00    -0.199 C  
HETATM    5  O   UNL     2     -10.659  15.963  65.894  1.00  0.00    -0.323 OA 
HETATM    6  C   UNL     2     -11.309  14.144  68.011  1.00  0.00    -0.299 C  
HETATM    7  C   UNL     2     -11.670  13.868  66.606  1.00  0.00    -0.417 A  
HETATM    8  O   UNL     2     -10.313  14.796  68.299  1.00  0.00    -0.230 OA 
HETATM    9  C   UNL     2     -12.202  13.337  63.912  1.00  0.00    -0.491 A  
HETATM   10  C   UNL     2     -11.323  14.801  65.621  1.00  0.00    -0.343 A  
HETATM   11  C   UNL     2     -11.625  14.551  64.287  1.00  0.00    -0.253 A  
HETATM   12  C   UNL     2     -12.251  12.652  66.225  1.00  0.00    -0.225 A  
HETATM   13  H   UNL     2     -10.424  16.595  65.225  1.00  0.00     0.000 HD 
HETATM   14  C   UNL     2     -12.493  12.379  64.879  1.00  0.00    -0.439 A  
ENDROOT
BRANCH   4  15
HETATM   15  C   UNL     1      -9.204  11.040  67.323  1.00  0.00    -0.148 C  
BRANCH  15  16
HETATM   16  N   UNL     1      -9.456   9.890  66.416  1.00  0.00    -0.173 NA 
BRANCH  16  17
HETATM   17  C   UNL     1     -10.670   9.111  66.798  1.00  0.00    -0.038 C  
BRANCH  17  18
HETATM   18  C   UNL     1     -10.584   7.584  66.964  1.00  0.00    -0.339 C  
HETATM   19  H   UNL     1      -9.220   6.133  66.876  1.00  0.00     0.000 HD 
HETATM   20  O   UNL     1      -9.273   7.076  66.774  1.00  0.00    -0.141 OA 
ENDBRANCH  17  18
ENDBRANCH  16  17
BRANCH  16  21
HETATM   21  C   UNL     1      -9.621  10.339  65.011  1.00  0.00    -0.285 C  
BRANCH  21  22
HETATM   22  C   UNL     1      -8.673   9.735  63.953  1.00  0.00    -0.218 C  
HETATM   23  O   UNL     1      -9.049  10.175  62.650  1.00  0.00    -0.238 OA 
HETATM   24  H   UNL     1      -8.465   9.803  61.999  1.00  0.00     0.000 HD 
ENDBRANCH  21  22
ENDBRANCH  16  21
ENDBRANCH  15  16
ENDBRANCH   4  15
TORSDOF 6
ENDMDL
MODEL      191
REMARK 921   NORMALIZED FREE ENERGY PREDICTED BY IDOCK:   -3.39 KCAL/MOL
REMARK 922        TOTAL FREE ENERGY PREDICTED BY IDOCK:   -5.44 KCAL/MOL
REMARK 923 INTER-LIGAND FREE ENERGY PREDICTED BY IDOCK:   -5.35 KCAL/MOL
REMARK 924 INTRA-LIGAND FREE ENERGY PREDICTED BY IDOCK:   -0.09 KCAL/MOL
REMARK 927      BINDING AFFINITY PREDICTED BY RF-SCORE:    0.00 PKD
ROOT
HETATM    1  O   UNL     1     -10.501  18.702  68.723  1.00  0.00    -0.434 OA 
HETATM    2  H   UNL     1     -10.461  18.944  69.640  1.00  0.00     0.000 HD 
HETATM    3  O   UNL     2     -10.890  14.790  70.668  1.00  0.00    -0.081 OA 
HETATM    4  C   UNL     1     -10.776  17.324  68.502  1.00  0.00    -0.305 C  
HETATM    5  O   UNL     2     -12.175  11.881  68.070  1.00  0.00    -0.491 OA 
HETATM    6  C   UNL     2     -11.443  14.197  69.593  1.00  0.00    -0.273 C  
HETATM    7  C   UNL     2     -10.489  13.521  68.691  1.00  0.00    -0.242 A  
HETATM    8  O   UNL     2     -12.647  14.199  69.365  1.00  0.00    -0.192 OA 
HETATM    9  C   UNL     2      -8.772  12.282  66.862  1.00  0.00    -0.197 A  
HETATM   10  C   UNL     2     -10.912  12.393  67.977  1.00  0.00    -0.225 A  
HETATM   11  C   UNL     2     -10.043  11.756  67.099  1.00  0.00    -0.224 A  
HETATM   12  C   UNL     2      -9.212  14.043  68.452  1.00  0.00    -0.196 A  
HETATM   13  H   UNL     2     -12.463  11.116  67.586  1.00  0.00     0.000 HD 
HETATM   14  C   UNL     2      -8.366  13.440  67.522  1.00  0.00    -0.190 A  
ENDROOT
BRANCH   4  15
HETATM   15  C   UNL     1     -10.843  16.929  67.002  1.00  0.00    -0.055 C  
BRANCH  15  16
HETATM   16  N   UNL     1      -9.565  16.990  66.245  1.00  0.00    -0.331 NA 
BRANCH  16  17
HETATM   17  C   UNL     1      -8.373  17.103  67.136  1.00  0.00    -0.196 C  
BRANCH  17  18
HETATM   18  C   UNL     1      -7.485  18.359  67.076  1.00  0.00    -0.213 C  
HETATM   19  H   UNL     1      -5.609  18.857  66.625  1.00  0.00     0.000 HD 
HETATM   20  O   UNL     1      -6.157  18.082  66.662  1.00  0.00    -0.146 OA 
ENDBRANCH  17  18
ENDBRANCH  16  17
BRANCH  16  21
HETATM   21  C   UNL     1      -9.388  15.788  65.392  1.00  0.00     0.182 C  
BRANCH  21  22
HETATM   22  C   UNL     1     -10.662  15.114  64.838  1.00  0.00    -0.398 C  
HETATM   23  O   UNL     1     -11.301  15.973  63.895  1.00  0.00    -1.143 OA 
HETATM   24  H   UNL     1     -12.085  15.558  63.554  1.00  0.00     0.000 HD 
ENDBRANCH  21  22
ENDBRANCH  16  21
ENDBRANCH  15  16
ENDBRANCH   4  15
TORSDOF 6
ENDMDL
MODEL      192
REMARK 921   NORMALIZED FREE ENERGY PREDICTED BY IDOCK:   -3.38 KCAL/MOL
REMARK 922        TOTAL FREE ENERGY PREDICTED BY IDOCK:   -5.43 KCAL/MOL
REMARK 923 INTER-LIGAND FREE ENERGY PREDICTED BY IDOCK:   -4.97 KCAL/MOL
REMARK 924 INTRA-LIGAND FREE ENERGY PREDICTED BY IDOCK:   -0.46 KCAL/MOL
REMARK 927      BINDING AFFINITY PREDICTED BY RF-SCORE:    0.00 PKD
ROOT
HETATM    1  O   UNL     1      -9.153  12.882  67.818  1.00  0.00    -0.179 OA 
HETATM    2  H   UNL     1      -8.257  13.108  68.038  1.00  0.00     0.000 HD 
HETATM    3  O   UNL     2      -7.794   9.214  69.804  1.00  0.00    -0.075 OA 
HETATM    4  C   UNL     1      -9.571  11.622  68.332  1.00  0.00    -0.195 C  
HETATM    5  O   UNL     2     -10.912   6.733  70.793  1.00  0.00    -0.238 OA 
HETATM    6  C   UNL     2      -9.039   8.782  70.081  1.00  0.00    -0.167 C  
HETATM    7  C   UNL     2      -9.626   7.877  69.074  1.00  0.00    -0.155 A  
HETATM    8  O   UNL     2      -9.653   9.098  71.093  1.00  0.00    -0.267 OA 
HETATM    9  C   UNL     2     -10.879   6.226  67.195  1.00  0.00    -0.460 A  
HETATM   10  C   UNL     2     -10.535   6.896  69.490  1.00  0.00    -0.223 A  
HETATM   11  C   UNL     2     -11.125   6.051  68.558  1.00  0.00    -0.279 A  
HETATM   12  C   UNL     2      -9.381   8.047  67.706  1.00  0.00    -0.151 A  
HETATM   13  H   UNL     2     -11.529   6.068  71.075  1.00  0.00     0.000 HD 
HETATM   14  C   UNL     2     -10.024   7.240  66.769  1.00  0.00    -0.287 A  
ENDROOT
BRANCH   4  15
HETATM   15  C   UNL     1     -11.036  11.253  67.974  1.00  0.00    -0.247 C  
BRANCH  15  16
HETATM   16  N   UNL     1     -12.099  11.903  68.784  1.00  0.00    -0.332 NA 
BRANCH  16  17
HETATM   17  C   UNL     1     -11.765  11.952  70.238  1.00  0.00    -0.205 C  
BRANCH  17  18
HETATM   18  C   UNL     1     -12.733  11.348  71.270  1.00  0.00    -0.393 C  
HETATM   19  H   UNL     1     -14.018  11.956  72.667  1.00  0.00     0.000 HD 
HETATM   20  O   UNL     1     -13.421  12.330  72.029  1.00  0.00    -0.467 OA 
ENDBRANCH  17  18
ENDBRANCH  16  17
BRANCH  16  21
HETATM   21  C   UNL     1     -12.353  13.290  68.323  1.00  0.00     0.146 C  
BRANCH  21  22
HETATM   22  C   UNL     1     -12.251  14.420  69.371  1.00  0.00    -0.266 C  
HETATM   23  O   UNL     1     -12.532  15.679  68.762  1.00  0.00    -0.528 OA 
HETATM   24  H   UNL     1     -12.469  16.374  69.407  1.00  0.00     0.000 HD 
ENDBRANCH  21  22
ENDBRANCH  16  21
ENDBRANCH  15  16
ENDBRANCH   4  15
TORSDOF 6
ENDMDL
MODEL      193
REMARK 921   NORMALIZED FREE ENERGY PREDICTED BY IDOCK:   -3.37 KCAL/MOL
REMARK 922        TOTAL FREE ENERGY PREDICTED BY IDOCK:   -5.41 KCAL/MOL
REMARK 923 INTER-LIGAND FREE ENERGY PREDICTED BY IDOCK:   -5.04 KCAL/MOL
REMARK 924 INTRA-LIGAND FREE ENERGY PREDICTED BY IDOCK:   -0.37 KCAL/MOL
REMARK 927      BINDING AFFINITY PREDICTED BY RF-SCORE:    0.00 PKD
ROOT
HETATM    1  O   UNL     1      -8.915   8.865  65.484  1.00  0.00    -0.190 OA 
HETATM    2  H   UNL     1      -8.491   9.659  65.182  1.00  0.00     0.000 HD 
HETATM    3  O   UNL     2     -10.250  11.761  68.497  1.00  0.00    -0.203 OA 
HETATM    4  C   UNL     1      -9.789   9.064  66.589  1.00  0.00    -0.248 C  
HETATM    5  O   UNL     2     -13.369  10.334  70.753  1.00  0.00    -0.450 OA 
HETATM    6  C   UNL     2     -11.306  11.022  68.886  1.00  0.00    -0.280 C  
HETATM    7  C   UNL     2     -11.055  10.126  70.032  1.00  0.00    -0.368 A  
HETATM    8  O   UNL     2     -12.406  11.081  68.348  1.00  0.00    -0.528 OA 
HETATM    9  C   UNL     2     -10.678   8.324  72.138  1.00  0.00    -0.389 A  
HETATM   10  C   UNL     2     -12.109   9.831  70.906  1.00  0.00    -0.321 A  
HETATM   11  C   UNL     2     -11.906   8.966  71.976  1.00  0.00    -0.438 A  
HETATM   12  C   UNL     2      -9.824   9.480  70.200  1.00  0.00    -0.288 A  
HETATM   13  H   UNL     2     -14.084  10.133  71.346  1.00  0.00     0.000 HD 
HETATM   14  C   UNL     2      -9.645   8.564  71.235  1.00  0.00    -0.264 A  
ENDROOT
BRANCH   4  15
HETATM   15  C   UNL     1     -10.483   7.766  67.083  1.00  0.00    -0.343 C  
BRANCH  15  16
HETATM   16  N   UNL     1      -9.587   6.653  67.493  1.00  0.00    -0.124 NA 
BRANCH  16  17
HETATM   17  C   UNL     1      -9.417   5.626  66.424  1.00  0.00    -0.155 C  
BRANCH  17  18
HETATM   18  C   UNL     1      -8.133   5.604  65.576  1.00  0.00    -0.123 C  
HETATM   19  H   UNL     1      -6.447   4.551  65.423  1.00  0.00     0.000 HD 
HETATM   20  O   UNL     1      -7.240   4.565  65.946  1.00  0.00    -0.073 OA 
ENDBRANCH  17  18
ENDBRANCH  16  17
BRANCH  16  21
HETATM   21  C   UNL     1      -8.241   7.156  67.865  1.00  0.00    -0.119 C  
BRANCH  21  22
HETATM   22  C   UNL     1      -7.500   6.431  69.010  1.00  0.00    -0.095 C  
HETATM   23  O   UNL     1      -6.488   5.580  68.476  1.00  0.00    -0.039 OA 
HETATM   24  H   UNL     1      -6.032   5.134  69.181  1.00  0.00     0.000 HD 
ENDBRANCH  21  22
ENDBRANCH  16  21
ENDBRANCH  15  16
ENDBRANCH   4  15
TORSDOF 6
ENDMDL
MODEL      194
REMARK 921   NORMALIZED FREE ENERGY PREDICTED BY IDOCK:   -3.37 KCAL/MOL
REMARK 922        TOTAL FREE ENERGY PREDICTED BY IDOCK:   -5.41 KCAL/MOL
REMARK 923 INTER-LIGAND FREE ENERGY PREDICTED BY IDOCK:   -4.72 KCAL/MOL
REMARK 924 INTRA-LIGAND FREE ENERGY PREDICTED BY IDOCK:   -0.69 KCAL/MOL
REMARK 927      BINDING AFFINITY PREDICTED BY RF-SCORE:    0.00 PKD
ROOT
HETATM    1  O   UNL     1     -10.528  12.806  63.253  1.00  0.00    -0.476 OA 
HETATM    2  H   UNL     1     -10.154  12.495  62.438  1.00  0.00     0.000 HD 
HETATM    3  O   UNL     2      -7.597   9.881  64.702  1.00  0.00    -0.129 OA 
HETATM    4  C   UNL     1      -9.889  12.287  64.414  1.00  0.00    -0.110 C  
HETATM    5  O   UNL     2      -6.898  10.244  68.731  1.00  0.00    -0.056 OA 
HETATM    6  C   UNL     2      -7.540  10.401  65.943  1.00  0.00    -0.146 C  
HETATM    7  C   UNL     2      -8.459   9.788  66.922  1.00  0.00    -0.120 A  
HETATM    8  O   UNL     2      -6.783  11.312  66.259  1.00  0.00    -0.106 OA 
HETATM    9  C   UNL     2     -10.216   8.766  68.844  1.00  0.00    -0.221 A  
HETATM   10  C   UNL     2      -8.083   9.743  68.270  1.00  0.00    -0.104 A  
HETATM   11  C   UNL     2      -8.942   9.197  69.217  1.00  0.00    -0.145 A  
HETATM   12  C   UNL     2      -9.737   9.352  66.553  1.00  0.00    -0.299 A  
HETATM   13  H   UNL     2      -6.643  10.213  69.646  1.00  0.00     0.000 HD 
HETATM   14  C   UNL     2     -10.621   8.866  67.515  1.00  0.00    -0.307 A  
ENDROOT
BRANCH   4  15
HETATM   15  C   UNL     1     -10.501  12.795  65.748  1.00  0.00    -0.276 C  
BRANCH  15  16
HETATM   16  N   UNL     1     -10.061  14.138  66.207  1.00  0.00    -0.290 NA 
BRANCH  16  17
HETATM   17  C   UNL     1     -11.119  15.178  66.044  1.00  0.00    -0.312 C  
BRANCH  17  18
HETATM   18  C   UNL     1     -11.022  16.201  64.900  1.00  0.00    -0.349 C  
HETATM   19  H   UNL     1     -10.538  18.116  64.627  1.00  0.00     0.000 HD 
HETATM   20  O   UNL     1     -10.598  17.484  65.334  1.00  0.00    -0.648 OA 
ENDBRANCH  17  18
ENDBRANCH  16  17
BRANCH  16  21
HETATM   21  C   UNL     1      -9.659  14.112  67.636  1.00  0.00    -0.216 C  
BRANCH  21  22
HETATM   22  C   UNL     1      -8.173  14.373  67.963  1.00  0.00    -0.149 C  
HETATM   23  O   UNL     1      -7.396  14.347  66.767  1.00  0.00    -0.261 OA 
HETATM   24  H   UNL     1      -6.481  14.507  66.969  1.00  0.00     0.000 HD 
ENDBRANCH  21  22
ENDBRANCH  16  21
ENDBRANCH  15  16
ENDBRANCH   4  15
TORSDOF 6
ENDMDL
MODEL      195
REMARK 921   NORMALIZED FREE ENERGY PREDICTED BY IDOCK:   -3.36 KCAL/MOL
REMARK 922        TOTAL FREE ENERGY PREDICTED BY IDOCK:   -5.40 KCAL/MOL
REMARK 923 INTER-LIGAND FREE ENERGY PREDICTED BY IDOCK:   -4.91 KCAL/MOL
REMARK 924 INTRA-LIGAND FREE ENERGY PREDICTED BY IDOCK:   -0.49 KCAL/MOL
REMARK 927      BINDING AFFINITY PREDICTED BY RF-SCORE:    0.00 PKD
ROOT
HETATM    1  O   UNL     1      -9.286   7.915  68.177  1.00  0.00    -0.137 OA 
HETATM    2  H   UNL     1      -8.654   7.739  68.863  1.00  0.00     0.000 HD 
HETATM    3  O   UNL     2      -7.807  11.952  69.048  1.00  0.00    -0.039 OA 
HETATM    4  C   UNL     1      -9.309   9.272  67.750  1.00  0.00    -0.128 C  
HETATM    5  O   UNL     2      -8.871  14.658  66.149  1.00  0.00    -0.476 OA 
HETATM    6  C   UNL     2      -8.206  12.463  67.868  1.00  0.00    -0.163 C  
HETATM    7  C   UNL     2      -9.547  13.081  67.874  1.00  0.00    -0.215 A  
HETATM    8  O   UNL     2      -7.519  12.433  66.853  1.00  0.00    -0.078 OA 
HETATM    9  C   UNL     2     -12.106  14.202  67.740  1.00  0.00    -0.321 A  
HETATM   10  C   UNL     2      -9.804  14.152  67.009  1.00  0.00    -0.258 A  
HETATM   11  C   UNL     2     -11.067  14.732  66.974  1.00  0.00    -0.333 A  
HETATM   12  C   UNL     2     -10.592  12.554  68.642  1.00  0.00    -0.240 A  
HETATM   13  H   UNL     2      -9.046  15.384  65.562  1.00  0.00     0.000 HD 
HETATM   14  C   UNL     2     -11.873  13.098  68.556  1.00  0.00    -0.377 A  
ENDROOT
BRANCH   4  15
HETATM   15  C   UNL     1     -10.343   9.559  66.627  1.00  0.00    -0.210 C  
BRANCH  15  16
HETATM   16  N   UNL     1      -9.815   9.611  65.239  1.00  0.00    -0.281 NA 
BRANCH  16  17
HETATM   17  C   UNL     1      -9.557  11.005  64.773  1.00  0.00    -0.248 C  
BRANCH  17  18
HETATM   18  C   UNL     1     -10.517  11.672  63.773  1.00  0.00    -0.402 C  
HETATM   19  H   UNL     1     -12.243  12.669  63.775  1.00  0.00     0.000 HD 
HETATM   20  O   UNL     1     -11.650  12.257  64.393  1.00  0.00    -0.329 OA 
ENDBRANCH  17  18
ENDBRANCH  16  17
BRANCH  16  21
HETATM   21  C   UNL     1      -8.550   8.844  65.117  1.00  0.00    -0.182 C  
BRANCH  21  22
HETATM   22  C   UNL     1      -8.139   8.367  63.707  1.00  0.00    -0.142 C  
HETATM   23  O   UNL     1      -8.453   6.985  63.546  1.00  0.00    -0.346 OA 
HETATM   24  H   UNL     1      -8.199   6.692  62.679  1.00  0.00     0.000 HD 
ENDBRANCH  21  22
ENDBRANCH  16  21
ENDBRANCH  15  16
ENDBRANCH   4  15
TORSDOF 6
ENDMDL
MODEL      196
REMARK 921   NORMALIZED FREE ENERGY PREDICTED BY IDOCK:   -3.34 KCAL/MOL
REMARK 922        TOTAL FREE ENERGY PREDICTED BY IDOCK:   -5.37 KCAL/MOL
REMARK 923 INTER-LIGAND FREE ENERGY PREDICTED BY IDOCK:   -4.82 KCAL/MOL
REMARK 924 INTRA-LIGAND FREE ENERGY PREDICTED BY IDOCK:   -0.55 KCAL/MOL
REMARK 927      BINDING AFFINITY PREDICTED BY RF-SCORE:    0.00 PKD
ROOT
HETATM    1  O   UNL     1     -13.129  14.180  66.302  1.00  0.00    -0.398 OA 
HETATM    2  H   UNL     1     -13.243  14.976  65.798  1.00  0.00     0.000 HD 
HETATM    3  O   UNL     2      -9.419  16.331  67.225  1.00  0.00    -0.223 OA 
HETATM    4  C   UNL     1     -11.965  14.180  67.121  1.00  0.00    -0.426 C  
HETATM    5  O   UNL     2      -7.435  14.706  70.431  1.00  0.00    -0.273 OA 
HETATM    6  C   UNL     2      -9.173  15.631  68.349  1.00  0.00    -0.191 C  
HETATM    7  C   UNL     2      -8.305  14.450  68.174  1.00  0.00    -0.158 A  
HETATM    8  O   UNL     2      -9.621  15.939  69.447  1.00  0.00    -0.252 OA 
HETATM    9  C   UNL     2      -6.743  12.140  67.954  1.00  0.00    -0.085 A  
HETATM   10  C   UNL     2      -7.479  14.052  69.233  1.00  0.00     0.059 A  
HETATM   11  C   UNL     2      -6.674  12.927  69.104  1.00  0.00    -0.086 A  
HETATM   12  C   UNL     2      -8.369  13.658  67.021  1.00  0.00    -0.099 A  
HETATM   13  H   UNL     2      -6.875  14.436  71.150  1.00  0.00     0.000 HD 
HETATM   14  C   UNL     2      -7.609  12.494  66.922  1.00  0.00     0.073 A  
ENDROOT
BRANCH   4  15
HETATM   15  C   UNL     1     -11.778  12.877  67.945  1.00  0.00    -0.357 C  
BRANCH  15  16
HETATM   16  N   UNL     1     -11.730  11.607  67.174  1.00  0.00    -0.598 NA 
BRANCH  16  17
HETATM   17  C   UNL     1     -10.976  11.740  65.893  1.00  0.00    -0.304 C  
BRANCH  17  18
HETATM   18  C   UNL     1     -11.713  11.596  64.549  1.00  0.00    -0.111 C  
HETATM   19  H   UNL     1     -12.597  12.748  63.184  1.00  0.00     0.000 HD 
HETATM   20  O   UNL     1     -12.143  12.837  64.014  1.00  0.00    -0.393 OA 
ENDBRANCH  17  18
ENDBRANCH  16  17
BRANCH  16  21
HETATM   21  C   UNL     1     -11.101  10.521  67.967  1.00  0.00    -0.300 C  
BRANCH  21  22
HETATM   22  C   UNL     1     -11.033  10.704  69.498  1.00  0.00    -0.272 C  
HETATM   23  O   UNL     1      -9.690  10.545  69.952  1.00  0.00    -0.425 OA 
HETATM   24  H   UNL     1      -9.648  10.657  70.894  1.00  0.00     0.000 HD 
ENDBRANCH  21  22
ENDBRANCH  16  21
ENDBRANCH  15  16
ENDBRANCH   4  15
TORSDOF 6
ENDMDL
MODEL      197
REMARK 921   NORMALIZED FREE ENERGY PREDICTED BY IDOCK:   -3.33 KCAL/MOL
REMARK 922        TOTAL FREE ENERGY PREDICTED BY IDOCK:   -5.36 KCAL/MOL
REMARK 923 INTER-LIGAND FREE ENERGY PREDICTED BY IDOCK:   -4.17 KCAL/MOL
REMARK 924 INTRA-LIGAND FREE ENERGY PREDICTED BY IDOCK:   -1.19 KCAL/MOL
REMARK 927      BINDING AFFINITY PREDICTED BY RF-SCORE:    0.00 PKD
ROOT
HETATM    1  O   UNL     1     -11.357  11.401  70.036  1.00  0.00    -0.422 OA 
HETATM    2  H   UNL     1     -10.953  12.248  70.181  1.00  0.00     0.000 HD 
HETATM    3  O   UNL     2      -7.155  10.272  70.603  1.00  0.00    -0.322 OA 
HETATM    4  C   UNL     1     -10.466  10.303  70.199  1.00  0.00    -0.203 C  
HETATM    5  O   UNL     2      -6.699   6.242  71.237  1.00  0.00    -0.055 OA 
HETATM    6  C   UNL     2      -7.436   8.993  70.914  1.00  0.00    -0.116 C  
HETATM    7  C   UNL     2      -7.411   8.052  69.776  1.00  0.00    -0.089 A  
HETATM    8  O   UNL     2      -7.688   8.614  72.052  1.00  0.00    -0.230 OA 
HETATM    9  C   UNL     2      -7.481   6.191  67.689  1.00  0.00    -0.088 A  
HETATM   10  C   UNL     2      -7.041   6.721  70.004  1.00  0.00    -0.071 A  
HETATM   11  C   UNL     2      -7.038   5.808  68.955  1.00  0.00    -0.069 A  
HETATM   12  C   UNL     2      -7.853   8.431  68.503  1.00  0.00    -0.120 A  
HETATM   13  H   UNL     2      -6.448   5.338  71.391  1.00  0.00     0.000 HD 
HETATM   14  C   UNL     2      -7.910   7.498  67.469  1.00  0.00    -0.116 A  
ENDROOT
BRANCH   4  15
HETATM   15  C   UNL     1     -11.127   8.918  69.962  1.00  0.00    -0.170 C  
BRANCH  15  16
HETATM   16  N   UNL     1     -11.794   8.294  71.135  1.00  0.00    -0.281 NA 
BRANCH  16  17
HETATM   17  C   UNL     1     -12.020   6.830  70.956  1.00  0.00    -0.379 C  
BRANCH  17  18
HETATM   18  C   UNL     1     -11.284   6.068  69.840  1.00  0.00    -0.368 C  
HETATM   19  H   UNL     1      -9.750   4.813  69.631  1.00  0.00     0.000 HD 
HETATM   20  O   UNL     1     -10.204   5.283  70.320  1.00  0.00    -0.234 OA 
ENDBRANCH  17  18
ENDBRANCH  16  17
BRANCH  16  21
HETATM   21  C   UNL     1     -10.997   8.488  72.372  1.00  0.00    -0.320 C  
BRANCH  21  22
HETATM   22  C   UNL     1     -10.713   7.243  73.240  1.00  0.00    -0.383 C  
HETATM   23  O   UNL     1      -9.468   6.657  72.863  1.00  0.00    -0.139 OA 
HETATM   24  H   UNL     1      -9.294   5.891  73.397  1.00  0.00     0.000 HD 
ENDBRANCH  21  22
ENDBRANCH  16  21
ENDBRANCH  15  16
ENDBRANCH   4  15
TORSDOF 6
ENDMDL
MODEL      198
REMARK 921   NORMALIZED FREE ENERGY PREDICTED BY IDOCK:   -3.33 KCAL/MOL
REMARK 922        TOTAL FREE ENERGY PREDICTED BY IDOCK:   -5.36 KCAL/MOL
REMARK 923 INTER-LIGAND FREE ENERGY PREDICTED BY IDOCK:   -4.63 KCAL/MOL
REMARK 924 INTRA-LIGAND FREE ENERGY PREDICTED BY IDOCK:   -0.73 KCAL/MOL
REMARK 927      BINDING AFFINITY PREDICTED BY RF-SCORE:    0.00 PKD
ROOT
HETATM    1  O   UNL     1     -11.458   6.588  67.528  1.00  0.00    -0.721 OA 
HETATM    2  H   UNL     1     -11.438   5.836  66.948  1.00  0.00     0.000 HD 
HETATM    3  O   UNL     2      -8.970   3.792  69.817  1.00  0.00    -0.082 OA 
HETATM    4  C   UNL     1     -10.626   6.453  68.674  1.00  0.00    -0.253 C  
HETATM    5  O   UNL     2      -6.986   5.641  72.900  1.00  0.00    -0.080 OA 
HETATM    6  C   UNL     2      -8.412   4.753  70.577  1.00  0.00    -0.095 C  
HETATM    7  C   UNL     2      -9.094   5.012  71.861  1.00  0.00    -0.157 A  
HETATM    8  O   UNL     2      -7.408   5.375  70.250  1.00  0.00    -0.064 OA 
HETATM    9  C   UNL     2     -10.348   5.651  74.278  1.00  0.00    -0.289 A  
HETATM   10  C   UNL     2      -8.337   5.443  72.957  1.00  0.00    -0.112 A  
HETATM   11  C   UNL     2      -8.959   5.721  74.168  1.00  0.00    -0.122 A  
HETATM   12  C   UNL     2     -10.488   4.941  71.976  1.00  0.00    -0.245 A  
HETATM   13  H   UNL     2      -6.473   5.934  73.643  1.00  0.00     0.000 HD 
HETATM   14  C   UNL     2     -11.114   5.284  73.174  1.00  0.00    -0.384 A  
ENDROOT
BRANCH   4  15
HETATM   15  C   UNL     1     -10.658   7.682  69.622  1.00  0.00    -0.243 C  
BRANCH  15  16
HETATM   16  N   UNL     1      -9.642   8.738  69.371  1.00  0.00    -0.161 NA 
BRANCH  16  17
HETATM   17  C   UNL     1     -10.248  10.091  69.199  1.00  0.00    -0.210 C  
BRANCH  17  18
HETATM   18  C   UNL     1     -11.632  10.236  68.541  1.00  0.00    -0.003 C  
HETATM   19  H   UNL     1     -12.658  11.566  67.469  1.00  0.00     0.000 HD 
HETATM   20  O   UNL     1     -11.804  11.477  67.876  1.00  0.00    -0.565 OA 
ENDBRANCH  17  18
ENDBRANCH  16  17
BRANCH  16  21
HETATM   21  C   UNL     1      -8.659   8.812  70.480  1.00  0.00    -0.169 C  
BRANCH  21  22
HETATM   22  C   UNL     1      -9.202   8.710  71.922  1.00  0.00    -0.275 C  
HETATM   23  O   UNL     1      -8.126   8.768  72.856  1.00  0.00    -0.404 OA 
HETATM   24  H   UNL     1      -8.460   8.706  73.743  1.00  0.00     0.000 HD 
ENDBRANCH  21  22
ENDBRANCH  16  21
ENDBRANCH  15  16
ENDBRANCH   4  15
TORSDOF 6
ENDMDL
MODEL      199
REMARK 921   NORMALIZED FREE ENERGY PREDICTED BY IDOCK:   -3.29 KCAL/MOL
REMARK 922        TOTAL FREE ENERGY PREDICTED BY IDOCK:   -5.30 KCAL/MOL
REMARK 923 INTER-LIGAND FREE ENERGY PREDICTED BY IDOCK:   -4.84 KCAL/MOL
REMARK 924 INTRA-LIGAND FREE ENERGY PREDICTED BY IDOCK:   -0.46 KCAL/MOL
REMARK 927      BINDING AFFINITY PREDICTED BY RF-SCORE:    0.00 PKD
ROOT
HETATM    1  O   UNL     1     -11.200  13.093  63.530  1.00  0.00    -0.588 OA 
HETATM    2  H   UNL     1     -11.259  13.697  62.799  1.00  0.00     0.000 HD 
HETATM    3  O   UNL     2     -10.119  16.887  65.448  1.00  0.00    -0.586 OA 
HETATM    4  C   UNL     1     -10.941  13.725  64.778  1.00  0.00    -0.392 C  
HETATM    5  O   UNL     2     -10.213  16.640  69.546  1.00  0.00    -0.255 OA 
HETATM    6  C   UNL     2     -10.404  16.456  66.692  1.00  0.00    -0.292 C  
HETATM    7  C   UNL     2      -9.261  15.891  67.436  1.00  0.00    -0.207 A  
HETATM    8  O   UNL     2     -11.521  16.526  67.191  1.00  0.00     0.227 OA 
HETATM    9  C   UNL     2      -7.195  14.719  68.913  1.00  0.00    -0.126 A  
HETATM   10  C   UNL     2      -9.230  16.017  68.831  1.00  0.00    -0.233 A  
HETATM   11  C   UNL     2      -8.180  15.467  69.558  1.00  0.00    -0.209 A  
HETATM   12  C   UNL     2      -8.269  15.140  66.794  1.00  0.00    -0.172 A  
HETATM   13  H   UNL     2     -10.192  16.726  70.492  1.00  0.00     0.000 HD 
HETATM   14  C   UNL     2      -7.253  14.536  67.534  1.00  0.00    -0.210 A  
ENDROOT
BRANCH   4  15
HETATM   15  C   UNL     1     -10.846  12.738  65.973  1.00  0.00    -0.276 C  
BRANCH  15  16
HETATM   16  N   UNL     1      -9.486  12.253  66.323  1.00  0.00    -0.237 NA 
BRANCH  16  17
HETATM   17  C   UNL     1      -9.365  11.864  67.759  1.00  0.00    -0.184 C  
BRANCH  17  18
HETATM   18  C   UNL     1      -8.322  10.816  68.187  1.00  0.00    -0.120 C  
HETATM   19  H   UNL     1      -8.260   8.961  68.911  1.00  0.00     0.000 HD 
HETATM   20  O   UNL     1      -8.904   9.607  68.647  1.00  0.00    -0.125 OA 
ENDBRANCH  17  18
ENDBRANCH  16  17
BRANCH  16  21
HETATM   21  C   UNL     1      -9.104  11.080  65.496  1.00  0.00    -0.207 C  
BRANCH  21  22
HETATM   22  C   UNL     1     -10.158   9.967  65.309  1.00  0.00    -0.229 C  
HETATM   23  O   UNL     1      -9.630   8.715  65.744  1.00  0.00    -0.419 OA 
HETATM   24  H   UNL     1     -10.279   8.031  65.628  1.00  0.00     0.000 HD 
ENDBRANCH  21  22
ENDBRANCH  16  21
ENDBRANCH  15  16
ENDBRANCH   4  15
TORSDOF 6
ENDMDL
MODEL      200
REMARK 921   NORMALIZED FREE ENERGY PREDICTED BY IDOCK:   -3.29 KCAL/MOL
REMARK 922        TOTAL FREE ENERGY PREDICTED BY IDOCK:   -5.30 KCAL/MOL
REMARK 923 INTER-LIGAND FREE ENERGY PREDICTED BY IDOCK:   -4.67 KCAL/MOL
REMARK 924 INTRA-LIGAND FREE ENERGY PREDICTED BY IDOCK:   -0.63 KCAL/MOL
REMARK 927      BINDING AFFINITY PREDICTED BY RF-SCORE:    0.00 PKD
ROOT
HETATM    1  O   UNL     1      -9.872   9.754  62.373  1.00  0.00    -0.574 OA 
HETATM    2  H   UNL     1     -10.140   9.934  61.480  1.00  0.00     0.000 HD 
HETATM    3  O   UNL     2     -12.306  13.363  62.912  1.00  0.00    -0.510 OA 
HETATM    4  C   UNL     1     -10.469  10.612  63.338  1.00  0.00     0.138 C  
HETATM    5  O   UNL     2     -13.273  14.014  66.849  1.00  0.00     0.211 OA 
HETATM    6  C   UNL     2     -12.522  13.145  64.223  1.00  0.00    -0.288 C  
HETATM    7  C   UNL     2     -11.562  13.800  65.134  1.00  0.00    -0.341 A  
HETATM    8  O   UNL     2     -13.445  12.462  64.651  1.00  0.00    -0.671 OA 
HETATM    9  C   UNL     2      -9.756  14.918  66.954  1.00  0.00    -0.248 A  
HETATM   10  C   UNL     2     -11.996  14.201  66.404  1.00  0.00    -0.436 A  
HETATM   11  C   UNL     2     -11.104  14.793  67.290  1.00  0.00    -0.334 A  
HETATM   12  C   UNL     2     -10.208  13.930  64.800  1.00  0.00    -0.353 A  
HETATM   13  H   UNL     2     -13.568  14.286  67.710  1.00  0.00     0.000 HD 
HETATM   14  C   UNL     2      -9.305  14.465  65.717  1.00  0.00    -0.004 A  
ENDROOT
BRANCH   4  15
HETATM   15  C   UNL     1     -10.030  10.317  64.798  1.00  0.00    -0.321 C  
BRANCH  15  16
HETATM   16  N   UNL     1      -8.651  10.726  65.170  1.00  0.00    -0.162 NA 
BRANCH  16  17
HETATM   17  C   UNL     1      -8.560  11.240  66.568  1.00  0.00    -0.170 C  
BRANCH  17  18
HETATM   18  C   UNL     1      -9.508  10.695  67.651  1.00  0.00    -0.153 C  
HETATM   19  H   UNL     1      -9.472   9.419  69.181  1.00  0.00     0.000 HD 
HETATM   20  O   UNL     1      -8.886   9.755  68.513  1.00  0.00    -0.118 OA 
ENDBRANCH  17  18
ENDBRANCH  16  17
BRANCH  16  21
HETATM   21  C   UNL     1      -7.700   9.594  65.034  1.00  0.00    -0.119 C  
BRANCH  21  22
HETATM   22  C   UNL     1      -6.414   9.838  64.214  1.00  0.00    -0.118 C  
HETATM   23  O   UNL     1      -6.634   9.499  62.846  1.00  0.00    -0.098 OA 
HETATM   24  H   UNL     1      -5.843   9.649  62.342  1.00  0.00     0.000 HD 
ENDBRANCH  21  22
ENDBRANCH  16  21
ENDBRANCH  15  16
ENDBRANCH   4  15
TORSDOF 6
ENDMDL
MODEL      201
REMARK 921   NORMALIZED FREE ENERGY PREDICTED BY IDOCK:   -3.27 KCAL/MOL
REMARK 922        TOTAL FREE ENERGY PREDICTED BY IDOCK:   -5.28 KCAL/MOL
REMARK 923 INTER-LIGAND FREE ENERGY PREDICTED BY IDOCK:   -5.75 KCAL/MOL
REMARK 924 INTRA-LIGAND FREE ENERGY PREDICTED BY IDOCK:    0.47 KCAL/MOL
REMARK 927      BINDING AFFINITY PREDICTED BY RF-SCORE:    0.00 PKD
ROOT
HETATM    1  O   UNL     1     -12.559  14.466  67.189  1.00  0.00    -0.540 OA 
HETATM    2  H   UNL     1     -13.097  14.751  66.461  1.00  0.00     0.000 HD 
HETATM    3  O   UNL     2     -10.654  18.275  66.140  1.00  0.00    -0.400 OA 
HETATM    4  C   UNL     1     -11.585  15.421  67.593  1.00  0.00    -0.194 C  
HETATM    5  O   UNL     2      -8.086  19.588  69.062  1.00  0.00    -0.348 OA 
HETATM    6  C   UNL     2     -10.056  18.423  67.337  1.00  0.00    -0.353 C  
HETATM    7  C   UNL     2      -8.680  17.894  67.420  1.00  0.00    -0.237 A  
HETATM    8  O   UNL     2     -10.594  18.960  68.298  1.00  0.00    -0.314 OA 
HETATM    9  C   UNL     2      -6.102  16.852  67.725  1.00  0.00    -0.154 A  
HETATM   10  C   UNL     2      -7.767  18.512  68.283  1.00  0.00    -0.293 A  
HETATM   11  C   UNL     2      -6.474  18.015  68.401  1.00  0.00    -0.203 A  
HETATM   12  C   UNL     2      -8.302  16.729  66.742  1.00  0.00    -0.272 A  
HETATM   13  H   UNL     2      -7.466  20.007  69.647  1.00  0.00     0.000 HD 
HETATM   14  C   UNL     2      -7.025  16.197  66.913  1.00  0.00    -0.187 A  
ENDROOT
BRANCH   4  15
HETATM   15  C   UNL     1     -10.704  14.956  68.784  1.00  0.00    -0.252 C  
BRANCH  15  16
HETATM   16  N   UNL     1     -11.003  13.610  69.340  1.00  0.00    -0.134 NA 
BRANCH  16  17
HETATM   17  C   UNL     1     -12.352  13.534  69.972  1.00  0.00    -0.249 C  
BRANCH  17  18
HETATM   18  C   UNL     1     -12.710  14.474  71.136  1.00  0.00    -0.338 C  
HETATM   19  H   UNL     1     -13.747  16.145  71.460  1.00  0.00     0.000 HD 
HETATM   20  O   UNL     1     -13.526  15.565  70.741  1.00  0.00    -0.475 OA 
ENDBRANCH  17  18
ENDBRANCH  16  17
BRANCH  16  21
HETATM   21  C   UNL     1     -10.928  12.565  68.288  1.00  0.00    -0.240 C  
BRANCH  21  22
HETATM   22  C   UNL     1      -9.782  11.536  68.386  1.00  0.00    -0.202 C  
HETATM   23  O   UNL     1      -8.589  12.173  68.839  1.00  0.00    -0.363 OA 
HETATM   24  H   UNL     1      -7.883  11.539  68.899  1.00  0.00     0.000 HD 
ENDBRANCH  21  22
ENDBRANCH  16  21
ENDBRANCH  15  16
ENDBRANCH   4  15
TORSDOF 6
ENDMDL
MODEL      202
REMARK 921   NORMALIZED FREE ENERGY PREDICTED BY IDOCK:   -3.26 KCAL/MOL
REMARK 922        TOTAL FREE ENERGY PREDICTED BY IDOCK:   -5.26 KCAL/MOL
REMARK 923 INTER-LIGAND FREE ENERGY PREDICTED BY IDOCK:   -4.67 KCAL/MOL
REMARK 924 INTRA-LIGAND FREE ENERGY PREDICTED BY IDOCK:   -0.59 KCAL/MOL
REMARK 927      BINDING AFFINITY PREDICTED BY RF-SCORE:    0.00 PKD
ROOT
HETATM    1  O   UNL     1     -11.221  11.103  68.557  1.00  0.00    -0.214 OA 
HETATM    2  H   UNL     1     -11.770  11.834  68.815  1.00  0.00     0.000 HD 
HETATM    3  O   UNL     2     -12.959   9.603  72.294  1.00  0.00    -0.395 OA 
HETATM    4  C   UNL     1     -11.354   9.959  69.392  1.00  0.00    -0.095 C  
HETATM    5  O   UNL     2     -12.404   5.561  72.756  1.00  0.00    -0.486 OA 
HETATM    6  C   UNL     2     -12.715   8.310  72.007  1.00  0.00    -0.342 C  
HETATM    7  C   UNL     2     -11.438   7.782  72.528  1.00  0.00    -0.428 A  
HETATM    8  O   UNL     2     -13.487   7.603  71.369  1.00  0.00    -0.341 OA 
HETATM    9  C   UNL     2      -9.009   6.693  73.387  1.00  0.00    -0.140 A  
HETATM   10  C   UNL     2     -11.355   6.428  72.876  1.00  0.00    -0.134 A  
HETATM   11  C   UNL     2     -10.156   5.900  73.341  1.00  0.00    -0.207 A  
HETATM   12  C   UNL     2     -10.285   8.574  72.578  1.00  0.00    -0.323 A  
HETATM   13  H   UNL     2     -12.347   4.642  72.992  1.00  0.00     0.000 HD 
HETATM   14  C   UNL     2      -9.070   8.025  72.983  1.00  0.00    -0.331 A  
ENDROOT
BRANCH   4  15
HETATM   15  C   UNL     1     -10.456   8.765  68.970  1.00  0.00    -0.203 C  
BRANCH  15  16
HETATM   16  N   UNL     1      -9.013   8.870  69.310  1.00  0.00    -0.142 NA 
BRANCH  16  17
HETATM   17  C   UNL     1      -8.345   7.539  69.398  1.00  0.00    -0.132 C  
BRANCH  17  18
HETATM   18  C   UNL     1      -7.742   6.895  68.137  1.00  0.00    -0.113 C  
HETATM   19  H   UNL     1      -7.692   5.123  67.227  1.00  0.00     0.000 HD 
HETATM   20  O   UNL     1      -8.064   5.520  68.005  1.00  0.00    -0.096 OA 
ENDBRANCH  17  18
ENDBRANCH  16  17
BRANCH  16  21
HETATM   21  C   UNL     1      -8.283   9.685  68.307  1.00  0.00    -0.106 C  
BRANCH  21  22
HETATM   22  C   UNL     1      -7.322  10.772  68.835  1.00  0.00    -0.104 C  
HETATM   23  O   UNL     1      -8.031  11.991  69.048  1.00  0.00    -0.337 OA 
HETATM   24  H   UNL     1      -7.439  12.660  69.373  1.00  0.00     0.000 HD 
ENDBRANCH  21  22
ENDBRANCH  16  21
ENDBRANCH  15  16
ENDBRANCH   4  15
TORSDOF 6
ENDMDL
MODEL      203
REMARK 921   NORMALIZED FREE ENERGY PREDICTED BY IDOCK:   -3.23 KCAL/MOL
REMARK 922        TOTAL FREE ENERGY PREDICTED BY IDOCK:   -5.22 KCAL/MOL
REMARK 923 INTER-LIGAND FREE ENERGY PREDICTED BY IDOCK:   -4.63 KCAL/MOL
REMARK 924 INTRA-LIGAND FREE ENERGY PREDICTED BY IDOCK:   -0.59 KCAL/MOL
REMARK 927      BINDING AFFINITY PREDICTED BY RF-SCORE:    0.00 PKD
ROOT
HETATM    1  O   UNL     1      -8.080  11.776  68.808  1.00  0.00    -0.262 OA 
HETATM    2  H   UNL     1      -7.467  12.151  69.428  1.00  0.00     0.000 HD 
HETATM    3  O   UNL     2      -8.347   8.922  72.129  1.00  0.00    -0.381 OA 
HETATM    4  C   UNL     1      -8.792  10.651  69.312  1.00  0.00    -0.077 C  
HETATM    5  O   UNL     2     -11.599   6.439  71.790  1.00  0.00    -0.290 OA 
HETATM    6  C   UNL     2      -9.544   8.437  71.749  1.00  0.00    -0.234 C  
HETATM    7  C   UNL     2      -9.489   7.242  70.884  1.00  0.00    -0.159 A  
HETATM    8  O   UNL     2     -10.612   8.930  72.092  1.00  0.00    -0.340 OA 
HETATM    9  C   UNL     2      -9.513   5.031  69.170  1.00  0.00    -0.196 A  
HETATM   10  C   UNL     2     -10.527   6.304  70.955  1.00  0.00    -0.223 A  
HETATM   11  C   UNL     2     -10.514   5.186  70.129  1.00  0.00    -0.305 A  
HETATM   12  C   UNL     2      -8.486   7.081  69.921  1.00  0.00    -0.140 A  
HETATM   13  H   UNL     2     -12.303   5.803  71.838  1.00  0.00     0.000 HD 
HETATM   14  C   UNL     2      -8.511   5.992  69.051  1.00  0.00    -0.117 A  
ENDROOT
BRANCH   4  15
HETATM   15  C   UNL     1      -9.795  10.037  68.298  1.00  0.00    -0.146 C  
BRANCH  15  16
HETATM   16  N   UNL     1      -9.763  10.589  66.919  1.00  0.00    -0.175 NA 
BRANCH  16  17
HETATM   17  C   UNL     1      -9.763   9.525  65.872  1.00  0.00    -0.282 C  
BRANCH  17  18
HETATM   18  C   UNL     1      -9.667   8.045  66.281  1.00  0.00    -0.126 C  
HETATM   19  H   UNL     1      -8.407   6.511  66.104  1.00  0.00     0.000 HD 
HETATM   20  O   UNL     1      -8.466   7.425  65.851  1.00  0.00    -0.139 OA 
ENDBRANCH  17  18
ENDBRANCH  16  17
BRANCH  16  21
HETATM   21  C   UNL     1     -10.924  11.480  66.669  1.00  0.00    -0.296 C  
BRANCH  21  22
HETATM   22  C   UNL     1     -10.662  13.001  66.636  1.00  0.00    -0.274 C  
HETATM   23  O   UNL     1      -9.759  13.319  65.579  1.00  0.00    -0.467 OA 
HETATM   24  H   UNL     1      -9.598  14.256  65.559  1.00  0.00     0.000 HD 
ENDBRANCH  21  22
ENDBRANCH  16  21
ENDBRANCH  15  16
ENDBRANCH   4  15
TORSDOF 6
ENDMDL
MODEL      204
REMARK 921   NORMALIZED FREE ENERGY PREDICTED BY IDOCK:   -3.23 KCAL/MOL
REMARK 922        TOTAL FREE ENERGY PREDICTED BY IDOCK:   -5.22 KCAL/MOL
REMARK 923 INTER-LIGAND FREE ENERGY PREDICTED BY IDOCK:   -4.19 KCAL/MOL
REMARK 924 INTRA-LIGAND FREE ENERGY PREDICTED BY IDOCK:   -1.02 KCAL/MOL
REMARK 927      BINDING AFFINITY PREDICTED BY RF-SCORE:    0.00 PKD
ROOT
HETATM    1  O   UNL     1      -5.987  10.025  69.639  1.00  0.00    -0.040 OA 
HETATM    2  H   UNL     1      -6.097  10.952  69.463  1.00  0.00     0.000 HD 
HETATM    3  O   UNL     2     -10.346  10.450  69.902  1.00  0.00    -0.244 OA 
HETATM    4  C   UNL     1      -7.214   9.313  69.753  1.00  0.00    -0.066 C  
HETATM    5  O   UNL     2     -12.269   6.823  69.831  1.00  0.00    -0.634 OA 
HETATM    6  C   UNL     2     -10.587   9.140  69.703  1.00  0.00    -0.228 C  
HETATM    7  C   UNL     2     -10.711   8.331  70.932  1.00  0.00    -0.250 A  
HETATM    8  O   UNL     2     -10.706   8.637  68.592  1.00  0.00    -0.164 OA 
HETATM    9  C   UNL     2     -10.878   6.681  73.184  1.00  0.00    -0.298 A  
HETATM   10  C   UNL     2     -11.551   7.211  70.926  1.00  0.00    -0.311 A  
HETATM   11  C   UNL     2     -11.663   6.417  72.061  1.00  0.00    -0.376 A  
HETATM   12  C   UNL     2      -9.927   8.594  72.062  1.00  0.00    -0.399 A  
HETATM   13  H   UNL     2     -12.839   6.063  69.827  1.00  0.00     0.000 HD 
HETATM   14  C   UNL     2      -9.993   7.757  73.175  1.00  0.00    -0.374 A  
ENDROOT
BRANCH   4  15
HETATM   15  C   UNL     1      -7.035   7.797  70.041  1.00  0.00    -0.050 C  
BRANCH  15  16
HETATM   16  N   UNL     1      -7.375   6.869  68.931  1.00  0.00    -0.091 NA 
BRANCH  16  17
HETATM   17  C   UNL     1      -8.498   5.948  69.275  1.00  0.00    -0.113 C  
BRANCH  17  18
HETATM   18  C   UNL     1      -9.168   5.107  68.174  1.00  0.00    -0.116 C  
HETATM   19  H   UNL     1     -10.918   4.981  67.229  1.00  0.00     0.000 HD 
HETATM   20  O   UNL     1     -10.505   5.500  67.909  1.00  0.00    -0.207 OA 
ENDBRANCH  17  18
ENDBRANCH  16  17
BRANCH  16  21
HETATM   21  C   UNL     1      -7.752   7.614  67.703  1.00  0.00    -0.122 C  
BRANCH  21  22
HETATM   22  C   UNL     1      -6.827   7.477  66.475  1.00  0.00    -0.062 C  
HETATM   23  O   UNL     1      -5.920   8.577  66.419  1.00  0.00    -0.047 OA 
HETATM   24  H   UNL     1      -5.351   8.493  65.663  1.00  0.00     0.000 HD 
ENDBRANCH  21  22
ENDBRANCH  16  21
ENDBRANCH  15  16
ENDBRANCH   4  15
TORSDOF 6
ENDMDL
MODEL      205
REMARK 921   NORMALIZED FREE ENERGY PREDICTED BY IDOCK:   -3.22 KCAL/MOL
REMARK 922        TOTAL FREE ENERGY PREDICTED BY IDOCK:   -5.21 KCAL/MOL
REMARK 923 INTER-LIGAND FREE ENERGY PREDICTED BY IDOCK:   -4.97 KCAL/MOL
REMARK 924 INTRA-LIGAND FREE ENERGY PREDICTED BY IDOCK:   -0.24 KCAL/MOL
REMARK 927      BINDING AFFINITY PREDICTED BY RF-SCORE:    0.00 PKD
ROOT
HETATM    1  O   UNL     1      -8.955   9.634  70.887  1.00  0.00    -0.319 OA 
HETATM    2  H   UNL     1      -8.156   9.934  71.303  1.00  0.00     0.000 HD 
HETATM    3  O   UNL     2      -7.614  12.718  68.070  1.00  0.00    -0.107 OA 
HETATM    4  C   UNL     1      -9.191  10.214  69.610  1.00  0.00    -0.183 C  
HETATM    5  O   UNL     2      -9.592  12.510  64.478  1.00  0.00    -0.497 OA 
HETATM    6  C   UNL     2      -8.341  12.239  67.043  1.00  0.00    -0.168 C  
HETATM    7  C   UNL     2      -9.678  12.846  66.886  1.00  0.00    -0.240 A  
HETATM    8  O   UNL     2      -7.939  11.370  66.278  1.00  0.00    -0.134 OA 
HETATM    9  C   UNL     2     -12.264  13.856  66.540  1.00  0.00    -0.482 A  
HETATM   10  C   UNL     2     -10.231  12.948  65.603  1.00  0.00    -0.285 A  
HETATM   11  C   UNL     2     -11.500  13.488  65.432  1.00  0.00    -0.318 A  
HETATM   12  C   UNL     2     -10.448  13.218  67.995  1.00  0.00    -0.248 A  
HETATM   13  H   UNL     2      -9.967  12.579  63.608  1.00  0.00     0.000 HD 
HETATM   14  C   UNL     2     -11.745  13.699  67.823  1.00  0.00    -0.397 A  
ENDROOT
BRANCH   4  15
HETATM   15  C   UNL     1     -10.498   9.724  68.929  1.00  0.00    -0.214 C  
BRANCH  15  16
HETATM   16  N   UNL     1     -10.416   8.436  68.192  1.00  0.00    -0.201 NA 
BRANCH  16  17
HETATM   17  C   UNL     1     -10.036   8.616  66.760  1.00  0.00    -0.273 C  
BRANCH  17  18
HETATM   18  C   UNL     1      -8.690   8.072  66.248  1.00  0.00    -0.153 C  
HETATM   19  H   UNL     1      -7.633   8.014  64.559  1.00  0.00     0.000 HD 
HETATM   20  O   UNL     1      -8.464   8.350  64.876  1.00  0.00    -0.167 OA 
ENDBRANCH  17  18
ENDBRANCH  16  17
BRANCH  16  21
HETATM   21  C   UNL     1      -9.430   7.520  68.818  1.00  0.00    -0.148 C  
BRANCH  21  22
HETATM   22  C   UNL     1      -9.965   6.473  69.819  1.00  0.00    -0.166 C  
HETATM   23  O   UNL     1     -10.946   5.651  69.190  1.00  0.00    -0.274 OA 
HETATM   24  H   UNL     1     -11.275   5.006  69.806  1.00  0.00     0.000 HD 
ENDBRANCH  21  22
ENDBRANCH  16  21
ENDBRANCH  15  16
ENDBRANCH   4  15
TORSDOF 6
ENDMDL
MODEL      206
REMARK 921   NORMALIZED FREE ENERGY PREDICTED BY IDOCK:   -3.19 KCAL/MOL
REMARK 922        TOTAL FREE ENERGY PREDICTED BY IDOCK:   -5.16 KCAL/MOL
REMARK 923 INTER-LIGAND FREE ENERGY PREDICTED BY IDOCK:   -4.69 KCAL/MOL
REMARK 924 INTRA-LIGAND FREE ENERGY PREDICTED BY IDOCK:   -0.47 KCAL/MOL
REMARK 927      BINDING AFFINITY PREDICTED BY RF-SCORE:    0.00 PKD
ROOT
HETATM    1  O   UNL     1     -12.090  11.470  68.521  1.00  0.00    -0.522 OA 
HETATM    2  H   UNL     1     -12.667  11.084  69.168  1.00  0.00     0.000 HD 
HETATM    3  O   UNL     2     -10.398   7.440  68.901  1.00  0.00    -0.198 OA 
HETATM    4  C   UNL     1     -11.146  10.556  67.975  1.00  0.00    -0.300 C  
HETATM    5  O   UNL     2      -7.785   6.557  65.860  1.00  0.00    -0.085 OA 
HETATM    6  C   UNL     2      -9.764   7.484  67.714  1.00  0.00    -0.146 C  
HETATM    7  C   UNL     2      -8.363   7.949  67.769  1.00  0.00    -0.129 A  
HETATM    8  O   UNL     2     -10.289   7.161  66.655  1.00  0.00    -0.229 OA 
HETATM    9  C   UNL     2      -5.732   8.896  67.734  1.00  0.00    -0.039 A  
HETATM   10  C   UNL     2      -7.447   7.454  66.832  1.00  0.00    -0.097 A  
HETATM   11  C   UNL     2      -6.130   7.897  66.844  1.00  0.00    -0.053 A  
HETATM   12  C   UNL     2      -7.958   8.949  68.661  1.00  0.00    -0.103 A  
HETATM   13  H   UNL     2      -7.163   6.221  65.224  1.00  0.00     0.000 HD 
HETATM   14  C   UNL     2      -6.653   9.437  68.627  1.00  0.00    -0.053 A  
ENDROOT
BRANCH   4  15
HETATM   15  C   UNL     1     -10.202  11.187  66.916  1.00  0.00    -0.222 C  
BRANCH  15  16
HETATM   16  N   UNL     1     -10.668  11.145  65.505  1.00  0.00    -0.224 NA 
BRANCH  16  17
HETATM   17  C   UNL     1     -10.592  12.475  64.834  1.00  0.00    -0.301 C  
BRANCH  17  18
HETATM   18  C   UNL     1     -11.831  13.387  64.790  1.00  0.00    -0.380 C  
HETATM   19  H   UNL     1     -13.397  13.745  63.610  1.00  0.00     0.000 HD 
HETATM   20  O   UNL     1     -12.632  13.182  63.637  1.00  0.00    -0.705 OA 
ENDBRANCH  17  18
ENDBRANCH  16  17
BRANCH  16  21
HETATM   21  C   UNL     1      -9.874  10.179  64.705  1.00  0.00    -0.291 C  
BRANCH  21  22
HETATM   22  C   UNL     1      -9.646  10.507  63.214  1.00  0.00    -0.331 C  
HETATM   23  O   UNL     1      -8.277  10.841  62.989  1.00  0.00    -0.289 OA 
HETATM   24  H   UNL     1      -8.137  11.043  62.071  1.00  0.00     0.000 HD 
ENDBRANCH  21  22
ENDBRANCH  16  21
ENDBRANCH  15  16
ENDBRANCH   4  15
TORSDOF 6
ENDMDL
MODEL      207
REMARK 921   NORMALIZED FREE ENERGY PREDICTED BY IDOCK:   -3.18 KCAL/MOL
REMARK 922        TOTAL FREE ENERGY PREDICTED BY IDOCK:   -5.15 KCAL/MOL
REMARK 923 INTER-LIGAND FREE ENERGY PREDICTED BY IDOCK:   -4.10 KCAL/MOL
REMARK 924 INTRA-LIGAND FREE ENERGY PREDICTED BY IDOCK:   -1.05 KCAL/MOL
REMARK 927      BINDING AFFINITY PREDICTED BY RF-SCORE:    0.00 PKD
ROOT
HETATM    1  O   UNL     1      -8.148   8.582  67.809  1.00  0.00    -0.113 OA 
HETATM    2  H   UNL     1      -8.609   9.325  67.439  1.00  0.00     0.000 HD 
HETATM    3  O   UNL     2     -11.506   8.997  70.601  1.00  0.00    -0.263 OA 
HETATM    4  C   UNL     1      -8.820   7.976  68.907  1.00  0.00    -0.141 C  
HETATM    5  O   UNL     2     -11.945   5.699  73.007  1.00  0.00    -0.538 OA 
HETATM    6  C   UNL     2     -11.410   7.735  71.063  1.00  0.00    -0.271 C  
HETATM    7  C   UNL     2     -10.579   7.573  72.272  1.00  0.00    -0.280 A  
HETATM    8  O   UNL     2     -11.969   6.780  70.537  1.00  0.00    -0.386 OA 
HETATM    9  C   UNL     2      -8.960   7.126  74.509  1.00  0.00    -0.201 A  
HETATM   10  C   UNL     2     -10.897   6.557  73.183  1.00  0.00    -0.257 A  
HETATM   11  C   UNL     2     -10.113   6.364  74.314  1.00  0.00    -0.365 A  
HETATM   12  C   UNL     2      -9.422   8.336  72.473  1.00  0.00    -0.356 A  
HETATM   13  H   UNL     2     -12.160   5.010  73.625  1.00  0.00     0.000 HD 
HETATM   14  C   UNL     2      -8.603   8.096  73.575  1.00  0.00    -0.313 A  
ENDROOT
BRANCH   4  15
HETATM   15  C   UNL     1      -8.066   6.761  69.512  1.00  0.00    -0.126 C  
BRANCH  15  16
HETATM   16  N   UNL     1      -7.845   5.603  68.608  1.00  0.00    -0.095 NA 
BRANCH  16  17
HETATM   17  C   UNL     1      -6.399   5.272  68.439  1.00  0.00    -0.035 C  
BRANCH  17  18
HETATM   18  C   UNL     1      -5.378   5.723  69.499  1.00  0.00    -0.004 C  
HETATM   19  H   UNL     1      -4.619   5.083  71.227  1.00  0.00     0.000 HD 
HETATM   20  O   UNL     1      -5.250   4.805  70.573  1.00  0.00    -0.003 OA 
ENDBRANCH  17  18
ENDBRANCH  16  17
BRANCH  16  21
HETATM   21  C   UNL     1      -8.538   4.390  69.109  1.00  0.00    -0.082 C  
BRANCH  21  22
HETATM   22  C   UNL     1      -8.742   4.265  70.635  1.00  0.00    -0.083 C  
HETATM   23  O   UNL     1     -10.135   4.238  70.942  1.00  0.00    -0.185 OA 
HETATM   24  H   UNL     1     -10.261   4.161  71.880  1.00  0.00     0.000 HD 
ENDBRANCH  21  22
ENDBRANCH  16  21
ENDBRANCH  15  16
ENDBRANCH   4  15
TORSDOF 6
ENDMDL
MODEL      208
REMARK 921   NORMALIZED FREE ENERGY PREDICTED BY IDOCK:   -3.15 KCAL/MOL
REMARK 922        TOTAL FREE ENERGY PREDICTED BY IDOCK:   -5.12 KCAL/MOL
REMARK 923 INTER-LIGAND FREE ENERGY PREDICTED BY IDOCK:   -4.04 KCAL/MOL
REMARK 924 INTRA-LIGAND FREE ENERGY PREDICTED BY IDOCK:   -1.08 KCAL/MOL
REMARK 927      BINDING AFFINITY PREDICTED BY RF-SCORE:    0.00 PKD
ROOT
HETATM    1  O   UNL     1      -6.838  11.115  69.954  1.00  0.00    -0.249 OA 
HETATM    2  H   UNL     1      -7.294  11.761  70.479  1.00  0.00     0.000 HD 
HETATM    3  O   UNL     2     -10.967   9.647  69.748  1.00  0.00    -0.234 OA 
HETATM    4  C   UNL     1      -7.700  10.171  69.328  1.00  0.00    -0.126 C  
HETATM    5  O   UNL     2     -11.472   6.833  66.801  1.00  0.00    -0.733 OA 
HETATM    6  C   UNL     2     -10.758   8.914  68.637  1.00  0.00    -0.078 C  
HETATM    7  C   UNL     2     -10.394   7.503  68.876  1.00  0.00    -0.220 A  
HETATM    8  O   UNL     2     -10.865   9.365  67.502  1.00  0.00    -0.269 OA 
HETATM    9  C   UNL     2      -9.613   4.838  69.202  1.00  0.00    -0.237 A  
HETATM   10  C   UNL     2     -10.775   6.536  67.937  1.00  0.00    -0.287 A  
HETATM   11  C   UNL     2     -10.419   5.205  68.124  1.00  0.00    -0.083 A  
HETATM   12  C   UNL     2      -9.587   7.129  69.956  1.00  0.00    -0.164 A  
HETATM   13  H   UNL     2     -11.730   6.176  66.164  1.00  0.00     0.000 HD 
HETATM   14  C   UNL     2      -9.178   5.805  70.104  1.00  0.00    -0.173 A  
ENDROOT
BRANCH   4  15
HETATM   15  C   UNL     1      -6.955   9.115  68.468  1.00  0.00    -0.067 C  
BRANCH  15  16
HETATM   16  N   UNL     1      -7.514   8.849  67.116  1.00  0.00    -0.084 NA 
BRANCH  16  17
HETATM   17  C   UNL     1      -7.429  10.035  66.215  1.00  0.00    -0.106 C  
BRANCH  17  18
HETATM   18  C   UNL     1      -8.697  10.568  65.524  1.00  0.00    -0.185 C  
HETATM   19  H   UNL     1      -9.844  10.148  63.950  1.00  0.00     0.000 HD 
HETATM   20  O   UNL     1      -9.062   9.819  64.376  1.00  0.00    -0.229 OA 
ENDBRANCH  17  18
ENDBRANCH  16  17
BRANCH  16  21
HETATM   21  C   UNL     1      -6.811   7.720  66.457  1.00  0.00    -0.066 C  
BRANCH  21  22
HETATM   22  C   UNL     1      -7.671   6.541  65.953  1.00  0.00    -0.090 C  
HETATM   23  O   UNL     1      -8.691   7.019  65.077  1.00  0.00    -0.358 OA 
HETATM   24  H   UNL     1      -9.220   6.293  64.767  1.00  0.00     0.000 HD 
ENDBRANCH  21  22
ENDBRANCH  16  21
ENDBRANCH  15  16
ENDBRANCH   4  15
TORSDOF 6
ENDMDL
MODEL      209
REMARK 921   NORMALIZED FREE ENERGY PREDICTED BY IDOCK:   -3.08 KCAL/MOL
REMARK 922        TOTAL FREE ENERGY PREDICTED BY IDOCK:   -5.02 KCAL/MOL
REMARK 923 INTER-LIGAND FREE ENERGY PREDICTED BY IDOCK:   -4.57 KCAL/MOL
REMARK 924 INTRA-LIGAND FREE ENERGY PREDICTED BY IDOCK:   -0.45 KCAL/MOL
REMARK 927      BINDING AFFINITY PREDICTED BY RF-SCORE:    0.00 PKD
ROOT
HETATM    1  O   UNL     1     -12.119  14.326  66.729  1.00  0.00    -0.430 OA 
HETATM    2  H   UNL     1     -12.969  14.418  66.315  1.00  0.00     0.000 HD 
HETATM    3  O   UNL     2     -11.760  11.516  63.380  1.00  0.00    -0.355 OA 
HETATM    4  C   UNL     1     -11.218  13.489  66.014  1.00  0.00    -0.295 C  
HETATM    5  O   UNL     2      -7.874  10.360  62.729  1.00  0.00    -0.147 OA 
HETATM    6  C   UNL     2     -10.413  11.509  63.398  1.00  0.00    -0.406 C  
HETATM    7  C   UNL     2      -9.803  10.436  64.209  1.00  0.00    -0.388 A  
HETATM    8  O   UNL     2      -9.726  12.319  62.788  1.00  0.00    -0.013 OA 
HETATM    9  C   UNL     2      -8.533   8.503  65.781  1.00  0.00    -0.167 A  
HETATM   10  C   UNL     2      -8.560   9.919  63.824  1.00  0.00    -0.199 A  
HETATM   11  C   UNL     2      -7.951   8.929  64.587  1.00  0.00    -0.132 A  
HETATM   12  C   UNL     2     -10.384  10.004  65.407  1.00  0.00    -0.111 A  
HETATM   13  H   UNL     2      -7.030  10.009  62.469  1.00  0.00     0.000 HD 
HETATM   14  C   UNL     2      -9.739   9.058  66.202  1.00  0.00    -0.354 A  
ENDROOT
BRANCH   4  15
HETATM   15  C   UNL     1      -9.829  13.340  66.691  1.00  0.00    -0.276 C  
BRANCH  15  16
HETATM   16  N   UNL     1      -9.675  12.209  67.643  1.00  0.00    -0.185 NA 
BRANCH  16  17
HETATM   17  C   UNL     1      -8.252  11.963  68.020  1.00  0.00    -0.157 C  
BRANCH  17  18
HETATM   18  C   UNL     1      -7.901  10.830  69.000  1.00  0.00    -0.138 C  
HETATM   19  H   UNL     1      -6.545   9.383  69.207  1.00  0.00     0.000 HD 
HETATM   20  O   UNL     1      -6.762  10.083  68.602  1.00  0.00    -0.053 OA 
ENDBRANCH  17  18
ENDBRANCH  16  17
BRANCH  16  21
HETATM   21  C   UNL     1     -10.446  12.447  68.888  1.00  0.00    -0.089 C  
BRANCH  21  22
HETATM   22  C   UNL     1     -11.664  11.536  69.158  1.00  0.00    -0.329 C  
HETATM   23  O   UNL     1     -12.207  11.813  70.448  1.00  0.00    -0.346 OA 
HETATM   24  H   UNL     1     -12.956  11.252  70.613  1.00  0.00     0.000 HD 
ENDBRANCH  21  22
ENDBRANCH  16  21
ENDBRANCH  15  16
ENDBRANCH   4  15
TORSDOF 6
ENDMDL
MODEL      210
REMARK 921   NORMALIZED FREE ENERGY PREDICTED BY IDOCK:   -3.06 KCAL/MOL
REMARK 922        TOTAL FREE ENERGY PREDICTED BY IDOCK:   -4.99 KCAL/MOL
REMARK 923 INTER-LIGAND FREE ENERGY PREDICTED BY IDOCK:   -4.68 KCAL/MOL
REMARK 924 INTRA-LIGAND FREE ENERGY PREDICTED BY IDOCK:   -0.31 KCAL/MOL
REMARK 927      BINDING AFFINITY PREDICTED BY RF-SCORE:    0.00 PKD
ROOT
HETATM    1  O   UNL     1      -9.378   9.720  70.673  1.00  0.00    -0.325 OA 
HETATM    2  H   UNL     1      -9.966   9.491  71.383  1.00  0.00     0.000 HD 
HETATM    3  O   UNL     2     -10.873   5.821  69.331  1.00  0.00    -0.318 OA 
HETATM    4  C   UNL     1      -9.403   8.804  69.585  1.00  0.00    -0.158 C  
HETATM    5  O   UNL     2     -10.027   5.108  65.377  1.00  0.00    -0.370 OA 
HETATM    6  C   UNL     2     -10.553   6.029  68.039  1.00  0.00    -0.262 C  
HETATM    7  C   UNL     2      -9.225   5.526  67.635  1.00  0.00    -0.112 A  
HETATM    8  O   UNL     2     -11.296   6.586  67.241  1.00  0.00    -0.316 OA 
HETATM    9  C   UNL     2      -6.697   4.694  66.771  1.00  0.00    -0.051 A  
HETATM   10  C   UNL     2      -9.037   5.090  66.317  1.00  0.00    -0.129 A  
HETATM   11  C   UNL     2      -7.789   4.640  65.903  1.00  0.00    -0.095 A  
HETATM   12  C   UNL     2      -8.127   5.577  68.503  1.00  0.00    -0.099 A  
HETATM   13  H   UNL     2      -9.899   4.813  64.483  1.00  0.00     0.000 HD 
HETATM   14  C   UNL     2      -6.863   5.186  68.064  1.00  0.00    -0.060 A  
ENDROOT
BRANCH   4  15
HETATM   15  C   UNL     1      -8.441   9.180  68.425  1.00  0.00    -0.128 C  
BRANCH  15  16
HETATM   16  N   UNL     1      -8.955  10.159  67.432  1.00  0.00    -0.135 NA 
BRANCH  16  17
HETATM   17  C   UNL     1      -9.721   9.511  66.328  1.00  0.00    -0.245 C  
BRANCH  17  18
HETATM   18  C   UNL     1      -9.318   9.759  64.863  1.00  0.00    -0.265 C  
HETATM   19  H   UNL     1      -9.894  10.866  63.309  1.00  0.00     0.000 HD 
HETATM   20  O   UNL     1     -10.143  10.713  64.214  1.00  0.00    -0.328 OA 
ENDBRANCH  17  18
ENDBRANCH  16  17
BRANCH  16  21
HETATM   21  C   UNL     1      -9.838  11.164  68.075  1.00  0.00    -0.174 C  
BRANCH  21  22
HETATM   22  C   UNL     1     -11.292  11.264  67.567  1.00  0.00    -0.288 C  
HETATM   23  O   UNL     1     -12.190  10.752  68.550  1.00  0.00    -0.824 OA 
HETATM   24  H   UNL     1     -13.086  10.813  68.238  1.00  0.00     0.000 HD 
ENDBRANCH  21  22
ENDBRANCH  16  21
ENDBRANCH  15  16
ENDBRANCH   4  15
TORSDOF 6
ENDMDL
MODEL      211
REMARK 921   NORMALIZED FREE ENERGY PREDICTED BY IDOCK:   -3.05 KCAL/MOL
REMARK 922        TOTAL FREE ENERGY PREDICTED BY IDOCK:   -4.98 KCAL/MOL
REMARK 923 INTER-LIGAND FREE ENERGY PREDICTED BY IDOCK:   -4.13 KCAL/MOL
REMARK 924 INTRA-LIGAND FREE ENERGY PREDICTED BY IDOCK:   -0.86 KCAL/MOL
REMARK 927      BINDING AFFINITY PREDICTED BY RF-SCORE:    0.00 PKD
ROOT
HETATM    1  O   UNL     1      -9.589   8.466  65.515  1.00  0.00    -0.426 OA 
HETATM    2  H   UNL     1      -9.859   7.969  64.752  1.00  0.00     0.000 HD 
HETATM    3  O   UNL     2     -10.217   4.485  67.249  1.00  0.00    -0.135 OA 
HETATM    4  C   UNL     1      -9.423   7.675  66.687  1.00  0.00    -0.198 C  
HETATM    5  O   UNL     2      -8.592   4.151  71.005  1.00  0.00    -0.081 OA 
HETATM    6  C   UNL     2      -9.455   4.726  68.333  1.00  0.00    -0.144 C  
HETATM    7  C   UNL     2     -10.186   5.226  69.515  1.00  0.00    -0.338 A  
HETATM    8  O   UNL     2      -8.244   4.543  68.361  1.00  0.00    -0.086 OA 
HETATM    9  C   UNL     2     -11.446   6.259  71.788  1.00  0.00    -0.355 A  
HETATM   10  C   UNL     2      -9.710   4.907  70.793  1.00  0.00    -0.198 A  
HETATM   11  C   UNL     2     -10.363   5.389  71.921  1.00  0.00    -0.270 A  
HETATM   12  C   UNL     2     -11.274   6.097  69.387  1.00  0.00    -0.466 A  
HETATM   13  H   UNL     2      -8.269   3.935  71.872  1.00  0.00     0.000 HD 
HETATM   14  C   UNL     2     -11.886   6.631  70.520  1.00  0.00    -0.430 A  
ENDROOT
BRANCH   4  15
HETATM   15  C   UNL     1      -8.981   8.488  67.934  1.00  0.00    -0.137 C  
BRANCH  15  16
HETATM   16  N   UNL     1      -7.577   8.978  67.941  1.00  0.00    -0.092 NA 
BRANCH  16  17
HETATM   17  C   UNL     1      -7.487  10.466  67.892  1.00  0.00    -0.087 C  
BRANCH  17  18
HETATM   18  C   UNL     1      -7.898  11.220  66.615  1.00  0.00    -0.152 C  
HETATM   19  H   UNL     1      -7.872  10.962  64.639  1.00  0.00     0.000 HD 
HETATM   20  O   UNL     1      -7.619  10.496  65.428  1.00  0.00    -0.147 OA 
ENDBRANCH  17  18
ENDBRANCH  16  17
BRANCH  16  21
HETATM   21  C   UNL     1      -6.852   8.512  69.150  1.00  0.00    -0.058 C  
BRANCH  21  22
HETATM   22  C   UNL     1      -7.699   8.025  70.346  1.00  0.00    -0.085 C  
HETATM   23  O   UNL     1      -8.076   9.133  71.162  1.00  0.00    -0.242 OA 
HETATM   24  H   UNL     1      -8.597   8.833  71.898  1.00  0.00     0.000 HD 
ENDBRANCH  21  22
ENDBRANCH  16  21
ENDBRANCH  15  16
ENDBRANCH   4  15
TORSDOF 6
ENDMDL
MODEL      212
REMARK 921   NORMALIZED FREE ENERGY PREDICTED BY IDOCK:   -3.04 KCAL/MOL
REMARK 922        TOTAL FREE ENERGY PREDICTED BY IDOCK:   -4.97 KCAL/MOL
REMARK 923 INTER-LIGAND FREE ENERGY PREDICTED BY IDOCK:   -4.26 KCAL/MOL
REMARK 924 INTRA-LIGAND FREE ENERGY PREDICTED BY IDOCK:   -0.71 KCAL/MOL
REMARK 927      BINDING AFFINITY PREDICTED BY RF-SCORE:    0.00 PKD
ROOT
HETATM    1  O   UNL     1     -13.487   7.357  71.020  1.00  0.00    -0.605 OA 
HETATM    2  H   UNL     1     -14.202   6.895  71.440  1.00  0.00     0.000 HD 
HETATM    3  O   UNL     2     -11.313   4.428  73.457  1.00  0.00    -0.296 OA 
HETATM    4  C   UNL     1     -12.205   6.802  71.291  1.00  0.00    -0.364 C  
HETATM    5  O   UNL     2      -7.367   4.119  72.367  1.00  0.00    -0.063 OA 
HETATM    6  C   UNL     2     -10.183   4.511  72.730  1.00  0.00    -0.179 C  
HETATM    7  C   UNL     2      -9.189   5.484  73.226  1.00  0.00    -0.132 A  
HETATM    8  O   UNL     2      -9.971   3.832  71.732  1.00  0.00    -0.183 OA 
HETATM    9  C   UNL     2      -7.267   7.356  74.017  1.00  0.00    -0.109 A  
HETATM   10  C   UNL     2      -7.828   5.230  73.015  1.00  0.00    -0.098 A  
HETATM   11  C   UNL     2      -6.873   6.144  73.446  1.00  0.00    -0.076 A  
HETATM   12  C   UNL     2      -9.578   6.699  73.801  1.00  0.00    -0.226 A  
HETATM   13  H   UNL     2      -6.443   3.948  72.224  1.00  0.00     0.000 HD 
HETATM   14  C   UNL     2      -8.621   7.642  74.172  1.00  0.00    -0.296 A  
ENDROOT
BRANCH   4  15
HETATM   15  C   UNL     1     -11.036   7.557  70.603  1.00  0.00    -0.249 C  
BRANCH  15  16
HETATM   16  N   UNL     1     -10.686   7.122  69.225  1.00  0.00    -0.227 NA 
BRANCH  16  17
HETATM   17  C   UNL     1     -10.502   8.269  68.289  1.00  0.00    -0.161 C  
BRANCH  17  18
HETATM   18  C   UNL     1     -10.618   9.713  68.809  1.00  0.00    -0.216 C  
HETATM   19  H   UNL     1     -11.574  11.403  68.362  1.00  0.00     0.000 HD 
HETATM   20  O   UNL     1     -11.503  10.512  68.041  1.00  0.00    -0.383 OA 
ENDBRANCH  17  18
ENDBRANCH  16  17
BRANCH  16  21
HETATM   21  C   UNL     1      -9.440   6.316  69.217  1.00  0.00    -0.134 C  
BRANCH  21  22
HETATM   22  C   UNL     1      -9.306   5.221  68.136  1.00  0.00    -0.118 C  
HETATM   23  O   UNL     1      -9.786   3.976  68.640  1.00  0.00    -0.147 OA 
HETATM   24  H   UNL     1      -9.703   3.302  67.975  1.00  0.00     0.000 HD 
ENDBRANCH  21  22
ENDBRANCH  16  21
ENDBRANCH  15  16
ENDBRANCH   4  15
TORSDOF 6
ENDMDL
MODEL      213
REMARK 921   NORMALIZED FREE ENERGY PREDICTED BY IDOCK:   -3.03 KCAL/MOL
REMARK 922        TOTAL FREE ENERGY PREDICTED BY IDOCK:   -4.95 KCAL/MOL
REMARK 923 INTER-LIGAND FREE ENERGY PREDICTED BY IDOCK:   -4.17 KCAL/MOL
REMARK 924 INTRA-LIGAND FREE ENERGY PREDICTED BY IDOCK:   -0.78 KCAL/MOL
REMARK 927      BINDING AFFINITY PREDICTED BY RF-SCORE:    0.00 PKD
ROOT
HETATM    1  O   UNL     1     -10.263   4.471  70.640  1.00  0.00    -0.198 OA 
HETATM    2  H   UNL     1     -10.426   3.904  69.896  1.00  0.00     0.000 HD 
HETATM    3  O   UNL     2      -9.524   7.203  67.289  1.00  0.00    -0.132 OA 
HETATM    4  C   UNL     1     -10.014   5.827  70.287  1.00  0.00    -0.198 C  
HETATM    5  O   UNL     2      -9.381  11.128  68.484  1.00  0.00    -0.178 OA 
HETATM    6  C   UNL     2      -9.695   8.316  68.027  1.00  0.00    -0.161 C  
HETATM    7  C   UNL     2      -8.458   8.881  68.604  1.00  0.00    -0.128 A  
HETATM    8  O   UNL     2     -10.786   8.843  68.211  1.00  0.00    -0.180 OA 
HETATM    9  C   UNL     2      -6.200   9.993  69.823  1.00  0.00    -0.054 A  
HETATM   10  C   UNL     2      -8.372  10.265  68.801  1.00  0.00    -0.125 A  
HETATM   11  C   UNL     2      -7.230  10.818  69.370  1.00  0.00    -0.132 A  
HETATM   12  C   UNL     2      -7.421   8.058  69.059  1.00  0.00    -0.093 A  
HETATM   13  H   UNL     2      -9.322  12.067  68.617  1.00  0.00     0.000 HD 
HETATM   14  C   UNL     2      -6.307   8.611  69.688  1.00  0.00    -0.039 A  
ENDROOT
BRANCH   4  15
HETATM   15  C   UNL     1      -9.747   6.754  71.504  1.00  0.00    -0.163 C  
BRANCH  15  16
HETATM   16  N   UNL     1     -10.884   6.965  72.437  1.00  0.00    -0.226 NA 
BRANCH  16  17
HETATM   17  C   UNL     1     -10.531   6.659  73.854  1.00  0.00    -0.326 C  
BRANCH  17  18
HETATM   18  C   UNL     1     -10.488   5.199  74.338  1.00  0.00    -0.255 C  
HETATM   19  H   UNL     1     -11.265   3.428  73.856  1.00  0.00     0.000 HD 
HETATM   20  O   UNL     1     -11.291   4.329  73.557  1.00  0.00    -0.283 OA 
ENDBRANCH  17  18
ENDBRANCH  16  17
BRANCH  16  21
HETATM   21  C   UNL     1     -11.375   8.364  72.377  1.00  0.00    -0.378 C  
BRANCH  21  22
HETATM   22  C   UNL     1     -12.730   8.616  71.681  1.00  0.00    -0.341 C  
HETATM   23  O   UNL     1     -13.165   7.432  71.014  1.00  0.00    -0.582 OA 
HETATM   24  H   UNL     1     -13.999   7.587  70.585  1.00  0.00     0.000 HD 
ENDBRANCH  21  22
ENDBRANCH  16  21
ENDBRANCH  15  16
ENDBRANCH   4  15
TORSDOF 6
ENDMDL
MODEL      214
REMARK 921   NORMALIZED FREE ENERGY PREDICTED BY IDOCK:   -3.02 KCAL/MOL
REMARK 922        TOTAL FREE ENERGY PREDICTED BY IDOCK:   -4.93 KCAL/MOL
REMARK 923 INTER-LIGAND FREE ENERGY PREDICTED BY IDOCK:   -3.91 KCAL/MOL
REMARK 924 INTRA-LIGAND FREE ENERGY PREDICTED BY IDOCK:   -1.02 KCAL/MOL
REMARK 927      BINDING AFFINITY PREDICTED BY RF-SCORE:    0.00 PKD
ROOT
HETATM    1  O   UNL     1      -6.489  14.955  67.281  1.00  0.00    -0.304 OA 
HETATM    2  H   UNL     1      -6.596  15.546  66.546  1.00  0.00     0.000 HD 
HETATM    3  O   UNL     2     -10.314  13.593  65.620  1.00  0.00    -0.285 OA 
HETATM    4  C   UNL     1      -7.488  13.944  67.356  1.00  0.00    -0.128 C  
HETATM    5  O   UNL     2     -11.446   9.939  67.114  1.00  0.00    -0.211 OA 
HETATM    6  C   UNL     2     -10.251  12.380  66.203  1.00  0.00    -0.242 C  
HETATM    7  C   UNL     2     -10.921  12.280  67.515  1.00  0.00    -0.298 A  
HETATM    8  O   UNL     2      -9.691  11.416  65.696  1.00  0.00    -0.216 OA 
HETATM    9  C   UNL     2     -12.079  11.991  70.045  1.00  0.00    -0.355 A  
HETATM   10  C   UNL     2     -11.485  11.057  67.898  1.00  0.00    -0.282 A  
HETATM   11  C   UNL     2     -12.095  10.929  69.140  1.00  0.00    -0.292 A  
HETATM   12  C   UNL     2     -10.909  13.344  68.425  1.00  0.00    -0.284 A  
HETATM   13  H   UNL     2     -11.828   9.109  67.374  1.00  0.00     0.000 HD 
HETATM   14  C   UNL     2     -11.465  13.191  69.695  1.00  0.00    -0.261 A  
ENDROOT
BRANCH   4  15
HETATM   15  C   UNL     1      -7.313  12.977  68.558  1.00  0.00    -0.115 C  
BRANCH  15  16
HETATM   16  N   UNL     1      -7.434  11.525  68.262  1.00  0.00    -0.096 NA 
BRANCH  16  17
HETATM   17  C   UNL     1      -6.119  10.886  67.967  1.00  0.00    -0.049 C  
BRANCH  17  18
HETATM   18  C   UNL     1      -5.531  10.955  66.547  1.00  0.00    -0.092 C  
HETATM   19  H   UNL     1      -6.051  10.498  64.678  1.00  0.00     0.000 HD 
HETATM   20  O   UNL     1      -6.413  10.456  65.555  1.00  0.00    -0.117 OA 
ENDBRANCH  17  18
ENDBRANCH  16  17
BRANCH  16  21
HETATM   21  C   UNL     1      -8.056  10.796  69.396  1.00  0.00    -0.043 C  
BRANCH  21  22
HETATM   22  C   UNL     1      -7.977   9.254  69.381  1.00  0.00    -0.099 C  
HETATM   23  O   UNL     1      -9.219   8.705  68.943  1.00  0.00    -0.145 OA 
HETATM   24  H   UNL     1      -9.170   7.756  68.934  1.00  0.00     0.000 HD 
ENDBRANCH  21  22
ENDBRANCH  16  21
ENDBRANCH  15  16
ENDBRANCH   4  15
TORSDOF 6
ENDMDL
MODEL      215
REMARK 921   NORMALIZED FREE ENERGY PREDICTED BY IDOCK:   -3.01 KCAL/MOL
REMARK 922        TOTAL FREE ENERGY PREDICTED BY IDOCK:   -4.92 KCAL/MOL
REMARK 923 INTER-LIGAND FREE ENERGY PREDICTED BY IDOCK:   -4.20 KCAL/MOL
REMARK 924 INTRA-LIGAND FREE ENERGY PREDICTED BY IDOCK:   -0.72 KCAL/MOL
REMARK 927      BINDING AFFINITY PREDICTED BY RF-SCORE:    0.00 PKD
ROOT
HETATM    1  O   UNL     1     -11.477   6.428  67.765  1.00  0.00    -0.649 OA 
HETATM    2  H   UNL     1     -11.501   5.886  66.985  1.00  0.00     0.000 HD 
HETATM    3  O   UNL     2      -8.974   8.755  65.016  1.00  0.00    -0.165 OA 
HETATM    4  C   UNL     1     -10.801   7.667  67.585  1.00  0.00    -0.101 C  
HETATM    5  O   UNL     2      -8.316  12.576  66.367  1.00  0.00    -0.404 OA 
HETATM    6  C   UNL     2      -9.118   9.907  65.699  1.00  0.00    -0.178 C  
HETATM    7  C   UNL     2      -8.066  10.179  66.698  1.00  0.00    -0.120 A  
HETATM    8  O   UNL     2     -10.043  10.690  65.514  1.00  0.00    -0.255 OA 
HETATM    9  C   UNL     2      -6.181  10.761  68.681  1.00  0.00    -0.043 A  
HETATM   10  C   UNL     2      -7.722  11.508  66.977  1.00  0.00    -0.158 A  
HETATM   11  C   UNL     2      -6.755  11.791  67.935  1.00  0.00    -0.072 A  
HETATM   12  C   UNL     2      -7.485   9.149  67.448  1.00  0.00    -0.084 A  
HETATM   13  H   UNL     2      -8.082  13.477  66.557  1.00  0.00     0.000 HD 
HETATM   14  C   UNL     2      -6.564   9.442  68.453  1.00  0.00    -0.054 A  
ENDROOT
BRANCH   4  15
HETATM   15  C   UNL     1     -10.762   8.552  68.860  1.00  0.00    -0.073 C  
BRANCH  15  16
HETATM   16  N   UNL     1     -10.898   7.844  70.160  1.00  0.00    -0.245 NA 
BRANCH  16  17
HETATM   17  C   UNL     1      -9.653   7.122  70.556  1.00  0.00    -0.169 C  
BRANCH  17  18
HETATM   18  C   UNL     1      -9.685   5.600  70.778  1.00  0.00    -0.177 C  
HETATM   19  H   UNL     1     -10.309   3.953  69.844  1.00  0.00     0.000 HD 
HETATM   20  O   UNL     1     -10.289   4.893  69.707  1.00  0.00    -0.260 OA 
ENDBRANCH  17  18
ENDBRANCH  16  17
BRANCH  16  21
HETATM   21  C   UNL     1     -11.248   8.788  71.251  1.00  0.00    -0.284 C  
BRANCH  21  22
HETATM   22  C   UNL     1     -11.519  10.258  70.863  1.00  0.00    -0.339 C  
HETATM   23  O   UNL     1     -12.753  10.694  71.429  1.00  0.00    -0.372 OA 
HETATM   24  H   UNL     1     -12.920  11.599  71.190  1.00  0.00     0.000 HD 
ENDBRANCH  21  22
ENDBRANCH  16  21
ENDBRANCH  15  16
ENDBRANCH   4  15
TORSDOF 6
ENDMDL
MODEL      216
REMARK 921   NORMALIZED FREE ENERGY PREDICTED BY IDOCK:   -3.01 KCAL/MOL
REMARK 922        TOTAL FREE ENERGY PREDICTED BY IDOCK:   -4.92 KCAL/MOL
REMARK 923 INTER-LIGAND FREE ENERGY PREDICTED BY IDOCK:   -4.21 KCAL/MOL
REMARK 924 INTRA-LIGAND FREE ENERGY PREDICTED BY IDOCK:   -0.71 KCAL/MOL
REMARK 927      BINDING AFFINITY PREDICTED BY RF-SCORE:    0.00 PKD
ROOT
HETATM    1  O   UNL     1      -7.492   7.072  68.420  1.00  0.00    -0.097 OA 
HETATM    2  H   UNL     1      -7.504   6.550  67.627  1.00  0.00     0.000 HD 
HETATM    3  O   UNL     2      -9.909   9.588  65.760  1.00  0.00    -0.285 OA 
HETATM    4  C   UNL     1      -8.311   8.234  68.356  1.00  0.00    -0.132 C  
HETATM    5  O   UNL     2     -11.895  12.547  67.798  1.00  0.00    -0.351 OA 
HETATM    6  C   UNL     2     -10.476  10.281  66.765  1.00  0.00    -0.214 C  
HETATM    7  C   UNL     2      -9.786  11.535  67.129  1.00  0.00    -0.210 A  
HETATM    8  O   UNL     2     -11.494   9.920  67.343  1.00  0.00    -0.022 OA 
HETATM    9  C   UNL     2      -8.520  13.884  67.967  1.00  0.00    -0.173 A  
HETATM   10  C   UNL     2     -10.541  12.605  67.628  1.00  0.00    -0.218 A  
HETATM   11  C   UNL     2      -9.912  13.785  68.005  1.00  0.00    -0.246 A  
HETATM   12  C   UNL     2      -8.391  11.640  67.091  1.00  0.00    -0.164 A  
HETATM   13  H   UNL     2     -12.406  13.273  68.137  1.00  0.00     0.000 HD 
HETATM   14  C   UNL     2      -7.759  12.802  67.531  1.00  0.00    -0.168 A  
ENDROOT
BRANCH   4  15
HETATM   15  C   UNL     1      -8.291   9.088  69.652  1.00  0.00    -0.125 C  
BRANCH  15  16
HETATM   16  N   UNL     1      -8.521   8.360  70.928  1.00  0.00    -0.129 NA 
BRANCH  16  17
HETATM   17  C   UNL     1      -7.456   8.622  71.940  1.00  0.00    -0.062 C  
BRANCH  17  18
HETATM   18  C   UNL     1      -7.670   8.207  73.406  1.00  0.00    -0.160 C  
HETATM   19  H   UNL     1      -7.179   8.828  75.235  1.00  0.00     0.000 HD 
HETATM   20  O   UNL     1      -7.046   9.084  74.330  1.00  0.00    -0.397 OA 
ENDBRANCH  17  18
ENDBRANCH  16  17
BRANCH  16  21
HETATM   21  C   UNL     1      -9.827   8.727  71.528  1.00  0.00    -0.301 C  
BRANCH  21  22
HETATM   22  C   UNL     1     -10.791   9.578  70.673  1.00  0.00    -0.306 C  
HETATM   23  O   UNL     1     -11.708   8.733  69.982  1.00  0.00    -0.454 OA 
HETATM   24  H   UNL     1     -12.301   9.257  69.455  1.00  0.00     0.000 HD 
ENDBRANCH  21  22
ENDBRANCH  16  21
ENDBRANCH  15  16
ENDBRANCH   4  15
TORSDOF 6
ENDMDL
MODEL      217
REMARK 921   NORMALIZED FREE ENERGY PREDICTED BY IDOCK:   -3.01 KCAL/MOL
REMARK 922        TOTAL FREE ENERGY PREDICTED BY IDOCK:   -4.92 KCAL/MOL
REMARK 923 INTER-LIGAND FREE ENERGY PREDICTED BY IDOCK:   -4.90 KCAL/MOL
REMARK 924 INTRA-LIGAND FREE ENERGY PREDICTED BY IDOCK:   -0.02 KCAL/MOL
REMARK 927      BINDING AFFINITY PREDICTED BY RF-SCORE:    0.00 PKD
ROOT
HETATM    1  O   UNL     1     -12.523  14.986  68.668  1.00  0.00    -0.578 OA 
HETATM    2  H   UNL     1     -12.245  15.781  68.231  1.00  0.00     0.000 HD 
HETATM    3  O   UNL     2      -8.679  13.738  66.961  1.00  0.00    -0.224 OA 
HETATM    4  C   UNL     1     -11.552  13.945  68.642  1.00  0.00    -0.328 C  
HETATM    5  O   UNL     2      -7.334  10.209  68.571  1.00  0.00    -0.078 OA 
HETATM    6  C   UNL     2      -8.526  12.701  67.805  1.00  0.00    -0.172 C  
HETATM    7  C   UNL     2      -9.032  11.406  67.306  1.00  0.00    -0.159 A  
HETATM    8  O   UNL     2      -8.000  12.800  68.908  1.00  0.00     0.016 OA 
HETATM    9  C   UNL     2     -10.033   8.919  66.508  1.00  0.00    -0.358 A  
HETATM   10  C   UNL     2      -8.402  10.226  67.720  1.00  0.00    -0.110 A  
HETATM   11  C   UNL     2      -8.878   8.994  67.288  1.00  0.00    -0.126 A  
HETATM   12  C   UNL     2     -10.189  11.327  66.522  1.00  0.00    -0.269 A  
HETATM   13  H   UNL     2      -6.907   9.408  68.851  1.00  0.00     0.000 HD 
HETATM   14  C   UNL     2     -10.701  10.086  66.145  1.00  0.00     0.023 A  
ENDROOT
BRANCH   4  15
HETATM   15  C   UNL     1     -12.007  12.645  69.358  1.00  0.00    -0.260 C  
BRANCH  15  16
HETATM   16  N   UNL     1     -12.187  12.729  70.831  1.00  0.00    -0.292 NA 
BRANCH  16  17
HETATM   17  C   UNL     1     -13.217  13.733  71.228  1.00  0.00    -0.261 C  
BRANCH  17  18
HETATM   18  C   UNL     1     -13.194  14.340  72.642  1.00  0.00    -0.510 C  
HETATM   19  H   UNL     1     -11.983  15.419  73.799  1.00  0.00     0.000 HD 
HETATM   20  O   UNL     1     -11.997  15.045  72.926  1.00  0.00    -0.343 OA 
ENDBRANCH  17  18
ENDBRANCH  16  17
BRANCH  16  21
HETATM   21  C   UNL     1     -12.582  11.416  71.400  1.00  0.00    -0.334 C  
BRANCH  21  22
HETATM   22  C   UNL     1     -13.112  10.345  70.421  1.00  0.00    -0.056 C  
HETATM   23  O   UNL     1     -12.282   9.185  70.468  1.00  0.00    -0.480 OA 
HETATM   24  H   UNL     1     -12.608   8.527  69.866  1.00  0.00     0.000 HD 
ENDBRANCH  21  22
ENDBRANCH  16  21
ENDBRANCH  15  16
ENDBRANCH   4  15
TORSDOF 6
ENDMDL
MODEL      218
REMARK 921   NORMALIZED FREE ENERGY PREDICTED BY IDOCK:   -3.00 KCAL/MOL
REMARK 922        TOTAL FREE ENERGY PREDICTED BY IDOCK:   -4.91 KCAL/MOL
REMARK 923 INTER-LIGAND FREE ENERGY PREDICTED BY IDOCK:   -4.07 KCAL/MOL
REMARK 924 INTRA-LIGAND FREE ENERGY PREDICTED BY IDOCK:   -0.83 KCAL/MOL
REMARK 927      BINDING AFFINITY PREDICTED BY RF-SCORE:    0.00 PKD
ROOT
HETATM    1  O   UNL     1      -6.849   7.314  70.937  1.00  0.00    -0.051 OA 
HETATM    2  H   UNL     1      -7.189   7.060  71.787  1.00  0.00     0.000 HD 
HETATM    3  O   UNL     2     -10.366   4.952  69.796  1.00  0.00    -0.260 OA 
HETATM    4  C   UNL     1      -7.678   6.927  69.847  1.00  0.00    -0.109 C  
HETATM    5  O   UNL     2     -11.384   5.483  65.854  1.00  0.00    -0.722 OA 
HETATM    6  C   UNL     2     -10.454   5.491  68.565  1.00  0.00    -0.164 C  
HETATM    7  C   UNL     2      -9.755   4.743  67.502  1.00  0.00    -0.209 A  
HETATM    8  O   UNL     2     -11.071   6.522  68.323  1.00  0.00    -0.290 OA 
HETATM    9  C   UNL     2      -8.396   3.463  65.419  1.00  0.00    -0.098 A  
HETATM   10  C   UNL     2     -10.264   4.782  66.198  1.00  0.00    -0.281 A  
HETATM   11  C   UNL     2      -9.607   4.110  65.173  1.00  0.00    -0.185 A  
HETATM   12  C   UNL     2      -8.540   4.090  67.744  1.00  0.00    -0.108 A  
HETATM   13  H   UNL     2     -11.729   5.509  64.969  1.00  0.00     0.000 HD 
HETATM   14  C   UNL     2      -7.851   3.473  66.701  1.00  0.00    -0.081 A  
ENDROOT
BRANCH   4  15
HETATM   15  C   UNL     1      -7.122   7.341  68.458  1.00  0.00    -0.085 C  
BRANCH  15  16
HETATM   16  N   UNL     1      -7.774   8.506  67.805  1.00  0.00    -0.101 NA 
BRANCH  16  17
HETATM   17  C   UNL     1      -8.358   8.168  66.474  1.00  0.00    -0.113 C  
BRANCH  17  18
HETATM   18  C   UNL     1      -9.765   8.667  66.102  1.00  0.00    -0.222 C  
HETATM   19  H   UNL     1     -10.616  10.108  65.019  1.00  0.00     0.000 HD 
HETATM   20  O   UNL     1      -9.747   9.800  65.249  1.00  0.00    -0.294 OA 
ENDBRANCH  17  18
ENDBRANCH  16  17
BRANCH  16  21
HETATM   21  C   UNL     1      -8.858   9.061  68.655  1.00  0.00    -0.137 C  
BRANCH  21  22
HETATM   22  C   UNL     1      -8.705  10.517  69.145  1.00  0.00    -0.147 C  
HETATM   23  O   UNL     1      -7.876  10.558  70.305  1.00  0.00    -0.418 OA 
HETATM   24  H   UNL     1      -7.782  11.454  70.607  1.00  0.00     0.000 HD 
ENDBRANCH  21  22
ENDBRANCH  16  21
ENDBRANCH  15  16
ENDBRANCH   4  15
TORSDOF 6
ENDMDL
MODEL      219
REMARK 921   NORMALIZED FREE ENERGY PREDICTED BY IDOCK:   -2.99 KCAL/MOL
REMARK 922        TOTAL FREE ENERGY PREDICTED BY IDOCK:   -4.90 KCAL/MOL
REMARK 923 INTER-LIGAND FREE ENERGY PREDICTED BY IDOCK:   -4.02 KCAL/MOL
REMARK 924 INTRA-LIGAND FREE ENERGY PREDICTED BY IDOCK:   -0.88 KCAL/MOL
REMARK 927      BINDING AFFINITY PREDICTED BY RF-SCORE:    0.00 PKD
ROOT
HETATM    1  O   UNL     1      -6.340   6.898  66.219  1.00  0.00    -0.046 OA 
HETATM    2  H   UNL     1      -6.502   7.337  65.393  1.00  0.00     0.000 HD 
HETATM    3  O   UNL     2     -10.416   8.403  66.821  1.00  0.00    -0.314 OA 
HETATM    4  C   UNL     1      -7.471   6.860  67.081  1.00  0.00    -0.095 C  
HETATM    5  O   UNL     2     -12.255   6.666  70.055  1.00  0.00    -0.605 OA 
HETATM    6  C   UNL     2     -10.700   7.533  67.808  1.00  0.00    -0.163 C  
HETATM    7  C   UNL     2     -10.443   8.030  69.174  1.00  0.00    -0.217 A  
HETATM    8  O   UNL     2     -11.148   6.410  67.609  1.00  0.00    -0.339 OA 
HETATM    9  C   UNL     2      -9.913   8.826  71.803  1.00  0.00    -0.396 A  
HETATM   10  C   UNL     2     -11.241   7.565  70.227  1.00  0.00    -0.236 A  
HETATM   11  C   UNL     2     -11.000   7.995  71.527  1.00  0.00    -0.279 A  
HETATM   12  C   UNL     2      -9.355   8.865  69.456  1.00  0.00    -0.155 A  
HETATM   13  H   UNL     2     -12.796   6.351  70.769  1.00  0.00     0.000 HD 
HETATM   14  C   UNL     2      -9.078   9.241  70.769  1.00  0.00    -0.306 A  
ENDROOT
BRANCH   4  15
HETATM   15  C   UNL     1      -7.206   6.141  68.432  1.00  0.00    -0.084 C  
BRANCH  15  16
HETATM   16  N   UNL     1      -8.185   5.094  68.826  1.00  0.00    -0.085 NA 
BRANCH  16  17
HETATM   17  C   UNL     1      -7.721   3.716  68.487  1.00  0.00    -0.056 C  
BRANCH  17  18
HETATM   18  C   UNL     1      -8.465   2.896  67.419  1.00  0.00    -0.094 C  
HETATM   19  H   UNL     1      -8.429   2.602  65.448  1.00  0.00     0.000 HD 
HETATM   20  O   UNL     1      -7.969   3.109  66.107  1.00  0.00    -0.083 OA 
ENDBRANCH  17  18
ENDBRANCH  16  17
BRANCH  16  21
HETATM   21  C   UNL     1      -8.462   5.139  70.284  1.00  0.00    -0.101 C  
BRANCH  21  22
HETATM   22  C   UNL     1      -9.546   4.187  70.833  1.00  0.00    -0.179 C  
HETATM   23  O   UNL     1     -10.227   4.799  71.927  1.00  0.00    -0.192 OA 
HETATM   24  H   UNL     1     -10.894   4.212  72.265  1.00  0.00     0.000 HD 
ENDBRANCH  21  22
ENDBRANCH  16  21
ENDBRANCH  15  16
ENDBRANCH   4  15
TORSDOF 6
ENDMDL
MODEL      220
REMARK 921   NORMALIZED FREE ENERGY PREDICTED BY IDOCK:   -2.99 KCAL/MOL
REMARK 922        TOTAL FREE ENERGY PREDICTED BY IDOCK:   -4.90 KCAL/MOL
REMARK 923 INTER-LIGAND FREE ENERGY PREDICTED BY IDOCK:   -4.42 KCAL/MOL
REMARK 924 INTRA-LIGAND FREE ENERGY PREDICTED BY IDOCK:   -0.48 KCAL/MOL
REMARK 927      BINDING AFFINITY PREDICTED BY RF-SCORE:    0.00 PKD
ROOT
HETATM    1  O   UNL     1     -10.645   5.167  65.955  1.00  0.00    -0.451 OA 
HETATM    2  H   UNL     1     -11.001   5.361  65.096  1.00  0.00     0.000 HD 
HETATM    3  O   UNL     2     -10.152   9.523  65.774  1.00  0.00    -0.288 OA 
HETATM    4  C   UNL     1     -10.294   6.324  66.707  1.00  0.00    -0.221 C  
HETATM    5  O   UNL     2      -9.325  11.149  69.452  1.00  0.00    -0.397 OA 
HETATM    6  C   UNL     2     -10.056   9.669  67.109  1.00  0.00    -0.218 C  
HETATM    7  C   UNL     2      -8.680   9.655  67.644  1.00  0.00    -0.126 A  
HETATM    8  O   UNL     2     -11.027   9.813  67.843  1.00  0.00    -0.262 OA 
HETATM    9  C   UNL     2      -6.128   9.556  68.784  1.00  0.00    -0.043 A  
HETATM   10  C   UNL     2      -8.391  10.402  68.793  1.00  0.00    -0.134 A  
HETATM   11  C   UNL     2      -7.110  10.382  69.333  1.00  0.00    -0.102 A  
HETATM   12  C   UNL     2      -7.691   8.830  67.096  1.00  0.00    -0.096 A  
HETATM   13  H   UNL     2      -9.128  11.656  70.231  1.00  0.00     0.000 HD 
HETATM   14  C   UNL     2      -6.427   8.763  67.679  1.00  0.00    -0.061 A  
ENDROOT
BRANCH   4  15
HETATM   15  C   UNL     1      -9.712   6.007  68.111  1.00  0.00    -0.127 C  
BRANCH  15  16
HETATM   16  N   UNL     1     -10.691   5.621  69.161  1.00  0.00    -0.276 NA 
BRANCH  16  17
HETATM   17  C   UNL     1     -10.036   5.073  70.385  1.00  0.00    -0.247 C  
BRANCH  17  18
HETATM   18  C   UNL     1      -9.650   3.585  70.450  1.00  0.00    -0.171 C  
HETATM   19  H   UNL     1      -8.010   2.452  70.470  1.00  0.00     0.000 HD 
HETATM   20  O   UNL     1      -8.248   3.371  70.429  1.00  0.00    -0.052 OA 
ENDBRANCH  17  18
ENDBRANCH  16  17
BRANCH  16  21
HETATM   21  C   UNL     1     -11.528   6.777  69.566  1.00  0.00    -0.190 C  
BRANCH  21  22
HETATM   22  C   UNL     1     -12.037   6.813  71.023  1.00  0.00    -0.372 C  
HETATM   23  O   UNL     1     -13.387   7.273  71.059  1.00  0.00    -0.587 OA 
HETATM   24  H   UNL     1     -13.700   7.295  71.956  1.00  0.00     0.000 HD 
ENDBRANCH  21  22
ENDBRANCH  16  21
ENDBRANCH  15  16
ENDBRANCH   4  15
TORSDOF 6
ENDMDL
MODEL      221
REMARK 921   NORMALIZED FREE ENERGY PREDICTED BY IDOCK:   -2.98 KCAL/MOL
REMARK 922        TOTAL FREE ENERGY PREDICTED BY IDOCK:   -4.88 KCAL/MOL
REMARK 923 INTER-LIGAND FREE ENERGY PREDICTED BY IDOCK:   -4.35 KCAL/MOL
REMARK 924 INTRA-LIGAND FREE ENERGY PREDICTED BY IDOCK:   -0.53 KCAL/MOL
REMARK 927      BINDING AFFINITY PREDICTED BY RF-SCORE:    0.00 PKD
ROOT
HETATM    1  O   UNL     1      -9.880   3.601  70.732  1.00  0.00    -0.176 OA 
HETATM    2  H   UNL     1     -10.301   2.815  70.405  1.00  0.00     0.000 HD 
HETATM    3  O   UNL     2     -10.521   4.649  66.521  1.00  0.00    -0.250 OA 
HETATM    4  C   UNL     1      -9.813   4.656  69.780  1.00  0.00    -0.226 C  
HETATM    5  O   UNL     2     -10.021   8.664  65.824  1.00  0.00    -0.456 OA 
HETATM    6  C   UNL     2     -10.424   5.976  66.732  1.00  0.00    -0.267 C  
HETATM    7  C   UNL     2      -9.073   6.543  66.544  1.00  0.00    -0.166 A  
HETATM    8  O   UNL     2     -11.375   6.680  67.048  1.00  0.00    -0.348 OA 
HETATM    9  C   UNL     2      -6.546   7.717  66.304  1.00  0.00    -0.050 A  
HETATM   10  C   UNL     2      -8.948   7.864  66.097  1.00  0.00    -0.175 A  
HETATM   11  C   UNL     2      -7.689   8.431  65.940  1.00  0.00    -0.086 A  
HETATM   12  C   UNL     2      -7.924   5.830  66.905  1.00  0.00    -0.102 A  
HETATM   13  H   UNL     2      -9.936   9.561  65.521  1.00  0.00     0.000 HD 
HETATM   14  C   UNL     2      -6.667   6.425  66.809  1.00  0.00    -0.060 A  
ENDROOT
BRANCH   4  15
HETATM   15  C   UNL     1      -9.125   5.941  70.316  1.00  0.00    -0.147 C  
BRANCH  15  16
HETATM   16  N   UNL     1      -9.945   6.811  71.199  1.00  0.00    -0.182 NA 
BRANCH  16  17
HETATM   17  C   UNL     1      -9.166   7.947  71.773  1.00  0.00    -0.150 C  
BRANCH  17  18
HETATM   18  C   UNL     1      -7.639   7.833  71.924  1.00  0.00    -0.086 C  
HETATM   19  H   UNL     1      -6.044   9.022  72.047  1.00  0.00     0.000 HD 
HETATM   20  O   UNL     1      -6.987   9.092  71.954  1.00  0.00    -0.303 OA 
ENDBRANCH  17  18
ENDBRANCH  16  17
BRANCH  16  21
HETATM   21  C   UNL     1     -11.108   7.374  70.468  1.00  0.00    -0.261 C  
BRANCH  21  22
HETATM   22  C   UNL     1     -12.517   7.045  71.008  1.00  0.00    -0.326 C  
HETATM   23  O   UNL     1     -12.420   6.467  72.308  1.00  0.00    -0.532 OA 
HETATM   24  H   UNL     1     -13.287   6.264  72.640  1.00  0.00     0.000 HD 
ENDBRANCH  21  22
ENDBRANCH  16  21
ENDBRANCH  15  16
ENDBRANCH   4  15
TORSDOF 6
ENDMDL
MODEL      222
REMARK 921   NORMALIZED FREE ENERGY PREDICTED BY IDOCK:   -2.96 KCAL/MOL
REMARK 922        TOTAL FREE ENERGY PREDICTED BY IDOCK:   -4.86 KCAL/MOL
REMARK 923 INTER-LIGAND FREE ENERGY PREDICTED BY IDOCK:   -3.91 KCAL/MOL
REMARK 924 INTRA-LIGAND FREE ENERGY PREDICTED BY IDOCK:   -0.95 KCAL/MOL
REMARK 927      BINDING AFFINITY PREDICTED BY RF-SCORE:    0.00 PKD
ROOT
HETATM    1  O   UNL     1      -9.964   5.299  68.148  1.00  0.00    -0.146 OA 
HETATM    2  H   UNL     1     -10.683   5.063  68.722  1.00  0.00     0.000 HD 
HETATM    3  O   UNL     2     -11.094   9.212  69.776  1.00  0.00    -0.215 OA 
HETATM    4  C   UNL     1      -9.592   6.670  68.226  1.00  0.00    -0.125 C  
HETATM    5  O   UNL     2      -8.244  12.079  69.057  1.00  0.00    -0.355 OA 
HETATM    6  C   UNL     2      -9.912   9.788  69.486  1.00  0.00    -0.214 C  
HETATM    7  C   UNL     2      -9.855  10.479  68.182  1.00  0.00    -0.169 A  
HETATM    8  O   UNL     2      -8.945   9.758  70.238  1.00  0.00    -0.232 OA 
HETATM    9  C   UNL     2      -9.597  11.745  65.701  1.00  0.00    -0.240 A  
HETATM   10  C   UNL     2      -9.018  11.594  68.042  1.00  0.00    -0.176 A  
HETATM   11  C   UNL     2      -8.924  12.244  66.817  1.00  0.00    -0.209 A  
HETATM   12  C   UNL     2     -10.529   9.983  67.061  1.00  0.00    -0.302 A  
HETATM   13  H   UNL     2      -7.676  12.835  68.961  1.00  0.00     0.000 HD 
HETATM   14  C   UNL     2     -10.381  10.600  65.819  1.00  0.00    -0.287 A  
ENDROOT
BRANCH   4  15
HETATM   15  C   UNL     1      -8.416   7.055  67.288  1.00  0.00    -0.121 C  
BRANCH  15  16
HETATM   16  N   UNL     1      -8.660   6.913  65.828  1.00  0.00    -0.146 NA 
BRANCH  16  17
HETATM   17  C   UNL     1      -8.027   8.004  65.030  1.00  0.00    -0.126 C  
BRANCH  17  18
HETATM   18  C   UNL     1      -7.088   9.012  65.715  1.00  0.00    -0.085 C  
HETATM   19  H   UNL     1      -5.150   9.474  65.764  1.00  0.00     0.000 HD 
HETATM   20  O   UNL     1      -5.730   8.851  65.341  1.00  0.00    -0.046 OA 
ENDBRANCH  17  18
ENDBRANCH  16  17
BRANCH  16  21
HETATM   21  C   UNL     1      -8.148   5.616  65.322  1.00  0.00    -0.125 C  
BRANCH  21  22
HETATM   22  C   UNL     1      -9.184   4.588  64.818  1.00  0.00    -0.152 C  
HETATM   23  O   UNL     1     -10.459   4.853  65.399  1.00  0.00    -0.443 OA 
HETATM   24  H   UNL     1     -11.097   4.220  65.089  1.00  0.00     0.000 HD 
ENDBRANCH  21  22
ENDBRANCH  16  21
ENDBRANCH  15  16
ENDBRANCH   4  15
TORSDOF 6
ENDMDL
MODEL      223
REMARK 921   NORMALIZED FREE ENERGY PREDICTED BY IDOCK:   -2.96 KCAL/MOL
REMARK 922        TOTAL FREE ENERGY PREDICTED BY IDOCK:   -4.86 KCAL/MOL
REMARK 923 INTER-LIGAND FREE ENERGY PREDICTED BY IDOCK:   -4.05 KCAL/MOL
REMARK 924 INTRA-LIGAND FREE ENERGY PREDICTED BY IDOCK:   -0.81 KCAL/MOL
REMARK 927      BINDING AFFINITY PREDICTED BY RF-SCORE:    0.00 PKD
ROOT
HETATM    1  O   UNL     1     -10.730  11.716  63.033  1.00  0.00    -0.647 OA 
HETATM    2  H   UNL     1     -11.621  12.043  63.028  1.00  0.00     0.000 HD 
HETATM    3  O   UNL     2     -11.728  11.582  67.303  1.00  0.00    -0.576 OA 
HETATM    4  C   UNL     1     -10.287  11.273  64.311  1.00  0.00    -0.340 C  
HETATM    5  O   UNL     2      -9.038   9.353  69.460  1.00  0.00    -0.145 OA 
HETATM    6  C   UNL     2     -10.763  10.691  67.604  1.00  0.00    -0.267 C  
HETATM    7  C   UNL     2      -9.482  11.280  68.044  1.00  0.00    -0.173 A  
HETATM    8  O   UNL     2     -10.919   9.478  67.533  1.00  0.00    -0.241 OA 
HETATM    9  C   UNL     2      -6.982  12.276  68.805  1.00  0.00    -0.098 A  
HETATM   10  C   UNL     2      -8.687  10.572  68.954  1.00  0.00    -0.154 A  
HETATM   11  C   UNL     2      -7.464  11.090  69.361  1.00  0.00    -0.074 A  
HETATM   12  C   UNL     2      -8.996  12.470  67.491  1.00  0.00    -0.185 A  
HETATM   13  H   UNL     2      -8.498   8.872  70.077  1.00  0.00     0.000 HD 
HETATM   14  C   UNL     2      -7.740  12.954  67.853  1.00  0.00    -0.143 A  
ENDROOT
BRANCH   4  15
HETATM   15  C   UNL     1      -8.829  10.739  64.319  1.00  0.00    -0.114 C  
BRANCH  15  16
HETATM   16  N   UNL     1      -8.562   9.532  63.493  1.00  0.00    -0.200 NA 
BRANCH  16  17
HETATM   17  C   UNL     1      -7.583   9.790  62.397  1.00  0.00    -0.109 C  
BRANCH  17  18
HETATM   18  C   UNL     1      -6.076   9.621  62.656  1.00  0.00    -0.099 C  
HETATM   19  H   UNL     1      -4.553  10.654  63.422  1.00  0.00     0.000 HD 
HETATM   20  O   UNL     1      -5.484  10.759  63.262  1.00  0.00    -0.163 OA 
ENDBRANCH  17  18
ENDBRANCH  16  17
BRANCH  16  21
HETATM   21  C   UNL     1      -8.039   8.418  64.323  1.00  0.00    -0.151 C  
BRANCH  21  22
HETATM   22  C   UNL     1      -7.918   8.657  65.843  1.00  0.00    -0.105 C  
HETATM   23  O   UNL     1      -6.556   8.892  66.195  1.00  0.00    -0.064 OA 
HETATM   24  H   UNL     1      -6.482   9.040  67.131  1.00  0.00     0.000 HD 
ENDBRANCH  21  22
ENDBRANCH  16  21
ENDBRANCH  15  16
ENDBRANCH   4  15
TORSDOF 6
ENDMDL
MODEL      224
REMARK 921   NORMALIZED FREE ENERGY PREDICTED BY IDOCK:   -2.96 KCAL/MOL
REMARK 922        TOTAL FREE ENERGY PREDICTED BY IDOCK:   -4.85 KCAL/MOL
REMARK 923 INTER-LIGAND FREE ENERGY PREDICTED BY IDOCK:   -4.12 KCAL/MOL
REMARK 924 INTRA-LIGAND FREE ENERGY PREDICTED BY IDOCK:   -0.73 KCAL/MOL
REMARK 927      BINDING AFFINITY PREDICTED BY RF-SCORE:    0.00 PKD
ROOT
HETATM    1  O   UNL     1     -10.707  11.039  63.042  1.00  0.00    -0.786 OA 
HETATM    2  H   UNL     1     -11.648  11.163  63.057  1.00  0.00     0.000 HD 
HETATM    3  O   UNL     2     -11.487  11.244  67.354  1.00  0.00    -0.450 OA 
HETATM    4  C   UNL     1     -10.128  10.870  64.331  1.00  0.00    -0.339 C  
HETATM    5  O   UNL     2      -8.290   9.942  69.577  1.00  0.00    -0.137 OA 
HETATM    6  C   UNL     2     -10.338  10.628  67.694  1.00  0.00    -0.209 C  
HETATM    7  C   UNL     2      -9.204  11.530  67.977  1.00  0.00    -0.175 A  
HETATM    8  O   UNL     2     -10.224   9.411  67.776  1.00  0.00    -0.194 OA 
HETATM    9  C   UNL     2      -6.959  13.130  68.451  1.00  0.00    -0.104 A  
HETATM   10  C   UNL     2      -8.238  11.132  68.910  1.00  0.00    -0.104 A  
HETATM   11  C   UNL     2      -7.144  11.950  69.172  1.00  0.00    -0.053 A  
HETATM   12  C   UNL     2      -9.015  12.716  67.258  1.00  0.00    -0.194 A  
HETATM   13  H   UNL     2      -7.634   9.672  70.210  1.00  0.00     0.000 HD 
HETATM   14  C   UNL     2      -7.883  13.500  67.477  1.00  0.00    -0.184 A  
ENDROOT
BRANCH   4  15
HETATM   15  C   UNL     1      -8.589  10.667  64.307  1.00  0.00    -0.101 C  
BRANCH  15  16
HETATM   16  N   UNL     1      -8.045   9.622  65.214  1.00  0.00    -0.121 NA 
BRANCH  16  17
HETATM   17  C   UNL     1      -8.636   8.275  64.960  1.00  0.00    -0.075 C  
BRANCH  17  18
HETATM   18  C   UNL     1      -8.186   7.068  65.802  1.00  0.00    -0.132 C  
HETATM   19  H   UNL     1      -7.607   6.661  67.665  1.00  0.00     0.000 HD 
HETATM   20  O   UNL     1      -7.885   7.407  67.146  1.00  0.00    -0.112 OA 
ENDBRANCH  17  18
ENDBRANCH  16  17
BRANCH  16  21
HETATM   21  C   UNL     1      -6.571   9.510  65.082  1.00  0.00    -0.083 C  
BRANCH  21  22
HETATM   22  C   UNL     1      -5.704  10.237  66.132  1.00  0.00    -0.071 C  
HETATM   23  O   UNL     1      -5.474  11.586  65.728  1.00  0.00    -0.496 OA 
HETATM   24  H   UNL     1      -4.940  12.033  66.375  1.00  0.00     0.000 HD 
ENDBRANCH  21  22
ENDBRANCH  16  21
ENDBRANCH  15  16
ENDBRANCH   4  15
TORSDOF 6
ENDMDL
MODEL      225
REMARK 921   NORMALIZED FREE ENERGY PREDICTED BY IDOCK:   -2.95 KCAL/MOL
REMARK 922        TOTAL FREE ENERGY PREDICTED BY IDOCK:   -4.85 KCAL/MOL
REMARK 923 INTER-LIGAND FREE ENERGY PREDICTED BY IDOCK:   -4.21 KCAL/MOL
REMARK 924 INTRA-LIGAND FREE ENERGY PREDICTED BY IDOCK:   -0.64 KCAL/MOL
REMARK 927      BINDING AFFINITY PREDICTED BY RF-SCORE:    0.00 PKD
ROOT
HETATM    1  O   UNL     1      -6.359   6.838  66.205  1.00  0.00    -0.046 OA 
HETATM    2  H   UNL     1      -6.541   7.219  65.355  1.00  0.00     0.000 HD 
HETATM    3  O   UNL     2     -10.461   8.288  66.763  1.00  0.00    -0.318 OA 
HETATM    4  C   UNL     1      -7.479   6.830  67.083  1.00  0.00    -0.091 C  
HETATM    5  O   UNL     2     -12.221   6.721  70.126  1.00  0.00    -0.634 OA 
HETATM    6  C   UNL     2     -10.714   7.477  67.808  1.00  0.00    -0.163 C  
HETATM    7  C   UNL     2     -10.451   8.066  69.136  1.00  0.00    -0.217 A  
HETATM    8  O   UNL     2     -11.138   6.333  67.688  1.00  0.00    -0.341 OA 
HETATM    9  C   UNL     2      -9.909   9.040  71.702  1.00  0.00    -0.366 A  
HETATM   10  C   UNL     2     -11.226   7.652  70.227  1.00  0.00    -0.216 A  
HETATM   11  C   UNL     2     -10.980   8.170  71.494  1.00  0.00    -0.294 A  
HETATM   12  C   UNL     2      -9.380   8.941  69.350  1.00  0.00    -0.153 A  
HETATM   13  H   UNL     2     -12.746   6.441  70.866  1.00  0.00     0.000 HD 
HETATM   14  C   UNL     2      -9.096   9.407  70.632  1.00  0.00    -0.292 A  
ENDROOT
BRANCH   4  15
HETATM   15  C   UNL     1      -7.182   6.205  68.473  1.00  0.00    -0.084 C  
BRANCH  15  16
HETATM   16  N   UNL     1      -7.653   4.812  68.687  1.00  0.00    -0.069 NA 
BRANCH  16  17
HETATM   17  C   UNL     1      -8.717   4.718  69.729  1.00  0.00    -0.081 C  
BRANCH  17  18
HETATM   18  C   UNL     1      -8.385   4.144  71.117  1.00  0.00    -0.084 C  
HETATM   19  H   UNL     1      -7.719   4.772  72.887  1.00  0.00     0.000 HD 
HETATM   20  O   UNL     1      -7.924   5.126  72.030  1.00  0.00    -0.107 OA 
ENDBRANCH  17  18
ENDBRANCH  16  17
BRANCH  16  21
HETATM   21  C   UNL     1      -8.187   4.227  67.431  1.00  0.00    -0.099 C  
BRANCH  21  22
HETATM   22  C   UNL     1      -9.468   3.371  67.531  1.00  0.00    -0.180 C  
HETATM   23  O   UNL     1      -9.507   2.423  66.467  1.00  0.00    -0.370 OA 
HETATM   24  H   UNL     1     -10.296   1.896  66.528  1.00  0.00     0.000 HD 
ENDBRANCH  21  22
ENDBRANCH  16  21
ENDBRANCH  15  16
ENDBRANCH   4  15
TORSDOF 6
ENDMDL
MODEL      226
REMARK 921   NORMALIZED FREE ENERGY PREDICTED BY IDOCK:   -2.91 KCAL/MOL
REMARK 922        TOTAL FREE ENERGY PREDICTED BY IDOCK:   -4.79 KCAL/MOL
REMARK 923 INTER-LIGAND FREE ENERGY PREDICTED BY IDOCK:   -4.48 KCAL/MOL
REMARK 924 INTRA-LIGAND FREE ENERGY PREDICTED BY IDOCK:   -0.31 KCAL/MOL
REMARK 927      BINDING AFFINITY PREDICTED BY RF-SCORE:    0.00 PKD
ROOT
HETATM    1  O   UNL     1     -12.668  14.169  67.139  1.00  0.00    -0.456 OA 
HETATM    2  H   UNL     1     -13.377  13.667  67.523  1.00  0.00     0.000 HD 
HETATM    3  O   UNL     2     -10.918  10.148  67.262  1.00  0.00    -0.266 OA 
HETATM    4  C   UNL     1     -11.561  13.376  66.724  1.00  0.00    -0.365 C  
HETATM    5  O   UNL     2      -7.533   9.854  64.957  1.00  0.00    -0.122 OA 
HETATM    6  C   UNL     2      -9.989  10.414  66.324  1.00  0.00    -0.226 C  
HETATM    7  C   UNL     2      -8.684  10.868  66.844  1.00  0.00    -0.144 A  
HETATM    8  O   UNL     2     -10.189  10.286  65.121  1.00  0.00    -0.314 OA 
HETATM    9  C   UNL     2      -6.200  11.822  67.705  1.00  0.00    -0.061 A  
HETATM   10  C   UNL     2      -7.522  10.559  66.126  1.00  0.00    -0.136 A  
HETATM   11  C   UNL     2      -6.285  11.001  66.580  1.00  0.00    -0.133 A  
HETATM   12  C   UNL     2      -8.594  11.690  67.974  1.00  0.00    -0.152 A  
HETATM   13  H   UNL     2      -6.744   9.645  64.470  1.00  0.00     0.000 HD 
HETATM   14  C   UNL     2      -7.358  12.185  68.388  1.00  0.00    -0.108 A  
ENDROOT
BRANCH   4  15
HETATM   15  C   UNL     1     -10.403  14.197  66.095  1.00  0.00    -0.300 C  
BRANCH  15  16
HETATM   16  N   UNL     1      -9.822  15.275  66.937  1.00  0.00    -0.231 NA 
BRANCH  16  17
HETATM   17  C   UNL     1      -8.514  15.770  66.416  1.00  0.00    -0.278 C  
BRANCH  17  18
HETATM   18  C   UNL     1      -7.434  16.263  67.395  1.00  0.00    -0.161 C  
HETATM   19  H   UNL     1      -5.448  16.371  67.517  1.00  0.00     0.000 HD 
HETATM   20  O   UNL     1      -6.115  16.067  66.913  1.00  0.00    -0.318 OA 
ENDBRANCH  17  18
ENDBRANCH  16  17
BRANCH  16  21
HETATM   21  C   UNL     1     -10.745  16.433  67.039  1.00  0.00    -0.217 C  
BRANCH  21  22
HETATM   22  C   UNL     1     -11.018  17.005  68.447  1.00  0.00    -0.263 C  
HETATM   23  O   UNL     1     -10.619  16.065  69.443  1.00  0.00    -0.232 OA 
HETATM   24  H   UNL     1     -10.787  16.417  70.310  1.00  0.00     0.000 HD 
ENDBRANCH  21  22
ENDBRANCH  16  21
ENDBRANCH  15  16
ENDBRANCH   4  15
TORSDOF 6
ENDMDL
MODEL      227
REMARK 921   NORMALIZED FREE ENERGY PREDICTED BY IDOCK:   -2.89 KCAL/MOL
REMARK 922        TOTAL FREE ENERGY PREDICTED BY IDOCK:   -4.77 KCAL/MOL
REMARK 923 INTER-LIGAND FREE ENERGY PREDICTED BY IDOCK:   -4.00 KCAL/MOL
REMARK 924 INTRA-LIGAND FREE ENERGY PREDICTED BY IDOCK:   -0.76 KCAL/MOL
REMARK 927      BINDING AFFINITY PREDICTED BY RF-SCORE:    0.00 PKD
ROOT
HETATM    1  O   UNL     1     -13.516   7.093  71.443  1.00  0.00    -0.384 OA 
HETATM    2  H   UNL     1     -14.108   7.775  71.150  1.00  0.00     0.000 HD 
HETATM    3  O   UNL     2     -10.805   9.667  69.148  1.00  0.00    -0.220 OA 
HETATM    4  C   UNL     1     -12.153   7.332  71.111  1.00  0.00    -0.340 C  
HETATM    5  O   UNL     2      -6.856   8.802  69.869  1.00  0.00    -0.041 OA 
HETATM    6  C   UNL     2      -9.692   9.200  69.745  1.00  0.00    -0.181 C  
HETATM    7  C   UNL     2      -9.029   8.080  69.047  1.00  0.00    -0.145 A  
HETATM    8  O   UNL     2      -9.242   9.660  70.788  1.00  0.00    -0.193 OA 
HETATM    9  C   UNL     2      -7.733   5.902  67.864  1.00  0.00    -0.100 A  
HETATM   10  C   UNL     2      -7.639   7.945  69.149  1.00  0.00    -0.098 A  
HETATM   11  C   UNL     2      -6.994   6.883  68.525  1.00  0.00    -0.076 A  
HETATM   12  C   UNL     2      -9.766   7.094  68.380  1.00  0.00    -0.143 A  
HETATM   13  H   UNL     2      -5.913   8.710  69.938  1.00  0.00     0.000 HD 
HETATM   14  C   UNL     2      -9.122   5.997  67.812  1.00  0.00    -0.109 A  
ENDROOT
BRANCH   4  15
HETATM   15  C   UNL     1     -11.186   6.216  71.589  1.00  0.00    -0.286 C  
BRANCH  15  16
HETATM   16  N   UNL     1     -10.880   6.184  73.044  1.00  0.00    -0.249 NA 
BRANCH  16  17
HETATM   17  C   UNL     1     -10.050   5.006  73.432  1.00  0.00    -0.165 C  
BRANCH  17  18
HETATM   18  C   UNL     1     -10.676   3.861  74.247  1.00  0.00    -0.171 C  
HETATM   19  H   UNL     1     -11.785   2.232  73.951  1.00  0.00     0.000 HD 
HETATM   20  O   UNL     1     -11.399   2.939  73.447  1.00  0.00    -0.195 OA 
ENDBRANCH  17  18
ENDBRANCH  16  17
BRANCH  16  21
HETATM   21  C   UNL     1     -10.162   7.412  73.468  1.00  0.00    -0.349 C  
BRANCH  21  22
HETATM   22  C   UNL     1      -8.640   7.472  73.214  1.00  0.00    -0.157 C  
HETATM   23  O   UNL     1      -8.179   8.818  73.314  1.00  0.00    -0.402 OA 
HETATM   24  H   UNL     1      -7.242   8.854  73.157  1.00  0.00     0.000 HD 
ENDBRANCH  21  22
ENDBRANCH  16  21
ENDBRANCH  15  16
ENDBRANCH   4  15
TORSDOF 6
ENDMDL
MODEL      228
REMARK 921   NORMALIZED FREE ENERGY PREDICTED BY IDOCK:   -2.89 KCAL/MOL
REMARK 922        TOTAL FREE ENERGY PREDICTED BY IDOCK:   -4.76 KCAL/MOL
REMARK 923 INTER-LIGAND FREE ENERGY PREDICTED BY IDOCK:   -4.15 KCAL/MOL
REMARK 924 INTRA-LIGAND FREE ENERGY PREDICTED BY IDOCK:   -0.61 KCAL/MOL
REMARK 927      BINDING AFFINITY PREDICTED BY RF-SCORE:    0.00 PKD
ROOT
HETATM    1  O   UNL     1      -8.792   7.951  74.222  1.00  0.00    -0.407 OA 
HETATM    2  H   UNL     1      -9.462   8.278  74.810  1.00  0.00     0.000 HD 
HETATM    3  O   UNL     2     -11.823   9.359  71.381  1.00  0.00    -0.319 OA 
HETATM    4  C   UNL     1      -9.061   8.197  72.847  1.00  0.00    -0.267 C  
HETATM    5  O   UNL     2     -10.358   9.638  67.555  1.00  0.00    -0.209 OA 
HETATM    6  C   UNL     2     -10.960   9.453  70.351  1.00  0.00    -0.266 C  
HETATM    7  C   UNL     2     -10.878   8.257  69.489  1.00  0.00    -0.124 A  
HETATM    8  O   UNL     2     -10.287  10.453  70.124  1.00  0.00    -0.218 OA 
HETATM    9  C   UNL     2     -10.573   6.021  67.837  1.00  0.00    -0.337 A  
HETATM   10  C   UNL     2     -10.581   8.419  68.131  1.00  0.00    -0.118 A  
HETATM   11  C   UNL     2     -10.470   7.307  67.304  1.00  0.00    -0.380 A  
HETATM   12  C   UNL     2     -10.983   6.966  70.019  1.00  0.00    -0.320 A  
HETATM   13  H   UNL     2     -10.156   9.747  66.633  1.00  0.00     0.000 HD 
HETATM   14  C   UNL     2     -10.806   5.852  69.199  1.00  0.00    -0.406 A  
ENDROOT
BRANCH   4  15
HETATM   15  C   UNL     1      -7.964   7.663  71.887  1.00  0.00    -0.096 C  
BRANCH  15  16
HETATM   16  N   UNL     1      -6.879   6.858  72.506  1.00  0.00    -0.062 NA 
BRANCH  16  17
HETATM   17  C   UNL     1      -6.760   5.496  71.908  1.00  0.00    -0.058 C  
BRANCH  17  18
HETATM   18  C   UNL     1      -7.592   5.125  70.668  1.00  0.00    -0.071 C  
HETATM   19  H   UNL     1      -8.912   3.745  70.097  1.00  0.00     0.000 HD 
HETATM   20  O   UNL     1      -8.399   3.974  70.863  1.00  0.00    -0.069 OA 
ENDBRANCH  17  18
ENDBRANCH  16  17
BRANCH  16  21
HETATM   21  C   UNL     1      -5.564   7.535  72.370  1.00  0.00    -0.036 C  
BRANCH  21  22
HETATM   22  C   UNL     1      -5.555   9.079  72.366  1.00  0.00    -0.069 C  
HETATM   23  O   UNL     1      -5.837   9.574  73.674  1.00  0.00    -0.319 OA 
HETATM   24  H   UNL     1      -5.831  10.524  73.671  1.00  0.00     0.000 HD 
ENDBRANCH  21  22
ENDBRANCH  16  21
ENDBRANCH  15  16
ENDBRANCH   4  15
TORSDOF 6
ENDMDL
MODEL      229
REMARK 921   NORMALIZED FREE ENERGY PREDICTED BY IDOCK:   -2.89 KCAL/MOL
REMARK 922        TOTAL FREE ENERGY PREDICTED BY IDOCK:   -4.76 KCAL/MOL
REMARK 923 INTER-LIGAND FREE ENERGY PREDICTED BY IDOCK:   -4.54 KCAL/MOL
REMARK 924 INTRA-LIGAND FREE ENERGY PREDICTED BY IDOCK:   -0.22 KCAL/MOL
REMARK 927      BINDING AFFINITY PREDICTED BY RF-SCORE:    0.00 PKD
ROOT
HETATM    1  O   UNL     1      -6.494  12.587  66.622  1.00  0.00    -0.445 OA 
HETATM    2  H   UNL     1      -6.619  12.072  65.834  1.00  0.00     0.000 HD 
HETATM    3  O   UNL     2     -10.678  11.341  67.055  1.00  0.00    -0.233 OA 
HETATM    4  C   UNL     1      -7.608  12.563  67.507  1.00  0.00    -0.156 C  
HETATM    5  O   UNL     2     -12.101  11.963  70.855  1.00  0.00    -0.388 OA 
HETATM    6  C   UNL     2     -10.708  11.550  68.385  1.00  0.00    -0.208 C  
HETATM    7  C   UNL     2     -11.187  12.885  68.798  1.00  0.00    -0.323 A  
HETATM    8  O   UNL     2     -10.375  10.706  69.208  1.00  0.00    -0.207 OA 
HETATM    9  C   UNL     2     -11.993  15.406  69.700  1.00  0.00    -0.366 A  
HETATM   10  C   UNL     2     -11.862  13.015  70.018  1.00  0.00    -0.285 A  
HETATM   11  C   UNL     2     -12.296  14.265  70.444  1.00  0.00    -0.419 A  
HETATM   12  C   UNL     2     -10.887  14.032  68.055  1.00  0.00    -0.257 A  
HETATM   13  H   UNL     2     -12.559  12.052  71.683  1.00  0.00     0.000 HD 
HETATM   14  C   UNL     2     -11.268  15.291  68.517  1.00  0.00    -0.308 A  
ENDROOT
BRANCH   4  15
HETATM   15  C   UNL     1      -7.403  13.404  68.797  1.00  0.00    -0.076 C  
BRANCH  15  16
HETATM   16  N   UNL     1      -7.137  14.854  68.606  1.00  0.00    -0.105 NA 
BRANCH  16  17
HETATM   17  C   UNL     1      -8.149  15.513  67.728  1.00  0.00    -0.141 C  
BRANCH  17  18
HETATM   18  C   UNL     1      -7.708  16.180  66.413  1.00  0.00    -0.094 C  
HETATM   19  H   UNL     1      -6.189  17.261  65.707  1.00  0.00     0.000 HD 
HETATM   20  O   UNL     1      -6.461  16.849  66.519  1.00  0.00    -0.215 OA 
ENDBRANCH  17  18
ENDBRANCH  16  17
BRANCH  16  21
HETATM   21  C   UNL     1      -7.118  15.572  69.904  1.00  0.00    -0.047 C  
BRANCH  21  22
HETATM   22  C   UNL     1      -6.137  16.756  70.050  1.00  0.00    -0.139 C  
HETATM   23  O   UNL     1      -5.211  16.760  68.965  1.00  0.00    -0.125 OA 
HETATM   24  H   UNL     1      -4.607  17.488  69.055  1.00  0.00     0.000 HD 
ENDBRANCH  21  22
ENDBRANCH  16  21
ENDBRANCH  15  16
ENDBRANCH   4  15
TORSDOF 6
ENDMDL
MODEL      230
REMARK 921   NORMALIZED FREE ENERGY PREDICTED BY IDOCK:   -2.87 KCAL/MOL
REMARK 922        TOTAL FREE ENERGY PREDICTED BY IDOCK:   -4.74 KCAL/MOL
REMARK 923 INTER-LIGAND FREE ENERGY PREDICTED BY IDOCK:   -5.42 KCAL/MOL
REMARK 924 INTRA-LIGAND FREE ENERGY PREDICTED BY IDOCK:    0.68 KCAL/MOL
REMARK 927      BINDING AFFINITY PREDICTED BY RF-SCORE:    0.00 PKD
ROOT
HETATM    1  O   UNL     1     -13.034  16.076  69.594  1.00  0.00    -0.484 OA 
HETATM    2  H   UNL     1     -13.309  16.758  68.993  1.00  0.00     0.000 HD 
HETATM    3  O   UNL     2      -9.394  16.658  67.216  1.00  0.00    -0.225 OA 
HETATM    4  C   UNL     1     -11.657  15.736  69.486  1.00  0.00    -0.363 C  
HETATM    5  O   UNL     2      -6.108  14.909  68.947  1.00  0.00    -0.084 OA 
HETATM    6  C   UNL     2      -8.582  16.110  68.139  1.00  0.00    -0.177 C  
HETATM    7  C   UNL     2      -8.321  14.666  67.967  1.00  0.00    -0.146 A  
HETATM    8  O   UNL     2      -8.079  16.745  69.058  1.00  0.00    -0.238 OA 
HETATM    9  C   UNL     2      -7.823  11.919  67.796  1.00  0.00    -0.138 A  
HETATM   10  C   UNL     2      -7.090  14.145  68.383  1.00  0.00    -0.104 A  
HETATM   11  C   UNL     2      -6.831  12.785  68.259  1.00  0.00    -0.090 A  
HETATM   12  C   UNL     2      -9.312  13.794  67.501  1.00  0.00    -0.222 A  
HETATM   13  H   UNL     2      -5.273  14.555  69.230  1.00  0.00     0.000 HD 
HETATM   14  C   UNL     2      -9.071  12.423  67.439  1.00  0.00    -0.183 A  
ENDROOT
BRANCH   4  15
HETATM   15  C   UNL     1     -11.206  14.621  70.469  1.00  0.00    -0.099 C  
BRANCH  15  16
HETATM   16  N   UNL     1     -12.021  14.458  71.702  1.00  0.00    -0.269 NA 
BRANCH  16  17
HETATM   17  C   UNL     1     -12.832  15.669  72.020  1.00  0.00    -0.443 C  
BRANCH  17  18
HETATM   18  C   UNL     1     -13.375  15.878  73.445  1.00  0.00    -0.510 C  
HETATM   19  H   UNL     1     -12.787  16.657  75.183  1.00  0.00     0.000 HD 
HETATM   20  O   UNL     1     -12.451  16.528  74.303  1.00  0.00    -0.683 OA 
ENDBRANCH  17  18
ENDBRANCH  16  17
BRANCH  16  21
HETATM   21  C   UNL     1     -12.947  13.303  71.585  1.00  0.00    -0.349 C  
BRANCH  21  22
HETATM   22  C   UNL     1     -12.445  12.063  70.814  1.00  0.00    -0.279 C  
HETATM   23  O   UNL     1     -12.498  10.910  71.652  1.00  0.00    -0.335 OA 
HETATM   24  H   UNL     1     -12.189  10.147  71.178  1.00  0.00     0.000 HD 
ENDBRANCH  21  22
ENDBRANCH  16  21
ENDBRANCH  15  16
ENDBRANCH   4  15
TORSDOF 6
ENDMDL
MODEL      231
REMARK 921   NORMALIZED FREE ENERGY PREDICTED BY IDOCK:   -2.87 KCAL/MOL
REMARK 922        TOTAL FREE ENERGY PREDICTED BY IDOCK:   -4.74 KCAL/MOL
REMARK 923 INTER-LIGAND FREE ENERGY PREDICTED BY IDOCK:   -4.08 KCAL/MOL
REMARK 924 INTRA-LIGAND FREE ENERGY PREDICTED BY IDOCK:   -0.65 KCAL/MOL
REMARK 927      BINDING AFFINITY PREDICTED BY RF-SCORE:    0.00 PKD
ROOT
HETATM    1  O   UNL     1     -10.348  10.466  65.014  1.00  0.00    -0.306 OA 
HETATM    2  H   UNL     1      -9.807  10.607  64.247  1.00  0.00     0.000 HD 
HETATM    3  O   UNL     2      -7.047   7.675  65.758  1.00  0.00    -0.059 OA 
HETATM    4  C   UNL     1      -9.770   9.590  65.974  1.00  0.00    -0.272 C  
HETATM    5  O   UNL     2      -6.998   6.321  69.634  1.00  0.00    -0.066 OA 
HETATM    6  C   UNL     2      -7.278   7.596  67.083  1.00  0.00    -0.090 C  
HETATM    7  C   UNL     2      -8.155   6.484  67.500  1.00  0.00    -0.121 A  
HETATM    8  O   UNL     2      -6.799   8.375  67.899  1.00  0.00    -0.064 OA 
HETATM    9  C   UNL     2      -9.873   4.470  68.404  1.00  0.00    -0.153 A  
HETATM   10  C   UNL     2      -7.963   5.905  68.761  1.00  0.00    -0.103 A  
HETATM   11  C   UNL     2      -8.794   4.877  69.190  1.00  0.00    -0.118 A  
HETATM   12  C   UNL     2      -9.238   6.071  66.715  1.00  0.00    -0.143 A  
HETATM   13  H   UNL     2      -6.868   5.928  70.489  1.00  0.00     0.000 HD 
HETATM   14  C   UNL     2     -10.108   5.085  67.176  1.00  0.00    -0.239 A  
ENDROOT
BRANCH   4  15
HETATM   15  C   UNL     1     -10.655   9.360  67.229  1.00  0.00    -0.244 C  
BRANCH  15  16
HETATM   16  N   UNL     1     -10.629  10.428  68.261  1.00  0.00    -0.197 NA 
BRANCH  16  17
HETATM   17  C   UNL     1     -11.639  11.497  68.008  1.00  0.00    -0.300 C  
BRANCH  17  18
HETATM   18  C   UNL     1     -11.188  12.961  67.855  1.00  0.00    -0.269 C  
HETATM   19  H   UNL     1     -10.176  14.098  66.569  1.00  0.00     0.000 HD 
HETATM   20  O   UNL     1     -10.454  13.195  66.664  1.00  0.00    -0.271 OA 
ENDBRANCH  17  18
ENDBRANCH  16  17
BRANCH  16  21
HETATM   21  C   UNL     1     -10.877   9.873  69.615  1.00  0.00    -0.253 C  
BRANCH  21  22
HETATM   22  C   UNL     1     -12.084  10.427  70.403  1.00  0.00    -0.315 C  
HETATM   23  O   UNL     1     -12.890   9.353  70.884  1.00  0.00    -0.499 OA 
HETATM   24  H   UNL     1     -13.632   9.695  71.369  1.00  0.00     0.000 HD 
ENDBRANCH  21  22
ENDBRANCH  16  21
ENDBRANCH  15  16
ENDBRANCH   4  15
TORSDOF 6
ENDMDL
MODEL      232
REMARK 921   NORMALIZED FREE ENERGY PREDICTED BY IDOCK:   -2.87 KCAL/MOL
REMARK 922        TOTAL FREE ENERGY PREDICTED BY IDOCK:   -4.73 KCAL/MOL
REMARK 923 INTER-LIGAND FREE ENERGY PREDICTED BY IDOCK:   -4.02 KCAL/MOL
REMARK 924 INTRA-LIGAND FREE ENERGY PREDICTED BY IDOCK:   -0.71 KCAL/MOL
REMARK 927      BINDING AFFINITY PREDICTED BY RF-SCORE:    0.00 PKD
ROOT
HETATM    1  O   UNL     1      -6.275  10.201  69.420  1.00  0.00    -0.043 OA 
HETATM    2  H   UNL     1      -5.458  10.295  69.893  1.00  0.00     0.000 HD 
HETATM    3  O   UNL     2      -7.122   7.930  73.076  1.00  0.00    -0.078 OA 
HETATM    4  C   UNL     1      -7.294   9.536  70.159  1.00  0.00    -0.124 C  
HETATM    5  O   UNL     2     -11.126   7.138  73.524  1.00  0.00    -0.564 OA 
HETATM    6  C   UNL     2      -8.459   8.009  72.937  1.00  0.00    -0.186 C  
HETATM    7  C   UNL     2      -9.084   6.873  72.229  1.00  0.00    -0.143 A  
HETATM    8  O   UNL     2      -9.128   8.942  73.365  1.00  0.00    -0.012 OA 
HETATM    9  C   UNL     2     -10.369   4.823  70.828  1.00  0.00    -0.184 A  
HETATM   10  C   UNL     2     -10.391   6.499  72.566  1.00  0.00    -0.194 A  
HETATM   11  C   UNL     2     -11.011   5.453  71.894  1.00  0.00    -0.219 A  
HETATM   12  C   UNL     2      -8.443   6.236  71.160  1.00  0.00    -0.124 A  
HETATM   13  H   UNL     2     -12.013   6.884  73.752  1.00  0.00     0.000 HD 
HETATM   14  C   UNL     2      -9.094   5.231  70.446  1.00  0.00    -0.173 A  
ENDROOT
BRANCH   4  15
HETATM   15  C   UNL     1      -8.632   9.383  69.385  1.00  0.00    -0.148 C  
BRANCH  15  16
HETATM   16  N   UNL     1      -9.539  10.560  69.394  1.00  0.00    -0.187 NA 
BRANCH  16  17
HETATM   17  C   UNL     1      -9.384  11.416  68.182  1.00  0.00    -0.181 C  
BRANCH  17  18
HETATM   18  C   UNL     1     -10.468  12.448  67.825  1.00  0.00    -0.218 C  
HETATM   19  H   UNL     1     -11.102  14.238  68.430  1.00  0.00     0.000 HD 
HETATM   20  O   UNL     1     -10.432  13.601  68.650  1.00  0.00    -0.240 OA 
ENDBRANCH  17  18
ENDBRANCH  16  17
BRANCH  16  21
HETATM   21  C   UNL     1     -10.961  10.141  69.482  1.00  0.00    -0.256 C  
BRANCH  21  22
HETATM   22  C   UNL     1     -11.797  10.699  70.653  1.00  0.00    -0.363 C  
HETATM   23  O   UNL     1     -11.851   9.747  71.714  1.00  0.00    -0.383 OA 
HETATM   24  H   UNL     1     -12.366  10.090  72.435  1.00  0.00     0.000 HD 
ENDBRANCH  21  22
ENDBRANCH  16  21
ENDBRANCH  15  16
ENDBRANCH   4  15
TORSDOF 6
ENDMDL
MODEL      233
REMARK 921   NORMALIZED FREE ENERGY PREDICTED BY IDOCK:   -2.85 KCAL/MOL
REMARK 922        TOTAL FREE ENERGY PREDICTED BY IDOCK:   -4.71 KCAL/MOL
REMARK 923 INTER-LIGAND FREE ENERGY PREDICTED BY IDOCK:   -4.02 KCAL/MOL
REMARK 924 INTRA-LIGAND FREE ENERGY PREDICTED BY IDOCK:   -0.69 KCAL/MOL
REMARK 927      BINDING AFFINITY PREDICTED BY RF-SCORE:    0.00 PKD
ROOT
HETATM    1  O   UNL     1      -8.457  14.673  66.679  1.00  0.00    -0.409 OA 
HETATM    2  H   UNL     1      -7.668  15.138  66.429  1.00  0.00     0.000 HD 
HETATM    3  O   UNL     2      -5.363  12.213  68.581  1.00  0.00    -0.050 OA 
HETATM    4  C   UNL     1      -8.228  13.591  67.574  1.00  0.00    -0.183 C  
HETATM    5  O   UNL     2      -6.926   9.600  71.335  1.00  0.00    -0.325 OA 
HETATM    6  C   UNL     2      -6.210  11.647  69.461  1.00  0.00    -0.113 C  
HETATM    7  C   UNL     2      -6.797  10.363  69.029  1.00  0.00    -0.064 A  
HETATM    8  O   UNL     2      -6.482  12.141  70.549  1.00  0.00    -0.071 OA 
HETATM    9  C   UNL     2      -8.041   7.971  68.284  1.00  0.00    -0.126 A  
HETATM   10  C   UNL     2      -7.124   9.406  69.997  1.00  0.00    -0.083 A  
HETATM   11  C   UNL     2      -7.705   8.201  69.619  1.00  0.00    -0.101 A  
HETATM   12  C   UNL     2      -7.135  10.127  67.691  1.00  0.00    -0.086 A  
HETATM   13  H   UNL     2      -7.148   8.951  71.992  1.00  0.00     0.000 HD 
HETATM   14  C   UNL     2      -7.776   8.945  67.324  1.00  0.00    -0.092 A  
ENDROOT
BRANCH   4  15
HETATM   15  C   UNL     1      -9.519  12.831  67.984  1.00  0.00    -0.213 C  
BRANCH  15  16
HETATM   16  N   UNL     1     -10.089  11.903  66.972  1.00  0.00    -0.204 NA 
BRANCH  16  17
HETATM   17  C   UNL     1     -10.867  10.788  67.588  1.00  0.00    -0.279 C  
BRANCH  17  18
HETATM   18  C   UNL     1     -10.805  10.555  69.108  1.00  0.00    -0.237 C  
HETATM   19  H   UNL     1     -11.904  10.911  70.732  1.00  0.00     0.000 HD 
HETATM   20  O   UNL     1     -11.942  11.054  69.794  1.00  0.00    -0.301 OA 
ENDBRANCH  17  18
ENDBRANCH  16  17
BRANCH  16  21
HETATM   21  C   UNL     1     -10.982  12.620  66.028  1.00  0.00    -0.282 C  
BRANCH  21  22
HETATM   22  C   UNL     1     -12.175  13.397  66.626  1.00  0.00    -0.334 C  
HETATM   23  O   UNL     1     -12.715  14.289  65.652  1.00  0.00    -0.471 OA 
HETATM   24  H   UNL     1     -13.449  14.768  66.020  1.00  0.00     0.000 HD 
ENDBRANCH  21  22
ENDBRANCH  16  21
ENDBRANCH  15  16
ENDBRANCH   4  15
TORSDOF 6
ENDMDL
MODEL      234
REMARK 921   NORMALIZED FREE ENERGY PREDICTED BY IDOCK:   -2.85 KCAL/MOL
REMARK 922        TOTAL FREE ENERGY PREDICTED BY IDOCK:   -4.71 KCAL/MOL
REMARK 923 INTER-LIGAND FREE ENERGY PREDICTED BY IDOCK:   -4.13 KCAL/MOL
REMARK 924 INTRA-LIGAND FREE ENERGY PREDICTED BY IDOCK:   -0.58 KCAL/MOL
REMARK 927      BINDING AFFINITY PREDICTED BY RF-SCORE:    0.00 PKD
ROOT
HETATM    1  O   UNL     1      -8.783  10.064  70.059  1.00  0.00    -0.308 OA 
HETATM    2  H   UNL     1      -9.449  10.220  70.717  1.00  0.00     0.000 HD 
HETATM    3  O   UNL     2     -11.337   6.531  69.566  1.00  0.00    -0.362 OA 
HETATM    4  C   UNL     1      -9.033   8.922  69.247  1.00  0.00    -0.144 C  
HETATM    5  O   UNL     2     -10.548   4.515  66.077  1.00  0.00    -0.419 OA 
HETATM    6  C   UNL     2     -10.901   6.264  68.320  1.00  0.00    -0.319 C  
HETATM    7  C   UNL     2      -9.774   5.313  68.241  1.00  0.00    -0.185 A  
HETATM    8  O   UNL     2     -11.394   6.757  67.313  1.00  0.00    -0.300 OA 
HETATM    9  C   UNL     2      -7.586   3.593  67.968  1.00  0.00    -0.065 A  
HETATM   10  C   UNL     2      -9.662   4.487  67.116  1.00  0.00    -0.197 A  
HETATM   11  C   UNL     2      -8.594   3.604  67.004  1.00  0.00    -0.113 A  
HETATM   12  C   UNL     2      -8.761   5.297  69.207  1.00  0.00    -0.108 A  
HETATM   13  H   UNL     2     -10.472   3.954  65.314  1.00  0.00     0.000 HD 
HETATM   14  C   UNL     2      -7.659   4.457  69.058  1.00  0.00    -0.055 A  
ENDROOT
BRANCH   4  15
HETATM   15  C   UNL     1      -7.944   8.666  68.171  1.00  0.00    -0.107 C  
BRANCH  15  16
HETATM   16  N   UNL     1      -8.087   9.413  66.894  1.00  0.00    -0.108 NA 
BRANCH  16  17
HETATM   17  C   UNL     1      -9.513   9.676  66.539  1.00  0.00    -0.181 C  
BRANCH  17  18
HETATM   18  C   UNL     1      -9.878  10.134  65.116  1.00  0.00    -0.325 C  
HETATM   19  H   UNL     1     -10.481  11.783  64.171  1.00  0.00     0.000 HD 
HETATM   20  O   UNL     1     -10.255  11.500  65.050  1.00  0.00    -0.252 OA 
ENDBRANCH  17  18
ENDBRANCH  16  17
BRANCH  16  21
HETATM   21  C   UNL     1      -7.379  10.716  66.952  1.00  0.00    -0.114 C  
BRANCH  21  22
HETATM   22  C   UNL     1      -6.128  10.888  66.064  1.00  0.00    -0.122 C  
HETATM   23  O   UNL     1      -6.459  10.640  64.698  1.00  0.00    -0.350 OA 
HETATM   24  H   UNL     1      -5.689  10.745  64.152  1.00  0.00     0.000 HD 
ENDBRANCH  21  22
ENDBRANCH  16  21
ENDBRANCH  15  16
ENDBRANCH   4  15
TORSDOF 6
ENDMDL
MODEL      235
REMARK 921   NORMALIZED FREE ENERGY PREDICTED BY IDOCK:   -2.84 KCAL/MOL
REMARK 922        TOTAL FREE ENERGY PREDICTED BY IDOCK:   -4.69 KCAL/MOL
REMARK 923 INTER-LIGAND FREE ENERGY PREDICTED BY IDOCK:   -3.93 KCAL/MOL
REMARK 924 INTRA-LIGAND FREE ENERGY PREDICTED BY IDOCK:   -0.76 KCAL/MOL
REMARK 927      BINDING AFFINITY PREDICTED BY RF-SCORE:    0.00 PKD
ROOT
HETATM    1  O   UNL     1     -10.463   9.819  71.420  1.00  0.00    -0.208 OA 
HETATM    2  H   UNL     1     -10.299  10.548  72.006  1.00  0.00     0.000 HD 
HETATM    3  O   UNL     2      -8.241  12.553  68.807  1.00  0.00    -0.032 OA 
HETATM    4  C   UNL     1      -9.831   9.949  70.152  1.00  0.00    -0.219 C  
HETATM    5  O   UNL     2      -6.926  10.708  65.382  1.00  0.00    -0.283 OA 
HETATM    6  C   UNL     2      -7.879  11.590  67.938  1.00  0.00    -0.123 C  
HETATM    7  C   UNL     2      -8.784  11.414  66.785  1.00  0.00    -0.174 A  
HETATM    8  O   UNL     2      -6.872  10.905  68.071  1.00  0.00    -0.066 OA 
HETATM    9  C   UNL     2     -10.469  10.928  64.606  1.00  0.00    -0.384 A  
HETATM   10  C   UNL     2      -8.252  10.981  65.564  1.00  0.00     0.018 A  
HETATM   11  C   UNL     2      -9.088  10.779  64.472  1.00  0.00    -0.220 A  
HETATM   12  C   UNL     2     -10.170  11.564  66.913  1.00  0.00    -0.249 A  
HETATM   13  H   UNL     2      -6.566  10.414  64.554  1.00  0.00     0.000 HD 
HETATM   14  C   UNL     2     -11.011  11.298  65.834  1.00  0.00    -0.221 A  
ENDROOT
BRANCH   4  15
HETATM   15  C   UNL     1     -10.098   8.756  69.193  1.00  0.00    -0.198 C  
BRANCH  15  16
HETATM   16  N   UNL     1      -8.903   8.019  68.706  1.00  0.00    -0.138 NA 
BRANCH  16  17
HETATM   17  C   UNL     1      -8.441   6.974  69.665  1.00  0.00    -0.134 C  
BRANCH  17  18
HETATM   18  C   UNL     1      -8.650   5.484  69.339  1.00  0.00    -0.104 C  
HETATM   19  H   UNL     1      -8.638   3.722  70.269  1.00  0.00     0.000 HD 
HETATM   20  O   UNL     1      -8.509   4.642  70.471  1.00  0.00    -0.087 OA 
ENDBRANCH  17  18
ENDBRANCH  16  17
BRANCH  16  21
HETATM   21  C   UNL     1      -9.172   7.361  67.403  1.00  0.00    -0.132 C  
BRANCH  21  22
HETATM   22  C   UNL     1     -10.527   7.655  66.722  1.00  0.00    -0.249 C  
HETATM   23  O   UNL     1     -11.373   6.509  66.799  1.00  0.00    -0.729 OA 
HETATM   24  H   UNL     1     -12.206   6.690  66.380  1.00  0.00     0.000 HD 
ENDBRANCH  21  22
ENDBRANCH  16  21
ENDBRANCH  15  16
ENDBRANCH   4  15
TORSDOF 6
ENDMDL
MODEL      236
REMARK 921   NORMALIZED FREE ENERGY PREDICTED BY IDOCK:   -2.82 KCAL/MOL
REMARK 922        TOTAL FREE ENERGY PREDICTED BY IDOCK:   -4.67 KCAL/MOL
REMARK 923 INTER-LIGAND FREE ENERGY PREDICTED BY IDOCK:   -4.03 KCAL/MOL
REMARK 924 INTRA-LIGAND FREE ENERGY PREDICTED BY IDOCK:   -0.63 KCAL/MOL
REMARK 927      BINDING AFFINITY PREDICTED BY RF-SCORE:    0.00 PKD
ROOT
HETATM    1  O   UNL     1      -5.587  10.061  69.440  1.00  0.00    -0.038 OA 
HETATM    2  H   UNL     1      -4.765   9.710  69.761  1.00  0.00     0.000 HD 
HETATM    3  O   UNL     2      -6.989   7.129  72.386  1.00  0.00    -0.064 OA 
HETATM    4  C   UNL     1      -6.731   9.574  70.132  1.00  0.00    -0.078 C  
HETATM    5  O   UNL     2     -10.955   7.635  73.320  1.00  0.00    -0.425 OA 
HETATM    6  C   UNL     2      -8.202   7.697  72.524  1.00  0.00    -0.118 C  
HETATM    7  C   UNL     2      -9.256   7.144  71.650  1.00  0.00    -0.149 A  
HETATM    8  O   UNL     2      -8.438   8.601  73.317  1.00  0.00    -0.395 OA 
HETATM    9  C   UNL     2     -11.313   6.241  69.983  1.00  0.00    -0.486 A  
HETATM   10  C   UNL     2     -10.581   7.145  72.101  1.00  0.00    -0.210 A  
HETATM   11  C   UNL     2     -11.596   6.657  71.285  1.00  0.00    -0.374 A  
HETATM   12  C   UNL     2      -8.976   6.724  70.344  1.00  0.00    -0.152 A  
HETATM   13  H   UNL     2     -11.855   7.636  73.625  1.00  0.00     0.000 HD 
HETATM   14  C   UNL     2     -10.005   6.297  69.506  1.00  0.00    -0.198 A  
ENDROOT
BRANCH   4  15
HETATM   15  C   UNL     1      -8.074  10.149  69.608  1.00  0.00    -0.168 C  
BRANCH  15  16
HETATM   16  N   UNL     1      -8.176  10.357  68.140  1.00  0.00    -0.113 NA 
BRANCH  16  17
HETATM   17  C   UNL     1      -9.273   9.557  67.520  1.00  0.00    -0.126 C  
BRANCH  17  18
HETATM   18  C   UNL     1      -9.017   8.785  66.213  1.00  0.00    -0.173 C  
HETATM   19  H   UNL     1      -8.084   7.137  65.595  1.00  0.00     0.000 HD 
HETATM   20  O   UNL     1      -8.242   7.613  66.402  1.00  0.00    -0.114 OA 
ENDBRANCH  17  18
ENDBRANCH  16  17
BRANCH  16  21
HETATM   21  C   UNL     1      -8.410  11.787  67.815  1.00  0.00    -0.146 C  
BRANCH  21  22
HETATM   22  C   UNL     1      -7.186  12.636  67.413  1.00  0.00    -0.138 C  
HETATM   23  O   UNL     1      -6.337  11.890  66.542  1.00  0.00    -0.368 OA 
HETATM   24  H   UNL     1      -5.583  12.413  66.294  1.00  0.00     0.000 HD 
ENDBRANCH  21  22
ENDBRANCH  16  21
ENDBRANCH  15  16
ENDBRANCH   4  15
TORSDOF 6
ENDMDL
MODEL      237
REMARK 921   NORMALIZED FREE ENERGY PREDICTED BY IDOCK:   -2.78 KCAL/MOL
REMARK 922        TOTAL FREE ENERGY PREDICTED BY IDOCK:   -4.62 KCAL/MOL
REMARK 923 INTER-LIGAND FREE ENERGY PREDICTED BY IDOCK:   -3.90 KCAL/MOL
REMARK 924 INTRA-LIGAND FREE ENERGY PREDICTED BY IDOCK:   -0.72 KCAL/MOL
REMARK 927      BINDING AFFINITY PREDICTED BY RF-SCORE:    0.00 PKD
ROOT
HETATM    1  O   UNL     1      -9.488   7.323  74.558  1.00  0.00    -0.428 OA 
HETATM    2  H   UNL     1     -10.264   7.434  75.094  1.00  0.00     0.000 HD 
HETATM    3  O   UNL     2     -12.439   8.570  71.561  1.00  0.00    -0.303 OA 
HETATM    4  C   UNL     1      -9.663   7.719  73.203  1.00  0.00    -0.285 C  
HETATM    5  O   UNL     2     -10.686   9.671  68.016  1.00  0.00    -0.248 OA 
HETATM    6  C   UNL     2     -11.514   8.970  70.668  1.00  0.00    -0.248 C  
HETATM    7  C   UNL     2     -11.116   7.949  69.679  1.00  0.00    -0.033 A  
HETATM    8  O   UNL     2     -11.030  10.096  70.656  1.00  0.00    -0.308 OA 
HETATM    9  C   UNL     2     -10.218   6.074  67.807  1.00  0.00    -0.219 A  
HETATM   10  C   UNL     2     -10.722   8.361  68.399  1.00  0.00    -0.023 A  
HETATM   11  C   UNL     2     -10.315   7.422  67.459  1.00  0.00    -0.320 A  
HETATM   12  C   UNL     2     -11.018   6.595  70.023  1.00  0.00    -0.363 A  
HETATM   13  H   UNL     2     -10.419   9.951  67.148  1.00  0.00     0.000 HD 
HETATM   14  C   UNL     2     -10.547   5.665  69.097  1.00  0.00    -0.334 A  
ENDROOT
BRANCH   4  15
HETATM   15  C   UNL     1      -8.394   7.538  72.327  1.00  0.00    -0.103 C  
BRANCH  15  16
HETATM   16  N   UNL     1      -7.513   8.727  72.186  1.00  0.00    -0.323 NA 
BRANCH  16  17
HETATM   17  C   UNL     1      -6.200   8.555  72.874  1.00  0.00    -0.088 C  
BRANCH  17  18
HETATM   18  C   UNL     1      -5.954   7.325  73.767  1.00  0.00    -0.057 C  
HETATM   19  H   UNL     1      -5.380   5.425  73.589  1.00  0.00     0.000 HD 
HETATM   20  O   UNL     1      -5.532   6.184  73.038  1.00  0.00    -0.034 OA 
ENDBRANCH  17  18
ENDBRANCH  16  17
BRANCH  16  21
HETATM   21  C   UNL     1      -7.246   9.031  70.757  1.00  0.00    -0.097 C  
BRANCH  21  22
HETATM   22  C   UNL     1      -7.149   7.840  69.781  1.00  0.00    -0.066 C  
HETATM   23  O   UNL     1      -5.800   7.383  69.698  1.00  0.00    -0.023 OA 
HETATM   24  H   UNL     1      -5.740   6.650  69.097  1.00  0.00     0.000 HD 
ENDBRANCH  21  22
ENDBRANCH  16  21
ENDBRANCH  15  16
ENDBRANCH   4  15
TORSDOF 6
ENDMDL
MODEL      238
REMARK 921   NORMALIZED FREE ENERGY PREDICTED BY IDOCK:   -2.77 KCAL/MOL
REMARK 922        TOTAL FREE ENERGY PREDICTED BY IDOCK:   -4.61 KCAL/MOL
REMARK 923 INTER-LIGAND FREE ENERGY PREDICTED BY IDOCK:   -4.15 KCAL/MOL
REMARK 924 INTRA-LIGAND FREE ENERGY PREDICTED BY IDOCK:   -0.46 KCAL/MOL
REMARK 927      BINDING AFFINITY PREDICTED BY RF-SCORE:    0.00 PKD
ROOT
HETATM    1  O   UNL     1      -9.389   7.474  74.472  1.00  0.00    -0.411 OA 
HETATM    2  H   UNL     1      -9.902   8.125  74.936  1.00  0.00     0.000 HD 
HETATM    3  O   UNL     2     -10.899   9.915  71.154  1.00  0.00    -0.309 OA 
HETATM    4  C   UNL     1      -9.293   7.709  73.071  1.00  0.00    -0.210 C  
HETATM    5  O   UNL     2      -8.913   9.164  67.640  1.00  0.00    -0.123 OA 
HETATM    6  C   UNL     2      -9.950   9.509  70.290  1.00  0.00    -0.259 C  
HETATM    7  C   UNL     2     -10.320   8.352  69.450  1.00  0.00    -0.217 A  
HETATM    8  O   UNL     2      -8.856  10.051  70.186  1.00  0.00    -0.165 OA 
HETATM    9  C   UNL     2     -10.873   6.113  67.867  1.00  0.00    -0.406 A  
HETATM   10  C   UNL     2      -9.777   8.245  68.164  1.00  0.00    -0.158 A  
HETATM   11  C   UNL     2     -10.087   7.151  67.365  1.00  0.00    -0.260 A  
HETATM   12  C   UNL     2     -11.111   7.309  69.949  1.00  0.00    -0.233 A  
HETATM   13  H   UNL     2      -8.545   9.091  66.767  1.00  0.00     0.000 HD 
HETATM   14  C   UNL     2     -11.365   6.183  69.169  1.00  0.00    -0.303 A  
ENDROOT
BRANCH   4  15
HETATM   15  C   UNL     1      -8.454   6.645  72.313  1.00  0.00    -0.111 C  
BRANCH  15  16
HETATM   16  N   UNL     1      -8.799   5.223  72.572  1.00  0.00    -0.127 NA 
BRANCH  16  17
HETATM   17  C   UNL     1     -10.237   4.922  72.309  1.00  0.00    -0.196 C  
BRANCH  17  18
HETATM   18  C   UNL     1     -11.153   4.475  73.462  1.00  0.00    -0.314 C  
HETATM   19  H   UNL     1     -11.199   3.099  74.903  1.00  0.00     0.000 HD 
HETATM   20  O   UNL     1     -10.633   3.375  74.191  1.00  0.00    -0.179 OA 
ENDBRANCH  17  18
ENDBRANCH  16  17
BRANCH  16  21
HETATM   21  C   UNL     1      -7.978   4.310  71.738  1.00  0.00    -0.087 C  
BRANCH  21  22
HETATM   22  C   UNL     1      -6.924   3.441  72.457  1.00  0.00    -0.042 C  
HETATM   23  O   UNL     1      -7.564   2.379  73.163  1.00  0.00    -0.040 OA 
HETATM   24  H   UNL     1      -6.915   1.844  73.605  1.00  0.00     0.000 HD 
ENDBRANCH  21  22
ENDBRANCH  16  21
ENDBRANCH  15  16
ENDBRANCH   4  15
TORSDOF 6
ENDMDL
MODEL      239
REMARK 921   NORMALIZED FREE ENERGY PREDICTED BY IDOCK:   -2.77 KCAL/MOL
REMARK 922        TOTAL FREE ENERGY PREDICTED BY IDOCK:   -4.60 KCAL/MOL
REMARK 923 INTER-LIGAND FREE ENERGY PREDICTED BY IDOCK:   -4.22 KCAL/MOL
REMARK 924 INTRA-LIGAND FREE ENERGY PREDICTED BY IDOCK:   -0.38 KCAL/MOL
REMARK 927      BINDING AFFINITY PREDICTED BY RF-SCORE:    0.00 PKD
ROOT
HETATM    1  O   UNL     1      -9.083   8.806  72.570  1.00  0.00    -0.367 OA 
HETATM    2  H   UNL     1      -8.299   9.143  72.988  1.00  0.00     0.000 HD 
HETATM    3  O   UNL     2      -6.965  10.561  69.153  1.00  0.00    -0.064 OA 
HETATM    4  C   UNL     1      -9.078   8.931  71.153  1.00  0.00    -0.249 C  
HETATM    5  O   UNL     2      -8.529   9.338  65.559  1.00  0.00    -0.126 OA 
HETATM    6  C   UNL     2      -7.636   9.838  68.236  1.00  0.00    -0.081 C  
HETATM    7  C   UNL     2      -8.836  10.494  67.677  1.00  0.00    -0.131 A  
HETATM    8  O   UNL     2      -7.290   8.721  67.873  1.00  0.00    -0.086 OA 
HETATM    9  C   UNL     2     -11.176  11.594  66.611  1.00  0.00    -0.362 A  
HETATM   10  C   UNL     2      -9.216  10.205  66.361  1.00  0.00    -0.158 A  
HETATM   11  C   UNL     2     -10.358  10.786  65.821  1.00  0.00    -0.295 A  
HETATM   12  C   UNL     2      -9.659  11.308  68.465  1.00  0.00    -0.199 A  
HETATM   13  H   UNL     2      -8.787   9.142  64.666  1.00  0.00     0.000 HD 
HETATM   14  C   UNL     2     -10.837  11.836  67.940  1.00  0.00    -0.255 A  
ENDROOT
BRANCH   4  15
HETATM   15  C   UNL     1     -10.359   8.379  70.471  1.00  0.00    -0.199 C  
BRANCH  15  16
HETATM   16  N   UNL     1     -10.583   6.913  70.570  1.00  0.00    -0.215 NA 
BRANCH  16  17
HETATM   17  C   UNL     1     -11.376   6.373  69.427  1.00  0.00    -0.377 C  
BRANCH  17  18
HETATM   18  C   UNL     1     -10.684   6.067  68.087  1.00  0.00    -0.278 C  
HETATM   19  H   UNL     1     -10.816   6.591  66.169  1.00  0.00     0.000 HD 
HETATM   20  O   UNL     1     -11.243   6.781  66.996  1.00  0.00    -0.393 OA 
ENDBRANCH  17  18
ENDBRANCH  16  17
BRANCH  16  21
HETATM   21  C   UNL     1      -9.295   6.176  70.624  1.00  0.00    -0.165 C  
BRANCH  21  22
HETATM   22  C   UNL     1      -9.061   5.238  71.828  1.00  0.00    -0.138 C  
HETATM   23  O   UNL     1      -7.763   4.652  71.747  1.00  0.00    -0.090 OA 
HETATM   24  H   UNL     1      -7.619   4.075  72.488  1.00  0.00     0.000 HD 
ENDBRANCH  21  22
ENDBRANCH  16  21
ENDBRANCH  15  16
ENDBRANCH   4  15
TORSDOF 6
ENDMDL
MODEL      240
REMARK 921   NORMALIZED FREE ENERGY PREDICTED BY IDOCK:   -2.77 KCAL/MOL
REMARK 922        TOTAL FREE ENERGY PREDICTED BY IDOCK:   -4.60 KCAL/MOL
REMARK 923 INTER-LIGAND FREE ENERGY PREDICTED BY IDOCK:   -3.80 KCAL/MOL
REMARK 924 INTRA-LIGAND FREE ENERGY PREDICTED BY IDOCK:   -0.80 KCAL/MOL
REMARK 927      BINDING AFFINITY PREDICTED BY RF-SCORE:    0.00 PKD
ROOT
HETATM    1  O   UNL     1      -6.154  15.470  68.469  1.00  0.00    -0.091 OA 
HETATM    2  H   UNL     1      -5.767  15.187  69.289  1.00  0.00     0.000 HD 
HETATM    3  O   UNL     2      -8.456  11.831  69.307  1.00  0.00     0.255 OA 
HETATM    4  C   UNL     1      -7.271  14.689  68.061  1.00  0.00    -0.140 C  
HETATM    5  O   UNL     2     -11.818  11.543  66.969  1.00  0.00    -0.568 OA 
HETATM    6  C   UNL     2      -9.481  12.172  68.504  1.00  0.00    -0.122 C  
HETATM    7  C   UNL     2      -9.393  11.656  67.123  1.00  0.00    -0.178 A  
HETATM    8  O   UNL     2     -10.430  12.853  68.873  1.00  0.00    -0.191 OA 
HETATM    9  C   UNL     2      -9.295  10.809  64.459  1.00  0.00    -0.273 A  
HETATM   10  C   UNL     2     -10.575  11.368  66.430  1.00  0.00    -0.263 A  
HETATM   11  C   UNL     2     -10.521  10.909  65.119  1.00  0.00    -0.316 A  
HETATM   12  C   UNL     2      -8.166  11.552  66.457  1.00  0.00    -0.129 A  
HETATM   13  H   UNL     2     -12.620  11.348  66.498  1.00  0.00     0.000 HD 
HETATM   14  C   UNL     2      -8.120  11.154  65.122  1.00  0.00     0.322 A  
ENDROOT
BRANCH   4  15
HETATM   15  C   UNL     1      -7.904  15.151  66.721  1.00  0.00     0.055 C  
BRANCH  15  16
HETATM   16  N   UNL     1      -9.262  15.750  66.803  1.00  0.00    -0.226 NA 
BRANCH  16  17
HETATM   17  C   UNL     1      -9.230  17.241  66.859  1.00  0.00    -0.254 C  
BRANCH  17  18
HETATM   18  C   UNL     1      -9.484  17.966  68.193  1.00  0.00    -0.288 C  
HETATM   19  H   UNL     1     -10.594  19.458  68.910  1.00  0.00     0.000 HD 
HETATM   20  O   UNL     1     -10.437  19.011  68.086  1.00  0.00    -0.377 OA 
ENDBRANCH  17  18
ENDBRANCH  16  17
BRANCH  16  21
HETATM   21  C   UNL     1     -10.096  15.352  65.641  1.00  0.00    -0.376 C  
BRANCH  21  22
HETATM   22  C   UNL     1     -11.536  14.874  65.928  1.00  0.00    -0.276 C  
HETATM   23  O   UNL     1     -11.984  14.014  64.882  1.00  0.00    -0.364 OA 
HETATM   24  H   UNL     1     -12.870  13.720  65.058  1.00  0.00     0.000 HD 
ENDBRANCH  21  22
ENDBRANCH  16  21
ENDBRANCH  15  16
ENDBRANCH   4  15
TORSDOF 6
ENDMDL
MODEL      241
REMARK 921   NORMALIZED FREE ENERGY PREDICTED BY IDOCK:   -2.76 KCAL/MOL
REMARK 922        TOTAL FREE ENERGY PREDICTED BY IDOCK:   -4.59 KCAL/MOL
REMARK 923 INTER-LIGAND FREE ENERGY PREDICTED BY IDOCK:   -4.08 KCAL/MOL
REMARK 924 INTRA-LIGAND FREE ENERGY PREDICTED BY IDOCK:   -0.51 KCAL/MOL
REMARK 927      BINDING AFFINITY PREDICTED BY RF-SCORE:    0.00 PKD
ROOT
HETATM    1  O   UNL     1     -12.073  15.011  65.057  1.00  0.00    -0.258 OA 
HETATM    2  H   UNL     1     -12.817  14.434  65.183  1.00  0.00     0.000 HD 
HETATM    3  O   UNL     2     -10.347  11.922  67.650  1.00  0.00    -0.196 OA 
HETATM    4  C   UNL     1     -10.865  14.524  65.628  1.00  0.00    -0.326 C  
HETATM    5  O   UNL     2      -6.247  12.099  67.763  1.00  0.00    -0.067 OA 
HETATM    6  C   UNL     2      -9.075  12.205  67.311  1.00  0.00    -0.181 C  
HETATM    7  C   UNL     2      -8.389  13.166  68.199  1.00  0.00    -0.161 A  
HETATM    8  O   UNL     2      -8.507  11.708  66.346  1.00  0.00    -0.176 OA 
HETATM    9  C   UNL     2      -7.014  15.039  69.756  1.00  0.00    -0.182 A  
HETATM   10  C   UNL     2      -7.004  13.056  68.376  1.00  0.00    -0.100 A  
HETATM   11  C   UNL     2      -6.331  13.966  69.183  1.00  0.00    -0.107 A  
HETATM   12  C   UNL     2      -9.071  14.243  68.777  1.00  0.00    -0.103 A  
HETATM   13  H   UNL     2      -5.307  12.026  67.884  1.00  0.00     0.000 HD 
HETATM   14  C   UNL     2      -8.381  15.190  69.533  1.00  0.00    -0.151 A  
ENDROOT
BRANCH   4  15
HETATM   15  C   UNL     1      -9.648  15.467  65.422  1.00  0.00    -0.115 C  
BRANCH  15  16
HETATM   16  N   UNL     1      -9.841  16.889  65.809  1.00  0.00    -0.554 NA 
BRANCH  16  17
HETATM   17  C   UNL     1     -10.647  17.043  67.056  1.00  0.00    -0.226 C  
BRANCH  17  18
HETATM   18  C   UNL     1     -10.608  18.367  67.838  1.00  0.00    -0.353 C  
HETATM   19  H   UNL     1     -10.165  19.025  69.666  1.00  0.00     0.000 HD 
HETATM   20  O   UNL     1     -10.189  18.207  69.183  1.00  0.00    -0.344 OA 
ENDBRANCH  17  18
ENDBRANCH  16  17
BRANCH  16  21
HETATM   21  C   UNL     1      -8.539  17.571  66.016  1.00  0.00    -0.045 C  
BRANCH  21  22
HETATM   22  C   UNL     1      -7.362  16.717  66.534  1.00  0.00    -0.238 C  
HETATM   23  O   UNL     1      -6.122  17.330  66.187  1.00  0.00    -0.201 OA 
HETATM   24  H   UNL     1      -5.397  16.804  66.505  1.00  0.00     0.000 HD 
ENDBRANCH  21  22
ENDBRANCH  16  21
ENDBRANCH  15  16
ENDBRANCH   4  15
TORSDOF 6
ENDMDL
MODEL      242
REMARK 921   NORMALIZED FREE ENERGY PREDICTED BY IDOCK:   -2.76 KCAL/MOL
REMARK 922        TOTAL FREE ENERGY PREDICTED BY IDOCK:   -4.58 KCAL/MOL
REMARK 923 INTER-LIGAND FREE ENERGY PREDICTED BY IDOCK:   -4.36 KCAL/MOL
REMARK 924 INTRA-LIGAND FREE ENERGY PREDICTED BY IDOCK:   -0.22 KCAL/MOL
REMARK 927      BINDING AFFINITY PREDICTED BY RF-SCORE:    0.00 PKD
ROOT
HETATM    1  O   UNL     1      -7.880   6.308  67.626  1.00  0.00    -0.103 OA 
HETATM    2  H   UNL     1      -7.063   6.766  67.467  1.00  0.00     0.000 HD 
HETATM    3  O   UNL     2      -8.784  10.285  69.243  1.00  0.00    -0.160 OA 
HETATM    4  C   UNL     1      -8.913   7.139  68.143  1.00  0.00    -0.128 C  
HETATM    5  O   UNL     2     -12.803  10.824  69.888  1.00  0.00    -0.388 OA 
HETATM    6  C   UNL     2     -10.119  10.123  69.168  1.00  0.00    -0.213 C  
HETATM    7  C   UNL     2     -10.758   9.609  70.396  1.00  0.00    -0.356 A  
HETATM    8  O   UNL     2     -10.775  10.384  68.166  1.00  0.00    -0.201 OA 
HETATM    9  C   UNL     2     -12.069   8.558  72.632  1.00  0.00    -0.305 A  
HETATM   10  C   UNL     2     -12.073   9.993  70.688  1.00  0.00    -0.292 A  
HETATM   11  C   UNL     2     -12.707   9.499  71.823  1.00  0.00    -0.492 A  
HETATM   12  C   UNL     2     -10.122   8.666  71.212  1.00  0.00    -0.312 A  
HETATM   13  H   UNL     2     -13.695  11.084  70.087  1.00  0.00     0.000 HD 
HETATM   14  C   UNL     2     -10.785   8.125  72.312  1.00  0.00    -0.381 A  
ENDROOT
BRANCH   4  15
HETATM   15  C   UNL     1     -10.249   6.390  68.403  1.00  0.00    -0.175 C  
BRANCH  15  16
HETATM   16  N   UNL     1     -10.141   5.031  68.995  1.00  0.00    -0.188 NA 
BRANCH  16  17
HETATM   17  C   UNL     1      -9.908   3.973  67.969  1.00  0.00    -0.002 C  
BRANCH  17  18
HETATM   18  C   UNL     1      -8.995   2.777  68.291  1.00  0.00    -0.148 C  
HETATM   19  H   UNL     1      -9.067   1.053  69.290  1.00  0.00     0.000 HD 
HETATM   20  O   UNL     1      -9.630   1.792  69.091  1.00  0.00    -0.109 OA 
ENDBRANCH  17  18
ENDBRANCH  16  17
BRANCH  16  21
HETATM   21  C   UNL     1      -9.037   4.962  69.985  1.00  0.00    -0.109 C  
BRANCH  21  22
HETATM   22  C   UNL     1      -9.417   4.724  71.462  1.00  0.00    -0.153 C  
HETATM   23  O   UNL     1      -9.762   3.354  71.664  1.00  0.00    -0.150 OA 
HETATM   24  H   UNL     1      -9.996   3.208  72.573  1.00  0.00     0.000 HD 
ENDBRANCH  21  22
ENDBRANCH  16  21
ENDBRANCH  15  16
ENDBRANCH   4  15
TORSDOF 6
ENDMDL
MODEL      243
REMARK 921   NORMALIZED FREE ENERGY PREDICTED BY IDOCK:   -2.75 KCAL/MOL
REMARK 922        TOTAL FREE ENERGY PREDICTED BY IDOCK:   -4.58 KCAL/MOL
REMARK 923 INTER-LIGAND FREE ENERGY PREDICTED BY IDOCK:   -4.22 KCAL/MOL
REMARK 924 INTRA-LIGAND FREE ENERGY PREDICTED BY IDOCK:   -0.36 KCAL/MOL
REMARK 927      BINDING AFFINITY PREDICTED BY RF-SCORE:    0.00 PKD
ROOT
HETATM    1  O   UNL     1      -9.150  11.486  64.817  1.00  0.00    -0.405 OA 
HETATM    2  H   UNL     1      -8.590  11.289  64.076  1.00  0.00     0.000 HD 
HETATM    3  O   UNL     2      -7.175   7.812  66.176  1.00  0.00    -0.071 OA 
HETATM    4  C   UNL     1      -8.959  10.619  65.929  1.00  0.00    -0.175 C  
HETATM    5  O   UNL     2      -7.682   7.171  70.200  1.00  0.00    -0.092 OA 
HETATM    6  C   UNL     2      -7.430   8.037  67.479  1.00  0.00    -0.097 C  
HETATM    7  C   UNL     2      -8.670   7.418  67.991  1.00  0.00    -0.124 A  
HETATM    8  O   UNL     2      -6.697   8.696  68.207  1.00  0.00    -0.063 OA 
HETATM    9  C   UNL     2     -11.035   6.371  69.054  1.00  0.00    -0.410 A  
HETATM   10  C   UNL     2      -8.725   7.017  69.332  1.00  0.00    -0.133 A  
HETATM   11  C   UNL     2      -9.890   6.460  69.845  1.00  0.00    -0.191 A  
HETATM   12  C   UNL     2      -9.821   7.325  67.200  1.00  0.00    -0.242 A  
HETATM   13  H   UNL     2      -7.719   6.899  71.110  1.00  0.00     0.000 HD 
HETATM   14  C   UNL     2     -11.006   6.825  67.738  1.00  0.00    -0.321 A  
ENDROOT
BRANCH   4  15
HETATM   15  C   UNL     1      -9.876  10.942  67.140  1.00  0.00    -0.184 C  
BRANCH  15  16
HETATM   16  N   UNL     1      -9.505  12.130  67.953  1.00  0.00    -0.188 NA 
BRANCH  16  17
HETATM   17  C   UNL     1      -8.072  12.512  67.793  1.00  0.00    -0.164 C  
BRANCH  17  18
HETATM   18  C   UNL     1      -7.478  13.645  68.648  1.00  0.00    -0.113 C  
HETATM   19  H   UNL     1      -5.765  14.644  68.845  1.00  0.00     0.000 HD 
HETATM   20  O   UNL     1      -6.131  13.945  68.317  1.00  0.00    -0.091 OA 
ENDBRANCH  17  18
ENDBRANCH  16  17
BRANCH  16  21
HETATM   21  C   UNL     1     -10.337  13.306  67.595  1.00  0.00    -0.230 C  
BRANCH  21  22
HETATM   22  C   UNL     1     -11.871  13.130  67.623  1.00  0.00    -0.359 C  
HETATM   23  O   UNL     1     -12.499  14.195  66.913  1.00  0.00    -0.565 OA 
HETATM   24  H   UNL     1     -13.443  14.086  66.930  1.00  0.00     0.000 HD 
ENDBRANCH  21  22
ENDBRANCH  16  21
ENDBRANCH  15  16
ENDBRANCH   4  15
TORSDOF 6
ENDMDL
MODEL      244
REMARK 921   NORMALIZED FREE ENERGY PREDICTED BY IDOCK:   -2.73 KCAL/MOL
REMARK 922        TOTAL FREE ENERGY PREDICTED BY IDOCK:   -4.55 KCAL/MOL
REMARK 923 INTER-LIGAND FREE ENERGY PREDICTED BY IDOCK:   -3.82 KCAL/MOL
REMARK 924 INTRA-LIGAND FREE ENERGY PREDICTED BY IDOCK:   -0.73 KCAL/MOL
REMARK 927      BINDING AFFINITY PREDICTED BY RF-SCORE:    0.00 PKD
ROOT
HETATM    1  O   UNL     1     -10.012   3.166  73.023  1.00  0.00    -0.122 OA 
HETATM    2  H   UNL     1     -10.111   2.441  72.418  1.00  0.00     0.000 HD 
HETATM    3  O   UNL     2     -10.876   5.274  69.274  1.00  0.00    -0.151 OA 
HETATM    4  C   UNL     1     -10.306   4.436  72.451  1.00  0.00    -0.173 C  
HETATM    5  O   UNL     2     -11.843   9.216  69.893  1.00  0.00    -0.439 OA 
HETATM    6  C   UNL     2     -11.271   6.408  69.884  1.00  0.00    -0.420 C  
HETATM    7  C   UNL     2     -10.212   7.420  70.071  1.00  0.00    -0.211 A  
HETATM    8  O   UNL     2     -12.420   6.608  70.258  1.00  0.00    -0.131 OA 
HETATM    9  C   UNL     2      -8.275   9.378  70.560  1.00  0.00    -0.221 A  
HETATM   10  C   UNL     2     -10.561   8.776  70.064  1.00  0.00    -0.223 A  
HETATM   11  C   UNL     2      -9.588   9.748  70.267  1.00  0.00    -0.264 A  
HETATM   12  C   UNL     2      -8.893   7.054  70.363  1.00  0.00    -0.155 A  
HETATM   13  H   UNL     2     -12.080  10.136  69.889  1.00  0.00     0.000 HD 
HETATM   14  C   UNL     2      -7.934   8.029  70.631  1.00  0.00    -0.096 A  
ENDROOT
BRANCH   4  15
HETATM   15  C   UNL     1     -10.144   5.622  73.441  1.00  0.00    -0.189 C  
BRANCH  15  16
HETATM   16  N   UNL     1      -8.829   5.739  74.123  1.00  0.00    -0.122 NA 
BRANCH  16  17
HETATM   17  C   UNL     1      -7.691   5.315  73.256  1.00  0.00    -0.100 C  
BRANCH  17  18
HETATM   18  C   UNL     1      -6.752   4.185  73.717  1.00  0.00    -0.057 C  
HETATM   19  H   UNL     1      -6.853   2.435  74.665  1.00  0.00     0.000 HD 
HETATM   20  O   UNL     1      -7.432   3.132  74.380  1.00  0.00    -0.050 OA 
ENDBRANCH  17  18
ENDBRANCH  16  17
BRANCH  16  21
HETATM   21  C   UNL     1      -8.575   7.133  74.565  1.00  0.00    -0.196 C  
BRANCH  21  22
HETATM   22  C   UNL     1      -7.134   7.671  74.434  1.00  0.00    -0.117 C  
HETATM   23  O   UNL     1      -7.156   9.026  73.986  1.00  0.00    -0.382 OA 
HETATM   24  H   UNL     1      -6.269   9.357  73.905  1.00  0.00     0.000 HD 
ENDBRANCH  21  22
ENDBRANCH  16  21
ENDBRANCH  15  16
ENDBRANCH   4  15
TORSDOF 6
ENDMDL
MODEL      245
REMARK 921   NORMALIZED FREE ENERGY PREDICTED BY IDOCK:   -2.73 KCAL/MOL
REMARK 922        TOTAL FREE ENERGY PREDICTED BY IDOCK:   -4.55 KCAL/MOL
REMARK 923 INTER-LIGAND FREE ENERGY PREDICTED BY IDOCK:   -4.25 KCAL/MOL
REMARK 924 INTRA-LIGAND FREE ENERGY PREDICTED BY IDOCK:   -0.30 KCAL/MOL
REMARK 927      BINDING AFFINITY PREDICTED BY RF-SCORE:    0.00 PKD
ROOT
HETATM    1  O   UNL     1      -6.837  11.289  68.482  1.00  0.00    -0.063 OA 
HETATM    2  H   UNL     1      -5.920  11.145  68.683  1.00  0.00     0.000 HD 
HETATM    3  O   UNL     2      -7.095   8.056  71.435  1.00  0.00    -0.056 OA 
HETATM    4  C   UNL     1      -7.729  10.525  69.284  1.00  0.00    -0.144 C  
HETATM    5  O   UNL     2     -10.911   7.557  72.866  1.00  0.00    -0.323 OA 
HETATM    6  C   UNL     2      -8.382   8.306  71.746  1.00  0.00    -0.148 C  
HETATM    7  C   UNL     2      -9.374   7.525  70.981  1.00  0.00    -0.157 A  
HETATM    8  O   UNL     2      -8.724   9.112  72.603  1.00  0.00    -0.124 OA 
HETATM    9  C   UNL     2     -11.350   6.171  69.536  1.00  0.00    -0.426 A  
HETATM   10  C   UNL     2     -10.591   7.193  71.589  1.00  0.00    -0.207 A  
HETATM   11  C   UNL     2     -11.554   6.484  70.880  1.00  0.00    -0.417 A  
HETATM   12  C   UNL     2      -9.173   7.207  69.633  1.00  0.00    -0.146 A  
HETATM   13  H   UNL     2     -11.737   7.332  73.278  1.00  0.00     0.000 HD 
HETATM   14  C   UNL     2     -10.168   6.554  68.907  1.00  0.00    -0.206 A  
ENDROOT
BRANCH   4  15
HETATM   15  C   UNL     1      -9.228  10.760  68.954  1.00  0.00    -0.173 C  
BRANCH  15  16
HETATM   16  N   UNL     1      -9.621  12.155  68.625  1.00  0.00    -0.121 NA 
BRANCH  16  17
HETATM   17  C   UNL     1      -9.231  12.551  67.240  1.00  0.00    -0.190 C  
BRANCH  17  18
HETATM   18  C   UNL     1      -8.620  13.939  66.980  1.00  0.00    -0.172 C  
HETATM   19  H   UNL     1      -7.141  15.086  67.665  1.00  0.00     0.000 HD 
HETATM   20  O   UNL     1      -7.518  14.229  67.825  1.00  0.00    -0.131 OA 
ENDBRANCH  17  18
ENDBRANCH  16  17
BRANCH  16  21
HETATM   21  C   UNL     1     -11.087  12.347  68.762  1.00  0.00    -0.262 C  
BRANCH  21  22
HETATM   22  C   UNL     1     -11.894  12.620  67.474  1.00  0.00    -0.334 C  
HETATM   23  O   UNL     1     -12.486  13.916  67.533  1.00  0.00    -0.454 OA 
HETATM   24  H   UNL     1     -12.983  14.084  66.741  1.00  0.00     0.000 HD 
ENDBRANCH  21  22
ENDBRANCH  16  21
ENDBRANCH  15  16
ENDBRANCH   4  15
TORSDOF 6
ENDMDL
MODEL      246
REMARK 921   NORMALIZED FREE ENERGY PREDICTED BY IDOCK:   -2.73 KCAL/MOL
REMARK 922        TOTAL FREE ENERGY PREDICTED BY IDOCK:   -4.54 KCAL/MOL
REMARK 923 INTER-LIGAND FREE ENERGY PREDICTED BY IDOCK:   -4.15 KCAL/MOL
REMARK 924 INTRA-LIGAND FREE ENERGY PREDICTED BY IDOCK:   -0.39 KCAL/MOL
REMARK 927      BINDING AFFINITY PREDICTED BY RF-SCORE:    0.00 PKD
ROOT
HETATM    1  O   UNL     1      -7.512   6.628  72.965  1.00  0.00    -0.088 OA 
HETATM    2  H   UNL     1      -8.068   6.509  73.725  1.00  0.00     0.000 HD 
HETATM    3  O   UNL     2     -11.404   5.874  71.087  1.00  0.00    -0.262 OA 
HETATM    4  C   UNL     1      -8.219   6.626  71.730  1.00  0.00    -0.110 C  
HETATM    5  O   UNL     2     -11.426   6.857  67.101  1.00  0.00    -0.703 OA 
HETATM    6  C   UNL     2     -11.060   6.433  69.911  1.00  0.00    -0.381 C  
HETATM    7  C   UNL     2     -10.525   5.495  68.904  1.00  0.00    -0.282 A  
HETATM    8  O   UNL     2     -11.180   7.629  69.672  1.00  0.00    -0.129 OA 
HETATM    9  C   UNL     2      -9.419   3.833  66.946  1.00  0.00    -0.224 A  
HETATM   10  C   UNL     2     -10.741   5.763  67.546  1.00  0.00    -0.236 A  
HETATM   11  C   UNL     2     -10.223   4.911  66.577  1.00  0.00    -0.305 A  
HETATM   12  C   UNL     2      -9.719   4.411  69.269  1.00  0.00    -0.252 A  
HETATM   13  H   UNL     2     -11.572   7.039  66.180  1.00  0.00     0.000 HD 
HETATM   14  C   UNL     2      -9.148   3.597  68.292  1.00  0.00    -0.199 A  
ENDROOT
BRANCH   4  15
HETATM   15  C   UNL     1      -7.311   6.820  70.486  1.00  0.00    -0.081 C  
BRANCH  15  16
HETATM   16  N   UNL     1      -7.010   8.224  70.099  1.00  0.00    -0.039 NA 
BRANCH  16  17
HETATM   17  C   UNL     1      -7.971   8.762  69.093  1.00  0.00    -0.109 C  
BRANCH  17  18
HETATM   18  C   UNL     1      -8.864   9.964  69.448  1.00  0.00    -0.187 C  
HETATM   19  H   UNL     1      -9.038  11.897  68.995  1.00  0.00     0.000 HD 
HETATM   20  O   UNL     1      -8.487  11.155  68.775  1.00  0.00    -0.156 OA 
ENDBRANCH  17  18
ENDBRANCH  16  17
BRANCH  16  21
HETATM   21  C   UNL     1      -7.030   9.122  71.281  1.00  0.00    -0.052 C  
BRANCH  21  22
HETATM   22  C   UNL     1      -5.712   9.300  72.064  1.00  0.00    -0.055 C  
HETATM   23  O   UNL     1      -5.964   9.245  73.467  1.00  0.00    -0.304 OA 
HETATM   24  H   UNL     1      -5.152   9.354  73.949  1.00  0.00     0.000 HD 
ENDBRANCH  21  22
ENDBRANCH  16  21
ENDBRANCH  15  16
ENDBRANCH   4  15
TORSDOF 6
ENDMDL
MODEL      247
REMARK 921   NORMALIZED FREE ENERGY PREDICTED BY IDOCK:   -2.72 KCAL/MOL
REMARK 922        TOTAL FREE ENERGY PREDICTED BY IDOCK:   -4.54 KCAL/MOL
REMARK 923 INTER-LIGAND FREE ENERGY PREDICTED BY IDOCK:   -3.85 KCAL/MOL
REMARK 924 INTRA-LIGAND FREE ENERGY PREDICTED BY IDOCK:   -0.69 KCAL/MOL
REMARK 927      BINDING AFFINITY PREDICTED BY RF-SCORE:    0.00 PKD
ROOT
HETATM    1  O   UNL     1      -9.933   9.399  71.144  1.00  0.00    -0.289 OA 
HETATM    2  H   UNL     1      -9.932  10.179  71.687  1.00  0.00     0.000 HD 
HETATM    3  O   UNL     2      -7.976  12.297  68.496  1.00  0.00    -0.140 OA 
HETATM    4  C   UNL     1      -9.235   9.554  69.914  1.00  0.00    -0.220 C  
HETATM    5  O   UNL     2      -6.127  10.489  65.307  1.00  0.00    -0.133 OA 
HETATM    6  C   UNL     2      -7.401  11.356  67.723  1.00  0.00    -0.098 C  
HETATM    7  C   UNL     2      -8.176  10.966  66.528  1.00  0.00    -0.157 A  
HETATM    8  O   UNL     2      -6.312  10.852  67.972  1.00  0.00    -0.056 OA 
HETATM    9  C   UNL     2      -9.590  10.083  64.283  1.00  0.00    -0.301 A  
HETATM   10  C   UNL     2      -7.490  10.553  65.380  1.00  0.00    -0.089 A  
HETATM   11  C   UNL     2      -8.196  10.153  64.252  1.00  0.00    -0.165 A  
HETATM   12  C   UNL     2      -9.574  10.897  66.554  1.00  0.00    -0.224 A  
HETATM   13  H   UNL     2      -5.662  10.208  64.527  1.00  0.00     0.000 HD 
HETATM   14  C   UNL     2     -10.276  10.433  65.443  1.00  0.00    -0.329 A  
ENDROOT
BRANCH   4  15
HETATM   15  C   UNL     1      -9.235   8.279  69.028  1.00  0.00    -0.147 C  
BRANCH  15  16
HETATM   16  N   UNL     1     -10.566   7.754  68.625  1.00  0.00    -0.164 NA 
BRANCH  16  17
HETATM   17  C   UNL     1     -10.606   7.319  67.198  1.00  0.00    -0.346 C  
BRANCH  17  18
HETATM   18  C   UNL     1     -10.833   5.837  66.852  1.00  0.00    -0.254 C  
HETATM   19  H   UNL     1     -10.196   4.481  65.538  1.00  0.00     0.000 HD 
HETATM   20  O   UNL     1     -10.055   5.396  65.751  1.00  0.00    -0.053 OA 
ENDBRANCH  17  18
ENDBRANCH  16  17
BRANCH  16  21
HETATM   21  C   UNL     1     -10.967   6.601  69.469  1.00  0.00    -0.313 C  
BRANCH  21  22
HETATM   22  C   UNL     1      -9.933   6.066  70.482  1.00  0.00    -0.185 C  
HETATM   23  O   UNL     1     -10.193   6.603  71.778  1.00  0.00    -0.188 OA 
HETATM   24  H   UNL     1      -9.556   6.274  72.401  1.00  0.00     0.000 HD 
ENDBRANCH  21  22
ENDBRANCH  16  21
ENDBRANCH  15  16
ENDBRANCH   4  15
TORSDOF 6
ENDMDL
MODEL      248
REMARK 921   NORMALIZED FREE ENERGY PREDICTED BY IDOCK:   -2.68 KCAL/MOL
REMARK 922        TOTAL FREE ENERGY PREDICTED BY IDOCK:   -4.48 KCAL/MOL
REMARK 923 INTER-LIGAND FREE ENERGY PREDICTED BY IDOCK:   -5.16 KCAL/MOL
REMARK 924 INTRA-LIGAND FREE ENERGY PREDICTED BY IDOCK:    0.68 KCAL/MOL
REMARK 927      BINDING AFFINITY PREDICTED BY RF-SCORE:    0.00 PKD
ROOT
HETATM    1  O   UNL     1      -5.754  14.637  67.368  1.00  0.00    -0.341 OA 
HETATM    2  H   UNL     1      -5.132  13.962  67.125  1.00  0.00     0.000 HD 
HETATM    3  O   UNL     2      -8.432  11.310  66.369  1.00  0.00    -0.167 OA 
HETATM    4  C   UNL     1      -7.105  14.192  67.397  1.00  0.00    -0.077 C  
HETATM    5  O   UNL     2     -12.267  11.951  67.685  1.00  0.00    -0.510 OA 
HETATM    6  C   UNL     2      -9.474  11.808  67.061  1.00  0.00    -0.185 C  
HETATM    7  C   UNL     2     -10.408  12.639  66.276  1.00  0.00    -0.269 A  
HETATM    8  O   UNL     2      -9.656  11.592  68.254  1.00  0.00    -0.187 OA 
HETATM    9  C   UNL     2     -12.199  14.302  64.916  1.00  0.00    -0.449 A  
HETATM   10  C   UNL     2     -11.762  12.663  66.635  1.00  0.00    -0.398 A  
HETATM   11  C   UNL     2     -12.656  13.460  65.930  1.00  0.00    -0.412 A  
HETATM   12  C   UNL     2      -9.955  13.484  65.256  1.00  0.00    -0.206 A  
HETATM   13  H   UNL     2     -13.186  11.967  67.929  1.00  0.00     0.000 HD 
HETATM   14  C   UNL     2     -10.844  14.330  64.595  1.00  0.00    -0.384 A  
ENDROOT
BRANCH   4  15
HETATM   15  C   UNL     1      -8.121  15.296  67.794  1.00  0.00    -0.146 C  
BRANCH  15  16
HETATM   16  N   UNL     1      -7.762  16.135  68.967  1.00  0.00    -0.212 NA 
BRANCH  16  17
HETATM   17  C   UNL     1      -6.474  15.722  69.597  1.00  0.00    -0.181 C  
BRANCH  17  18
HETATM   18  C   UNL     1      -6.464  14.629  70.680  1.00  0.00     0.014 C  
HETATM   19  H   UNL     1      -5.423  14.125  72.303  1.00  0.00     0.000 HD 
HETATM   20  O   UNL     1      -5.429  14.801  71.635  1.00  0.00    -0.118 OA 
ENDBRANCH  17  18
ENDBRANCH  16  17
BRANCH  16  21
HETATM   21  C   UNL     1      -7.650  17.567  68.589  1.00  0.00    -0.273 C  
BRANCH  21  22
HETATM   22  C   UNL     1      -8.951  18.308  68.212  1.00  0.00    -0.305 C  
HETATM   23  O   UNL     1     -10.054  17.756  68.928  1.00  0.00    -0.360 OA 
HETATM   24  H   UNL     1     -10.855  18.212  68.695  1.00  0.00     0.000 HD 
ENDBRANCH  21  22
ENDBRANCH  16  21
ENDBRANCH  15  16
ENDBRANCH   4  15
TORSDOF 6
ENDMDL
MODEL      249
REMARK 921   NORMALIZED FREE ENERGY PREDICTED BY IDOCK:   -2.68 KCAL/MOL
REMARK 922        TOTAL FREE ENERGY PREDICTED BY IDOCK:   -4.47 KCAL/MOL
REMARK 923 INTER-LIGAND FREE ENERGY PREDICTED BY IDOCK:   -4.42 KCAL/MOL
REMARK 924 INTRA-LIGAND FREE ENERGY PREDICTED BY IDOCK:   -0.05 KCAL/MOL
REMARK 927      BINDING AFFINITY PREDICTED BY RF-SCORE:    0.00 PKD
ROOT
HETATM    1  O   UNL     1      -9.517  11.930  64.760  1.00  0.00    -0.424 OA 
HETATM    2  H   UNL     1      -9.587  12.877  64.783  1.00  0.00     0.000 HD 
HETATM    3  O   UNL     2     -10.932  12.596  68.859  1.00  0.00    -0.241 OA 
HETATM    4  C   UNL     1      -9.997  11.289  65.936  1.00  0.00    -0.234 C  
HETATM    5  O   UNL     2     -12.271   9.140  70.623  1.00  0.00    -0.474 OA 
HETATM    6  C   UNL     2     -11.395  11.341  69.011  1.00  0.00    -0.278 C  
HETATM    7  C   UNL     2     -10.442  10.392  69.621  1.00  0.00    -0.279 A  
HETATM    8  O   UNL     2     -12.523  10.993  68.681  1.00  0.00    -0.462 OA 
HETATM    9  C   UNL     2      -8.698   8.482  70.686  1.00  0.00    -0.171 A  
HETATM   10  C   UNL     2     -10.939   9.338  70.399  1.00  0.00    -0.255 A  
HETATM   11  C   UNL     2     -10.064   8.414  70.960  1.00  0.00    -0.242 A  
HETATM   12  C   UNL     2      -9.070  10.457  69.351  1.00  0.00    -0.170 A  
HETATM   13  H   UNL     2     -12.607   8.424  71.151  1.00  0.00     0.000 HD 
HETATM   14  C   UNL     2      -8.205   9.491  69.862  1.00  0.00    -0.169 A  
ENDROOT
BRANCH   4  15
HETATM   15  C   UNL     1      -9.881   9.741  65.899  1.00  0.00    -0.282 C  
BRANCH  15  16
HETATM   16  N   UNL     1      -8.505   9.181  65.902  1.00  0.00    -0.135 NA 
BRANCH  16  17
HETATM   17  C   UNL     1      -8.325   8.092  64.896  1.00  0.00    -0.123 C  
BRANCH  17  18
HETATM   18  C   UNL     1      -8.269   8.433  63.397  1.00  0.00    -0.114 C  
HETATM   19  H   UNL     1      -6.946   8.467  61.907  1.00  0.00     0.000 HD 
HETATM   20  O   UNL     1      -6.980   8.257  62.833  1.00  0.00    -0.088 OA 
ENDBRANCH  17  18
ENDBRANCH  16  17
BRANCH  16  21
HETATM   21  C   UNL     1      -7.496  10.233  65.626  1.00  0.00    -0.149 C  
BRANCH  21  22
HETATM   22  C   UNL     1      -6.250  10.283  66.536  1.00  0.00    -0.073 C  
HETATM   23  O   UNL     1      -6.387  11.327  67.498  1.00  0.00    -0.060 OA 
HETATM   24  H   UNL     1      -5.620  11.357  68.058  1.00  0.00     0.000 HD 
ENDBRANCH  21  22
ENDBRANCH  16  21
ENDBRANCH  15  16
ENDBRANCH   4  15
TORSDOF 6
ENDMDL
MODEL      250
REMARK 921   NORMALIZED FREE ENERGY PREDICTED BY IDOCK:   -2.67 KCAL/MOL
REMARK 922        TOTAL FREE ENERGY PREDICTED BY IDOCK:   -4.46 KCAL/MOL
REMARK 923 INTER-LIGAND FREE ENERGY PREDICTED BY IDOCK:   -3.81 KCAL/MOL
REMARK 924 INTRA-LIGAND FREE ENERGY PREDICTED BY IDOCK:   -0.66 KCAL/MOL
REMARK 927      BINDING AFFINITY PREDICTED BY RF-SCORE:    0.00 PKD
ROOT
HETATM    1  O   UNL     1     -11.272   6.068  66.340  1.00  0.00    -0.742 OA 
HETATM    2  H   UNL     1     -11.575   6.789  65.801  1.00  0.00     0.000 HD 
HETATM    3  O   UNL     2     -10.887   9.447  69.111  1.00  0.00    -0.220 OA 
HETATM    4  C   UNL     1     -11.004   6.433  67.689  1.00  0.00    -0.349 C  
HETATM    5  O   UNL     2     -10.353   8.222  72.993  1.00  0.00    -0.275 OA 
HETATM    6  C   UNL     2     -10.885   8.674  70.213  1.00  0.00    -0.235 C  
HETATM    7  C   UNL     2      -9.548   8.278  70.698  1.00  0.00    -0.190 A  
HETATM    8  O   UNL     2     -11.906   8.320  70.791  1.00  0.00    -0.264 OA 
HETATM    9  C   UNL     2      -7.076   7.391  71.661  1.00  0.00    -0.062 A  
HETATM   10  C   UNL     2      -9.356   8.074  72.071  1.00  0.00    -0.178 A  
HETATM   11  C   UNL     2      -8.115   7.672  72.549  1.00  0.00    -0.140 A  
HETATM   12  C   UNL     2      -8.502   7.997  69.811  1.00  0.00    -0.127 A  
HETATM   13  H   UNL     2     -10.223   8.083  73.924  1.00  0.00     0.000 HD 
HETATM   14  C   UNL     2      -7.278   7.531  70.290  1.00  0.00    -0.064 A  
ENDROOT
BRANCH   4  15
HETATM   15  C   UNL     1     -10.508   5.254  68.570  1.00  0.00    -0.077 C  
BRANCH  15  16
HETATM   16  N   UNL     1      -9.177   4.687  68.230  1.00  0.00    -0.121 NA 
BRANCH  16  17
HETATM   17  C   UNL     1      -8.519   4.024  69.393  1.00  0.00    -0.068 C  
BRANCH  17  18
HETATM   18  C   UNL     1      -9.365   3.556  70.591  1.00  0.00    -0.160 C  
HETATM   19  H   UNL     1      -9.580   3.956  72.531  1.00  0.00     0.000 HD 
HETATM   20  O   UNL     1      -9.058   4.246  71.792  1.00  0.00    -0.116 OA 
ENDBRANCH  17  18
ENDBRANCH  16  17
BRANCH  16  21
HETATM   21  C   UNL     1      -9.282   3.693  67.133  1.00  0.00    -0.188 C  
BRANCH  21  22
HETATM   22  C   UNL     1      -8.220   3.752  66.014  1.00  0.00    -0.101 C  
HETATM   23  O   UNL     1      -8.679   4.578  64.945  1.00  0.00    -0.128 OA 
HETATM   24  H   UNL     1      -8.025   4.614  64.257  1.00  0.00     0.000 HD 
ENDBRANCH  21  22
ENDBRANCH  16  21
ENDBRANCH  15  16
ENDBRANCH   4  15
TORSDOF 6
ENDMDL
MODEL      251
REMARK 921   NORMALIZED FREE ENERGY PREDICTED BY IDOCK:   -2.65 KCAL/MOL
REMARK 922        TOTAL FREE ENERGY PREDICTED BY IDOCK:   -4.43 KCAL/MOL
REMARK 923 INTER-LIGAND FREE ENERGY PREDICTED BY IDOCK:   -3.53 KCAL/MOL
REMARK 924 INTRA-LIGAND FREE ENERGY PREDICTED BY IDOCK:   -0.91 KCAL/MOL
REMARK 927      BINDING AFFINITY PREDICTED BY RF-SCORE:    0.00 PKD
ROOT
HETATM    1  O   UNL     1      -8.484  10.460  66.135  1.00  0.00    -0.137 OA 
HETATM    2  H   UNL     1      -7.665  10.718  65.729  1.00  0.00     0.000 HD 
HETATM    3  O   UNL     2      -5.839   7.179  67.353  1.00  0.00    -0.023 OA 
HETATM    4  C   UNL     1      -8.378   9.307  66.961  1.00  0.00    -0.120 C  
HETATM    5  O   UNL     2      -7.462   4.909  70.365  1.00  0.00    -0.056 OA 
HETATM    6  C   UNL     2      -6.614   6.803  68.388  1.00  0.00    -0.059 C  
HETATM    7  C   UNL     2      -7.594   5.742  68.083  1.00  0.00    -0.085 A  
HETATM    8  O   UNL     2      -6.525   7.288  69.510  1.00  0.00    -0.035 OA 
HETATM    9  C   UNL     2      -9.549   3.799  67.605  1.00  0.00    -0.199 A  
HETATM   10  C   UNL     2      -7.964   4.848  69.096  1.00  0.00    -0.075 A  
HETATM   11  C   UNL     2      -8.906   3.858  68.842  1.00  0.00    -0.153 A  
HETATM   12  C   UNL     2      -8.240   5.676  66.842  1.00  0.00    -0.105 A  
HETATM   13  H   UNL     2      -7.713   4.303  71.052  1.00  0.00     0.000 HD 
HETATM   14  C   UNL     2      -9.231   4.724  66.614  1.00  0.00    -0.128 A  
ENDROOT
BRANCH   4  15
HETATM   15  C   UNL     1      -9.716   8.885  67.626  1.00  0.00    -0.161 C  
BRANCH  15  16
HETATM   16  N   UNL     1      -9.872   9.216  69.066  1.00  0.00    -0.170 NA 
BRANCH  16  17
HETATM   17  C   UNL     1     -11.025  10.127  69.326  1.00  0.00    -0.240 C  
BRANCH  17  18
HETATM   18  C   UNL     1     -11.541  10.325  70.762  1.00  0.00    -0.355 C  
HETATM   19  H   UNL     1     -13.267  10.315  71.758  1.00  0.00     0.000 HD 
HETATM   20  O   UNL     1     -12.949  10.193  70.871  1.00  0.00    -0.365 OA 
ENDBRANCH  17  18
ENDBRANCH  16  17
BRANCH  16  21
HETATM   21  C   UNL     1     -10.063   7.990  69.881  1.00  0.00    -0.198 C  
BRANCH  21  22
HETATM   22  C   UNL     1     -10.992   6.895  69.315  1.00  0.00    -0.221 C  
HETATM   23  O   UNL     1     -12.225   6.880  70.032  1.00  0.00    -0.640 OA 
HETATM   24  H   UNL     1     -12.797   6.206  69.683  1.00  0.00     0.000 HD 
ENDBRANCH  21  22
ENDBRANCH  16  21
ENDBRANCH  15  16
ENDBRANCH   4  15
TORSDOF 6
ENDMDL
MODEL      252
REMARK 921   NORMALIZED FREE ENERGY PREDICTED BY IDOCK:   -2.61 KCAL/MOL
REMARK 922        TOTAL FREE ENERGY PREDICTED BY IDOCK:   -4.39 KCAL/MOL
REMARK 923 INTER-LIGAND FREE ENERGY PREDICTED BY IDOCK:   -3.71 KCAL/MOL
REMARK 924 INTRA-LIGAND FREE ENERGY PREDICTED BY IDOCK:   -0.68 KCAL/MOL
REMARK 927      BINDING AFFINITY PREDICTED BY RF-SCORE:    0.00 PKD
ROOT
HETATM    1  O   UNL     1      -5.681   6.360  68.547  1.00  0.00    -0.017 OA 
HETATM    2  H   UNL     1      -4.845   6.776  68.724  1.00  0.00     0.000 HD 
HETATM    3  O   UNL     2      -6.961  10.152  70.343  1.00  0.00    -0.166 OA 
HETATM    4  C   UNL     1      -6.805   7.188  68.821  1.00  0.00    -0.076 C  
HETATM    5  O   UNL     2     -10.956  10.886  69.744  1.00  0.00    -0.297 OA 
HETATM    6  C   UNL     2      -8.203  10.095  69.824  1.00  0.00    -0.145 C  
HETATM    7  C   UNL     2      -9.219   9.475  70.698  1.00  0.00    -0.243 A  
HETATM    8  O   UNL     2      -8.491  10.527  68.714  1.00  0.00    -0.125 OA 
HETATM    9  C   UNL     2     -11.213   8.243  72.224  1.00  0.00    -0.443 A  
HETATM   10  C   UNL     2     -10.547   9.910  70.608  1.00  0.00    -0.271 A  
HETATM   11  C   UNL     2     -11.528   9.322  71.398  1.00  0.00    -0.439 A  
HETATM   12  C   UNL     2      -8.907   8.394  71.530  1.00  0.00    -0.239 A  
HETATM   13  H   UNL     2     -11.858  11.180  69.683  1.00  0.00     0.000 HD 
HETATM   14  C   UNL     2      -9.906   7.765  72.272  1.00  0.00    -0.248 A  
ENDROOT
BRANCH   4  15
HETATM   15  C   UNL     1      -8.171   6.509  68.531  1.00  0.00    -0.121 C  
BRANCH  15  16
HETATM   16  N   UNL     1      -8.588   5.436  69.472  1.00  0.00    -0.102 NA 
BRANCH  16  17
HETATM   17  C   UNL     1     -10.049   5.470  69.772  1.00  0.00    -0.232 C  
BRANCH  17  18
HETATM   18  C   UNL     1     -10.994   6.317  68.901  1.00  0.00    -0.368 C  
HETATM   19  H   UNL     1     -11.748   6.317  67.057  1.00  0.00     0.000 HD 
HETATM   20  O   UNL     1     -11.165   5.794  67.594  1.00  0.00    -0.037 OA 
ENDBRANCH  17  18
ENDBRANCH  16  17
BRANCH  16  21
HETATM   21  C   UNL     1      -8.261   4.092  68.932  1.00  0.00    -0.073 C  
BRANCH  21  22
HETATM   22  C   UNL     1      -6.926   3.452  69.371  1.00  0.00    -0.041 C  
HETATM   23  O   UNL     1      -6.376   4.175  70.471  1.00  0.00    -0.025 OA 
HETATM   24  H   UNL     1      -5.554   3.782  70.741  1.00  0.00     0.000 HD 
ENDBRANCH  21  22
ENDBRANCH  16  21
ENDBRANCH  15  16
ENDBRANCH   4  15
TORSDOF 6
ENDMDL
MODEL      253
REMARK 921   NORMALIZED FREE ENERGY PREDICTED BY IDOCK:   -2.60 KCAL/MOL
REMARK 922        TOTAL FREE ENERGY PREDICTED BY IDOCK:   -4.37 KCAL/MOL
REMARK 923 INTER-LIGAND FREE ENERGY PREDICTED BY IDOCK:   -3.60 KCAL/MOL
REMARK 924 INTRA-LIGAND FREE ENERGY PREDICTED BY IDOCK:   -0.77 KCAL/MOL
REMARK 927      BINDING AFFINITY PREDICTED BY RF-SCORE:    0.00 PKD
ROOT
HETATM    1  O   UNL     1      -6.957   8.637  66.944  1.00  0.00    -0.075 OA 
HETATM    2  H   UNL     1      -7.002   7.937  66.304  1.00  0.00     0.000 HD 
HETATM    3  O   UNL     2      -8.977   5.490  69.239  1.00  0.00    -0.111 OA 
HETATM    4  C   UNL     1      -7.417   8.263  68.238  1.00  0.00    -0.097 C  
HETATM    5  O   UNL     2      -9.035   6.294  73.265  1.00  0.00    -0.130 OA 
HETATM    6  C   UNL     2      -8.663   6.021  70.436  1.00  0.00    -0.144 C  
HETATM    7  C   UNL     2      -9.682   6.925  71.006  1.00  0.00    -0.178 A  
HETATM    8  O   UNL     2      -7.619   5.779  71.029  1.00  0.00    -0.091 OA 
HETATM    9  C   UNL     2     -11.495   8.723  72.148  1.00  0.00    -0.421 A  
HETATM   10  C   UNL     2      -9.811   7.010  72.398  1.00  0.00    -0.153 A  
HETATM   11  C   UNL     2     -10.742   7.876  72.961  1.00  0.00    -0.408 A  
HETATM   12  C   UNL     2     -10.441   7.776  70.195  1.00  0.00    -0.231 A  
HETATM   13  H   UNL     2      -9.123   6.352  74.209  1.00  0.00     0.000 HD 
HETATM   14  C   UNL     2     -11.327   8.689  70.765  1.00  0.00    -0.299 A  
ENDROOT
BRANCH   4  15
HETATM   15  C   UNL     1      -7.343   9.407  69.285  1.00  0.00    -0.071 C  
BRANCH  15  16
HETATM   16  N   UNL     1      -7.309  10.793  68.749  1.00  0.00    -0.095 NA 
BRANCH  16  17
HETATM   17  C   UNL     1      -8.666  11.406  68.651  1.00  0.00    -0.121 C  
BRANCH  17  18
HETATM   18  C   UNL     1      -9.238  11.792  67.275  1.00  0.00    -0.173 C  
HETATM   19  H   UNL     1      -8.995  11.315  65.355  1.00  0.00     0.000 HD 
HETATM   20  O   UNL     1      -8.642  11.077  66.205  1.00  0.00    -0.169 OA 
ENDBRANCH  17  18
ENDBRANCH  16  17
BRANCH  16  21
HETATM   21  C   UNL     1      -6.465  11.675  69.594  1.00  0.00    -0.124 C  
BRANCH  21  22
HETATM   22  C   UNL     1      -6.504  13.191  69.303  1.00  0.00    -0.107 C  
HETATM   23  O   UNL     1      -6.777  13.914  70.502  1.00  0.00    -0.402 OA 
HETATM   24  H   UNL     1      -6.801  14.847  70.322  1.00  0.00     0.000 HD 
ENDBRANCH  21  22
ENDBRANCH  16  21
ENDBRANCH  15  16
ENDBRANCH   4  15
TORSDOF 6
ENDMDL
MODEL      254
REMARK 921   NORMALIZED FREE ENERGY PREDICTED BY IDOCK:   -2.59 KCAL/MOL
REMARK 922        TOTAL FREE ENERGY PREDICTED BY IDOCK:   -4.35 KCAL/MOL
REMARK 923 INTER-LIGAND FREE ENERGY PREDICTED BY IDOCK:   -3.98 KCAL/MOL
REMARK 924 INTRA-LIGAND FREE ENERGY PREDICTED BY IDOCK:   -0.37 KCAL/MOL
REMARK 927      BINDING AFFINITY PREDICTED BY RF-SCORE:    0.00 PKD
ROOT
HETATM    1  O   UNL     1      -9.064  11.647  65.202  1.00  0.00    -0.407 OA 
HETATM    2  H   UNL     1      -9.073  10.981  64.525  1.00  0.00     0.000 HD 
HETATM    3  O   UNL     2      -9.912   8.038  67.547  1.00  0.00    -0.165 OA 
HETATM    4  C   UNL     1      -9.191  11.128  66.521  1.00  0.00    -0.179 C  
HETATM    5  O   UNL     2      -9.410   8.647  71.576  1.00  0.00    -0.200 OA 
HETATM    6  C   UNL     2      -9.508   8.577  68.712  1.00  0.00    -0.143 C  
HETATM    7  C   UNL     2     -10.576   9.206  69.515  1.00  0.00    -0.233 A  
HETATM    8  O   UNL     2      -8.346   8.553  69.101  1.00  0.00    -0.117 OA 
HETATM    9  C   UNL     2     -12.495  10.503  71.083  1.00  0.00    -0.517 A  
HETATM   10  C   UNL     2     -10.466   9.204  70.911  1.00  0.00    -0.278 A  
HETATM   11  C   UNL     2     -11.443   9.815  71.689  1.00  0.00    -0.294 A  
HETATM   12  C   UNL     2     -11.635   9.896  68.913  1.00  0.00     0.120 A  
HETATM   13  H   UNL     2      -9.336   8.646  72.523  1.00  0.00     0.000 HD 
HETATM   14  C   UNL     2     -12.577  10.562  69.694  1.00  0.00     0.060 A  
ENDROOT
BRANCH   4  15
HETATM   15  C   UNL     1      -9.176  12.217  67.628  1.00  0.00    -0.183 C  
BRANCH  15  16
HETATM   16  N   UNL     1      -8.045  13.181  67.592  1.00  0.00    -0.162 NA 
BRANCH  16  17
HETATM   17  C   UNL     1      -8.472  14.556  67.200  1.00  0.00    -0.212 C  
BRANCH  17  18
HETATM   18  C   UNL     1      -7.430  15.682  67.084  1.00  0.00    -0.218 C  
HETATM   19  H   UNL     1      -7.367  17.653  66.795  1.00  0.00     0.000 HD 
HETATM   20  O   UNL     1      -8.010  16.958  66.866  1.00  0.00    -0.176 OA 
ENDBRANCH  17  18
ENDBRANCH  16  17
BRANCH  16  21
HETATM   21  C   UNL     1      -7.371  13.268  68.912  1.00  0.00    -0.023 C  
BRANCH  21  22
HETATM   22  C   UNL     1      -6.431  12.110  69.310  1.00  0.00    -0.111 C  
HETATM   23  O   UNL     1      -6.203  12.126  70.718  1.00  0.00    -0.541 OA 
HETATM   24  H   UNL     1      -5.624  11.413  70.963  1.00  0.00     0.000 HD 
ENDBRANCH  21  22
ENDBRANCH  16  21
ENDBRANCH  15  16
ENDBRANCH   4  15
TORSDOF 6
ENDMDL
MODEL      255
REMARK 921   NORMALIZED FREE ENERGY PREDICTED BY IDOCK:   -2.58 KCAL/MOL
REMARK 922        TOTAL FREE ENERGY PREDICTED BY IDOCK:   -4.35 KCAL/MOL
REMARK 923 INTER-LIGAND FREE ENERGY PREDICTED BY IDOCK:   -3.79 KCAL/MOL
REMARK 924 INTRA-LIGAND FREE ENERGY PREDICTED BY IDOCK:   -0.56 KCAL/MOL
REMARK 927      BINDING AFFINITY PREDICTED BY RF-SCORE:    0.00 PKD
ROOT
HETATM    1  O   UNL     1      -8.773   7.373  74.465  1.00  0.00    -0.284 OA 
HETATM    2  H   UNL     1      -9.470   7.309  75.106  1.00  0.00     0.000 HD 
HETATM    3  O   UNL     2     -12.241   6.577  71.899  1.00  0.00    -0.343 OA 
HETATM    4  C   UNL     1      -9.223   7.310  73.116  1.00  0.00    -0.159 C  
HETATM    5  O   UNL     2     -11.451   7.321  67.940  1.00  0.00    -0.292 OA 
HETATM    6  C   UNL     2     -11.656   7.059  70.786  1.00  0.00    -0.338 C  
HETATM    7  C   UNL     2     -10.962   6.054  69.957  1.00  0.00    -0.450 A  
HETATM    8  O   UNL     2     -11.692   8.240  70.463  1.00  0.00    -0.205 OA 
HETATM    9  C   UNL     2      -9.541   4.258  68.351  1.00  0.00    -0.197 A  
HETATM   10  C   UNL     2     -10.899   6.243  68.571  1.00  0.00    -0.323 A  
HETATM   11  C   UNL     2     -10.226   5.326  67.772  1.00  0.00    -0.211 A  
HETATM   12  C   UNL     2     -10.275   4.979  70.533  1.00  0.00    -0.316 A  
HETATM   13  H   UNL     2     -11.408   7.450  66.999  1.00  0.00     0.000 HD 
HETATM   14  C   UNL     2      -9.547   4.098  69.734  1.00  0.00    -0.281 A  
ENDROOT
BRANCH   4  15
HETATM   15  C   UNL     1      -8.083   7.414  72.068  1.00  0.00    -0.094 C  
BRANCH  15  16
HETATM   16  N   UNL     1      -6.832   6.672  72.375  1.00  0.00    -0.067 NA 
BRANCH  16  17
HETATM   17  C   UNL     1      -6.984   5.196  72.212  1.00  0.00    -0.079 C  
BRANCH  17  18
HETATM   18  C   UNL     1      -7.138   4.297  73.451  1.00  0.00    -0.065 C  
HETATM   19  H   UNL     1      -6.001   3.218  74.681  1.00  0.00     0.000 HD 
HETATM   20  O   UNL     1      -5.905   3.773  73.916  1.00  0.00    -0.004 OA 
ENDBRANCH  17  18
ENDBRANCH  16  17
BRANCH  16  21
HETATM   21  C   UNL     1      -5.715   7.118  71.505  1.00  0.00    -0.036 C  
BRANCH  21  22
HETATM   22  C   UNL     1      -6.080   7.871  70.207  1.00  0.00    -0.032 C  
HETATM   23  O   UNL     1      -5.814   7.049  69.073  1.00  0.00    -0.018 OA 
HETATM   24  H   UNL     1      -6.038   7.512  68.274  1.00  0.00     0.000 HD 
ENDBRANCH  21  22
ENDBRANCH  16  21
ENDBRANCH  15  16
ENDBRANCH   4  15
TORSDOF 6
ENDMDL
MODEL      256
REMARK 921   NORMALIZED FREE ENERGY PREDICTED BY IDOCK:   -2.57 KCAL/MOL
REMARK 922        TOTAL FREE ENERGY PREDICTED BY IDOCK:   -4.33 KCAL/MOL
REMARK 923 INTER-LIGAND FREE ENERGY PREDICTED BY IDOCK:   -3.84 KCAL/MOL
REMARK 924 INTRA-LIGAND FREE ENERGY PREDICTED BY IDOCK:   -0.48 KCAL/MOL
REMARK 927      BINDING AFFINITY PREDICTED BY RF-SCORE:    0.00 PKD
ROOT
HETATM    1  O   UNL     1      -9.260   5.929  68.810  1.00  0.00    -0.115 OA 
HETATM    2  H   UNL     1      -9.547   5.494  68.016  1.00  0.00     0.000 HD 
HETATM    3  O   UNL     2     -10.277   9.354  66.265  1.00  0.00    -0.274 OA 
HETATM    4  C   UNL     1      -9.428   7.341  68.786  1.00  0.00    -0.142 C  
HETATM    5  O   UNL     2     -10.540  12.852  68.398  1.00  0.00    -0.241 OA 
HETATM    6  C   UNL     2     -10.410  10.210  67.297  1.00  0.00    -0.237 C  
HETATM    7  C   UNL     2      -9.194  10.975  67.637  1.00  0.00    -0.151 A  
HETATM    8  O   UNL     2     -11.456  10.363  67.915  1.00  0.00    -0.392 OA 
HETATM    9  C   UNL     2      -6.933  12.418  68.431  1.00  0.00    -0.091 A  
HETATM   10  C   UNL     2      -9.330  12.263  68.171  1.00  0.00    -0.205 A  
HETATM   11  C   UNL     2      -8.201  12.992  68.527  1.00  0.00    -0.067 A  
HETATM   12  C   UNL     2      -7.919  10.404  67.540  1.00  0.00    -0.106 A  
HETATM   13  H   UNL     2     -10.632  13.726  68.761  1.00  0.00     0.000 HD 
HETATM   14  C   UNL     2      -6.795  11.115  67.959  1.00  0.00    -0.067 A  
ENDROOT
BRANCH   4  15
HETATM   15  C   UNL     1      -8.958   8.052  70.084  1.00  0.00    -0.150 C  
BRANCH  15  16
HETATM   16  N   UNL     1      -9.943   8.117  71.196  1.00  0.00    -0.177 NA 
BRANCH  16  17
HETATM   17  C   UNL     1     -11.332   8.385  70.719  1.00  0.00    -0.265 C  
BRANCH  17  18
HETATM   18  C   UNL     1     -12.176   9.484  71.388  1.00  0.00    -0.371 C  
HETATM   19  H   UNL     1     -13.735   9.648  72.619  1.00  0.00     0.000 HD 
HETATM   20  O   UNL     1     -13.214   8.969  72.206  1.00  0.00    -0.401 OA 
ENDBRANCH  17  18
ENDBRANCH  16  17
BRANCH  16  21
HETATM   21  C   UNL     1      -9.960   6.853  71.974  1.00  0.00    -0.166 C  
BRANCH  21  22
HETATM   22  C   UNL     1      -8.925   6.701  73.109  1.00  0.00    -0.127 C  
HETATM   23  O   UNL     1      -7.781   5.991  72.637  1.00  0.00    -0.098 OA 
HETATM   24  H   UNL     1      -7.144   5.897  73.336  1.00  0.00     0.000 HD 
ENDBRANCH  21  22
ENDBRANCH  16  21
ENDBRANCH  15  16
ENDBRANCH   4  15
TORSDOF 6
ENDMDL
MODEL      257
REMARK 921   NORMALIZED FREE ENERGY PREDICTED BY IDOCK:   -2.55 KCAL/MOL
REMARK 922        TOTAL FREE ENERGY PREDICTED BY IDOCK:   -4.31 KCAL/MOL
REMARK 923 INTER-LIGAND FREE ENERGY PREDICTED BY IDOCK:   -3.57 KCAL/MOL
REMARK 924 INTRA-LIGAND FREE ENERGY PREDICTED BY IDOCK:   -0.74 KCAL/MOL
REMARK 927      BINDING AFFINITY PREDICTED BY RF-SCORE:    0.00 PKD
ROOT
HETATM    1  O   UNL     1      -8.182   2.692  68.578  1.00  0.00    -0.059 OA 
HETATM    2  H   UNL     1      -8.625   2.033  68.057  1.00  0.00     0.000 HD 
HETATM    3  O   UNL     2     -10.748   5.178  66.032  1.00  0.00    -0.264 OA 
HETATM    4  C   UNL     1      -8.654   4.015  68.354  1.00  0.00    -0.095 C  
HETATM    5  O   UNL     2     -11.013   9.043  67.392  1.00  0.00    -0.444 OA 
HETATM    6  C   UNL     2     -10.698   6.246  66.851  1.00  0.00    -0.339 C  
HETATM    7  C   UNL     2      -9.640   7.226  66.537  1.00  0.00    -0.211 A  
HETATM    8  O   UNL     2     -11.470   6.415  67.788  1.00  0.00    -0.146 OA 
HETATM    9  C   UNL     2      -7.620   9.110  66.096  1.00  0.00    -0.095 A  
HETATM   10  C   UNL     2      -9.860   8.579  66.827  1.00  0.00    -0.257 A  
HETATM   11  C   UNL     2      -8.868   9.518  66.569  1.00  0.00    -0.156 A  
HETATM   12  C   UNL     2      -8.387   6.823  66.061  1.00  0.00    -0.134 A  
HETATM   13  H   UNL     2     -11.162   9.960  67.589  1.00  0.00     0.000 HD 
HETATM   14  C   UNL     2      -7.373   7.759  65.864  1.00  0.00    -0.073 A  
ENDROOT
BRANCH   4  15
HETATM   15  C   UNL     1      -7.930   5.093  69.205  1.00  0.00    -0.081 C  
BRANCH  15  16
HETATM   16  N   UNL     1      -8.595   5.492  70.473  1.00  0.00    -0.122 NA 
BRANCH  16  17
HETATM   17  C   UNL     1     -10.036   5.106  70.512  1.00  0.00    -0.256 C  
BRANCH  17  18
HETATM   18  C   UNL     1     -11.096   6.134  70.944  1.00  0.00    -0.307 C  
HETATM   19  H   UNL     1     -11.241   8.089  71.302  1.00  0.00     0.000 HD 
HETATM   20  O   UNL     1     -10.586   7.455  71.036  1.00  0.00    -0.222 OA 
ENDBRANCH  17  18
ENDBRANCH  16  17
BRANCH  16  21
HETATM   21  C   UNL     1      -7.923   4.882  71.647  1.00  0.00    -0.111 C  
BRANCH  21  22
HETATM   22  C   UNL     1      -7.409   5.834  72.748  1.00  0.00    -0.092 C  
HETATM   23  O   UNL     1      -8.312   6.925  72.914  1.00  0.00    -0.108 OA 
HETATM   24  H   UNL     1      -7.995   7.511  73.591  1.00  0.00     0.000 HD 
ENDBRANCH  21  22
ENDBRANCH  16  21
ENDBRANCH  15  16
ENDBRANCH   4  15
TORSDOF 6
ENDMDL
MODEL      258
REMARK 921   NORMALIZED FREE ENERGY PREDICTED BY IDOCK:   -2.54 KCAL/MOL
REMARK 922        TOTAL FREE ENERGY PREDICTED BY IDOCK:   -4.29 KCAL/MOL
REMARK 923 INTER-LIGAND FREE ENERGY PREDICTED BY IDOCK:   -3.27 KCAL/MOL
REMARK 924 INTRA-LIGAND FREE ENERGY PREDICTED BY IDOCK:   -1.02 KCAL/MOL
REMARK 927      BINDING AFFINITY PREDICTED BY RF-SCORE:    0.00 PKD
ROOT
HETATM    1  O   UNL     1      -9.982   8.819  65.854  1.00  0.00    -0.466 OA 
HETATM    2  H   UNL     1     -10.615   9.523  65.918  1.00  0.00     0.000 HD 
HETATM    3  O   UNL     2     -11.355   8.379  69.998  1.00  0.00    -0.154 OA 
HETATM    4  C   UNL     1      -9.926   7.989  67.009  1.00  0.00    -0.254 C  
HETATM    5  O   UNL     2     -10.236   4.784  71.634  1.00  0.00    -0.194 OA 
HETATM    6  C   UNL     2     -10.948   7.100  70.104  1.00  0.00    -0.267 C  
HETATM    7  C   UNL     2      -9.592   6.917  70.659  1.00  0.00    -0.171 A  
HETATM    8  O   UNL     2     -11.640   6.143  69.776  1.00  0.00    -0.405 OA 
HETATM    9  C   UNL     2      -7.006   6.449  71.616  1.00  0.00    -0.072 A  
HETATM   10  C   UNL     2      -9.312   5.762  71.399  1.00  0.00    -0.146 A  
HETATM   11  C   UNL     2      -8.035   5.552  71.907  1.00  0.00    -0.114 A  
HETATM   12  C   UNL     2      -8.557   7.815  70.372  1.00  0.00    -0.137 A  
HETATM   13  H   UNL     2     -10.045   4.000  72.136  1.00  0.00     0.000 HD 
HETATM   14  C   UNL     2      -7.263   7.568  70.828  1.00  0.00    -0.067 A  
ENDROOT
BRANCH   4  15
HETATM   15  C   UNL     1      -8.890   6.837  66.905  1.00  0.00    -0.119 C  
BRANCH  15  16
HETATM   16  N   UNL     1      -9.150   5.807  65.865  1.00  0.00    -0.156 NA 
BRANCH  16  17
HETATM   17  C   UNL     1      -8.229   5.925  64.696  1.00  0.00    -0.120 C  
BRANCH  17  18
HETATM   18  C   UNL     1      -7.186   7.055  64.650  1.00  0.00    -0.073 C  
HETATM   19  H   UNL     1      -5.543   7.549  63.635  1.00  0.00     0.000 HD 
HETATM   20  O   UNL     1      -6.188   6.852  63.663  1.00  0.00    -0.041 OA 
ENDBRANCH  17  18
ENDBRANCH  16  17
BRANCH  16  21
HETATM   21  C   UNL     1      -9.014   4.437  66.420  1.00  0.00    -0.117 C  
BRANCH  21  22
HETATM   22  C   UNL     1      -8.642   4.306  67.913  1.00  0.00    -0.099 C  
HETATM   23  O   UNL     1      -9.788   3.925  68.672  1.00  0.00    -0.098 OA 
HETATM   24  H   UNL     1      -9.559   3.845  69.590  1.00  0.00     0.000 HD 
ENDBRANCH  21  22
ENDBRANCH  16  21
ENDBRANCH  15  16
ENDBRANCH   4  15
TORSDOF 6
ENDMDL
MODEL      259
REMARK 921   NORMALIZED FREE ENERGY PREDICTED BY IDOCK:   -2.54 KCAL/MOL
REMARK 922        TOTAL FREE ENERGY PREDICTED BY IDOCK:   -4.28 KCAL/MOL
REMARK 923 INTER-LIGAND FREE ENERGY PREDICTED BY IDOCK:   -4.11 KCAL/MOL
REMARK 924 INTRA-LIGAND FREE ENERGY PREDICTED BY IDOCK:   -0.17 KCAL/MOL
REMARK 927      BINDING AFFINITY PREDICTED BY RF-SCORE:    0.00 PKD
ROOT
HETATM    1  O   UNL     1      -8.059  10.745  68.589  1.00  0.00    -0.120 OA 
HETATM    2  H   UNL     1      -7.482  11.298  69.102  1.00  0.00     0.000 HD 
HETATM    3  O   UNL     2      -8.353   8.872  72.545  1.00  0.00    -0.388 OA 
HETATM    4  C   UNL     1      -8.751   9.767  69.357  1.00  0.00    -0.174 C  
HETATM    5  O   UNL     2     -11.506   6.254  72.796  1.00  0.00    -0.404 OA 
HETATM    6  C   UNL     2      -9.519   8.253  72.277  1.00  0.00    -0.271 C  
HETATM    7  C   UNL     2      -9.392   6.874  71.765  1.00  0.00    -0.147 A  
HETATM    8  O   UNL     2     -10.615   8.774  72.446  1.00  0.00    -0.307 OA 
HETATM    9  C   UNL     2      -9.278   4.287  70.706  1.00  0.00    -0.205 A  
HETATM   10  C   UNL     2     -10.400   5.946  72.057  1.00  0.00    -0.207 A  
HETATM   11  C   UNL     2     -10.319   4.650  71.561  1.00  0.00    -0.174 A  
HETATM   12  C   UNL     2      -8.349   6.504  70.908  1.00  0.00    -0.126 A  
HETATM   13  H   UNL     2     -12.190   5.625  72.994  1.00  0.00     0.000 HD 
HETATM   14  C   UNL     2      -8.306   5.223  70.361  1.00  0.00    -0.111 A  
ENDROOT
BRANCH   4  15
HETATM   15  C   UNL     1      -9.695   8.863  68.518  1.00  0.00    -0.161 C  
BRANCH  15  16
HETATM   16  N   UNL     1      -9.040   7.864  67.634  1.00  0.00    -0.133 NA 
BRANCH  16  17
HETATM   17  C   UNL     1     -10.019   7.094  66.812  1.00  0.00    -0.208 C  
BRANCH  17  18
HETATM   18  C   UNL     1     -10.159   5.574  67.006  1.00  0.00    -0.194 C  
HETATM   19  H   UNL     1     -10.960   4.003  66.077  1.00  0.00     0.000 HD 
HETATM   20  O   UNL     1     -10.874   4.942  65.957  1.00  0.00    -0.301 OA 
ENDBRANCH  17  18
ENDBRANCH  16  17
BRANCH  16  21
HETATM   21  C   UNL     1      -8.075   8.514  66.711  1.00  0.00    -0.098 C  
BRANCH  21  22
HETATM   22  C   UNL     1      -8.554   8.813  65.274  1.00  0.00    -0.187 C  
HETATM   23  O   UNL     1      -9.333  10.008  65.257  1.00  0.00    -0.198 OA 
HETATM   24  H   UNL     1      -9.628  10.192  64.373  1.00  0.00     0.000 HD 
ENDBRANCH  21  22
ENDBRANCH  16  21
ENDBRANCH  15  16
ENDBRANCH   4  15
TORSDOF 6
ENDMDL
MODEL      260
REMARK 921   NORMALIZED FREE ENERGY PREDICTED BY IDOCK:   -2.47 KCAL/MOL
REMARK 922        TOTAL FREE ENERGY PREDICTED BY IDOCK:   -4.19 KCAL/MOL
REMARK 923 INTER-LIGAND FREE ENERGY PREDICTED BY IDOCK:   -3.14 KCAL/MOL
REMARK 924 INTRA-LIGAND FREE ENERGY PREDICTED BY IDOCK:   -1.05 KCAL/MOL
REMARK 927      BINDING AFFINITY PREDICTED BY RF-SCORE:    0.00 PKD
ROOT
HETATM    1  O   UNL     1      -8.197  10.895  64.916  1.00  0.00    -0.359 OA 
HETATM    2  H   UNL     1      -7.450  10.862  64.331  1.00  0.00     0.000 HD 
HETATM    3  O   UNL     2      -6.327   7.109  66.107  1.00  0.00    -0.041 OA 
HETATM    4  C   UNL     1      -8.224   9.843  65.874  1.00  0.00    -0.124 C  
HETATM    5  O   UNL     2      -7.791   5.706  69.677  1.00  0.00    -0.088 OA 
HETATM    6  C   UNL     2      -6.926   7.076  67.313  1.00  0.00    -0.078 C  
HETATM    7  C   UNL     2      -8.197   6.325  67.360  1.00  0.00    -0.109 A  
HETATM    8  O   UNL     2      -6.464   7.615  68.312  1.00  0.00    -0.046 OA 
HETATM    9  C   UNL     2     -10.656   5.007  67.555  1.00  0.00    -0.019 A  
HETATM   10  C   UNL     2      -8.559   5.678  68.548  1.00  0.00    -0.107 A  
HETATM   11  C   UNL     2      -9.764   4.990  68.628  1.00  0.00    -0.221 A  
HETATM   12  C   UNL     2      -9.095   6.338  66.286  1.00  0.00    -0.166 A  
HETATM   13  H   UNL     2      -8.037   5.267  70.483  1.00  0.00     0.000 HD 
HETATM   14  C   UNL     2     -10.330   5.702  66.392  1.00  0.00    -0.241 A  
ENDROOT
BRANCH   4  15
HETATM   15  C   UNL     1      -9.445   9.897  66.832  1.00  0.00    -0.163 C  
BRANCH  15  16
HETATM   16  N   UNL     1      -9.216  10.521  68.161  1.00  0.00    -0.145 NA 
BRANCH  16  17
HETATM   17  C   UNL     1     -10.221  11.576  68.483  1.00  0.00    -0.213 C  
BRANCH  17  18
HETATM   18  C   UNL     1     -11.345  11.286  69.492  1.00  0.00    -0.294 C  
HETATM   19  H   UNL     1     -12.608  12.282  70.670  1.00  0.00     0.000 HD 
HETATM   20  O   UNL     1     -11.913  12.461  70.046  1.00  0.00    -0.328 OA 
ENDBRANCH  17  18
ENDBRANCH  16  17
BRANCH  16  21
HETATM   21  C   UNL     1      -9.252   9.506  69.245  1.00  0.00    -0.169 C  
BRANCH  21  22
HETATM   22  C   UNL     1      -8.217   9.640  70.382  1.00  0.00    -0.160 C  
HETATM   23  O   UNL     1      -7.723   8.353  70.748  1.00  0.00    -0.071 OA 
HETATM   24  H   UNL     1      -7.086   8.435  71.448  1.00  0.00     0.000 HD 
ENDBRANCH  21  22
ENDBRANCH  16  21
ENDBRANCH  15  16
ENDBRANCH   4  15
TORSDOF 6
ENDMDL
MODEL      261
REMARK 921   NORMALIZED FREE ENERGY PREDICTED BY IDOCK:   -2.45 KCAL/MOL
REMARK 922        TOTAL FREE ENERGY PREDICTED BY IDOCK:   -4.17 KCAL/MOL
REMARK 923 INTER-LIGAND FREE ENERGY PREDICTED BY IDOCK:   -3.32 KCAL/MOL
REMARK 924 INTRA-LIGAND FREE ENERGY PREDICTED BY IDOCK:   -0.85 KCAL/MOL
REMARK 927      BINDING AFFINITY PREDICTED BY RF-SCORE:    0.00 PKD
ROOT
HETATM    1  O   UNL     1      -8.055   9.827  69.032  1.00  0.00    -0.091 OA 
HETATM    2  H   UNL     1      -8.664  10.135  69.693  1.00  0.00     0.000 HD 
HETATM    3  O   UNL     2     -10.958   6.540  69.138  1.00  0.00    -0.274 OA 
HETATM    4  C   UNL     1      -8.460   8.621  68.394  1.00  0.00    -0.131 C  
HETATM    5  O   UNL     2     -10.572   4.019  65.920  1.00  0.00    -0.411 OA 
HETATM    6  C   UNL     2     -10.624   6.071  67.921  1.00  0.00    -0.267 C  
HETATM    7  C   UNL     2      -9.599   5.008  67.919  1.00  0.00    -0.176 A  
HETATM    8  O   UNL     2     -11.127   6.477  66.879  1.00  0.00    -0.399 OA 
HETATM    9  C   UNL     2      -7.604   3.052  67.781  1.00  0.00    -0.057 A  
HETATM   10  C   UNL     2      -9.632   4.035  66.912  1.00  0.00    -0.207 A  
HETATM   11  C   UNL     2      -8.662   3.041  66.871  1.00  0.00    -0.136 A  
HETATM   12  C   UNL     2      -8.537   5.014  68.831  1.00  0.00    -0.091 A  
HETATM   13  H   UNL     2     -10.594   3.359  65.237  1.00  0.00     0.000 HD 
HETATM   14  C   UNL     2      -7.530   4.053  68.746  1.00  0.00    -0.055 A  
ENDROOT
BRANCH   4  15
HETATM   15  C   UNL     1      -7.465   8.118  67.314  1.00  0.00    -0.090 C  
BRANCH  15  16
HETATM   16  N   UNL     1      -7.969   8.084  65.916  1.00  0.00    -0.102 NA 
BRANCH  16  17
HETATM   17  C   UNL     1      -7.944   9.425  65.262  1.00  0.00    -0.110 C  
BRANCH  17  18
HETATM   18  C   UNL     1      -9.023   9.799  64.231  1.00  0.00    -0.237 C  
HETATM   19  H   UNL     1      -9.293   9.777  62.256  1.00  0.00     0.000 HD 
HETATM   20  O   UNL     1      -8.627   9.546  62.893  1.00  0.00    -0.185 OA 
ENDBRANCH  17  18
ENDBRANCH  16  17
BRANCH  16  21
HETATM   21  C   UNL     1      -7.173   7.150  65.080  1.00  0.00    -0.073 C  
BRANCH  21  22
HETATM   22  C   UNL     1      -7.838   5.820  64.666  1.00  0.00    -0.116 C  
HETATM   23  O   UNL     1      -9.252   5.989  64.569  1.00  0.00    -0.109 OA 
HETATM   24  H   UNL     1      -9.661   5.171  64.314  1.00  0.00     0.000 HD 
ENDBRANCH  21  22
ENDBRANCH  16  21
ENDBRANCH  15  16
ENDBRANCH   4  15
TORSDOF 6
ENDMDL
MODEL      262
REMARK 921   NORMALIZED FREE ENERGY PREDICTED BY IDOCK:   -2.45 KCAL/MOL
REMARK 922        TOTAL FREE ENERGY PREDICTED BY IDOCK:   -4.16 KCAL/MOL
REMARK 923 INTER-LIGAND FREE ENERGY PREDICTED BY IDOCK:   -3.66 KCAL/MOL
REMARK 924 INTRA-LIGAND FREE ENERGY PREDICTED BY IDOCK:   -0.50 KCAL/MOL
REMARK 927      BINDING AFFINITY PREDICTED BY RF-SCORE:    0.00 PKD
ROOT
HETATM    1  O   UNL     1      -9.634   6.116  74.566  1.00  0.00    -0.184 OA 
HETATM    2  H   UNL     1     -10.109   6.681  75.163  1.00  0.00     0.000 HD 
HETATM    3  O   UNL     2     -10.836   9.387  71.901  1.00  0.00    -0.310 OA 
HETATM    4  C   UNL     1      -9.473   6.665  73.262  1.00  0.00    -0.142 C  
HETATM    5  O   UNL     2      -8.798   9.319  68.337  1.00  0.00    -0.128 OA 
HETATM    6  C   UNL     2      -9.893   9.117  70.978  1.00  0.00    -0.296 C  
HETATM    7  C   UNL     2     -10.325   8.226  69.883  1.00  0.00    -0.218 A  
HETATM    8  O   UNL     2      -8.756   9.574  71.021  1.00  0.00    -0.260 OA 
HETATM    9  C   UNL     2     -11.000   6.477  67.807  1.00  0.00    -0.407 A  
HETATM   10  C   UNL     2      -9.750   8.379  68.616  1.00  0.00    -0.164 A  
HETATM   11  C   UNL     2     -10.118   7.533  67.576  1.00  0.00    -0.261 A  
HETATM   12  C   UNL     2     -11.211   7.166  70.110  1.00  0.00    -0.295 A  
HETATM   13  H   UNL     2      -8.408   9.422  67.477  1.00  0.00     0.000 HD 
HETATM   14  C   UNL     2     -11.528   6.280  69.081  1.00  0.00    -0.229 A  
ENDROOT
BRANCH   4  15
HETATM   15  C   UNL     1      -8.696   5.742  72.285  1.00  0.00    -0.132 C  
BRANCH  15  16
HETATM   16  N   UNL     1      -9.282   4.399  72.036  1.00  0.00    -0.125 NA 
BRANCH  16  17
HETATM   17  C   UNL     1      -9.138   3.962  70.616  1.00  0.00    -0.111 C  
BRANCH  17  18
HETATM   18  C   UNL     1      -7.867   3.223  70.164  1.00  0.00    -0.043 C  
HETATM   19  H   UNL     1      -5.943   3.610  69.813  1.00  0.00     0.000 HD 
HETATM   20  O   UNL     1      -6.728   4.067  70.092  1.00  0.00    -0.032 OA 
ENDBRANCH  17  18
ENDBRANCH  16  17
BRANCH  16  21
HETATM   21  C   UNL     1      -8.650   3.369  72.900  1.00  0.00    -0.082 C  
BRANCH  21  22
HETATM   22  C   UNL     1      -9.560   2.256  73.462  1.00  0.00    -0.082 C  
HETATM   23  O   UNL     1     -10.924   2.532  73.148  1.00  0.00    -0.161 OA 
HETATM   24  H   UNL     1     -11.483   1.846  73.494  1.00  0.00     0.000 HD 
ENDBRANCH  21  22
ENDBRANCH  16  21
ENDBRANCH  15  16
ENDBRANCH   4  15
TORSDOF 6
ENDMDL
MODEL      263
REMARK 921   NORMALIZED FREE ENERGY PREDICTED BY IDOCK:   -2.41 KCAL/MOL
REMARK 922        TOTAL FREE ENERGY PREDICTED BY IDOCK:   -4.11 KCAL/MOL
REMARK 923 INTER-LIGAND FREE ENERGY PREDICTED BY IDOCK:   -3.48 KCAL/MOL
REMARK 924 INTRA-LIGAND FREE ENERGY PREDICTED BY IDOCK:   -0.63 KCAL/MOL
REMARK 927      BINDING AFFINITY PREDICTED BY RF-SCORE:    0.00 PKD
ROOT
HETATM    1  O   UNL     1      -9.633  10.420  65.620  1.00  0.00    -0.196 OA 
HETATM    2  H   UNL     1      -9.484  10.258  64.697  1.00  0.00     0.000 HD 
HETATM    3  O   UNL     2      -7.817   6.428  65.720  1.00  0.00    -0.094 OA 
HETATM    4  C   UNL     1      -9.106   9.410  66.474  1.00  0.00    -0.153 C  
HETATM    5  O   UNL     2      -6.616   5.359  69.498  1.00  0.00    -0.043 OA 
HETATM    6  C   UNL     2      -7.447   6.518  67.012  1.00  0.00    -0.087 C  
HETATM    7  C   UNL     2      -8.417   5.970  67.981  1.00  0.00    -0.115 A  
HETATM    8  O   UNL     2      -6.384   7.007  67.377  1.00  0.00    -0.038 OA 
HETATM    9  C   UNL     2     -10.212   5.046  69.917  1.00  0.00    -0.340 A  
HETATM   10  C   UNL     2      -7.942   5.418  69.178  1.00  0.00    -0.094 A  
HETATM   11  C   UNL     2      -8.837   4.923  70.120  1.00  0.00    -0.134 A  
HETATM   12  C   UNL     2      -9.797   6.090  67.782  1.00  0.00    -0.129 A  
HETATM   13  H   UNL     2      -6.295   4.984  70.310  1.00  0.00     0.000 HD 
HETATM   14  C   UNL     2     -10.691   5.652  68.758  1.00  0.00    -0.267 A  
ENDROOT
BRANCH   4  15
HETATM   15  C   UNL     1      -9.350   9.675  67.984  1.00  0.00    -0.132 C  
BRANCH  15  16
HETATM   16  N   UNL     1     -10.768   9.713  68.428  1.00  0.00    -0.225 NA 
BRANCH  16  17
HETATM   17  C   UNL     1     -11.000   8.942  69.684  1.00  0.00    -0.123 C  
BRANCH  17  18
HETATM   18  C   UNL     1     -10.216   9.297  70.960  1.00  0.00    -0.314 C  
HETATM   19  H   UNL     1     -10.515   9.422  72.927  1.00  0.00     0.000 HD 
HETATM   20  O   UNL     1     -10.999   9.202  72.139  1.00  0.00    -0.300 OA 
ENDBRANCH  17  18
ENDBRANCH  16  17
BRANCH  16  21
HETATM   21  C   UNL     1     -11.222  11.108  68.655  1.00  0.00    -0.255 C  
BRANCH  21  22
HETATM   22  C   UNL     1     -10.169  12.230  68.529  1.00  0.00    -0.206 C  
HETATM   23  O   UNL     1     -10.442  13.032  67.382  1.00  0.00    -0.232 OA 
HETATM   24  H   UNL     1      -9.793  13.722  67.304  1.00  0.00     0.000 HD 
ENDBRANCH  21  22
ENDBRANCH  16  21
ENDBRANCH  15  16
ENDBRANCH   4  15
TORSDOF 6
ENDMDL
MODEL      264
REMARK 921   NORMALIZED FREE ENERGY PREDICTED BY IDOCK:   -2.40 KCAL/MOL
REMARK 922        TOTAL FREE ENERGY PREDICTED BY IDOCK:   -4.10 KCAL/MOL
REMARK 923 INTER-LIGAND FREE ENERGY PREDICTED BY IDOCK:   -3.43 KCAL/MOL
REMARK 924 INTRA-LIGAND FREE ENERGY PREDICTED BY IDOCK:   -0.67 KCAL/MOL
REMARK 927      BINDING AFFINITY PREDICTED BY RF-SCORE:    0.00 PKD
ROOT
HETATM    1  O   UNL     1      -9.948  10.086  65.076  1.00  0.00    -0.326 OA 
HETATM    2  H   UNL     1      -9.568   9.650  64.323  1.00  0.00     0.000 HD 
HETATM    3  O   UNL     2      -8.218   6.506  66.930  1.00  0.00    -0.111 OA 
HETATM    4  C   UNL     1      -9.656   9.452  66.316  1.00  0.00    -0.234 C  
HETATM    5  O   UNL     2      -8.021   6.813  71.020  1.00  0.00    -0.100 OA 
HETATM    6  C   UNL     2      -8.190   7.037  68.168  1.00  0.00    -0.120 C  
HETATM    7  C   UNL     2      -9.375   6.750  69.000  1.00  0.00    -0.134 A  
HETATM    8  O   UNL     2      -7.255   7.706  68.594  1.00  0.00    -0.078 OA 
HETATM    9  C   UNL     2     -11.605   6.349  70.640  1.00  0.00    -0.412 A  
HETATM   10  C   UNL     2      -9.222   6.653  70.388  1.00  0.00    -0.156 A  
HETATM   11  C   UNL     2     -10.327   6.413  71.197  1.00  0.00    -0.244 A  
HETATM   12  C   UNL     2     -10.659   6.683  68.446  1.00  0.00    -0.289 A  
HETATM   13  H   UNL     2      -7.918   6.747  71.962  1.00  0.00     0.000 HD 
HETATM   14  C   UNL     2     -11.772   6.507  69.266  1.00  0.00    -0.006 A  
ENDROOT
BRANCH   4  15
HETATM   15  C   UNL     1     -10.278  10.166  67.547  1.00  0.00    -0.211 C  
BRANCH  15  16
HETATM   16  N   UNL     1      -9.621  11.427  67.982  1.00  0.00    -0.177 NA 
BRANCH  16  17
HETATM   17  C   UNL     1     -10.515  12.615  67.853  1.00  0.00    -0.218 C  
BRANCH  17  18
HETATM   18  C   UNL     1     -11.547  12.924  68.953  1.00  0.00    -0.315 C  
HETATM   19  H   UNL     1     -12.474  14.498  69.750  1.00  0.00     0.000 HD 
HETATM   20  O   UNL     1     -11.837  14.307  69.071  1.00  0.00    -0.301 OA 
ENDBRANCH  17  18
ENDBRANCH  16  17
BRANCH  16  21
HETATM   21  C   UNL     1      -9.173  11.340  69.394  1.00  0.00     0.417 C  
BRANCH  21  22
HETATM   22  C   UNL     1      -9.269   9.965  70.089  1.00  0.00    -0.135 C  
HETATM   23  O   UNL     1      -8.061   9.688  70.796  1.00  0.00    -0.279 OA 
HETATM   24  H   UNL     1      -8.120   8.842  71.224  1.00  0.00     0.000 HD 
ENDBRANCH  21  22
ENDBRANCH  16  21
ENDBRANCH  15  16
ENDBRANCH   4  15
TORSDOF 6
ENDMDL
MODEL      265
REMARK 921   NORMALIZED FREE ENERGY PREDICTED BY IDOCK:   -2.33 KCAL/MOL
REMARK 922        TOTAL FREE ENERGY PREDICTED BY IDOCK:   -4.00 KCAL/MOL
REMARK 923 INTER-LIGAND FREE ENERGY PREDICTED BY IDOCK:   -4.02 KCAL/MOL
REMARK 924 INTRA-LIGAND FREE ENERGY PREDICTED BY IDOCK:    0.02 KCAL/MOL
REMARK 927      BINDING AFFINITY PREDICTED BY RF-SCORE:    0.00 PKD
ROOT
HETATM    1  O   UNL     1      -7.377   6.336  67.020  1.00  0.00    -0.080 OA 
HETATM    2  H   UNL     1      -6.790   6.983  66.649  1.00  0.00     0.000 HD 
HETATM    3  O   UNL     2      -9.001  10.048  68.702  1.00  0.00    -0.127 OA 
HETATM    4  C   UNL     1      -8.459   6.896  67.756  1.00  0.00    -0.123 C  
HETATM    5  O   UNL     2     -12.739   9.520  70.317  1.00  0.00    -0.412 OA 
HETATM    6  C   UNL     2     -10.210   9.518  68.968  1.00  0.00    -0.200 C  
HETATM    7  C   UNL     2     -10.369   8.971  70.330  1.00  0.00    -0.253 A  
HETATM    8  O   UNL     2     -11.128   9.489  68.156  1.00  0.00    -0.140 OA 
HETATM    9  C   UNL     2     -10.762   7.824  72.851  1.00  0.00    -0.446 A  
HETATM   10  C   UNL     2     -11.634   9.004  70.932  1.00  0.00    -0.290 A  
HETATM   11  C   UNL     2     -11.816   8.469  72.202  1.00  0.00    -0.448 A  
HETATM   12  C   UNL     2      -9.315   8.325  70.987  1.00  0.00    -0.196 A  
HETATM   13  H   UNL     2     -13.597   9.542  70.725  1.00  0.00     0.000 HD 
HETATM   14  C   UNL     2      -9.518   7.732  72.232  1.00  0.00    -0.225 A  
ENDROOT
BRANCH   4  15
HETATM   15  C   UNL     1      -9.420   5.838  68.362  1.00  0.00    -0.122 C  
BRANCH  15  16
HETATM   16  N   UNL     1      -9.914   4.786  67.435  1.00  0.00    -0.175 NA 
BRANCH  16  17
HETATM   17  C   UNL     1     -10.132   5.295  66.050  1.00  0.00    -0.129 C  
BRANCH  17  18
HETATM   18  C   UNL     1     -10.752   4.377  64.981  1.00  0.00    -0.096 C  
HETATM   19  H   UNL     1     -10.300   3.631  63.189  1.00  0.00     0.000 HD 
HETATM   20  O   UNL     1      -9.917   4.198  63.849  1.00  0.00    -0.157 OA 
ENDBRANCH  17  18
ENDBRANCH  16  17
BRANCH  16  21
HETATM   21  C   UNL     1      -8.966   3.646  67.362  1.00  0.00    -0.141 C  
BRANCH  21  22
HETATM   22  C   UNL     1      -9.196   2.464  68.328  1.00  0.00    -0.203 C  
HETATM   23  O   UNL     1      -8.060   1.601  68.325  1.00  0.00    -0.056 OA 
HETATM   24  H   UNL     1      -8.202   0.873  68.919  1.00  0.00     0.000 HD 
ENDBRANCH  21  22
ENDBRANCH  16  21
ENDBRANCH  15  16
ENDBRANCH   4  15
TORSDOF 6
ENDMDL
MODEL      266
REMARK 921   NORMALIZED FREE ENERGY PREDICTED BY IDOCK:   -2.32 KCAL/MOL
REMARK 922        TOTAL FREE ENERGY PREDICTED BY IDOCK:   -3.99 KCAL/MOL
REMARK 923 INTER-LIGAND FREE ENERGY PREDICTED BY IDOCK:   -3.00 KCAL/MOL
REMARK 924 INTRA-LIGAND FREE ENERGY PREDICTED BY IDOCK:   -0.99 KCAL/MOL
REMARK 927      BINDING AFFINITY PREDICTED BY RF-SCORE:    0.00 PKD
ROOT
HETATM    1  O   UNL     1     -10.183  10.388  64.907  1.00  0.00    -0.338 OA 
HETATM    2  H   UNL     1      -9.718  10.654  64.124  1.00  0.00     0.000 HD 
HETATM    3  O   UNL     2      -6.900   7.480  64.818  1.00  0.00    -0.046 OA 
HETATM    4  C   UNL     1      -9.535   9.353  65.638  1.00  0.00    -0.262 C  
HETATM    5  O   UNL     2      -6.498   5.477  68.379  1.00  0.00    -0.036 OA 
HETATM    6  C   UNL     2      -6.999   7.176  66.126  1.00  0.00    -0.065 C  
HETATM    7  C   UNL     2      -7.859   6.016  66.436  1.00  0.00    -0.104 A  
HETATM    8  O   UNL     2      -6.420   7.798  67.009  1.00  0.00    -0.052 OA 
HETATM    9  C   UNL     2      -9.530   3.893  67.156  1.00  0.00    -0.231 A  
HETATM   10  C   UNL     2      -7.556   5.227  67.553  1.00  0.00    -0.088 A  
HETATM   11  C   UNL     2      -8.368   4.148  67.884  1.00  0.00    -0.097 A  
HETATM   12  C   UNL     2      -9.025   5.755  65.708  1.00  0.00    -0.144 A  
HETATM   13  H   UNL     2      -6.294   4.941  69.137  1.00  0.00     0.000 HD 
HETATM   14  C   UNL     2      -9.871   4.712  66.082  1.00  0.00    -0.240 A  
ENDROOT
BRANCH   4  15
HETATM   15  C   UNL     1     -10.295   8.918  66.920  1.00  0.00    -0.262 C  
BRANCH  15  16
HETATM   16  N   UNL     1      -9.747   9.406  68.212  1.00  0.00    -0.143 NA 
BRANCH  16  17
HETATM   17  C   UNL     1      -9.170   8.309  69.044  1.00  0.00    -0.147 C  
BRANCH  17  18
HETATM   18  C   UNL     1     -10.102   7.332  69.782  1.00  0.00    -0.194 C  
HETATM   19  H   UNL     1     -11.766   7.375  70.879  1.00  0.00     0.000 HD 
HETATM   20  O   UNL     1     -11.190   7.978  70.423  1.00  0.00    -0.268 OA 
ENDBRANCH  17  18
ENDBRANCH  16  17
BRANCH  16  21
HETATM   21  C   UNL     1      -8.689  10.425  67.996  1.00  0.00    -0.123 C  
BRANCH  21  22
HETATM   22  C   UNL     1      -7.482  10.413  68.959  1.00  0.00    -0.106 C  
HETATM   23  O   UNL     1      -6.269  10.577  68.226  1.00  0.00    -0.053 OA 
HETATM   24  H   UNL     1      -5.526  10.570  68.818  1.00  0.00     0.000 HD 
ENDBRANCH  21  22
ENDBRANCH  16  21
ENDBRANCH  15  16
ENDBRANCH   4  15
TORSDOF 6
ENDMDL
MODEL      267
REMARK 921   NORMALIZED FREE ENERGY PREDICTED BY IDOCK:   -2.32 KCAL/MOL
REMARK 922        TOTAL FREE ENERGY PREDICTED BY IDOCK:   -3.99 KCAL/MOL
REMARK 923 INTER-LIGAND FREE ENERGY PREDICTED BY IDOCK:   -4.13 KCAL/MOL
REMARK 924 INTRA-LIGAND FREE ENERGY PREDICTED BY IDOCK:    0.14 KCAL/MOL
REMARK 927      BINDING AFFINITY PREDICTED BY RF-SCORE:    0.00 PKD
ROOT
HETATM    1  O   UNL     1     -10.974   7.899  68.870  1.00  0.00    -0.423 OA 
HETATM    2  H   UNL     1     -11.260   7.503  68.055  1.00  0.00     0.000 HD 
HETATM    3  O   UNL     2     -10.754  11.312  66.123  1.00  0.00    -0.265 OA 
HETATM    4  C   UNL     1     -10.773   9.305  68.787  1.00  0.00    -0.154 C  
HETATM    5  O   UNL     2     -10.386  14.887  68.110  1.00  0.00    -0.232 OA 
HETATM    6  C   UNL     2     -10.794  12.234  67.104  1.00  0.00    -0.244 C  
HETATM    7  C   UNL     2      -9.477  12.692  67.589  1.00  0.00    -0.189 A  
HETATM    8  O   UNL     2     -11.837  12.680  67.569  1.00  0.00    -0.366 OA 
HETATM    9  C   UNL     2      -7.043  13.571  68.650  1.00  0.00    -0.106 A  
HETATM   10  C   UNL     2      -9.347  14.001  68.067  1.00  0.00    -0.205 A  
HETATM   11  C   UNL     2      -8.124  14.447  68.556  1.00  0.00    -0.146 A  
HETATM   12  C   UNL     2      -8.388  11.817  67.683  1.00  0.00    -0.145 A  
HETATM   13  H   UNL     2     -10.297  15.775  68.434  1.00  0.00     0.000 HD 
HETATM   14  C   UNL     2      -7.183  12.249  68.235  1.00  0.00    -0.101 A  
ENDROOT
BRANCH   4  15
HETATM   15  C   UNL     1     -10.306   9.952  70.119  1.00  0.00    -0.282 C  
BRANCH  15  16
HETATM   16  N   UNL     1      -9.320   9.180  70.919  1.00  0.00    -0.259 NA 
BRANCH  16  17
HETATM   17  C   UNL     1      -9.889   7.916  71.471  1.00  0.00    -0.165 C  
BRANCH  17  18
HETATM   18  C   UNL     1     -10.442   7.884  72.906  1.00  0.00    -0.355 C  
HETATM   19  H   UNL     1      -9.784   7.618  74.769  1.00  0.00     0.000 HD 
HETATM   20  O   UNL     1      -9.443   7.638  73.882  1.00  0.00    -0.275 OA 
ENDBRANCH  17  18
ENDBRANCH  16  17
BRANCH  16  21
HETATM   21  C   UNL     1      -8.126   8.831  70.109  1.00  0.00    -0.114 C  
BRANCH  21  22
HETATM   22  C   UNL     1      -6.743   8.974  70.780  1.00  0.00    -0.067 C  
HETATM   23  O   UNL     1      -6.298   7.706  71.259  1.00  0.00    -0.035 OA 
HETATM   24  H   UNL     1      -5.447   7.794  71.672  1.00  0.00     0.000 HD 
ENDBRANCH  21  22
ENDBRANCH  16  21
ENDBRANCH  15  16
ENDBRANCH   4  15
TORSDOF 6
ENDMDL
MODEL      268
REMARK 921   NORMALIZED FREE ENERGY PREDICTED BY IDOCK:   -2.31 KCAL/MOL
REMARK 922        TOTAL FREE ENERGY PREDICTED BY IDOCK:   -3.97 KCAL/MOL
REMARK 923 INTER-LIGAND FREE ENERGY PREDICTED BY IDOCK:   -3.27 KCAL/MOL
REMARK 924 INTRA-LIGAND FREE ENERGY PREDICTED BY IDOCK:   -0.71 KCAL/MOL
REMARK 927      BINDING AFFINITY PREDICTED BY RF-SCORE:    0.00 PKD
ROOT
HETATM    1  O   UNL     1     -10.171  10.155  64.016  1.00  0.00    -0.461 OA 
HETATM    2  H   UNL     1     -11.014  10.581  63.921  1.00  0.00     0.000 HD 
HETATM    3  O   UNL     2     -11.414  10.558  68.204  1.00  0.00    -0.342 OA 
HETATM    4  C   UNL     1      -9.858   9.790  65.355  1.00  0.00    -0.295 C  
HETATM    5  O   UNL     2      -9.143   8.252  70.730  1.00  0.00    -0.141 OA 
HETATM    6  C   UNL     2     -10.585   9.595  68.648  1.00  0.00    -0.217 C  
HETATM    7  C   UNL     2      -9.267  10.070  69.117  1.00  0.00    -0.196 A  
HETATM    8  O   UNL     2     -10.884   8.407  68.677  1.00  0.00    -0.085 OA 
HETATM    9  C   UNL     2      -6.710  10.836  69.951  1.00  0.00    -0.156 A  
HETATM   10  C   UNL     2      -8.617   9.366  70.139  1.00  0.00    -0.212 A  
HETATM   11  C   UNL     2      -7.363   9.775  70.578  1.00  0.00    -0.126 A  
HETATM   12  C   UNL     2      -8.608  11.135  68.492  1.00  0.00    -0.157 A  
HETATM   13  H   UNL     2      -8.701   7.775  71.423  1.00  0.00     0.000 HD 
HETATM   14  C   UNL     2      -7.324  11.501  68.892  1.00  0.00    -0.116 A  
ENDROOT
BRANCH   4  15
HETATM   15  C   UNL     1      -8.480   9.092  65.510  1.00  0.00    -0.144 C  
BRANCH  15  16
HETATM   16  N   UNL     1      -8.393   7.687  65.032  1.00  0.00    -0.112 NA 
BRANCH  16  17
HETATM   17  C   UNL     1      -7.148   7.420  64.253  1.00  0.00    -0.066 C  
BRANCH  17  18
HETATM   18  C   UNL     1      -5.850   7.037  64.986  1.00  0.00    -0.036 C  
HETATM   19  H   UNL     1      -4.657   5.456  65.211  1.00  0.00     0.000 HD 
HETATM   20  O   UNL     1      -5.459   5.693  64.758  1.00  0.00    -0.013 OA 
ENDBRANCH  17  18
ENDBRANCH  16  17
BRANCH  16  21
HETATM   21  C   UNL     1      -8.440   6.730  66.166  1.00  0.00    -0.135 C  
BRANCH  21  22
HETATM   22  C   UNL     1      -9.051   5.338  65.898  1.00  0.00    -0.155 C  
HETATM   23  O   UNL     1      -8.046   4.332  66.008  1.00  0.00    -0.101 OA 
HETATM   24  H   UNL     1      -8.422   3.475  65.844  1.00  0.00     0.000 HD 
ENDBRANCH  21  22
ENDBRANCH  16  21
ENDBRANCH  15  16
ENDBRANCH   4  15
TORSDOF 6
ENDMDL
MODEL      269
REMARK 921   NORMALIZED FREE ENERGY PREDICTED BY IDOCK:   -2.30 KCAL/MOL
REMARK 922        TOTAL FREE ENERGY PREDICTED BY IDOCK:   -3.96 KCAL/MOL
REMARK 923 INTER-LIGAND FREE ENERGY PREDICTED BY IDOCK:   -4.15 KCAL/MOL
REMARK 924 INTRA-LIGAND FREE ENERGY PREDICTED BY IDOCK:    0.19 KCAL/MOL
REMARK 927      BINDING AFFINITY PREDICTED BY RF-SCORE:    0.00 PKD
ROOT
HETATM    1  O   UNL     1     -12.276  14.227  66.168  1.00  0.00    -0.431 OA 
HETATM    2  H   UNL     1     -13.102  14.187  65.702  1.00  0.00     0.000 HD 
HETATM    3  O   UNL     2     -11.574  10.858  63.448  1.00  0.00     0.456 OA 
HETATM    4  C   UNL     1     -11.293  13.325  65.675  1.00  0.00    -0.304 C  
HETATM    5  O   UNL     2      -7.604   9.836  63.230  1.00  0.00    -0.119 OA 
HETATM    6  C   UNL     2     -10.233  10.935  63.535  1.00  0.00    -0.317 C  
HETATM    7  C   UNL     2      -9.621  10.075  64.568  1.00  0.00    -0.346 A  
HETATM    8  O   UNL     2      -9.550  11.655  62.815  1.00  0.00    -0.339 OA 
HETATM    9  C   UNL     2      -8.355   8.557  66.547  1.00  0.00    -0.113 A  
HETATM   10  C   UNL     2      -8.332   9.570  64.354  1.00  0.00    -0.171 A  
HETATM   11  C   UNL     2      -7.723   8.782  65.323  1.00  0.00    -0.098 A  
HETATM   12  C   UNL     2     -10.252   9.845  65.796  1.00  0.00    -0.251 A  
HETATM   13  H   UNL     2      -6.729   9.493  63.085  1.00  0.00     0.000 HD 
HETATM   14  C   UNL     2      -9.611   9.109  66.791  1.00  0.00    -0.253 A  
ENDROOT
BRANCH   4  15
HETATM   15  C   UNL     1      -9.942  13.392  66.437  1.00  0.00    -0.293 C  
BRANCH  15  16
HETATM   16  N   UNL     1      -9.925  14.200  67.684  1.00  0.00    -0.230 NA 
BRANCH  16  17
HETATM   17  C   UNL     1      -8.878  13.750  68.647  1.00  0.00    -0.047 C  
BRANCH  17  18
HETATM   18  C   UNL     1      -7.554  14.526  68.763  1.00  0.00    -0.131 C  
HETATM   19  H   UNL     1      -5.593  14.177  68.709  1.00  0.00     0.000 HD 
HETATM   20  O   UNL     1      -6.410  13.698  68.637  1.00  0.00    -0.080 OA 
ENDBRANCH  17  18
ENDBRANCH  16  17
BRANCH  16  21
HETATM   21  C   UNL     1      -9.691  15.636  67.389  1.00  0.00    -0.222 C  
BRANCH  21  22
HETATM   22  C   UNL     1      -9.728  16.076  65.910  1.00  0.00    -0.343 C  
HETATM   23  O   UNL     1      -9.530  17.485  65.812  1.00  0.00    -0.519 OA 
HETATM   24  H   UNL     1      -9.553  17.756  64.902  1.00  0.00     0.000 HD 
ENDBRANCH  21  22
ENDBRANCH  16  21
ENDBRANCH  15  16
ENDBRANCH   4  15
TORSDOF 6
ENDMDL
MODEL      270
REMARK 921   NORMALIZED FREE ENERGY PREDICTED BY IDOCK:   -2.26 KCAL/MOL
REMARK 922        TOTAL FREE ENERGY PREDICTED BY IDOCK:   -3.91 KCAL/MOL
REMARK 923 INTER-LIGAND FREE ENERGY PREDICTED BY IDOCK:   -4.32 KCAL/MOL
REMARK 924 INTRA-LIGAND FREE ENERGY PREDICTED BY IDOCK:    0.41 KCAL/MOL
REMARK 927      BINDING AFFINITY PREDICTED BY RF-SCORE:    0.00 PKD
ROOT
HETATM    1  O   UNL     1      -6.918  11.570  66.064  1.00  0.00    -0.366 OA 
HETATM    2  H   UNL     1      -6.341  11.479  65.316  1.00  0.00     0.000 HD 
HETATM    3  O   UNL     2      -6.519   7.209  65.801  1.00  0.00    -0.045 OA 
HETATM    4  C   UNL     1      -7.209  10.341  66.719  1.00  0.00    -0.105 C  
HETATM    5  O   UNL     2      -7.859   5.317  69.189  1.00  0.00    -0.083 OA 
HETATM    6  C   UNL     2      -6.895   6.996  67.076  1.00  0.00    -0.068 C  
HETATM    7  C   UNL     2      -8.335   6.734  67.270  1.00  0.00    -0.121 A  
HETATM    8  O   UNL     2      -6.114   7.008  68.020  1.00  0.00    -0.031 OA 
HETATM    9  C   UNL     2     -11.054   6.312  67.773  1.00  0.00    -0.361 A  
HETATM   10  C   UNL     2      -8.737   5.902  68.323  1.00  0.00    -0.112 A  
HETATM   11  C   UNL     2     -10.089   5.663  68.544  1.00  0.00    -0.236 A  
HETATM   12  C   UNL     2      -9.307   7.381  66.498  1.00  0.00    -0.222 A  
HETATM   13  H   UNL     2      -8.132   4.753  69.903  1.00  0.00     0.000 HD 
HETATM   14  C   UNL     2     -10.661   7.189  66.765  1.00  0.00    -0.259 A  
ENDROOT
BRANCH   4  15
HETATM   15  C   UNL     1      -8.152  10.490  67.944  1.00  0.00    -0.107 C  
BRANCH  15  16
HETATM   16  N   UNL     1      -9.349  11.350  67.755  1.00  0.00    -0.159 NA 
BRANCH  16  17
HETATM   17  C   UNL     1      -9.481  11.856  66.358  1.00  0.00    -0.228 C  
BRANCH  17  18
HETATM   18  C   UNL     1     -10.294  11.057  65.324  1.00  0.00    -0.275 C  
HETATM   19  H   UNL     1     -11.338  11.376  63.656  1.00  0.00     0.000 HD 
HETATM   20  O   UNL     1     -10.836  11.869  64.294  1.00  0.00    -0.298 OA 
ENDBRANCH  17  18
ENDBRANCH  16  17
BRANCH  16  21
HETATM   21  C   UNL     1     -10.595  10.620  68.099  1.00  0.00    -0.202 C  
BRANCH  21  22
HETATM   22  C   UNL     1     -11.736  11.426  68.757  1.00  0.00    -0.339 C  
HETATM   23  O   UNL     1     -12.759  10.544  69.213  1.00  0.00    -0.703 OA 
HETATM   24  H   UNL     1     -13.461  11.040  69.618  1.00  0.00     0.000 HD 
ENDBRANCH  21  22
ENDBRANCH  16  21
ENDBRANCH  15  16
ENDBRANCH   4  15
TORSDOF 6
ENDMDL
MODEL      271
REMARK 921   NORMALIZED FREE ENERGY PREDICTED BY IDOCK:   -2.14 KCAL/MOL
REMARK 922        TOTAL FREE ENERGY PREDICTED BY IDOCK:   -3.74 KCAL/MOL
REMARK 923 INTER-LIGAND FREE ENERGY PREDICTED BY IDOCK:   -4.41 KCAL/MOL
REMARK 924 INTRA-LIGAND FREE ENERGY PREDICTED BY IDOCK:    0.67 KCAL/MOL
REMARK 927      BINDING AFFINITY PREDICTED BY RF-SCORE:    0.00 PKD
ROOT
HETATM    1  O   UNL     1      -5.738  14.652  67.336  1.00  0.00    -0.341 OA 
HETATM    2  H   UNL     1      -5.109  13.990  67.076  1.00  0.00     0.000 HD 
HETATM    3  O   UNL     2      -8.381  11.335  66.213  1.00  0.00    -0.170 OA 
HETATM    4  C   UNL     1      -7.085  14.194  67.342  1.00  0.00    -0.077 C  
HETATM    5  O   UNL     2     -12.230  11.900  67.526  1.00  0.00    -0.510 OA 
HETATM    6  C   UNL     2      -9.431  11.801  66.915  1.00  0.00    -0.193 C  
HETATM    7  C   UNL     2     -10.368  12.649  66.151  1.00  0.00    -0.273 A  
HETATM    8  O   UNL     2      -9.619  11.546  68.099  1.00  0.00    -0.174 OA 
HETATM    9  C   UNL     2     -12.166  14.340  64.834  1.00  0.00    -0.449 A  
HETATM   10  C   UNL     2     -11.724  12.650  66.502  1.00  0.00    -0.400 A  
HETATM   11  C   UNL     2     -12.621  13.461  65.818  1.00  0.00    -0.455 A  
HETATM   12  C   UNL     2      -9.916  13.531  65.161  1.00  0.00    -0.201 A  
HETATM   13  H   UNL     2     -13.150  11.901  67.764  1.00  0.00     0.000 HD 
HETATM   14  C   UNL     2     -10.809  14.390  64.523  1.00  0.00    -0.271 A  
ENDROOT
BRANCH   4  15
HETATM   15  C   UNL     1      -8.114  15.276  67.768  1.00  0.00    -0.146 C  
BRANCH  15  16
HETATM   16  N   UNL     1      -7.780  16.065  68.983  1.00  0.00    -0.204 NA 
BRANCH  16  17
HETATM   17  C   UNL     1      -8.819  17.085  69.310  1.00  0.00     0.097 C  
BRANCH  17  18
HETATM   18  C   UNL     1      -8.736  18.493  68.694  1.00  0.00    -0.298 C  
HETATM   19  H   UNL     1      -9.235  20.368  69.148  1.00  0.00     0.000 HD 
HETATM   20  O   UNL     1      -9.287  19.499  69.529  1.00  0.00    -0.134 OA 
ENDBRANCH  17  18
ENDBRANCH  16  17
BRANCH  16  21
HETATM   21  C   UNL     1      -7.612  15.184  70.166  1.00  0.00     0.286 C  
BRANCH  21  22
HETATM   22  C   UNL     1      -6.331  14.325  70.239  1.00  0.00    -0.140 C  
HETATM   23  O   UNL     1      -6.652  12.949  70.049  1.00  0.00    -0.358 OA 
HETATM   24  H   UNL     1      -5.864  12.420  70.094  1.00  0.00     0.000 HD 
ENDBRANCH  21  22
ENDBRANCH  16  21
ENDBRANCH  15  16
ENDBRANCH   4  15
TORSDOF 6
ENDMDL
MODEL      272
REMARK 921   NORMALIZED FREE ENERGY PREDICTED BY IDOCK:   -2.09 KCAL/MOL
REMARK 922        TOTAL FREE ENERGY PREDICTED BY IDOCK:   -3.68 KCAL/MOL
REMARK 923 INTER-LIGAND FREE ENERGY PREDICTED BY IDOCK:   -4.23 KCAL/MOL
REMARK 924 INTRA-LIGAND FREE ENERGY PREDICTED BY IDOCK:    0.55 KCAL/MOL
REMARK 927      BINDING AFFINITY PREDICTED BY RF-SCORE:    0.00 PKD
ROOT
HETATM    1  O   UNL     1      -5.431  15.301  67.251  1.00  0.00    -0.331 OA 
HETATM    2  H   UNL     1      -4.680  14.871  66.859  1.00  0.00     0.000 HD 
HETATM    3  O   UNL     2      -6.694  11.100  67.337  1.00  0.00    -0.073 OA 
HETATM    4  C   UNL     1      -6.422  14.401  67.734  1.00  0.00    -0.165 C  
HETATM    5  O   UNL     2      -9.943  10.502  69.774  1.00  0.00    -0.397 OA 
HETATM    6  C   UNL     2      -7.616  11.292  68.299  1.00  0.00    -0.114 C  
HETATM    7  C   UNL     2      -8.982  11.569  67.810  1.00  0.00    -0.160 A  
HETATM    8  O   UNL     2      -7.364  11.237  69.497  1.00  0.00    -0.081 OA 
HETATM    9  C   UNL     2     -11.589  12.188  67.007  1.00  0.00    -0.406 A  
HETATM   10  C   UNL     2     -10.076  11.154  68.581  1.00  0.00    -0.200 A  
HETATM   11  C   UNL     2     -11.371  11.429  68.158  1.00  0.00    -0.374 A  
HETATM   12  C   UNL     2      -9.206  12.328  66.656  1.00  0.00    -0.208 A  
HETATM   13  H   UNL     2     -10.685  10.221  70.296  1.00  0.00     0.000 HD 
HETATM   14  C   UNL     2     -10.505  12.657  66.270  1.00  0.00    -0.270 A  
ENDROOT
BRANCH   4  15
HETATM   15  C   UNL     1      -7.649  15.104  68.376  1.00  0.00    -0.117 C  
BRANCH  15  16
HETATM   16  N   UNL     1      -7.361  16.281  69.236  1.00  0.00    -0.228 NA 
BRANCH  16  17
HETATM   17  C   UNL     1      -5.910  16.418  69.558  1.00  0.00    -0.170 C  
BRANCH  17  18
HETATM   18  C   UNL     1      -5.312  15.652  70.751  1.00  0.00    -0.131 C  
HETATM   19  H   UNL     1      -5.843  14.241  72.054  1.00  0.00     0.000 HD 
HETATM   20  O   UNL     1      -6.212  14.714  71.318  1.00  0.00    -0.014 OA 
ENDBRANCH  17  18
ENDBRANCH  16  17
BRANCH  16  21
HETATM   21  C   UNL     1      -7.809  17.540  68.589  1.00  0.00    -0.272 C  
BRANCH  21  22
HETATM   22  C   UNL     1      -7.078  18.843  68.981  1.00  0.00    -0.306 C  
HETATM   23  O   UNL     1      -6.344  19.347  67.867  1.00  0.00    -0.210 OA 
HETATM   24  H   UNL     1      -5.894  20.148  68.109  1.00  0.00     0.000 HD 
ENDBRANCH  21  22
ENDBRANCH  16  21
ENDBRANCH  15  16
ENDBRANCH   4  15
TORSDOF 6
ENDMDL
MODEL      273
REMARK 921   NORMALIZED FREE ENERGY PREDICTED BY IDOCK:   -2.09 KCAL/MOL
REMARK 922        TOTAL FREE ENERGY PREDICTED BY IDOCK:   -3.68 KCAL/MOL
REMARK 923 INTER-LIGAND FREE ENERGY PREDICTED BY IDOCK:   -3.87 KCAL/MOL
REMARK 924 INTRA-LIGAND FREE ENERGY PREDICTED BY IDOCK:    0.20 KCAL/MOL
REMARK 927      BINDING AFFINITY PREDICTED BY RF-SCORE:    0.00 PKD
ROOT
HETATM    1  O   UNL     1     -11.063  14.424  68.232  1.00  0.00    -0.244 OA 
HETATM    2  H   UNL     1     -11.584  14.037  68.925  1.00  0.00     0.000 HD 
HETATM    3  O   UNL     2     -10.235  10.155  67.660  1.00  0.00    -0.180 OA 
HETATM    4  C   UNL     1     -10.450  13.471  67.372  1.00  0.00    -0.247 C  
HETATM    5  O   UNL     2      -8.460   9.386  64.038  1.00  0.00    -0.172 OA 
HETATM    6  C   UNL     2      -9.829  10.301  66.384  1.00  0.00    -0.217 C  
HETATM    7  C   UNL     2      -8.375  10.485  66.207  1.00  0.00    -0.152 A  
HETATM    8  O   UNL     2     -10.592  10.278  65.426  1.00  0.00    -0.152 OA 
HETATM    9  C   UNL     2      -5.651  10.928  65.751  1.00  0.00    -0.138 A  
HETATM   10  C   UNL     2      -7.769  10.013  65.036  1.00  0.00    -0.138 A  
HETATM   11  C   UNL     2      -6.406  10.200  64.832  1.00  0.00    -0.128 A  
HETATM   12  C   UNL     2      -7.612  11.213  67.127  1.00  0.00    -0.125 A  
HETATM   13  H   UNL     2      -8.048   9.066  63.244  1.00  0.00     0.000 HD 
HETATM   14  C   UNL     2      -6.260  11.455  66.888  1.00  0.00    -0.135 A  
ENDROOT
BRANCH   4  15
HETATM   15  C   UNL     1      -9.598  14.103  66.239  1.00  0.00    -0.275 C  
BRANCH  15  16
HETATM   16  N   UNL     1      -8.678  15.201  66.638  1.00  0.00    -0.276 NA 
BRANCH  16  17
HETATM   17  C   UNL     1      -9.398  16.374  67.214  1.00  0.00    -0.221 C  
BRANCH  17  18
HETATM   18  C   UNL     1      -9.384  17.724  66.475  1.00  0.00    -0.279 C  
HETATM   19  H   UNL     1     -10.326  19.480  66.526  1.00  0.00     0.000 HD 
HETATM   20  O   UNL     1     -10.334  18.646  66.982  1.00  0.00    -0.364 OA 
ENDBRANCH  17  18
ENDBRANCH  16  17
BRANCH  16  21
HETATM   21  C   UNL     1      -7.686  14.734  67.638  1.00  0.00    -0.182 C  
BRANCH  21  22
HETATM   22  C   UNL     1      -6.284  15.381  67.608  1.00  0.00    -0.142 C  
HETATM   23  O   UNL     1      -5.984  15.958  68.877  1.00  0.00    -0.109 OA 
HETATM   24  H   UNL     1      -5.121  16.357  68.858  1.00  0.00     0.000 HD 
ENDBRANCH  21  22
ENDBRANCH  16  21
ENDBRANCH  15  16
ENDBRANCH   4  15
TORSDOF 6
ENDMDL
MODEL      274
REMARK 921   NORMALIZED FREE ENERGY PREDICTED BY IDOCK:   -2.05 KCAL/MOL
REMARK 922        TOTAL FREE ENERGY PREDICTED BY IDOCK:   -3.63 KCAL/MOL
REMARK 923 INTER-LIGAND FREE ENERGY PREDICTED BY IDOCK:   -2.93 KCAL/MOL
REMARK 924 INTRA-LIGAND FREE ENERGY PREDICTED BY IDOCK:   -0.70 KCAL/MOL
REMARK 927      BINDING AFFINITY PREDICTED BY RF-SCORE:    0.00 PKD
ROOT
HETATM    1  O   UNL     1      -9.911   9.627  64.372  1.00  0.00    -0.380 OA 
HETATM    2  H   UNL     1     -10.787   9.980  64.275  1.00  0.00     0.000 HD 
HETATM    3  O   UNL     2     -11.284   9.687  68.538  1.00  0.00    -0.100 OA 
HETATM    4  C   UNL     1      -9.597   9.221  65.699  1.00  0.00    -0.254 C  
HETATM    5  O   UNL     2      -8.869   7.464  71.004  1.00  0.00    -0.141 OA 
HETATM    6  C   UNL     2     -10.380   8.781  68.955  1.00  0.00    -0.212 C  
HETATM    7  C   UNL     2      -9.124   9.347  69.486  1.00  0.00    -0.169 A  
HETATM    8  O   UNL     2     -10.569   7.571  68.913  1.00  0.00    -0.211 OA 
HETATM    9  C   UNL     2      -6.669  10.298  70.430  1.00  0.00    -0.122 A  
HETATM   10  C   UNL     2      -8.436   8.651  70.487  1.00  0.00    -0.150 A  
HETATM   11  C   UNL     2      -7.236   9.149  70.983  1.00  0.00    -0.113 A  
HETATM   12  C   UNL     2      -8.552  10.501  68.936  1.00  0.00    -0.153 A  
HETATM   13  H   UNL     2      -8.402   6.992  71.683  1.00  0.00     0.000 HD 
HETATM   14  C   UNL     2      -7.317  10.960  69.391  1.00  0.00    -0.116 A  
ENDROOT
BRANCH   4  15
HETATM   15  C   UNL     1      -8.164   8.644  65.856  1.00  0.00    -0.123 C  
BRANCH  15  16
HETATM   16  N   UNL     1      -7.982   7.216  65.485  1.00  0.00    -0.115 NA 
BRANCH  16  17
HETATM   17  C   UNL     1      -9.151   6.369  65.864  1.00  0.00    -0.051 C  
BRANCH  17  18
HETATM   18  C   UNL     1      -8.931   5.050  66.624  1.00  0.00    -0.114 C  
HETATM   19  H   UNL     1      -8.660   4.415  68.494  1.00  0.00     0.000 HD 
HETATM   20  O   UNL     1      -8.796   5.230  68.024  1.00  0.00    -0.106 OA 
ENDBRANCH  17  18
ENDBRANCH  16  17
BRANCH  16  21
HETATM   21  C   UNL     1      -7.757   7.064  64.026  1.00  0.00    -0.116 C  
BRANCH  21  22
HETATM   22  C   UNL     1      -6.831   8.089  63.336  1.00  0.00    -0.080 C  
HETATM   23  O   UNL     1      -7.562   8.832  62.363  1.00  0.00    -0.104 OA 
HETATM   24  H   UNL     1      -6.991   9.463  61.939  1.00  0.00     0.000 HD 
ENDBRANCH  21  22
ENDBRANCH  16  21
ENDBRANCH  15  16
ENDBRANCH   4  15
TORSDOF 6
ENDMDL
MODEL      275
REMARK 921   NORMALIZED FREE ENERGY PREDICTED BY IDOCK:   -1.99 KCAL/MOL
REMARK 922        TOTAL FREE ENERGY PREDICTED BY IDOCK:   -3.55 KCAL/MOL
REMARK 923 INTER-LIGAND FREE ENERGY PREDICTED BY IDOCK:   -3.00 KCAL/MOL
REMARK 924 INTRA-LIGAND FREE ENERGY PREDICTED BY IDOCK:   -0.54 KCAL/MOL
REMARK 927      BINDING AFFINITY PREDICTED BY RF-SCORE:    0.00 PKD
ROOT
HETATM    1  O   UNL     1     -11.106  15.650  70.868  1.00  0.00    -0.329 OA 
HETATM    2  H   UNL     1     -11.149  16.005  71.748  1.00  0.00     0.000 HD 
HETATM    3  O   UNL     2      -9.129  19.530  70.336  1.00  0.00     1.017 OA 
HETATM    4  C   UNL     1     -10.365  16.455  69.959  1.00  0.00    -0.034 C  
HETATM    5  O   UNL     2      -7.108  19.771  66.771  1.00  0.00    -0.210 OA 
HETATM    6  C   UNL     2      -8.498  19.168  69.203  1.00  0.00    -0.099 C  
HETATM    7  C   UNL     2      -9.215  19.495  67.955  1.00  0.00    -0.398 A  
HETATM    8  O   UNL     2      -7.406  18.612  69.187  1.00  0.00    -0.265 OA 
HETATM    9  C   UNL     2     -10.515  19.986  65.527  1.00  0.00    -0.315 A  
HETATM   10  C   UNL     2      -8.473  19.781  66.802  1.00  0.00    -0.321 A  
HETATM   11  C   UNL     2      -9.124  20.064  65.606  1.00  0.00     0.157 A  
HETATM   12  C   UNL     2     -10.610  19.420  67.871  1.00  0.00    -0.501 A  
HETATM   13  H   UNL     2      -6.605  19.964  65.989  1.00  0.00     0.000 HD 
HETATM   14  C   UNL     2     -11.256  19.641  66.655  1.00  0.00     0.048 A  
ENDROOT
BRANCH   4  15
HETATM   15  C   UNL     1     -10.295  15.875  68.520  1.00  0.00    -0.232 C  
BRANCH  15  16
HETATM   16  N   UNL     1      -9.014  16.065  67.791  1.00  0.00    -0.187 NA 
BRANCH  16  17
HETATM   17  C   UNL     1      -8.070  14.924  67.980  1.00  0.00    -0.136 C  
BRANCH  17  18
HETATM   18  C   UNL     1      -6.560  15.133  67.773  1.00  0.00    -0.165 C  
HETATM   19  H   UNL     1      -4.832  14.385  68.426  1.00  0.00     0.000 HD 
HETATM   20  O   UNL     1      -5.764  14.256  68.554  1.00  0.00    -0.084 OA 
ENDBRANCH  17  18
ENDBRANCH  16  17
BRANCH  16  21
HETATM   21  C   UNL     1      -9.244  16.236  66.335  1.00  0.00    -0.299 C  
BRANCH  21  22
HETATM   22  C   UNL     1     -10.646  15.891  65.789  1.00  0.00    -0.355 C  
HETATM   23  O   UNL     1     -10.814  14.475  65.730  1.00  0.00    -0.296 OA 
HETATM   24  H   UNL     1     -11.677  14.263  65.394  1.00  0.00     0.000 HD 
ENDBRANCH  21  22
ENDBRANCH  16  21
ENDBRANCH  15  16
ENDBRANCH   4  15
TORSDOF 6
ENDMDL
MODEL      276
REMARK 921   NORMALIZED FREE ENERGY PREDICTED BY IDOCK:   -1.94 KCAL/MOL
REMARK 922        TOTAL FREE ENERGY PREDICTED BY IDOCK:   -3.48 KCAL/MOL
REMARK 923 INTER-LIGAND FREE ENERGY PREDICTED BY IDOCK:   -3.59 KCAL/MOL
REMARK 924 INTRA-LIGAND FREE ENERGY PREDICTED BY IDOCK:    0.12 KCAL/MOL
REMARK 927      BINDING AFFINITY PREDICTED BY RF-SCORE:    0.00 PKD
ROOT
HETATM    1  O   UNL     1      -8.588  15.471  66.478  1.00  0.00    -0.269 OA 
HETATM    2  H   UNL     1      -7.863  16.080  66.399  1.00  0.00     0.000 HD 
HETATM    3  O   UNL     2      -5.232  13.013  67.871  1.00  0.00    -0.094 OA 
HETATM    4  C   UNL     1      -8.234  14.232  67.083  1.00  0.00    -0.160 C  
HETATM    5  O   UNL     2      -6.489   9.603  69.782  1.00  0.00    -0.043 OA 
HETATM    6  C   UNL     2      -6.015  12.137  68.530  1.00  0.00    -0.053 C  
HETATM    7  C   UNL     2      -6.411  10.945  67.755  1.00  0.00    -0.063 A  
HETATM    8  O   UNL     2      -6.376  12.295  69.690  1.00  0.00    -0.124 OA 
HETATM    9  C   UNL     2      -7.300   8.689  66.361  1.00  0.00    -0.080 A  
HETATM   10  C   UNL     2      -6.627   9.737  68.430  1.00  0.00    -0.056 A  
HETATM   11  C   UNL     2      -7.029   8.607  67.727  1.00  0.00    -0.075 A  
HETATM   12  C   UNL     2      -6.682  11.021  66.383  1.00  0.00    -0.123 A  
HETATM   13  H   UNL     2      -6.635   8.783  70.240  1.00  0.00     0.000 HD 
HETATM   14  C   UNL     2      -7.149   9.902  65.694  1.00  0.00    -0.112 A  
ENDROOT
BRANCH   4  15
HETATM   15  C   UNL     1      -9.419  13.237  67.212  1.00  0.00    -0.233 C  
BRANCH  15  16
HETATM   16  N   UNL     1     -10.760  13.752  66.833  1.00  0.00    -0.279 NA 
BRANCH  16  17
HETATM   17  C   UNL     1     -11.848  12.759  67.075  1.00  0.00    -0.361 C  
BRANCH  17  18
HETATM   18  C   UNL     1     -11.556  11.478  67.875  1.00  0.00    -0.282 C  
HETATM   19  H   UNL     1     -11.721  10.796  69.741  1.00  0.00     0.000 HD 
HETATM   20  O   UNL     1     -11.902  11.587  69.247  1.00  0.00    -0.301 OA 
ENDBRANCH  17  18
ENDBRANCH  16  17
BRANCH  16  21
HETATM   21  C   UNL     1     -11.092  14.989  67.582  1.00  0.00    -0.316 C  
BRANCH  21  22
HETATM   22  C   UNL     1     -10.990  14.939  69.122  1.00  0.00    -0.260 C  
HETATM   23  O   UNL     1     -10.987  16.262  69.656  1.00  0.00    -0.312 OA 
HETATM   24  H   UNL     1     -10.923  16.231  70.604  1.00  0.00     0.000 HD 
ENDBRANCH  21  22
ENDBRANCH  16  21
ENDBRANCH  15  16
ENDBRANCH   4  15
TORSDOF 6
ENDMDL
MODEL      277
REMARK 921   NORMALIZED FREE ENERGY PREDICTED BY IDOCK:   -1.62 KCAL/MOL
REMARK 922        TOTAL FREE ENERGY PREDICTED BY IDOCK:   -3.04 KCAL/MOL
REMARK 923 INTER-LIGAND FREE ENERGY PREDICTED BY IDOCK:   -2.71 KCAL/MOL
REMARK 924 INTRA-LIGAND FREE ENERGY PREDICTED BY IDOCK:   -0.33 KCAL/MOL
REMARK 927      BINDING AFFINITY PREDICTED BY RF-SCORE:    0.00 PKD
ROOT
HETATM    1  O   UNL     1      -6.732   5.092  67.038  1.00  0.00    -0.052 OA 
HETATM    2  H   UNL     1      -5.985   5.474  66.593  1.00  0.00     0.000 HD 
HETATM    3  O   UNL     2      -7.385   9.370  67.759  1.00  0.00    -0.082 OA 
HETATM    4  C   UNL     1      -7.653   6.052  67.543  1.00  0.00    -0.090 C  
HETATM    5  O   UNL     2     -11.179  10.157  69.117  1.00  0.00    -0.281 OA 
HETATM    6  C   UNL     2      -8.698   9.228  68.023  1.00  0.00    -0.125 C  
HETATM    7  C   UNL     2      -9.035   9.057  69.451  1.00  0.00    -0.145 A  
HETATM    8  O   UNL     2      -9.566   9.245  67.158  1.00  0.00    -0.146 OA 
HETATM    9  C   UNL     2      -9.790   8.639  72.111  1.00  0.00    -0.387 A  
HETATM   10  C   UNL     2     -10.265   9.536  69.919  1.00  0.00    -0.231 A  
HETATM   11  C   UNL     2     -10.619   9.361  71.252  1.00  0.00    -0.400 A  
HETATM   12  C   UNL     2      -8.206   8.335  70.317  1.00  0.00    -0.121 A  
HETATM   13  H   UNL     2     -12.014  10.481  69.435  1.00  0.00     0.000 HD 
HETATM   14  C   UNL     2      -8.594   8.106  71.636  1.00  0.00    -0.181 A  
ENDROOT
BRANCH   4  15
HETATM   15  C   UNL     1      -8.874   5.428  68.271  1.00  0.00    -0.104 C  
BRANCH  15  16
HETATM   16  N   UNL     1      -8.578   4.371  69.273  1.00  0.00    -0.080 NA 
BRANCH  16  17
HETATM   17  C   UNL     1      -8.329   3.039  68.647  1.00  0.00    -0.065 C  
BRANCH  17  18
HETATM   18  C   UNL     1      -7.029   2.275  68.957  1.00  0.00    -0.040 C  
HETATM   19  H   UNL     1      -5.346   1.731  68.039  1.00  0.00     0.000 HD 
HETATM   20  O   UNL     1      -6.148   2.202  67.847  1.00  0.00    -0.023 OA 
ENDBRANCH  17  18
ENDBRANCH  16  17
BRANCH  16  21
HETATM   21  C   UNL     1      -7.391   4.724  70.091  1.00  0.00    -0.054 C  
BRANCH  21  22
HETATM   22  C   UNL     1      -7.559   4.725  71.626  1.00  0.00    -0.091 C  
HETATM   23  O   UNL     1      -6.544   3.925  72.230  1.00  0.00    -0.017 OA 
HETATM   24  H   UNL     1      -6.647   3.926  73.175  1.00  0.00     0.000 HD 
ENDBRANCH  21  22
ENDBRANCH  16  21
ENDBRANCH  15  16
ENDBRANCH   4  15
TORSDOF 6
ENDMDL
MODEL      278
REMARK 921   NORMALIZED FREE ENERGY PREDICTED BY IDOCK:   -1.61 KCAL/MOL
REMARK 922        TOTAL FREE ENERGY PREDICTED BY IDOCK:   -3.03 KCAL/MOL
REMARK 923 INTER-LIGAND FREE ENERGY PREDICTED BY IDOCK:   -2.75 KCAL/MOL
REMARK 924 INTRA-LIGAND FREE ENERGY PREDICTED BY IDOCK:   -0.29 KCAL/MOL
REMARK 927      BINDING AFFINITY PREDICTED BY RF-SCORE:    0.00 PKD
ROOT
HETATM    1  O   UNL     1      -9.725   3.818  72.449  1.00  0.00    -0.135 OA 
HETATM    2  H   UNL     1      -9.413   3.704  73.338  1.00  0.00     0.000 HD 
HETATM    3  O   UNL     2      -7.352   7.464  73.009  1.00  0.00    -0.071 OA 
HETATM    4  C   UNL     1      -9.186   4.959  71.791  1.00  0.00    -0.141 C  
HETATM    5  O   UNL     2      -6.593   9.387  69.461  1.00  0.00    -0.042 OA 
HETATM    6  C   UNL     2      -7.202   7.691  71.690  1.00  0.00    -0.064 C  
HETATM    7  C   UNL     2      -8.213   8.584  71.089  1.00  0.00    -0.172 A  
HETATM    8  O   UNL     2      -6.296   7.207  71.021  1.00  0.00    -0.036 OA 
HETATM    9  C   UNL     2     -10.119  10.190  69.819  1.00  0.00    -0.269 A  
HETATM   10  C   UNL     2      -7.848   9.387  70.001  1.00  0.00    -0.132 A  
HETATM   11  C   UNL     2      -8.789  10.214  69.399  1.00  0.00    -0.197 A  
HETATM   12  C   UNL     2      -9.548   8.564  71.508  1.00  0.00    -0.297 A  
HETATM   13  H   UNL     2      -6.346   9.932  68.723  1.00  0.00     0.000 HD 
HETATM   14  C   UNL     2     -10.502   9.346  70.859  1.00  0.00    -0.381 A  
ENDROOT
BRANCH   4  15
HETATM   15  C   UNL     1      -9.696   5.145  70.337  1.00  0.00    -0.202 C  
BRANCH  15  16
HETATM   16  N   UNL     1      -9.396   4.043  69.385  1.00  0.00    -0.157 NA 
BRANCH  16  17
HETATM   17  C   UNL     1      -9.206   4.528  67.986  1.00  0.00    -0.132 C  
BRANCH  17  18
HETATM   18  C   UNL     1      -7.824   5.026  67.526  1.00  0.00    -0.095 C  
HETATM   19  H   UNL     1      -6.846   5.403  65.831  1.00  0.00     0.000 HD 
HETATM   20  O   UNL     1      -7.699   5.096  66.115  1.00  0.00    -0.090 OA 
ENDBRANCH  17  18
ENDBRANCH  16  17
BRANCH  16  21
HETATM   21  C   UNL     1      -8.173   3.305  69.786  1.00  0.00    -0.051 C  
BRANCH  21  22
HETATM   22  C   UNL     1      -8.122   1.792  69.482  1.00  0.00    -0.044 C  
HETATM   23  O   UNL     1      -7.234   1.541  68.394  1.00  0.00    -0.039 OA 
HETATM   24  H   UNL     1      -7.203   0.609  68.207  1.00  0.00     0.000 HD 
ENDBRANCH  21  22
ENDBRANCH  16  21
ENDBRANCH  15  16
ENDBRANCH   4  15
TORSDOF 6
ENDMDL
MODEL      279
REMARK 921   NORMALIZED FREE ENERGY PREDICTED BY IDOCK:   -1.44 KCAL/MOL
REMARK 922        TOTAL FREE ENERGY PREDICTED BY IDOCK:   -2.81 KCAL/MOL
REMARK 923 INTER-LIGAND FREE ENERGY PREDICTED BY IDOCK:   -2.25 KCAL/MOL
REMARK 924 INTRA-LIGAND FREE ENERGY PREDICTED BY IDOCK:   -0.56 KCAL/MOL
REMARK 927      BINDING AFFINITY PREDICTED BY RF-SCORE:    0.00 PKD
ROOT
HETATM    1  O   UNL     1      -5.410   9.731  68.952  1.00  0.00    -0.037 OA 
HETATM    2  H   UNL     1      -4.534   9.475  69.213  1.00  0.00     0.000 HD 
HETATM    3  O   UNL     2      -5.672   5.360  68.689  1.00  0.00    -0.014 OA 
HETATM    4  C   UNL     1      -6.297   8.636  68.759  1.00  0.00    -0.049 C  
HETATM    5  O   UNL     2      -9.552   4.050  68.400  1.00  0.00    -0.161 OA 
HETATM    6  C   UNL     2      -7.017   5.335  68.761  1.00  0.00    -0.060 C  
HETATM    7  C   UNL     2      -7.715   5.337  67.460  1.00  0.00    -0.096 A  
HETATM    8  O   UNL     2      -7.635   5.306  69.819  1.00  0.00    -0.066 OA 
HETATM    9  C   UNL     2      -9.150   5.425  65.061  1.00  0.00     0.021 A  
HETATM   10  C   UNL     2      -8.951   4.688  67.353  1.00  0.00    -0.111 A  
HETATM   11  C   UNL     2      -9.642   4.700  66.147  1.00  0.00    -0.187 A  
HETATM   12  C   UNL     2      -7.223   6.061  66.367  1.00  0.00    -0.076 A  
HETATM   13  H   UNL     2     -10.392   3.610  68.327  1.00  0.00     0.000 HD 
HETATM   14  C   UNL     2      -7.951   6.124  65.180  1.00  0.00    -0.117 A  
ENDROOT
BRANCH   4  15
HETATM   15  C   UNL     1      -7.730   9.056  68.332  1.00  0.00    -0.098 C  
BRANCH  15  16
HETATM   16  N   UNL     1      -7.827  10.144  67.324  1.00  0.00    -0.102 NA 
BRANCH  16  17
HETATM   17  C   UNL     1      -8.649   9.761  66.140  1.00  0.00    -0.127 C  
BRANCH  17  18
HETATM   18  C   UNL     1      -9.996   9.044  66.339  1.00  0.00    -0.300 C  
HETATM   19  H   UNL     1     -11.892   9.489  66.762  1.00  0.00     0.000 HD 
HETATM   20  O   UNL     1     -11.061   9.932  66.639  1.00  0.00     0.053 OA 
ENDBRANCH  17  18
ENDBRANCH  16  17
BRANCH  16  21
HETATM   21  C   UNL     1      -8.416  11.372  67.915  1.00  0.00    -0.139 C  
BRANCH  21  22
HETATM   22  C   UNL     1      -8.025  12.726  67.283  1.00  0.00    -0.156 C  
HETATM   23  O   UNL     1      -6.699  12.657  66.760  1.00  0.00    -0.427 OA 
HETATM   24  H   UNL     1      -6.459  13.490  66.372  1.00  0.00     0.000 HD 
ENDBRANCH  21  22
ENDBRANCH  16  21
ENDBRANCH  15  16
ENDBRANCH   4  15
TORSDOF 6
ENDMDL
MODEL      280
REMARK 921   NORMALIZED FREE ENERGY PREDICTED BY IDOCK:   -1.42 KCAL/MOL
REMARK 922        TOTAL FREE ENERGY PREDICTED BY IDOCK:   -2.77 KCAL/MOL
REMARK 923 INTER-LIGAND FREE ENERGY PREDICTED BY IDOCK:   -2.26 KCAL/MOL
REMARK 924 INTRA-LIGAND FREE ENERGY PREDICTED BY IDOCK:   -0.52 KCAL/MOL
REMARK 927      BINDING AFFINITY PREDICTED BY RF-SCORE:    0.00 PKD
ROOT
HETATM    1  O   UNL     1      -9.267   3.919  72.386  1.00  0.00    -0.108 OA 
HETATM    2  H   UNL     1      -9.100   3.981  73.319  1.00  0.00     0.000 HD 
HETATM    3  O   UNL     2      -8.297   8.176  72.813  1.00  0.00    -0.152 OA 
HETATM    4  C   UNL     1      -9.003   5.122  71.673  1.00  0.00    -0.134 C  
HETATM    5  O   UNL     2      -7.555   9.972  69.197  1.00  0.00    -0.081 OA 
HETATM    6  C   UNL     2      -7.991   8.340  71.512  1.00  0.00    -0.123 C  
HETATM    7  C   UNL     2      -9.106   8.802  70.660  1.00  0.00    -0.221 A  
HETATM    8  O   UNL     2      -6.875   8.136  71.050  1.00  0.00    -0.040 OA 
HETATM    9  C   UNL     2     -11.158   9.589  68.931  1.00  0.00    -0.050 A  
HETATM   10  C   UNL     2      -8.822   9.598  69.544  1.00  0.00    -0.190 A  
HETATM   11  C   UNL     2      -9.850  10.021  68.709  1.00  0.00    -0.173 A  
HETATM   12  C   UNL     2     -10.420   8.373  70.879  1.00  0.00    -0.235 A  
HETATM   13  H   UNL     2      -7.362  10.512  68.439  1.00  0.00     0.000 HD 
HETATM   14  C   UNL     2     -11.438   8.746  70.003  1.00  0.00     0.047 A  
ENDROOT
BRANCH   4  15
HETATM   15  C   UNL     1      -9.276   5.020  70.148  1.00  0.00    -0.135 C  
BRANCH  15  16
HETATM   16  N   UNL     1      -8.120   4.641  69.293  1.00  0.00    -0.069 NA 
BRANCH  16  17
HETATM   17  C   UNL     1      -8.292   5.064  67.873  1.00  0.00    -0.100 C  
BRANCH  17  18
HETATM   18  C   UNL     1      -9.518   4.591  67.072  1.00  0.00    -0.169 C  
HETATM   19  H   UNL     1     -11.240   5.319  66.382  1.00  0.00     0.000 HD 
HETATM   20  O   UNL     1     -10.483   5.611  66.876  1.00  0.00    -0.231 OA 
ENDBRANCH  17  18
ENDBRANCH  16  17
BRANCH  16  21
HETATM   21  C   UNL     1      -6.859   5.236  69.801  1.00  0.00    -0.056 C  
BRANCH  21  22
HETATM   22  C   UNL     1      -5.846   5.756  68.758  1.00  0.00    -0.019 C  
HETATM   23  O   UNL     1      -5.594   7.144  68.971  1.00  0.00    -0.017 OA 
HETATM   24  H   UNL     1      -4.971   7.465  68.329  1.00  0.00     0.000 HD 
ENDBRANCH  21  22
ENDBRANCH  16  21
ENDBRANCH  15  16
ENDBRANCH   4  15
TORSDOF 6
ENDMDL
MODEL      281
REMARK 921   NORMALIZED FREE ENERGY PREDICTED BY IDOCK:   -0.98 KCAL/MOL
REMARK 922        TOTAL FREE ENERGY PREDICTED BY IDOCK:   -2.18 KCAL/MOL
REMARK 923 INTER-LIGAND FREE ENERGY PREDICTED BY IDOCK:   -3.78 KCAL/MOL
REMARK 924 INTRA-LIGAND FREE ENERGY PREDICTED BY IDOCK:    1.61 KCAL/MOL
REMARK 927      BINDING AFFINITY PREDICTED BY RF-SCORE:    0.00 PKD
ROOT
HETATM    1  O   UNL     1     -11.728  15.123  65.767  1.00  0.00    -0.190 OA 
HETATM    2  H   UNL     1     -12.461  14.790  66.271  1.00  0.00     0.000 HD 
HETATM    3  O   UNL     2      -9.975  14.857  69.780  1.00  0.00    -0.100 OA 
HETATM    4  C   UNL     1     -10.517  15.221  66.509  1.00  0.00    -0.298 C  
HETATM    5  O   UNL     2      -5.882  15.168  69.714  1.00  0.00    -0.113 OA 
HETATM    6  C   UNL     2      -8.704  14.846  69.335  1.00  0.00    -0.047 C  
HETATM    7  C   UNL     2      -8.053  16.170  69.267  1.00  0.00    -0.186 A  
HETATM    8  O   UNL     2      -8.111  13.824  69.011  1.00  0.00     0.003 OA 
HETATM    9  C   UNL     2      -6.742  18.627  69.013  1.00  0.00    -0.296 A  
HETATM   10  C   UNL     2      -6.669  16.255  69.463  1.00  0.00    -0.198 A  
HETATM   11  C   UNL     2      -6.027  17.485  69.375  1.00  0.00    -0.234 A  
HETATM   12  C   UNL     2      -8.766  17.319  68.906  1.00  0.00    -0.172 A  
HETATM   13  H   UNL     2      -4.943  15.226  69.846  1.00  0.00     0.000 HD 
HETATM   14  C   UNL     2      -8.108  18.538  68.756  1.00  0.00    -0.287 A  
ENDROOT
BRANCH   4  15
HETATM   15  C   UNL     1      -9.319  15.765  65.686  1.00  0.00    -0.167 C  
BRANCH  15  16
HETATM   16  N   UNL     1      -9.282  17.235  65.464  1.00  0.00    -0.145 NA 
BRANCH  16  17
HETATM   17  C   UNL     1     -10.526  17.918  65.924  1.00  0.00    -0.253 C  
BRANCH  17  18
HETATM   18  C   UNL     1     -10.532  19.442  66.138  1.00  0.00    -0.508 C  
HETATM   19  H   UNL     1     -11.020  20.763  67.548  1.00  0.00     0.000 HD 
HETATM   20  O   UNL     1     -11.016  19.822  67.416  1.00  0.00    -0.399 OA 
ENDBRANCH  17  18
ENDBRANCH  16  17
BRANCH  16  21
HETATM   21  C   UNL     1      -8.130  17.855  66.165  1.00  0.00    -0.173 C  
BRANCH  21  22
HETATM   22  C   UNL     1      -6.976  18.400  65.297  1.00  0.00     0.169 C  
HETATM   23  O   UNL     1      -5.723  17.943  65.804  1.00  0.00    -0.190 OA 
HETATM   24  H   UNL     1      -5.013  18.279  65.269  1.00  0.00     0.000 HD 
ENDBRANCH  21  22
ENDBRANCH  16  21
ENDBRANCH  15  16
ENDBRANCH   4  15
TORSDOF 6
ENDMDL
MODEL      282
REMARK 921   NORMALIZED FREE ENERGY PREDICTED BY IDOCK:   -0.81 KCAL/MOL
REMARK 922        TOTAL FREE ENERGY PREDICTED BY IDOCK:   -1.95 KCAL/MOL
REMARK 923 INTER-LIGAND FREE ENERGY PREDICTED BY IDOCK:   -2.86 KCAL/MOL
REMARK 924 INTRA-LIGAND FREE ENERGY PREDICTED BY IDOCK:    0.90 KCAL/MOL
REMARK 927      BINDING AFFINITY PREDICTED BY RF-SCORE:    0.00 PKD
ROOT
HETATM    1  O   UNL     1     -10.844  14.351  71.732  1.00  0.00     0.553 OA 
HETATM    2  H   UNL     1     -10.010  14.080  72.098  1.00  0.00     0.000 HD 
HETATM    3  O   UNL     2      -8.989  12.368  68.287  1.00  0.00    -0.190 OA 
HETATM    4  C   UNL     1     -11.069  13.885  70.407  1.00  0.00     0.431 C  
HETATM    5  O   UNL     2     -11.694  11.594  65.296  1.00  0.00    -0.148 OA 
HETATM    6  C   UNL     2     -10.156  12.165  67.647  1.00  0.00    -0.199 C  
HETATM    7  C   UNL     2     -10.535  13.220  66.685  1.00  0.00    -0.279 A  
HETATM    8  O   UNL     2     -10.864  11.181  67.828  1.00  0.00    -0.206 OA 
HETATM    9  C   UNL     2     -11.401  15.194  64.902  1.00  0.00    -0.402 A  
HETATM   10  C   UNL     2     -11.287  12.871  65.556  1.00  0.00    -0.307 A  
HETATM   11  C   UNL     2     -11.681  13.850  64.651  1.00  0.00    -0.413 A  
HETATM   12  C   UNL     2     -10.255  14.570  66.932  1.00  0.00    -0.264 A  
HETATM   13  H   UNL     2     -12.204  11.357  64.530  1.00  0.00     0.000 HD 
HETATM   14  C   UNL     2     -10.708  15.555  66.055  1.00  0.00    -0.331 A  
ENDROOT
BRANCH   4  15
HETATM   15  C   UNL     1     -12.433  14.327  69.810  1.00  0.00    -0.216 C  
BRANCH  15  16
HETATM   16  N   UNL     1     -12.976  15.625  70.290  1.00  0.00    -0.277 NA 
BRANCH  16  17
HETATM   17  C   UNL     1     -14.213  15.463  71.109  1.00  0.00    -0.216 C  
BRANCH  17  18
HETATM   18  C   UNL     1     -14.375  14.236  72.023  1.00  0.00    -0.544 C  
HETATM   19  H   UNL     1     -13.486  13.403  73.600  1.00  0.00     0.000 HD 
HETATM   20  O   UNL     1     -13.385  14.161  73.036  1.00  0.00    -0.635 OA 
ENDBRANCH  17  18
ENDBRANCH  16  17
BRANCH  16  21
HETATM   21  C   UNL     1     -11.975  16.356  71.108  1.00  0.00     0.030 C  
BRANCH  21  22
HETATM   22  C   UNL     1     -10.978  17.270  70.364  1.00  0.00     0.928 C  
HETATM   23  O   UNL     1     -11.247  17.251  68.964  1.00  0.00    -0.171 OA 
HETATM   24  H   UNL     1     -10.633  17.814  68.506  1.00  0.00     0.000 HD 
ENDBRANCH  21  22
ENDBRANCH  16  21
ENDBRANCH  15  16
ENDBRANCH   4  15
TORSDOF 6
ENDMDL
MODEL      283
REMARK 921   NORMALIZED FREE ENERGY PREDICTED BY IDOCK:    8.48 KCAL/MOL
REMARK 922        TOTAL FREE ENERGY PREDICTED BY IDOCK:   10.59 KCAL/MOL
REMARK 923 INTER-LIGAND FREE ENERGY PREDICTED BY IDOCK:    6.99 KCAL/MOL
REMARK 924 INTRA-LIGAND FREE ENERGY PREDICTED BY IDOCK:    3.60 KCAL/MOL
REMARK 927      BINDING AFFINITY PREDICTED BY RF-SCORE:    0.00 PKD
ROOT
HETATM    1  O   UNL     1     -11.763  19.515  64.697  1.00  0.00     1.412 OA 
HETATM    2  H   UNL     1     -11.918  18.936  63.961  1.00  0.00     0.000 HD 
HETATM    3  O   UNL     2      -8.103  17.097  64.710  1.00  0.00     3.078 OA 
HETATM    4  C   UNL     1     -10.470  19.378  65.275  1.00  0.00     0.415 C  
HETATM    5  O   UNL     2      -5.165  18.734  67.065  1.00  0.00    -0.130 OA 
HETATM    6  C   UNL     2      -7.392  17.994  65.420  1.00  0.00     0.500 C  
HETATM    7  C   UNL     2      -7.395  17.781  66.881  1.00  0.00    -0.229 A  
HETATM    8  O   UNL     2      -6.774  18.921  64.910  1.00  0.00    -0.496 OA 
HETATM    9  C   UNL     2      -7.399  17.533  69.667  1.00  0.00     0.432 A  
HETATM   10  C   UNL     2      -6.273  18.166  67.625  1.00  0.00    -0.170 A  
HETATM   11  C   UNL     2      -6.264  18.003  69.006  1.00  0.00    -0.230 A  
HETATM   12  C   UNL     2      -8.531  17.308  67.548  1.00  0.00    -0.210 A  
HETATM   13  H   UNL     2      -4.404  18.995  67.571  1.00  0.00     0.000 HD 
HETATM   14  C   UNL     2      -8.541  17.208  68.939  1.00  0.00    -0.190 A  
ENDROOT
BRANCH   4  15
HETATM   15  C   UNL     1     -10.216  20.326  66.479  1.00  0.00    -0.349 C  
BRANCH  15  16
HETATM   16  N   UNL     1     -10.945  20.008  67.735  1.00  0.00    -0.043 NA 
BRANCH  16  17
HETATM   17  C   UNL     1     -11.604  18.670  67.695  1.00  0.00     1.282 C  
BRANCH  17  18
HETATM   18  C   UNL     1     -10.883  17.440  68.275  1.00  0.00    -0.256 C  
HETATM   19  H   UNL     1     -11.217  15.497  68.568  1.00  0.00     0.000 HD 
HETATM   20  O   UNL     1     -11.662  16.256  68.209  1.00  0.00    -0.238 OA 
ENDBRANCH  17  18
ENDBRANCH  16  17
BRANCH  16  21
HETATM   21  C   UNL     1     -10.033  20.037  68.906  1.00  0.00    -0.238 C  
BRANCH  21  22
HETATM   22  C   UNL     1     -10.655  19.796  70.299  1.00  0.00     1.427 C  
HETATM   23  O   UNL     1      -9.637  19.809  71.298  1.00  0.00     1.224 OA 
HETATM   24  H   UNL     1     -10.020  19.660  72.155  1.00  0.00     0.000 HD 
ENDBRANCH  21  22
ENDBRANCH  16  21
ENDBRANCH  15  16
ENDBRANCH   4  15
TORSDOF 6
ENDMDL
MODEL      284
REMARK 921   NORMALIZED FREE ENERGY PREDICTED BY IDOCK:   12.23 KCAL/MOL
REMARK 922        TOTAL FREE ENERGY PREDICTED BY IDOCK:   15.67 KCAL/MOL
REMARK 923 INTER-LIGAND FREE ENERGY PREDICTED BY IDOCK:   13.81 KCAL/MOL
REMARK 924 INTRA-LIGAND FREE ENERGY PREDICTED BY IDOCK:    1.86 KCAL/MOL
REMARK 927      BINDING AFFINITY PREDICTED BY RF-SCORE:    0.00 PKD
ROOT
HETATM    1  O   UNL     1      -9.389  14.178  71.873  1.00  0.00     5.179 OA 
HETATM    2  H   UNL     1      -8.958  13.864  72.659  1.00  0.00     0.000 HD 
HETATM    3  O   UNL     2      -5.342  13.378  70.380  1.00  0.00    -0.106 OA 
HETATM    4  C   UNL     1      -8.583  14.099  70.703  1.00  0.00     3.428 C  
HETATM    5  O   UNL     2      -5.178  13.335  66.278  1.00  0.00     1.326 OA 
HETATM    6  C   UNL     2      -5.724  13.299  69.091  1.00  0.00    -0.076 C  
HETATM    7  C   UNL     2      -5.627  14.560  68.331  1.00  0.00    -0.107 A  
HETATM    8  O   UNL     2      -6.119  12.264  68.567  1.00  0.00    -0.053 OA 
HETATM    9  C   UNL     2      -5.570  16.907  66.810  1.00  0.00    -0.165 A  
HETATM   10  C   UNL     2      -5.356  14.506  66.958  1.00  0.00     1.271 A  
HETATM   11  C   UNL     2      -5.289  15.678  66.213  1.00  0.00     2.749 A  
HETATM   12  C   UNL     2      -5.906  15.797  68.925  1.00  0.00    -0.104 A  
HETATM   13  H   UNL     2      -4.994  13.298  65.347  1.00  0.00     0.000 HD 
HETATM   14  C   UNL     2      -5.901  16.963  68.162  1.00  0.00    -0.121 A  
ENDROOT
BRANCH   4  15
HETATM   15  C   UNL     1      -9.288  14.612  69.419  1.00  0.00     0.108 C  
BRANCH  15  16
HETATM   16  N   UNL     1      -9.282  13.695  68.250  1.00  0.00    -0.200 NA 
BRANCH  16  17
HETATM   17  C   UNL     1      -8.519  14.244  67.091  1.00  0.00    -0.200 C  
BRANCH  17  18
HETATM   18  C   UNL     1      -9.268  14.897  65.916  1.00  0.00    -0.080 C  
HETATM   19  H   UNL     1      -9.803  16.712  65.292  1.00  0.00     0.000 HD 
HETATM   20  O   UNL     1      -9.340  16.310  66.017  1.00  0.00    -0.315 OA 
ENDBRANCH  17  18
ENDBRANCH  16  17
BRANCH  16  21
HETATM   21  C   UNL     1      -8.697  12.377  68.603  1.00  0.00     0.036 C  
BRANCH  21  22
HETATM   22  C   UNL     1      -9.400  11.558  69.707  1.00  0.00     1.446 C  
HETATM   23  O   UNL     1      -9.206  10.163  69.481  1.00  0.00    -0.206 OA 
HETATM   24  H   UNL     1      -9.639   9.659  70.160  1.00  0.00     0.000 HD 
ENDBRANCH  21  22
ENDBRANCH  16  21
ENDBRANCH  15  16
ENDBRANCH   4  15
TORSDOF 6
ENDMDL
MODEL      285
REMARK 921   NORMALIZED FREE ENERGY PREDICTED BY IDOCK:   12.79 KCAL/MOL
REMARK 922        TOTAL FREE ENERGY PREDICTED BY IDOCK:   16.42 KCAL/MOL
REMARK 923 INTER-LIGAND FREE ENERGY PREDICTED BY IDOCK:    9.62 KCAL/MOL
REMARK 924 INTRA-LIGAND FREE ENERGY PREDICTED BY IDOCK:    6.80 KCAL/MOL
REMARK 927      BINDING AFFINITY PREDICTED BY RF-SCORE:    0.00 PKD
ROOT
HETATM    1  O   UNL     1     -10.910  18.319  73.600  1.00  0.00     1.387 OA 
HETATM    2  H   UNL     1     -10.606  19.112  74.024  1.00  0.00     0.000 HD 
HETATM    3  O   UNL     2      -8.356  20.044  70.479  1.00  0.00     0.978 OA 
HETATM    4  C   UNL     1     -10.312  18.078  72.332  1.00  0.00     5.146 C  
HETATM    5  O   UNL     2      -7.494  17.346  67.507  1.00  0.00    -0.177 OA 
HETATM    6  C   UNL     2      -8.192  18.878  69.826  1.00  0.00     0.811 C  
HETATM    7  C   UNL     2      -9.155  18.630  68.735  1.00  0.00    -0.297 A  
HETATM    8  O   UNL     2      -7.311  18.071  70.097  1.00  0.00     0.940 OA 
HETATM    9  C   UNL     2     -10.975  18.009  66.703  1.00  0.00     0.187 A  
HETATM   10  C   UNL     2      -8.748  17.873  67.629  1.00  0.00    -0.242 A  
HETATM   11  C   UNL     2      -9.644  17.601  66.602  1.00  0.00    -0.301 A  
HETATM   12  C   UNL     2     -10.491  19.038  68.831  1.00  0.00     0.050 A  
HETATM   13  H   UNL     2      -7.218  16.833  66.756  1.00  0.00     0.000 HD 
HETATM   14  C   UNL     2     -11.403  18.707  67.830  1.00  0.00     0.547 A  
ENDROOT
BRANCH   4  15
HETATM   15  C   UNL     1     -10.810  16.780  71.639  1.00  0.00     1.467 C  
BRANCH  15  16
HETATM   16  N   UNL     1     -10.833  16.791  70.153  1.00  0.00    -0.148 NA 
BRANCH  16  17
HETATM   17  C   UNL     1      -9.747  15.962  69.554  1.00  0.00    -0.255 C  
BRANCH  17  18
HETATM   18  C   UNL     1     -10.100  14.763  68.657  1.00  0.00    -0.238 C  
HETATM   19  H   UNL     1     -10.565  12.833  68.835  1.00  0.00     0.000 HD 
HETATM   20  O   UNL     1     -10.347  13.573  69.389  1.00  0.00     0.103 OA 
ENDBRANCH  17  18
ENDBRANCH  16  17
BRANCH  16  21
HETATM   21  C   UNL     1     -12.131  16.293  69.633  1.00  0.00     0.235 C  
BRANCH  21  22
HETATM   22  C   UNL     1     -12.367  14.768  69.648  1.00  0.00    -0.215 C  
HETATM   23  O   UNL     1     -13.079  14.394  70.826  1.00  0.00    -0.356 OA 
HETATM   24  H   UNL     1     -13.224  13.454  70.835  1.00  0.00     0.000 HD 
ENDBRANCH  21  22
ENDBRANCH  16  21
ENDBRANCH  15  16
ENDBRANCH   4  15
TORSDOF 6
ENDMDL
MODEL      286
REMARK 921   NORMALIZED FREE ENERGY PREDICTED BY IDOCK:   12.86 KCAL/MOL
REMARK 922        TOTAL FREE ENERGY PREDICTED BY IDOCK:   16.51 KCAL/MOL
REMARK 923 INTER-LIGAND FREE ENERGY PREDICTED BY IDOCK:    5.41 KCAL/MOL
REMARK 924 INTRA-LIGAND FREE ENERGY PREDICTED BY IDOCK:   11.10 KCAL/MOL
REMARK 927      BINDING AFFINITY PREDICTED BY RF-SCORE:    0.00 PKD
ROOT
HETATM    1  O   UNL     1     -10.546  16.112  66.239  1.00  0.00    -0.310 OA 
HETATM    2  H   UNL     1     -11.420  15.997  65.886  1.00  0.00     0.000 HD 
HETATM    3  O   UNL     2     -10.198  12.180  64.326  1.00  0.00    -0.299 OA 
HETATM    4  C   UNL     1      -9.635  15.083  65.868  1.00  0.00    -0.321 C  
HETATM    5  O   UNL     2      -6.291  10.983  63.928  1.00  0.00    -0.230 OA 
HETATM    6  C   UNL     2      -8.854  12.224  64.248  1.00  0.00     1.377 C  
HETATM    7  C   UNL     2      -8.140  11.603  65.381  1.00  0.00     0.753 A  
HETATM    8  O   UNL     2      -8.249  12.730  63.310  1.00  0.00     3.629 OA 
HETATM    9  C   UNL     2      -6.677  10.537  67.514  1.00  0.00    -0.070 A  
HETATM   10  C   UNL     2      -6.890  11.013  65.155  1.00  0.00     0.453 A  
HETATM   11  C   UNL     2      -6.185  10.449  66.211  1.00  0.00    -0.092 A  
HETATM   12  C   UNL     2      -8.631  11.688  66.690  1.00  0.00    -0.179 A  
HETATM   13  H   UNL     2      -5.443  10.583  63.775  1.00  0.00     0.000 HD 
HETATM   14  C   UNL     2      -7.890  11.178  67.755  1.00  0.00    -0.114 A  
ENDROOT
BRANCH   4  15
HETATM   15  C   UNL     1      -8.206  15.272  66.444  1.00  0.00     0.145 C  
BRANCH  15  16
HETATM   16  N   UNL     1      -8.060  16.268  67.537  1.00  0.00    -0.142 NA 
BRANCH  16  17
HETATM   17  C   UNL     1      -7.388  17.523  67.087  1.00  0.00    -0.188 C  
BRANCH  17  18
HETATM   18  C   UNL     1      -7.906  18.889  67.571  1.00  0.00    -0.237 C  
HETATM   19  H   UNL     1      -8.899  19.662  69.116  1.00  0.00     0.000 HD 
HETATM   20  O   UNL     1      -8.580  18.819  68.818  1.00  0.00    -0.336 OA 
ENDBRANCH  17  18
ENDBRANCH  16  17
BRANCH  16  21
HETATM   21  C   UNL     1      -9.379  16.634  68.111  1.00  0.00    -0.224 C  
BRANCH  21  22
HETATM   22  C   UNL     1      -9.445  17.893  69.001  1.00  0.00    -0.092 C  
HETATM   23  O   UNL     1      -8.565  17.753  70.115  1.00  0.00     1.888 OA 
HETATM   24  H   UNL     1      -8.606  18.528  70.662  1.00  0.00     0.000 HD 
ENDBRANCH  21  22
ENDBRANCH  16  21
ENDBRANCH  15  16
ENDBRANCH   4  15
TORSDOF 6
ENDMDL
MODEL      287
REMARK 921   NORMALIZED FREE ENERGY PREDICTED BY IDOCK:   20.78 KCAL/MOL
REMARK 922        TOTAL FREE ENERGY PREDICTED BY IDOCK:   27.21 KCAL/MOL
REMARK 923 INTER-LIGAND FREE ENERGY PREDICTED BY IDOCK:   23.34 KCAL/MOL
REMARK 924 INTRA-LIGAND FREE ENERGY PREDICTED BY IDOCK:    3.87 KCAL/MOL
REMARK 927      BINDING AFFINITY PREDICTED BY RF-SCORE:    0.00 PKD
ROOT
HETATM    1  O   UNL     1     -14.290  12.353  65.451  1.00  0.00     3.172 OA 
HETATM    2  H   UNL     1     -15.025  11.778  65.624  1.00  0.00     0.000 HD 
HETATM    3  O   UNL     2     -13.379  10.984  69.518  1.00  0.00     0.407 OA 
HETATM    4  C   UNL     1     -13.304  12.353  66.478  1.00  0.00     4.916 C  
HETATM    5  O   UNL     2      -9.515  11.830  70.616  1.00  0.00     3.519 OA 
HETATM    6  C   UNL     2     -12.070  11.289  69.437  1.00  0.00    -0.315 C  
HETATM    7  C   UNL     2     -11.708  12.631  69.935  1.00  0.00    -0.320 A  
HETATM    8  O   UNL     2     -11.224  10.522  68.992  1.00  0.00    -0.234 OA 
HETATM    9  C   UNL     2     -10.913  15.180  70.769  1.00  0.00    -0.253 A  
HETATM   10  C   UNL     2     -10.442  12.826  70.501  1.00  0.00     3.405 A  
HETATM   11  C   UNL     2     -10.066  14.086  70.951  1.00  0.00     3.299 A  
HETATM   12  C   UNL     2     -12.555  13.731  69.756  1.00  0.00    -0.083 A  
HETATM   13  H   UNL     2      -8.656  11.963  71.000  1.00  0.00     0.000 HD 
HETATM   14  C   UNL     2     -12.148  15.005  70.150  1.00  0.00    -0.378 A  
ENDROOT
BRANCH   4  15
HETATM   15  C   UNL     1     -12.102  13.294  66.194  1.00  0.00    -0.421 C  
BRANCH  15  16
HETATM   16  N   UNL     1     -11.386  13.083  64.909  1.00  0.00    -0.295 NA 
BRANCH  16  17
HETATM   17  C   UNL     1     -11.728  11.780  64.267  1.00  0.00    -0.245 C  
BRANCH  17  18
HETATM   18  C   UNL     1     -11.672  10.480  65.087  1.00  0.00     2.383 C  
HETATM   19  H   UNL     1     -11.675   9.900  66.994  1.00  0.00     0.000 HD 
HETATM   20  O   UNL     1     -11.709  10.703  66.487  1.00  0.00     0.230 OA 
ENDBRANCH  17  18
ENDBRANCH  16  17
BRANCH  16  21
HETATM   21  C   UNL     1     -11.688  14.167  63.941  1.00  0.00    -0.089 C  
BRANCH  21  22
HETATM   22  C   UNL     1     -12.180  13.752  62.538  1.00  0.00     2.515 C  
HETATM   23  O   UNL     1     -13.556  13.380  62.592  1.00  0.00     2.127 OA 
HETATM   24  H   UNL     1     -13.859  13.125  61.728  1.00  0.00     0.000 HD 
ENDBRANCH  21  22
ENDBRANCH  16  21
ENDBRANCH  15  16
ENDBRANCH   4  15
TORSDOF 6
ENDMDL
MODEL      288
REMARK 921   NORMALIZED FREE ENERGY PREDICTED BY IDOCK:   34.85 KCAL/MOL
REMARK 922        TOTAL FREE ENERGY PREDICTED BY IDOCK:   46.22 KCAL/MOL
REMARK 923 INTER-LIGAND FREE ENERGY PREDICTED BY IDOCK:    3.45 KCAL/MOL
REMARK 924 INTRA-LIGAND FREE ENERGY PREDICTED BY IDOCK:   42.77 KCAL/MOL
REMARK 927      BINDING AFFINITY PREDICTED BY RF-SCORE:    0.00 PKD
ROOT
HETATM    1  O   UNL     1     -10.618  17.235  70.872  1.00  0.00     0.647 OA 
HETATM    2  H   UNL     1     -11.380  17.798  70.930  1.00  0.00     0.000 HD 
HETATM    3  O   UNL     2     -13.329  15.324  68.002  1.00  0.00     2.886 OA 
HETATM    4  C   UNL     1     -10.717  16.233  69.867  1.00  0.00    -0.322 C  
HETATM    5  O   UNL     2     -11.390  12.623  65.592  1.00  0.00    -0.298 OA 
HETATM    6  C   UNL     2     -12.345  14.677  67.349  1.00  0.00     0.130 C  
HETATM    7  C   UNL     2     -12.073  13.305  67.824  1.00  0.00    -0.281 A  
HETATM    8  O   UNL     2     -11.714  15.169  66.421  1.00  0.00    -0.194 OA 
HETATM    9  C   UNL     2     -11.408  10.731  68.693  1.00  0.00    -0.356 A  
HETATM   10  C   UNL     2     -11.609  12.350  66.912  1.00  0.00    -0.370 A  
HETATM   11  C   UNL     2     -11.318  11.060  67.340  1.00  0.00    -0.306 A  
HETATM   12  C   UNL     2     -12.164  12.970  69.181  1.00  0.00    -0.106 A  
HETATM   13  H   UNL     2     -11.075  11.975  64.973  1.00  0.00     0.000 HD 
HETATM   14  C   UNL     2     -11.809  11.694  69.616  1.00  0.00    -0.419 A  
ENDROOT
BRANCH   4  15
HETATM   15  C   UNL     1      -9.471  15.312  69.772  1.00  0.00    -0.097 C  
BRANCH  15  16
HETATM   16  N   UNL     1      -9.567  14.164  68.834  1.00  0.00    -0.114 NA 
BRANCH  16  17
HETATM   17  C   UNL     1     -10.833  14.170  68.044  1.00  0.00    -0.246 C  
BRANCH  17  18
HETATM   18  C   UNL     1     -11.507  15.506  67.683  1.00  0.00    -0.209 C  
HETATM   19  H   UNL     1     -12.661  16.890  68.534  1.00  0.00     0.000 HD 
HETATM   20  O   UNL     1     -12.244  16.065  68.757  1.00  0.00    -0.136 OA 
ENDBRANCH  17  18
ENDBRANCH  16  17
BRANCH  16  21
HETATM   21  C   UNL     1      -8.430  14.153  67.880  1.00  0.00    -0.167 C  
BRANCH  21  22
HETATM   22  C   UNL     1      -8.750  14.381  66.386  1.00  0.00     0.112 C  
HETATM   23  O   UNL     1      -7.705  13.848  65.575  1.00  0.00     3.294 OA 
HETATM   24  H   UNL     1      -7.902  13.988  64.656  1.00  0.00     0.000 HD 
ENDBRANCH  21  22
ENDBRANCH  16  21
ENDBRANCH  15  16
ENDBRANCH   4  15
TORSDOF 6
ENDMDL
