MODEL        1
REMARK 921   NORMALIZED FREE ENERGY PREDICTED BY IDOCK:   -4.19 KCAL/MOL
REMARK 922        TOTAL FREE ENERGY PREDICTED BY IDOCK:   -6.15 KCAL/MOL
REMARK 923 INTER-LIGAND FREE ENERGY PREDICTED BY IDOCK:   -5.66 KCAL/MOL
REMARK 924 INTRA-LIGAND FREE ENERGY PREDICTED BY IDOCK:   -0.48 KCAL/MOL
REMARK 927      BINDING AFFINITY PREDICTED BY RF-SCORE:    0.00 PKD
ROOT
HETATM    1  O   UNL     1     -12.542  13.738  63.007  1.00  0.00    -1.005 OA 
HETATM    2  C   UNL     1     -12.126  12.559  63.697  1.00  0.00    -0.554 C  
HETATM    3  H   UNL     1     -13.331  13.543  62.515  1.00  0.00     0.000 HD 
ENDROOT
BRANCH   2   4
HETATM    4  C   UNL     1     -10.849  12.874  64.495  1.00  0.00    -0.363 C  
BRANCH   4   5
HETATM    5  N   UNL     1     -10.982  13.846  65.616  1.00  0.00    -0.286 NA 
BRANCH   5   6
HETATM    6  C   UNL     1     -10.560  13.195  66.892  1.00  0.00    -0.263 C  
BRANCH   6   7
HETATM    7  C   UNL     1     -11.705  12.719  67.807  1.00  0.00    -0.359 C  
HETATM    8  H   UNL     1     -12.687  11.047  68.149  1.00  0.00     0.000 HD 
HETATM    9  O   UNL     1     -11.981  11.341  67.585  1.00  0.00    -0.634 OA 
ENDBRANCH   6   7
ENDBRANCH   5   6
BRANCH   5  10
HETATM   10  C   UNL     1     -10.124  15.037  65.346  1.00  0.00    -0.362 C  
BRANCH  10  11
HETATM   11  C   UNL     1     -10.888  16.358  65.140  1.00  0.00    -0.275 C  
HETATM   12  O   UNL     1     -11.560  16.348  63.884  1.00  0.00    -1.564 OA 
HETATM   13  H   UNL     1     -12.032  17.163  63.758  1.00  0.00     0.000 HD 
ENDBRANCH  10  11
ENDBRANCH   5  10
ENDBRANCH   4   5
ENDBRANCH   2   4
TORSDOF 6
ENDMDL
MODEL        2
REMARK 921   NORMALIZED FREE ENERGY PREDICTED BY IDOCK:   -3.98 KCAL/MOL
REMARK 922        TOTAL FREE ENERGY PREDICTED BY IDOCK:   -5.86 KCAL/MOL
REMARK 923 INTER-LIGAND FREE ENERGY PREDICTED BY IDOCK:   -5.56 KCAL/MOL
REMARK 924 INTRA-LIGAND FREE ENERGY PREDICTED BY IDOCK:   -0.30 KCAL/MOL
REMARK 927      BINDING AFFINITY PREDICTED BY RF-SCORE:    0.00 PKD
ROOT
HETATM    1  O   UNL     1     -12.036  10.731  67.988  1.00  0.00    -0.780 OA 
HETATM    2  C   UNL     1     -11.121  11.436  67.149  1.00  0.00    -0.305 C  
HETATM    3  H   UNL     1     -11.609   9.950  68.320  1.00  0.00     0.000 HD 
ENDROOT
BRANCH   2   4
HETATM    4  C   UNL     1     -11.812  12.701  66.611  1.00  0.00    -0.380 C  
BRANCH   4   5
HETATM    5  N   UNL     1     -10.962  13.652  65.841  1.00  0.00    -0.281 NA 
BRANCH   5   6
HETATM    6  C   UNL     1     -10.739  13.119  64.464  1.00  0.00    -0.398 C  
BRANCH   6   7
HETATM    7  C   UNL     1     -11.978  12.512  63.776  1.00  0.00    -0.517 C  
HETATM    8  H   UNL     1     -13.416  13.124  62.579  1.00  0.00     0.000 HD 
HETATM    9  O   UNL     1     -12.652  13.498  63.003  1.00  0.00    -0.716 OA 
ENDBRANCH   6   7
ENDBRANCH   5   6
BRANCH   5  10
HETATM   10  C   UNL     1     -11.642  14.979  65.768  1.00  0.00    -0.171 C  
BRANCH  10  11
HETATM   11  C   UNL     1     -10.872  16.064  64.993  1.00  0.00    -0.404 C  
HETATM   12  O   UNL     1     -11.557  16.389  63.787  1.00  0.00    -1.605 OA 
HETATM   13  H   UNL     1     -11.082  17.059  63.310  1.00  0.00     0.000 HD 
ENDBRANCH  10  11
ENDBRANCH   5  10
ENDBRANCH   4   5
ENDBRANCH   2   4
TORSDOF 6
ENDMDL
MODEL        3
REMARK 921   NORMALIZED FREE ENERGY PREDICTED BY IDOCK:   -3.95 KCAL/MOL
REMARK 922        TOTAL FREE ENERGY PREDICTED BY IDOCK:   -5.81 KCAL/MOL
REMARK 923 INTER-LIGAND FREE ENERGY PREDICTED BY IDOCK:   -5.64 KCAL/MOL
REMARK 924 INTRA-LIGAND FREE ENERGY PREDICTED BY IDOCK:   -0.17 KCAL/MOL
REMARK 927      BINDING AFFINITY PREDICTED BY RF-SCORE:    0.00 PKD
ROOT
HETATM    1  O   UNL     1     -12.471  11.353  62.863  1.00  0.00    -0.949 OA 
HETATM    2  C   UNL     1     -12.050  12.607  63.398  1.00  0.00    -0.525 C  
HETATM    3  H   UNL     1     -12.071  11.233  62.010  1.00  0.00     0.000 HD 
ENDROOT
BRANCH   2   4
HETATM    4  C   UNL     1     -12.698  12.802  64.780  1.00  0.00    -0.393 C  
BRANCH   4   5
HETATM    5  N   UNL     1     -12.163  13.908  65.621  1.00  0.00    -0.424 NA 
BRANCH   5   6
HETATM    6  C   UNL     1     -11.852  13.392  66.987  1.00  0.00    -0.394 C  
BRANCH   6   7
HETATM    7  C   UNL     1     -11.822  14.449  68.108  1.00  0.00    -0.327 C  
HETATM    8  H   UNL     1     -10.843  14.751  69.789  1.00  0.00     0.000 HD 
HETATM    9  O   UNL     1     -10.862  14.099  69.098  1.00  0.00    -0.250 OA 
ENDBRANCH   6   7
ENDBRANCH   5   6
BRANCH   5  10
HETATM   10  C   UNL     1     -10.924  14.456  64.992  1.00  0.00    -0.389 C  
BRANCH  10  11
HETATM   11  C   UNL     1     -10.855  15.992  64.918  1.00  0.00    -0.372 C  
HETATM   12  O   UNL     1     -11.610  16.467  63.808  1.00  0.00    -1.617 OA 
HETATM   13  H   UNL     1     -11.568  17.415  63.764  1.00  0.00     0.000 HD 
ENDBRANCH  10  11
ENDBRANCH   5  10
ENDBRANCH   4   5
ENDBRANCH   2   4
TORSDOF 6
ENDMDL
MODEL        4
REMARK 921   NORMALIZED FREE ENERGY PREDICTED BY IDOCK:   -3.87 KCAL/MOL
REMARK 922        TOTAL FREE ENERGY PREDICTED BY IDOCK:   -5.71 KCAL/MOL
REMARK 923 INTER-LIGAND FREE ENERGY PREDICTED BY IDOCK:   -5.33 KCAL/MOL
REMARK 924 INTRA-LIGAND FREE ENERGY PREDICTED BY IDOCK:   -0.38 KCAL/MOL
REMARK 927      BINDING AFFINITY PREDICTED BY RF-SCORE:    0.00 PKD
ROOT
HETATM    1  O   UNL     1     -11.639  16.436  63.849  1.00  0.00    -1.564 OA 
HETATM    2  C   UNL     1     -10.791  16.180  64.968  1.00  0.00    -0.363 C  
HETATM    3  H   UNL     1     -11.735  17.375  63.745  1.00  0.00     0.000 HD 
ENDROOT
BRANCH   2   4
HETATM    4  C   UNL     1     -10.635  14.658  65.137  1.00  0.00    -0.421 C  
BRANCH   4   5
HETATM    5  N   UNL     1     -11.689  13.961  65.925  1.00  0.00    -0.345 NA 
BRANCH   5   6
HETATM    6  C   UNL     1     -12.399  12.980  65.050  1.00  0.00    -0.473 C  
BRANCH   6   7
HETATM    7  C   UNL     1     -11.855  12.854  63.614  1.00  0.00    -0.532 C  
HETATM    8  H   UNL     1     -12.273  13.588  61.836  1.00  0.00     0.000 HD 
HETATM    9  O   UNL     1     -12.608  13.666  62.721  1.00  0.00    -0.456 OA 
ENDBRANCH   6   7
ENDBRANCH   5   6
BRANCH   5  10
HETATM   10  C   UNL     1     -11.061  13.251  67.078  1.00  0.00    -0.282 C  
BRANCH  10  11
HETATM   11  C   UNL     1     -11.488  13.757  68.467  1.00  0.00    -0.307 C  
HETATM   12  O   UNL     1     -12.353  14.882  68.337  1.00  0.00    -0.586 OA 
HETATM   13  H   UNL     1     -12.618  15.194  69.195  1.00  0.00     0.000 HD 
ENDBRANCH  10  11
ENDBRANCH   5  10
ENDBRANCH   4   5
ENDBRANCH   2   4
TORSDOF 6
ENDMDL
MODEL        5
REMARK 921   NORMALIZED FREE ENERGY PREDICTED BY IDOCK:   -3.82 KCAL/MOL
REMARK 922        TOTAL FREE ENERGY PREDICTED BY IDOCK:   -5.65 KCAL/MOL
REMARK 923 INTER-LIGAND FREE ENERGY PREDICTED BY IDOCK:   -5.33 KCAL/MOL
REMARK 924 INTRA-LIGAND FREE ENERGY PREDICTED BY IDOCK:   -0.31 KCAL/MOL
REMARK 927      BINDING AFFINITY PREDICTED BY RF-SCORE:    0.00 PKD
ROOT
HETATM    1  O   UNL     1     -12.412  13.900  62.979  1.00  0.00    -1.099 OA 
HETATM    2  C   UNL     1     -11.969  12.814  63.793  1.00  0.00    -0.510 C  
HETATM    3  H   UNL     1     -12.092  13.771  62.094  1.00  0.00     0.000 HD 
ENDROOT
BRANCH   2   4
HETATM    4  C   UNL     1     -12.489  13.022  65.226  1.00  0.00    -0.499 C  
BRANCH   4   5
HETATM    5  N   UNL     1     -11.474  13.357  66.264  1.00  0.00    -0.314 NA 
BRANCH   5   6
HETATM    6  C   UNL     1     -11.356  14.841  66.387  1.00  0.00    -0.339 C  
BRANCH   6   7
HETATM    7  C   UNL     1     -10.396  15.517  65.389  1.00  0.00    -0.394 C  
HETATM    8  H   UNL     1     -10.520  16.799  63.900  1.00  0.00     0.000 HD 
HETATM    9  O   UNL     1     -11.112  16.382  64.515  1.00  0.00    -0.742 OA 
ENDBRANCH   6   7
ENDBRANCH   5   6
BRANCH   5  10
HETATM   10  C   UNL     1     -11.889  12.771  67.573  1.00  0.00    -0.343 C  
BRANCH  10  11
HETATM   11  C   UNL     1     -11.336  11.364  67.862  1.00  0.00    -0.303 C  
HETATM   12  O   UNL     1     -12.170  10.689  68.798  1.00  0.00    -0.790 OA 
HETATM   13  H   UNL     1     -11.829   9.820  68.977  1.00  0.00     0.000 HD 
ENDBRANCH  10  11
ENDBRANCH   5  10
ENDBRANCH   4   5
ENDBRANCH   2   4
TORSDOF 6
ENDMDL
MODEL        6
REMARK 921   NORMALIZED FREE ENERGY PREDICTED BY IDOCK:   -3.81 KCAL/MOL
REMARK 922        TOTAL FREE ENERGY PREDICTED BY IDOCK:   -5.63 KCAL/MOL
REMARK 923 INTER-LIGAND FREE ENERGY PREDICTED BY IDOCK:   -5.40 KCAL/MOL
REMARK 924 INTRA-LIGAND FREE ENERGY PREDICTED BY IDOCK:   -0.23 KCAL/MOL
REMARK 927      BINDING AFFINITY PREDICTED BY RF-SCORE:    0.00 PKD
ROOT
HETATM    1  O   UNL     1     -11.608  16.350  63.703  1.00  0.00    -1.514 OA 
HETATM    2  C   UNL     1     -11.004  15.914  64.920  1.00  0.00    -0.411 C  
HETATM    3  H   UNL     1     -11.784  17.281  63.764  1.00  0.00     0.000 HD 
ENDROOT
BRANCH   2   4
HETATM    4  C   UNL     1     -10.718  14.405  64.823  1.00  0.00    -0.403 C  
BRANCH   4   5
HETATM    5  N   UNL     1     -11.442  13.524  65.780  1.00  0.00    -0.310 NA 
BRANCH   5   6
HETATM    6  C   UNL     1     -12.075  14.357  66.845  1.00  0.00    -0.356 C  
BRANCH   6   7
HETATM    7  C   UNL     1     -11.488  14.188  68.260  1.00  0.00    -0.304 C  
HETATM    8  H   UNL     1     -11.171  15.317  69.841  1.00  0.00     0.000 HD 
HETATM    9  O   UNL     1     -11.533  15.421  68.969  1.00  0.00    -0.294 OA 
ENDBRANCH   6   7
ENDBRANCH   5   6
BRANCH   5  10
HETATM   10  C   UNL     1     -12.490  12.751  65.050  1.00  0.00    -0.506 C  
BRANCH  10  11
HETATM   11  C   UNL     1     -12.182  12.474  63.567  1.00  0.00    -0.558 C  
HETATM   12  O   UNL     1     -11.399  11.290  63.439  1.00  0.00    -0.744 OA 
HETATM   13  H   UNL     1     -11.210  11.120  62.524  1.00  0.00     0.000 HD 
ENDBRANCH  10  11
ENDBRANCH   5  10
ENDBRANCH   4   5
ENDBRANCH   2   4
TORSDOF 6
ENDMDL
MODEL        7
REMARK 921   NORMALIZED FREE ENERGY PREDICTED BY IDOCK:   -3.79 KCAL/MOL
REMARK 922        TOTAL FREE ENERGY PREDICTED BY IDOCK:   -5.60 KCAL/MOL
REMARK 923 INTER-LIGAND FREE ENERGY PREDICTED BY IDOCK:   -5.25 KCAL/MOL
REMARK 924 INTRA-LIGAND FREE ENERGY PREDICTED BY IDOCK:   -0.35 KCAL/MOL
REMARK 927      BINDING AFFINITY PREDICTED BY RF-SCORE:    0.00 PKD
ROOT
HETATM    1  O   UNL     1     -11.274  13.395  69.719  1.00  0.00    -0.460 OA 
HETATM    2  C   UNL     1     -11.718  14.256  68.670  1.00  0.00    -0.345 C  
HETATM    3  H   UNL     1     -11.222  13.895  70.525  1.00  0.00     0.000 HD 
ENDROOT
BRANCH   2   4
HETATM    4  C   UNL     1     -11.804  13.446  67.364  1.00  0.00    -0.375 C  
BRANCH   4   5
HETATM    5  N   UNL     1     -12.070  14.214  66.117  1.00  0.00    -0.424 NA 
BRANCH   5   6
HETATM    6  C   UNL     1     -10.780  14.701  65.545  1.00  0.00    -0.349 C  
BRANCH   6   7
HETATM    7  C   UNL     1     -10.715  16.210  65.238  1.00  0.00    -0.368 C  
HETATM    8  H   UNL     1     -11.398  17.439  63.861  1.00  0.00     0.000 HD 
HETATM    9  O   UNL     1     -11.438  16.509  64.050  1.00  0.00    -1.137 OA 
ENDBRANCH   6   7
ENDBRANCH   5   6
BRANCH   5  10
HETATM   10  C   UNL     1     -12.763  13.334  65.130  1.00  0.00    -0.402 C  
BRANCH  10  11
HETATM   11  C   UNL     1     -11.974  13.055  63.838  1.00  0.00    -0.485 C  
HETATM   12  O   UNL     1     -12.482  13.847  62.768  1.00  0.00    -0.901 OA 
HETATM   13  H   UNL     1     -11.995  13.675  61.971  1.00  0.00     0.000 HD 
ENDBRANCH  10  11
ENDBRANCH   5  10
ENDBRANCH   4   5
ENDBRANCH   2   4
TORSDOF 6
ENDMDL
MODEL        8
REMARK 921   NORMALIZED FREE ENERGY PREDICTED BY IDOCK:   -3.79 KCAL/MOL
REMARK 922        TOTAL FREE ENERGY PREDICTED BY IDOCK:   -5.60 KCAL/MOL
REMARK 923 INTER-LIGAND FREE ENERGY PREDICTED BY IDOCK:   -5.44 KCAL/MOL
REMARK 924 INTRA-LIGAND FREE ENERGY PREDICTED BY IDOCK:   -0.16 KCAL/MOL
REMARK 927      BINDING AFFINITY PREDICTED BY RF-SCORE:    0.00 PKD
ROOT
HETATM    1  O   UNL     1     -12.025  16.200  63.702  1.00  0.00    -1.375 OA 
HETATM    2  C   UNL     1     -11.354  15.338  64.621  1.00  0.00    -0.358 C  
HETATM    3  H   UNL     1     -11.375  16.669  63.191  1.00  0.00     0.000 HD 
ENDROOT
BRANCH   2   4
HETATM    4  C   UNL     1     -12.406  14.579  65.449  1.00  0.00    -0.284 C  
BRANCH   4   5
HETATM    5  N   UNL     1     -12.156  13.129  65.680  1.00  0.00    -0.424 NA 
BRANCH   5   6
HETATM    6  C   UNL     1     -11.065  12.659  64.775  1.00  0.00    -0.300 C  
BRANCH   6   7
HETATM    7  C   UNL     1     -11.522  11.848  63.547  1.00  0.00    -0.430 C  
HETATM    8  H   UNL     1     -13.206  11.483  62.596  1.00  0.00     0.000 HD 
HETATM    9  O   UNL     1     -12.925  11.984  63.353  1.00  0.00    -0.772 OA 
ENDBRANCH   6   7
ENDBRANCH   5   6
BRANCH   5  10
HETATM   10  C   UNL     1     -11.762  12.913  67.104  1.00  0.00    -0.377 C  
BRANCH  10  11
HETATM   11  C   UNL     1     -11.283  11.489  67.439  1.00  0.00    -0.304 C  
HETATM   12  O   UNL     1     -12.168  10.878  68.373  1.00  0.00    -0.813 OA 
HETATM   13  H   UNL     1     -11.872   9.999  68.580  1.00  0.00     0.000 HD 
ENDBRANCH  10  11
ENDBRANCH   5  10
ENDBRANCH   4   5
ENDBRANCH   2   4
TORSDOF 6
ENDMDL
MODEL        9
REMARK 921   NORMALIZED FREE ENERGY PREDICTED BY IDOCK:   -3.67 KCAL/MOL
REMARK 922        TOTAL FREE ENERGY PREDICTED BY IDOCK:   -5.44 KCAL/MOL
REMARK 923 INTER-LIGAND FREE ENERGY PREDICTED BY IDOCK:   -5.19 KCAL/MOL
REMARK 924 INTRA-LIGAND FREE ENERGY PREDICTED BY IDOCK:   -0.25 KCAL/MOL
REMARK 927      BINDING AFFINITY PREDICTED BY RF-SCORE:    0.00 PKD
ROOT
HETATM    1  O   UNL     1     -12.649  14.777  69.330  1.00  0.00    -0.569 OA 
HETATM    2  C   UNL     1     -11.497  14.863  68.491  1.00  0.00    -0.315 C  
HETATM    3  H   UNL     1     -12.372  14.825  70.238  1.00  0.00     0.000 HD 
ENDROOT
BRANCH   2   4
HETATM    4  C   UNL     1     -11.945  14.785  67.021  1.00  0.00    -0.203 C  
BRANCH   4   5
HETATM    5  N   UNL     1     -11.217  13.822  66.150  1.00  0.00    -0.297 NA 
BRANCH   5   6
HETATM    6  C   UNL     1     -12.175  12.807  65.617  1.00  0.00    -0.444 C  
BRANCH   6   7
HETATM    7  C   UNL     1     -11.950  12.383  64.153  1.00  0.00    -0.435 C  
HETATM    8  H   UNL     1     -12.890  12.559  62.432  1.00  0.00     0.000 HD 
HETATM    9  O   UNL     1     -13.029  12.820  63.335  1.00  0.00    -0.595 OA 
ENDBRANCH   6   7
ENDBRANCH   5   6
BRANCH   5  10
HETATM   10  C   UNL     1     -10.579  14.559  65.019  1.00  0.00    -0.437 C  
BRANCH  10  11
HETATM   11  C   UNL     1     -10.973  16.043  64.903  1.00  0.00    -0.384 C  
HETATM   12  O   UNL     1     -11.753  16.255  63.729  1.00  0.00    -1.511 OA 
HETATM   13  H   UNL     1     -11.996  17.170  63.658  1.00  0.00     0.000 HD 
ENDBRANCH  10  11
ENDBRANCH   5  10
ENDBRANCH   4   5
ENDBRANCH   2   4
TORSDOF 6
ENDMDL
MODEL       10
REMARK 921   NORMALIZED FREE ENERGY PREDICTED BY IDOCK:   -3.63 KCAL/MOL
REMARK 922        TOTAL FREE ENERGY PREDICTED BY IDOCK:   -5.38 KCAL/MOL
REMARK 923 INTER-LIGAND FREE ENERGY PREDICTED BY IDOCK:   -5.23 KCAL/MOL
REMARK 924 INTRA-LIGAND FREE ENERGY PREDICTED BY IDOCK:   -0.15 KCAL/MOL
REMARK 927      BINDING AFFINITY PREDICTED BY RF-SCORE:    0.00 PKD
ROOT
HETATM    1  O   UNL     1     -11.664  16.235  63.728  1.00  0.00    -1.511 OA 
HETATM    2  C   UNL     1     -11.935  15.044  64.467  1.00  0.00    -0.371 C  
HETATM    3  H   UNL     1     -12.467  16.736  63.648  1.00  0.00     0.000 HD 
ENDROOT
BRANCH   2   4
HETATM    4  C   UNL     1     -10.635  14.232  64.597  1.00  0.00    -0.340 C  
BRANCH   4   5
HETATM    5  N   UNL     1     -10.608  13.174  65.645  1.00  0.00    -0.273 NA 
BRANCH   5   6
HETATM    6  C   UNL     1     -11.850  13.256  66.469  1.00  0.00    -0.398 C  
BRANCH   6   7
HETATM    7  C   UNL     1     -11.773  12.593  67.859  1.00  0.00    -0.358 C  
HETATM    8  H   UNL     1     -12.084  13.114  69.732  1.00  0.00     0.000 HD 
HETATM    9  O   UNL     1     -12.131  13.522  68.875  1.00  0.00    -0.341 OA 
ENDBRANCH   6   7
ENDBRANCH   5   6
BRANCH   5  10
HETATM   10  C   UNL     1     -10.518  11.833  64.995  1.00  0.00    -0.285 C  
BRANCH  10  11
HETATM   11  C   UNL     1     -10.549  11.850  63.456  1.00  0.00    -0.453 C  
HETATM   12  O   UNL     1     -11.803  11.367  62.982  1.00  0.00    -0.903 OA 
HETATM   13  H   UNL     1     -11.822  11.379  62.033  1.00  0.00     0.000 HD 
ENDBRANCH  10  11
ENDBRANCH   5  10
ENDBRANCH   4   5
ENDBRANCH   2   4
TORSDOF 6
ENDMDL
MODEL       11
REMARK 921   NORMALIZED FREE ENERGY PREDICTED BY IDOCK:   -3.60 KCAL/MOL
REMARK 922        TOTAL FREE ENERGY PREDICTED BY IDOCK:   -5.35 KCAL/MOL
REMARK 923 INTER-LIGAND FREE ENERGY PREDICTED BY IDOCK:   -5.19 KCAL/MOL
REMARK 924 INTRA-LIGAND FREE ENERGY PREDICTED BY IDOCK:   -0.16 KCAL/MOL
REMARK 927      BINDING AFFINITY PREDICTED BY RF-SCORE:    0.00 PKD
ROOT
HETATM    1  O   UNL     1     -12.297  10.886  68.348  1.00  0.00    -0.803 OA 
HETATM    2  C   UNL     1     -11.675  12.165  68.222  1.00  0.00    -0.342 C  
HETATM    3  H   UNL     1     -12.181  10.575  69.238  1.00  0.00     0.000 HD 
ENDROOT
BRANCH   2   4
HETATM    4  C   UNL     1     -11.863  12.669  66.780  1.00  0.00    -0.370 C  
BRANCH   4   5
HETATM    5  N   UNL     1     -12.106  14.128  66.606  1.00  0.00    -0.447 NA 
BRANCH   5   6
HETATM    6  C   UNL     1     -11.021  14.898  67.284  1.00  0.00    -0.323 C  
BRANCH   6   7
HETATM    7  C   UNL     1     -11.490  15.946  68.312  1.00  0.00    -0.320 C  
HETATM    8  H   UNL     1     -11.922  15.999  70.232  1.00  0.00     0.000 HD 
HETATM    9  O   UNL     1     -11.633  15.353  69.598  1.00  0.00    -0.285 OA 
ENDBRANCH   6   7
ENDBRANCH   5   6
BRANCH   5  10
HETATM   10  C   UNL     1     -12.131  14.458  65.151  1.00  0.00    -0.395 C  
BRANCH  10  11
HETATM   11  C   UNL     1     -11.167  15.579  64.720  1.00  0.00    -0.390 C  
HETATM   12  O   UNL     1     -11.760  16.373  63.696  1.00  0.00    -1.520 OA 
HETATM   13  H   UNL     1     -11.165  17.065  63.431  1.00  0.00     0.000 HD 
ENDBRANCH  10  11
ENDBRANCH   5  10
ENDBRANCH   4   5
ENDBRANCH   2   4
TORSDOF 6
ENDMDL
MODEL       12
REMARK 921   NORMALIZED FREE ENERGY PREDICTED BY IDOCK:   -3.60 KCAL/MOL
REMARK 922        TOTAL FREE ENERGY PREDICTED BY IDOCK:   -5.35 KCAL/MOL
REMARK 923 INTER-LIGAND FREE ENERGY PREDICTED BY IDOCK:   -4.92 KCAL/MOL
REMARK 924 INTRA-LIGAND FREE ENERGY PREDICTED BY IDOCK:   -0.42 KCAL/MOL
REMARK 927      BINDING AFFINITY PREDICTED BY RF-SCORE:    0.00 PKD
ROOT
HETATM    1  O   UNL     1     -12.650  13.792  62.973  1.00  0.00    -1.005 OA 
HETATM    2  C   UNL     1     -12.137  12.773  63.830  1.00  0.00    -0.517 C  
HETATM    3  H   UNL     1     -12.719  13.446  62.091  1.00  0.00     0.000 HD 
ENDROOT
BRANCH   2   4
HETATM    4  C   UNL     1     -12.026  13.333  65.259  1.00  0.00    -0.388 C  
BRANCH   4   5
HETATM    5  N   UNL     1     -10.662  13.700  65.730  1.00  0.00    -0.276 NA 
BRANCH   5   6
HETATM    6  C   UNL     1     -10.225  14.961  65.061  1.00  0.00    -0.330 C  
BRANCH   6   7
HETATM    7  C   UNL     1     -11.248  16.113  65.079  1.00  0.00    -0.220 C  
HETATM    8  H   UNL     1     -12.228  17.202  63.765  1.00  0.00     0.000 HD 
HETATM    9  O   UNL     1     -11.597  16.492  63.753  1.00  0.00    -1.109 OA 
ENDBRANCH   6   7
ENDBRANCH   5   6
BRANCH   5  10
HETATM   10  C   UNL     1     -10.683  13.892  67.211  1.00  0.00    -0.284 C  
BRANCH  10  11
HETATM   11  C   UNL     1     -11.990  13.469  67.905  1.00  0.00    -0.337 C  
HETATM   12  O   UNL     1     -12.185  14.229  69.094  1.00  0.00    -0.456 OA 
HETATM   13  H   UNL     1     -12.992  13.968  69.522  1.00  0.00     0.000 HD 
ENDBRANCH  10  11
ENDBRANCH   5  10
ENDBRANCH   4   5
ENDBRANCH   2   4
TORSDOF 6
ENDMDL
MODEL       13
REMARK 921   NORMALIZED FREE ENERGY PREDICTED BY IDOCK:   -3.56 KCAL/MOL
REMARK 922        TOTAL FREE ENERGY PREDICTED BY IDOCK:   -5.30 KCAL/MOL
REMARK 923 INTER-LIGAND FREE ENERGY PREDICTED BY IDOCK:   -4.89 KCAL/MOL
REMARK 924 INTRA-LIGAND FREE ENERGY PREDICTED BY IDOCK:   -0.41 KCAL/MOL
REMARK 927      BINDING AFFINITY PREDICTED BY RF-SCORE:    0.00 PKD
ROOT
HETATM    1  O   UNL     1     -12.527  13.683  62.844  1.00  0.00    -0.960 OA 
HETATM    2  C   UNL     1     -12.312  12.474  63.572  1.00  0.00    -0.525 C  
HETATM    3  H   UNL     1     -12.539  13.484  61.915  1.00  0.00     0.000 HD 
ENDROOT
BRANCH   2   4
HETATM    4  C   UNL     1     -12.293  12.796  65.077  1.00  0.00    -0.499 C  
BRANCH   4   5
HETATM    5  N   UNL     1     -11.058  13.438  65.609  1.00  0.00    -0.285 NA 
BRANCH   5   6
HETATM    6  C   UNL     1     -11.333  14.873  65.914  1.00  0.00    -0.306 C  
BRANCH   6   7
HETATM    7  C   UNL     1     -10.678  15.893  64.961  1.00  0.00    -0.404 C  
HETATM    8  H   UNL     1     -11.255  17.127  63.541  1.00  0.00     0.000 HD 
HETATM    9  O   UNL     1     -11.659  16.498  64.128  1.00  0.00    -1.052 OA 
ENDBRANCH   6   7
ENDBRANCH   5   6
BRANCH   5  10
HETATM   10  C   UNL     1     -10.626  12.729  66.850  1.00  0.00    -0.244 C  
BRANCH  10  11
HETATM   11  C   UNL     1      -9.239  12.064  66.772  1.00  0.00    -0.201 C  
HETATM   12  O   UNL     1      -8.924  11.740  65.421  1.00  0.00    -0.414 OA 
HETATM   13  H   UNL     1      -8.068  11.330  65.372  1.00  0.00     0.000 HD 
ENDBRANCH  10  11
ENDBRANCH   5  10
ENDBRANCH   4   5
ENDBRANCH   2   4
TORSDOF 6
ENDMDL
MODEL       14
REMARK 921   NORMALIZED FREE ENERGY PREDICTED BY IDOCK:   -3.54 KCAL/MOL
REMARK 922        TOTAL FREE ENERGY PREDICTED BY IDOCK:   -5.26 KCAL/MOL
REMARK 923 INTER-LIGAND FREE ENERGY PREDICTED BY IDOCK:   -4.92 KCAL/MOL
REMARK 924 INTRA-LIGAND FREE ENERGY PREDICTED BY IDOCK:   -0.34 KCAL/MOL
REMARK 927      BINDING AFFINITY PREDICTED BY RF-SCORE:    0.00 PKD
ROOT
HETATM    1  O   UNL     1     -12.223  10.609  68.366  1.00  0.00    -0.822 OA 
HETATM    2  C   UNL     1     -11.240  11.641  68.443  1.00  0.00    -0.249 C  
HETATM    3  H   UNL     1     -11.916   9.855  68.856  1.00  0.00     0.000 HD 
ENDROOT
BRANCH   2   4
HETATM    4  C   UNL     1     -11.738  12.862  67.650  1.00  0.00    -0.370 C  
BRANCH   4   5
HETATM    5  N   UNL     1     -12.020  12.651  66.203  1.00  0.00    -0.521 NA 
BRANCH   5   6
HETATM    6  C   UNL     1     -12.695  13.860  65.644  1.00  0.00    -0.495 C  
BRANCH   6   7
HETATM    7  C   UNL     1     -12.026  14.482  64.402  1.00  0.00    -0.449 C  
HETATM    8  H   UNL     1     -12.251  14.413  62.448  1.00  0.00     0.000 HD 
HETATM    9  O   UNL     1     -12.664  14.029  63.213  1.00  0.00    -0.750 OA 
ENDBRANCH   6   7
ENDBRANCH   5   6
BRANCH   5  10
HETATM   10  C   UNL     1     -10.738  12.405  65.477  1.00  0.00    -0.280 C  
BRANCH  10  11
HETATM   11  C   UNL     1     -10.634  11.034  64.784  1.00  0.00    -0.280 C  
HETATM   12  O   UNL     1     -11.104  11.122  63.443  1.00  0.00    -0.704 OA 
HETATM   13  H   UNL     1     -11.039  10.277  63.015  1.00  0.00     0.000 HD 
ENDBRANCH  10  11
ENDBRANCH   5  10
ENDBRANCH   4   5
ENDBRANCH   2   4
TORSDOF 6
ENDMDL
MODEL       15
REMARK 921   NORMALIZED FREE ENERGY PREDICTED BY IDOCK:   -3.51 KCAL/MOL
REMARK 922        TOTAL FREE ENERGY PREDICTED BY IDOCK:   -5.23 KCAL/MOL
REMARK 923 INTER-LIGAND FREE ENERGY PREDICTED BY IDOCK:   -4.76 KCAL/MOL
REMARK 924 INTRA-LIGAND FREE ENERGY PREDICTED BY IDOCK:   -0.46 KCAL/MOL
REMARK 927      BINDING AFFINITY PREDICTED BY RF-SCORE:    0.00 PKD
ROOT
HETATM    1  O   UNL     1     -12.113  10.746  68.270  1.00  0.00    -0.805 OA 
HETATM    2  C   UNL     1     -10.943  10.630  67.461  1.00  0.00    -0.310 C  
HETATM    3  H   UNL     1     -12.014  10.191  69.035  1.00  0.00     0.000 HD 
ENDROOT
BRANCH   2   4
HETATM    4  C   UNL     1     -11.104  11.529  66.222  1.00  0.00    -0.263 C  
BRANCH   4   5
HETATM    5  N   UNL     1     -12.053  12.670  66.341  1.00  0.00    -0.565 NA 
BRANCH   5   6
HETATM    6  C   UNL     1     -11.298  13.915  66.673  1.00  0.00    -0.331 C  
BRANCH   6   7
HETATM    7  C   UNL     1     -11.800  14.690  67.907  1.00  0.00    -0.320 C  
HETATM    8  H   UNL     1     -12.639  14.271  69.638  1.00  0.00     0.000 HD 
HETATM    9  O   UNL     1     -12.330  13.793  68.877  1.00  0.00    -0.291 OA 
ENDBRANCH   6   7
ENDBRANCH   5   6
BRANCH   5  10
HETATM   10  C   UNL     1     -12.782  12.847  65.051  1.00  0.00    -0.404 C  
BRANCH  10  11
HETATM   11  C   UNL     1     -11.948  12.567  63.787  1.00  0.00    -0.517 C  
HETATM   12  O   UNL     1     -12.549  11.527  63.020  1.00  0.00    -0.958 OA 
HETATM   13  H   UNL     1     -12.035  11.355  62.240  1.00  0.00     0.000 HD 
ENDBRANCH  10  11
ENDBRANCH   5  10
ENDBRANCH   4   5
ENDBRANCH   2   4
TORSDOF 6
ENDMDL
MODEL       16
REMARK 921   NORMALIZED FREE ENERGY PREDICTED BY IDOCK:   -3.46 KCAL/MOL
REMARK 922        TOTAL FREE ENERGY PREDICTED BY IDOCK:   -5.15 KCAL/MOL
REMARK 923 INTER-LIGAND FREE ENERGY PREDICTED BY IDOCK:   -4.96 KCAL/MOL
REMARK 924 INTRA-LIGAND FREE ENERGY PREDICTED BY IDOCK:   -0.20 KCAL/MOL
REMARK 927      BINDING AFFINITY PREDICTED BY RF-SCORE:    0.00 PKD
ROOT
HETATM    1  O   UNL     1     -12.045  10.852  67.988  1.00  0.00    -0.780 OA 
HETATM    2  C   UNL     1     -11.330  11.650  67.044  1.00  0.00    -0.305 C  
HETATM    3  H   UNL     1     -11.722   9.960  67.943  1.00  0.00     0.000 HD 
ENDROOT
BRANCH   2   4
HETATM    4  C   UNL     1     -11.853  13.095  67.117  1.00  0.00    -0.369 C  
BRANCH   4   5
HETATM    5  N   UNL     1     -12.290  13.714  65.835  1.00  0.00    -0.462 NA 
BRANCH   5   6
HETATM    6  C   UNL     1     -11.189  14.562  65.288  1.00  0.00    -0.352 C  
BRANCH   6   7
HETATM    7  C   UNL     1     -10.773  15.759  66.166  1.00  0.00    -0.290 C  
HETATM    8  H   UNL     1      -9.701  17.398  65.966  1.00  0.00     0.000 HD 
HETATM    9  O   UNL     1      -9.958  16.660  65.426  1.00  0.00    -0.565 OA 
ENDBRANCH   6   7
ENDBRANCH   5   6
BRANCH   5  10
HETATM   10  C   UNL     1     -12.637  12.640  64.857  1.00  0.00    -0.450 C  
BRANCH  10  11
HETATM   11  C   UNL     1     -12.010  12.803  63.460  1.00  0.00    -0.555 C  
HETATM   12  O   UNL     1     -11.532  11.548  62.985  1.00  0.00    -0.828 OA 
HETATM   13  H   UNL     1     -11.146  11.649  62.123  1.00  0.00     0.000 HD 
ENDBRANCH  10  11
ENDBRANCH   5  10
ENDBRANCH   4   5
ENDBRANCH   2   4
TORSDOF 6
ENDMDL
MODEL       17
REMARK 921   NORMALIZED FREE ENERGY PREDICTED BY IDOCK:   -3.46 KCAL/MOL
REMARK 922        TOTAL FREE ENERGY PREDICTED BY IDOCK:   -5.15 KCAL/MOL
REMARK 923 INTER-LIGAND FREE ENERGY PREDICTED BY IDOCK:   -5.02 KCAL/MOL
REMARK 924 INTRA-LIGAND FREE ENERGY PREDICTED BY IDOCK:   -0.13 KCAL/MOL
REMARK 927      BINDING AFFINITY PREDICTED BY RF-SCORE:    0.00 PKD
ROOT
HETATM    1  O   UNL     1      -9.666  11.886  63.326  1.00  0.00    -0.495 OA 
HETATM    2  C   UNL     1     -10.869  11.204  63.680  1.00  0.00    -0.242 C  
HETATM    3  H   UNL     1      -8.977  11.245  63.193  1.00  0.00     0.000 HD 
ENDROOT
BRANCH   2   4
HETATM    4  C   UNL     1     -11.984  12.242  63.896  1.00  0.00    -0.491 C  
BRANCH   4   5
HETATM    5  N   UNL     1     -12.452  12.442  65.295  1.00  0.00    -0.609 NA 
BRANCH   5   6
HETATM    6  C   UNL     1     -11.462  11.848  66.242  1.00  0.00    -0.301 C  
BRANCH   6   7
HETATM    7  C   UNL     1     -11.649  12.224  67.725  1.00  0.00    -0.351 C  
HETATM    8  H   UNL     1     -12.381  11.389  69.350  1.00  0.00     0.000 HD 
HETATM    9  O   UNL     1     -12.266  11.157  68.436  1.00  0.00    -0.610 OA 
ENDBRANCH   6   7
ENDBRANCH   5   6
BRANCH   5  10
HETATM   10  C   UNL     1     -12.600  13.902  65.566  1.00  0.00    -0.526 C  
BRANCH  10  11
HETATM   11  C   UNL     1     -11.661  14.815  64.756  1.00  0.00    -0.422 C  
HETATM   12  O   UNL     1     -12.394  15.507  63.749  1.00  0.00    -0.976 OA 
HETATM   13  H   UNL     1     -11.814  16.070  63.250  1.00  0.00     0.000 HD 
ENDBRANCH  10  11
ENDBRANCH   5  10
ENDBRANCH   4   5
ENDBRANCH   2   4
TORSDOF 6
ENDMDL
MODEL       18
REMARK 921   NORMALIZED FREE ENERGY PREDICTED BY IDOCK:   -3.44 KCAL/MOL
REMARK 922        TOTAL FREE ENERGY PREDICTED BY IDOCK:   -5.13 KCAL/MOL
REMARK 923 INTER-LIGAND FREE ENERGY PREDICTED BY IDOCK:   -4.72 KCAL/MOL
REMARK 924 INTRA-LIGAND FREE ENERGY PREDICTED BY IDOCK:   -0.41 KCAL/MOL
REMARK 927      BINDING AFFINITY PREDICTED BY RF-SCORE:    0.00 PKD
ROOT
HETATM    1  O   UNL     1     -10.588  13.708  69.087  1.00  0.00    -0.399 OA 
HETATM    2  C   UNL     1     -11.912  13.966  68.618  1.00  0.00    -0.366 C  
HETATM    3  H   UNL     1     -10.635  13.399  69.984  1.00  0.00     0.000 HD 
ENDROOT
BRANCH   2   4
HETATM    4  C   UNL     1     -11.836  14.465  67.164  1.00  0.00    -0.410 C  
BRANCH   4   5
HETATM    5  N   UNL     1     -11.024  13.652  66.218  1.00  0.00    -0.298 NA 
BRANCH   5   6
HETATM    6  C   UNL     1     -11.663  12.315  66.033  1.00  0.00    -0.388 C  
BRANCH   6   7
HETATM    7  C   UNL     1     -10.775  11.101  66.369  1.00  0.00    -0.247 C  
HETATM    8  H   UNL     1     -10.142  10.171  67.985  1.00  0.00     0.000 HD 
HETATM    9  O   UNL     1     -10.689  10.920  67.778  1.00  0.00    -0.201 OA 
ENDBRANCH   6   7
ENDBRANCH   5   6
BRANCH   5  10
HETATM   10  C   UNL     1     -10.935  14.357  64.905  1.00  0.00    -0.406 C  
BRANCH  10  11
HETATM   11  C   UNL     1     -10.992  15.894  64.986  1.00  0.00    -0.412 C  
HETATM   12  O   UNL     1     -11.535  16.431  63.783  1.00  0.00    -1.590 OA 
HETATM   13  H   UNL     1     -11.571  17.379  63.833  1.00  0.00     0.000 HD 
ENDBRANCH  10  11
ENDBRANCH   5  10
ENDBRANCH   4   5
ENDBRANCH   2   4
TORSDOF 6
ENDMDL
MODEL       19
REMARK 921   NORMALIZED FREE ENERGY PREDICTED BY IDOCK:   -3.41 KCAL/MOL
REMARK 922        TOTAL FREE ENERGY PREDICTED BY IDOCK:   -5.09 KCAL/MOL
REMARK 923 INTER-LIGAND FREE ENERGY PREDICTED BY IDOCK:   -4.71 KCAL/MOL
REMARK 924 INTRA-LIGAND FREE ENERGY PREDICTED BY IDOCK:   -0.37 KCAL/MOL
REMARK 927      BINDING AFFINITY PREDICTED BY RF-SCORE:    0.00 PKD
ROOT
HETATM    1  O   UNL     1     -11.723  16.232  63.777  1.00  0.00    -1.511 OA 
HETATM    2  C   UNL     1     -12.245  14.990  64.246  1.00  0.00    -0.293 C  
HETATM    3  H   UNL     1     -12.264  16.541  63.060  1.00  0.00     0.000 HD 
ENDROOT
BRANCH   2   4
HETATM    4  C   UNL     1     -11.369  14.489  65.408  1.00  0.00    -0.341 C  
BRANCH   4   5
HETATM    5  N   UNL     1     -11.660  15.051  66.757  1.00  0.00    -0.267 NA 
BRANCH   5   6
HETATM    6  C   UNL     1     -11.755  13.940  67.750  1.00  0.00    -0.366 C  
BRANCH   6   7
HETATM    7  C   UNL     1     -11.096  12.612  67.329  1.00  0.00    -0.278 C  
HETATM    8  H   UNL     1     -11.600  10.712  67.229  1.00  0.00     0.000 HD 
HETATM    9  O   UNL     1     -12.007  11.531  67.489  1.00  0.00    -0.629 OA 
ENDBRANCH   6   7
ENDBRANCH   5   6
BRANCH   5  10
HETATM   10  C   UNL     1     -10.569  15.991  67.149  1.00  0.00    -0.305 C  
BRANCH  10  11
HETATM   11  C   UNL     1      -9.372  16.042  66.182  1.00  0.00    -0.342 C  
HETATM   12  O   UNL     1      -9.311  17.312  65.539  1.00  0.00    -0.383 OA 
HETATM   13  H   UNL     1      -8.572  17.343  64.943  1.00  0.00     0.000 HD 
ENDBRANCH  10  11
ENDBRANCH   5  10
ENDBRANCH   4   5
ENDBRANCH   2   4
TORSDOF 6
ENDMDL
MODEL       20
REMARK 921   NORMALIZED FREE ENERGY PREDICTED BY IDOCK:   -3.40 KCAL/MOL
REMARK 922        TOTAL FREE ENERGY PREDICTED BY IDOCK:   -5.07 KCAL/MOL
REMARK 923 INTER-LIGAND FREE ENERGY PREDICTED BY IDOCK:   -4.92 KCAL/MOL
REMARK 924 INTRA-LIGAND FREE ENERGY PREDICTED BY IDOCK:   -0.16 KCAL/MOL
REMARK 927      BINDING AFFINITY PREDICTED BY RF-SCORE:    0.00 PKD
ROOT
HETATM    1  O   UNL     1     -12.085  11.569  67.788  1.00  0.00    -0.626 OA 
HETATM    2  C   UNL     1     -11.603  12.896  67.577  1.00  0.00    -0.356 C  
HETATM    3  H   UNL     1     -11.863  11.298  68.671  1.00  0.00     0.000 HD 
ENDROOT
BRANCH   2   4
HETATM    4  C   UNL     1     -11.963  13.335  66.147  1.00  0.00    -0.418 C  
BRANCH   4   5
HETATM    5  N   UNL     1     -10.934  13.102  65.096  1.00  0.00    -0.291 NA 
BRANCH   5   6
HETATM    6  C   UNL     1     -11.577  12.487  63.896  1.00  0.00    -0.442 C  
BRANCH   6   7
HETATM    7  C   UNL     1     -10.869  11.241  63.328  1.00  0.00    -0.140 C  
HETATM    8  H   UNL     1      -9.064  10.754  62.714  1.00  0.00     0.000 HD 
HETATM    9  O   UNL     1      -9.500  11.522  63.064  1.00  0.00    -0.367 OA 
ENDBRANCH   6   7
ENDBRANCH   5   6
BRANCH   5  10
HETATM   10  C   UNL     1     -10.302  14.402  64.722  1.00  0.00    -0.320 C  
BRANCH  10  11
HETATM   11  C   UNL     1     -11.128  15.654  65.074  1.00  0.00    -0.389 C  
HETATM   12  O   UNL     1     -11.438  16.387  63.892  1.00  0.00    -1.569 OA 
HETATM   13  H   UNL     1     -11.948  17.159  64.109  1.00  0.00     0.000 HD 
ENDBRANCH  10  11
ENDBRANCH   5  10
ENDBRANCH   4   5
ENDBRANCH   2   4
TORSDOF 6
ENDMDL
MODEL       21
REMARK 921   NORMALIZED FREE ENERGY PREDICTED BY IDOCK:   -3.28 KCAL/MOL
REMARK 922        TOTAL FREE ENERGY PREDICTED BY IDOCK:   -4.91 KCAL/MOL
REMARK 923 INTER-LIGAND FREE ENERGY PREDICTED BY IDOCK:   -4.74 KCAL/MOL
REMARK 924 INTRA-LIGAND FREE ENERGY PREDICTED BY IDOCK:   -0.17 KCAL/MOL
REMARK 927      BINDING AFFINITY PREDICTED BY RF-SCORE:    0.00 PKD
ROOT
HETATM    1  O   UNL     1     -14.016   8.906  73.410  1.00  0.00    -1.236 OA 
HETATM    2  C   UNL     1     -13.908   9.280  72.037  1.00  0.00    -0.382 C  
HETATM    3  H   UNL     1     -14.708   8.261  73.499  1.00  0.00     0.000 HD 
ENDROOT
BRANCH   2   4
HETATM    4  C   UNL     1     -12.787  10.325  71.893  1.00  0.00    -0.426 C  
BRANCH   4   5
HETATM    5  N   UNL     1     -13.124  11.570  71.149  1.00  0.00    -0.201 NA 
BRANCH   5   6
HETATM    6  C   UNL     1     -13.590  12.614  72.109  1.00  0.00    -0.413 C  
BRANCH   6   7
HETATM    7  C   UNL     1     -12.892  13.983  71.994  1.00  0.00    -0.326 C  
HETATM    8  H   UNL     1     -12.367  15.448  73.201  1.00  0.00     0.000 HD 
HETATM    9  O   UNL     1     -12.798  14.603  73.271  1.00  0.00    -0.504 OA 
ENDBRANCH   6   7
ENDBRANCH   5   6
BRANCH   5  10
HETATM   10  C   UNL     1     -11.915  12.055  70.419  1.00  0.00    -0.291 C  
BRANCH  10  11
HETATM   11  C   UNL     1     -12.052  12.096  68.886  1.00  0.00    -0.133 C  
HETATM   12  O   UNL     1     -12.271  10.785  68.375  1.00  0.00    -0.832 OA 
HETATM   13  H   UNL     1     -12.356  10.810  67.429  1.00  0.00     0.000 HD 
ENDBRANCH  10  11
ENDBRANCH   5  10
ENDBRANCH   4   5
ENDBRANCH   2   4
TORSDOF 6
ENDMDL
MODEL       22
REMARK 921   NORMALIZED FREE ENERGY PREDICTED BY IDOCK:   -3.27 KCAL/MOL
REMARK 922        TOTAL FREE ENERGY PREDICTED BY IDOCK:   -4.91 KCAL/MOL
REMARK 923 INTER-LIGAND FREE ENERGY PREDICTED BY IDOCK:   -4.70 KCAL/MOL
REMARK 924 INTRA-LIGAND FREE ENERGY PREDICTED BY IDOCK:   -0.21 KCAL/MOL
REMARK 927      BINDING AFFINITY PREDICTED BY RF-SCORE:    0.00 PKD
ROOT
HETATM    1  O   UNL     1     -12.381  13.916  62.960  1.00  0.00    -1.101 OA 
HETATM    2  C   UNL     1     -11.917  12.761  63.659  1.00  0.00    -0.539 C  
HETATM    3  H   UNL     1     -13.250  13.741  62.621  1.00  0.00     0.000 HD 
ENDROOT
BRANCH   2   4
HETATM    4  C   UNL     1     -10.508  13.045  64.209  1.00  0.00    -0.402 C  
BRANCH   4   5
HETATM    5  N   UNL     1     -10.289  12.776  65.658  1.00  0.00    -0.276 NA 
BRANCH   5   6
HETATM    6  C   UNL     1     -10.233  14.070  66.402  1.00  0.00    -0.291 C  
BRANCH   6   7
HETATM    7  C   UNL     1     -11.594  14.645  66.839  1.00  0.00    -0.362 C  
HETATM    8  H   UNL     1     -12.577  14.922  68.522  1.00  0.00     0.000 HD 
HETATM    9  O   UNL     1     -11.738  14.567  68.253  1.00  0.00    -0.312 OA 
ENDBRANCH   6   7
ENDBRANCH   5   6
BRANCH   5  10
HETATM   10  C   UNL     1     -11.406  11.937  66.183  1.00  0.00    -0.324 C  
BRANCH  10  11
HETATM   11  C   UNL     1     -10.996  10.889  67.234  1.00  0.00    -0.294 C  
HETATM   12  O   UNL     1     -12.069  10.656  68.142  1.00  0.00    -0.797 OA 
HETATM   13  H   UNL     1     -11.816  10.009  68.790  1.00  0.00     0.000 HD 
ENDBRANCH  10  11
ENDBRANCH   5  10
ENDBRANCH   4   5
ENDBRANCH   2   4
TORSDOF 6
ENDMDL
MODEL       23
REMARK 921   NORMALIZED FREE ENERGY PREDICTED BY IDOCK:   -3.26 KCAL/MOL
REMARK 922        TOTAL FREE ENERGY PREDICTED BY IDOCK:   -4.88 KCAL/MOL
REMARK 923 INTER-LIGAND FREE ENERGY PREDICTED BY IDOCK:   -4.67 KCAL/MOL
REMARK 924 INTRA-LIGAND FREE ENERGY PREDICTED BY IDOCK:   -0.21 KCAL/MOL
REMARK 927      BINDING AFFINITY PREDICTED BY RF-SCORE:    0.00 PKD
ROOT
HETATM    1  O   UNL     1     -11.441   6.468  68.621  1.00  0.00    -0.580 OA 
HETATM    2  C   UNL     1     -11.474   6.774  70.015  1.00  0.00    -0.334 C  
HETATM    3  H   UNL     1     -11.864   5.629  68.480  1.00  0.00     0.000 HD 
ENDROOT
BRANCH   2   4
HETATM    4  C   UNL     1     -10.789   8.133  70.243  1.00  0.00    -0.244 C  
BRANCH   4   5
HETATM    5  N   UNL     1     -11.372   9.007  71.299  1.00  0.00    -0.292 NA 
BRANCH   5   6
HETATM    6  C   UNL     1     -11.793  10.306  70.694  1.00  0.00    -0.347 C  
BRANCH   6   7
HETATM    7  C   UNL     1     -11.167  10.638  69.326  1.00  0.00    -0.273 C  
HETATM    8  H   UNL     1     -11.766  11.352  67.593  1.00  0.00     0.000 HD 
HETATM    9  O   UNL     1     -12.153  11.148  68.436  1.00  0.00    -0.605 OA 
ENDBRANCH   6   7
ENDBRANCH   5   6
BRANCH   5  10
HETATM   10  C   UNL     1     -12.550   8.327  71.914  1.00  0.00    -0.344 C  
BRANCH  10  11
HETATM   11  C   UNL     1     -13.735   9.252  72.249  1.00  0.00    -0.462 C  
HETATM   12  O   UNL     1     -14.239   8.955  73.548  1.00  0.00    -1.194 OA 
HETATM   13  H   UNL     1     -14.969   9.526  73.755  1.00  0.00     0.000 HD 
ENDBRANCH  10  11
ENDBRANCH   5  10
ENDBRANCH   4   5
ENDBRANCH   2   4
TORSDOF 6
ENDMDL
MODEL       24
REMARK 921   NORMALIZED FREE ENERGY PREDICTED BY IDOCK:   -3.26 KCAL/MOL
REMARK 922        TOTAL FREE ENERGY PREDICTED BY IDOCK:   -4.88 KCAL/MOL
REMARK 923 INTER-LIGAND FREE ENERGY PREDICTED BY IDOCK:   -4.81 KCAL/MOL
REMARK 924 INTRA-LIGAND FREE ENERGY PREDICTED BY IDOCK:   -0.07 KCAL/MOL
REMARK 927      BINDING AFFINITY PREDICTED BY RF-SCORE:    0.00 PKD
ROOT
HETATM    1  O   UNL     1      -8.086  12.226  66.273  1.00  0.00    -0.371 OA 
HETATM    2  C   UNL     1      -9.504  12.073  66.215  1.00  0.00    -0.229 C  
HETATM    3  H   UNL     1      -7.706  11.434  66.632  1.00  0.00     0.000 HD 
ENDROOT
BRANCH   2   4
HETATM    4  C   UNL     1     -10.120  13.358  65.633  1.00  0.00    -0.274 C  
BRANCH   4   5
HETATM    5  N   UNL     1     -11.553  13.614  65.947  1.00  0.00    -0.318 NA 
BRANCH   5   6
HETATM    6  C   UNL     1     -11.868  15.053  65.702  1.00  0.00    -0.050 C  
BRANCH   6   7
HETATM    7  C   UNL     1     -10.890  15.800  64.773  1.00  0.00    -0.344 C  
HETATM    8  H   UNL     1     -10.983  17.217  63.409  1.00  0.00     0.000 HD 
HETATM    9  O   UNL     1     -11.586  16.757  63.982  1.00  0.00    -1.195 OA 
ENDBRANCH   6   7
ENDBRANCH   5   6
BRANCH   5  10
HETATM   10  C   UNL     1     -12.414  12.753  65.083  1.00  0.00    -0.501 C  
BRANCH  10  11
HETATM   11  C   UNL     1     -12.045  12.754  63.588  1.00  0.00    -0.543 C  
HETATM   12  O   UNL     1     -12.519  11.565  62.962  1.00  0.00    -0.982 OA 
HETATM   13  H   UNL     1     -12.292  11.566  62.040  1.00  0.00     0.000 HD 
ENDBRANCH  10  11
ENDBRANCH   5  10
ENDBRANCH   4   5
ENDBRANCH   2   4
TORSDOF 6
ENDMDL
MODEL       25
REMARK 921   NORMALIZED FREE ENERGY PREDICTED BY IDOCK:   -3.26 KCAL/MOL
REMARK 922        TOTAL FREE ENERGY PREDICTED BY IDOCK:   -4.88 KCAL/MOL
REMARK 923 INTER-LIGAND FREE ENERGY PREDICTED BY IDOCK:   -4.64 KCAL/MOL
REMARK 924 INTRA-LIGAND FREE ENERGY PREDICTED BY IDOCK:   -0.24 KCAL/MOL
REMARK 927      BINDING AFFINITY PREDICTED BY RF-SCORE:    0.00 PKD
ROOT
HETATM    1  O   UNL     1     -14.121   8.850  73.368  1.00  0.00    -1.256 OA 
HETATM    2  C   UNL     1     -13.660   8.806  72.017  1.00  0.00    -0.427 C  
HETATM    3  H   UNL     1     -14.737   8.141  73.505  1.00  0.00     0.000 HD 
ENDROOT
BRANCH   2   4
HETATM    4  C   UNL     1     -12.661   9.955  71.794  1.00  0.00    -0.428 C  
BRANCH   4   5
HETATM    5  N   UNL     1     -11.289   9.574  71.357  1.00  0.00    -0.376 NA 
BRANCH   5   6
HETATM    6  C   UNL     1     -11.087   8.110  71.567  1.00  0.00    -0.252 C  
BRANCH   6   7
HETATM    7  C   UNL     1     -10.716   7.302  70.307  1.00  0.00    -0.236 C  
HETATM    8  H   UNL     1     -11.311   5.650  69.418  1.00  0.00     0.000 HD 
HETATM    9  O   UNL     1     -11.540   6.147  70.195  1.00  0.00    -0.375 OA 
ENDBRANCH   6   7
ENDBRANCH   5   6
BRANCH   5  10
HETATM   10  C   UNL     1     -11.116   9.909  69.913  1.00  0.00    -0.275 C  
BRANCH  10  11
HETATM   11  C   UNL     1     -12.077  10.985  69.373  1.00  0.00    -0.318 C  
HETATM   12  O   UNL     1     -11.963  11.082  67.957  1.00  0.00    -0.695 OA 
HETATM   13  H   UNL     1     -12.556  11.745  67.624  1.00  0.00     0.000 HD 
ENDBRANCH  10  11
ENDBRANCH   5  10
ENDBRANCH   4   5
ENDBRANCH   2   4
TORSDOF 6
ENDMDL
MODEL       26
REMARK 921   NORMALIZED FREE ENERGY PREDICTED BY IDOCK:   -3.25 KCAL/MOL
REMARK 922        TOTAL FREE ENERGY PREDICTED BY IDOCK:   -4.87 KCAL/MOL
REMARK 923 INTER-LIGAND FREE ENERGY PREDICTED BY IDOCK:   -4.68 KCAL/MOL
REMARK 924 INTRA-LIGAND FREE ENERGY PREDICTED BY IDOCK:   -0.20 KCAL/MOL
REMARK 927      BINDING AFFINITY PREDICTED BY RF-SCORE:    0.00 PKD
ROOT
HETATM    1  O   UNL     1     -10.501  19.888  69.102  1.00  0.00    -0.614 OA 
HETATM    2  C   UNL     1      -9.603  19.024  68.406  1.00  0.00    -0.373 C  
HETATM    3  H   UNL     1     -10.006  20.410  69.722  1.00  0.00     0.000 HD 
ENDROOT
BRANCH   2   4
HETATM    4  C   UNL     1     -10.406  18.178  67.401  1.00  0.00    -0.389 C  
BRANCH   4   5
HETATM    5  N   UNL     1     -10.102  16.720  67.361  1.00  0.00    -0.270 NA 
BRANCH   5   6
HETATM    6  C   UNL     1     -11.276  15.952  67.874  1.00  0.00    -0.297 C  
BRANCH   6   7
HETATM    7  C   UNL     1     -10.939  14.689  68.691  1.00  0.00    -0.256 C  
HETATM    8  H   UNL     1     -11.322  12.761  68.601  1.00  0.00     0.000 HD 
HETATM    9  O   UNL     1     -11.530  13.539  68.097  1.00  0.00    -0.266 OA 
ENDBRANCH   6   7
ENDBRANCH   5   6
BRANCH   5  10
HETATM   10  C   UNL     1      -9.805  16.313  65.956  1.00  0.00    -0.343 C  
BRANCH  10  11
HETATM   11  C   UNL     1     -11.011  15.781  65.161  1.00  0.00    -0.382 C  
HETATM   12  O   UNL     1     -11.290  16.636  64.057  1.00  0.00    -1.486 OA 
HETATM   13  H   UNL     1     -12.034  16.307  63.566  1.00  0.00     0.000 HD 
ENDBRANCH  10  11
ENDBRANCH   5  10
ENDBRANCH   4   5
ENDBRANCH   2   4
TORSDOF 6
ENDMDL
MODEL       27
REMARK 921   NORMALIZED FREE ENERGY PREDICTED BY IDOCK:   -3.25 KCAL/MOL
REMARK 922        TOTAL FREE ENERGY PREDICTED BY IDOCK:   -4.87 KCAL/MOL
REMARK 923 INTER-LIGAND FREE ENERGY PREDICTED BY IDOCK:   -4.79 KCAL/MOL
REMARK 924 INTRA-LIGAND FREE ENERGY PREDICTED BY IDOCK:   -0.08 KCAL/MOL
REMARK 927      BINDING AFFINITY PREDICTED BY RF-SCORE:    0.00 PKD
ROOT
HETATM    1  O   UNL     1     -11.450  16.452  63.815  1.00  0.00    -1.590 OA 
HETATM    2  C   UNL     1     -11.284  15.580  64.933  1.00  0.00    -0.389 C  
HETATM    3  H   UNL     1     -12.267  16.241  63.380  1.00  0.00     0.000 HD 
ENDROOT
BRANCH   2   4
HETATM    4  C   UNL     1      -9.960  15.922  65.639  1.00  0.00    -0.334 C  
BRANCH   4   5
HETATM    5  N   UNL     1     -10.046  16.296  67.078  1.00  0.00    -0.263 NA 
BRANCH   5   6
HETATM    6  C   UNL     1     -10.524  17.706  67.200  1.00  0.00    -0.319 C  
BRANCH   6   7
HETATM    7  C   UNL     1      -9.711  18.605  68.152  1.00  0.00    -0.336 C  
HETATM    8  H   UNL     1      -7.858  18.722  68.804  1.00  0.00     0.000 HD 
HETATM    9  O   UNL     1      -8.359  18.168  68.217  1.00  0.00    -0.274 OA 
ENDBRANCH   6   7
ENDBRANCH   5   6
BRANCH   5  10
HETATM   10  C   UNL     1     -10.993  15.377  67.775  1.00  0.00    -0.311 C  
BRANCH  10  11
HETATM   11  C   UNL     1     -11.655  15.957  69.039  1.00  0.00    -0.389 C  
HETATM   12  O   UNL     1     -12.672  15.078  69.510  1.00  0.00    -0.588 OA 
HETATM   13  H   UNL     1     -13.080  15.436  70.290  1.00  0.00     0.000 HD 
ENDBRANCH  10  11
ENDBRANCH   5  10
ENDBRANCH   4   5
ENDBRANCH   2   4
TORSDOF 6
ENDMDL
MODEL       28
REMARK 921   NORMALIZED FREE ENERGY PREDICTED BY IDOCK:   -3.25 KCAL/MOL
REMARK 922        TOTAL FREE ENERGY PREDICTED BY IDOCK:   -4.87 KCAL/MOL
REMARK 923 INTER-LIGAND FREE ENERGY PREDICTED BY IDOCK:   -4.61 KCAL/MOL
REMARK 924 INTRA-LIGAND FREE ENERGY PREDICTED BY IDOCK:   -0.26 KCAL/MOL
REMARK 927      BINDING AFFINITY PREDICTED BY RF-SCORE:    0.00 PKD
ROOT
HETATM    1  O   UNL     1      -8.125  17.868  68.619  1.00  0.00    -0.295 OA 
HETATM    2  C   UNL     1      -8.991  16.744  68.467  1.00  0.00    -0.244 C  
HETATM    3  H   UNL     1      -7.257  17.558  68.847  1.00  0.00     0.000 HD 
ENDROOT
BRANCH   2   4
HETATM    4  C   UNL     1     -10.398  17.246  68.097  1.00  0.00    -0.357 C  
BRANCH   4   5
HETATM    5  N   UNL     1     -10.704  17.370  66.645  1.00  0.00    -0.163 NA 
BRANCH   5   6
HETATM    6  C   UNL     1     -10.194  18.679  66.137  1.00  0.00    -0.416 C  
BRANCH   6   7
HETATM    7  C   UNL     1     -10.444  19.892  67.054  1.00  0.00    -0.441 C  
HETATM    8  H   UNL     1      -9.375  21.107  68.174  1.00  0.00     0.000 HD 
HETATM    9  O   UNL     1      -9.220  20.359  67.609  1.00  0.00    -0.337 OA 
ENDBRANCH   6   7
ENDBRANCH   5   6
BRANCH   5  10
HETATM   10  C   UNL     1     -10.054  16.250  65.902  1.00  0.00    -0.357 C  
BRANCH  10  11
HETATM   11  C   UNL     1     -10.916  15.615  64.795  1.00  0.00    -0.400 C  
HETATM   12  O   UNL     1     -11.435  16.625  63.935  1.00  0.00    -1.604 OA 
HETATM   13  H   UNL     1     -11.966  16.233  63.251  1.00  0.00     0.000 HD 
ENDBRANCH  10  11
ENDBRANCH   5  10
ENDBRANCH   4   5
ENDBRANCH   2   4
TORSDOF 6
ENDMDL
MODEL       29
REMARK 921   NORMALIZED FREE ENERGY PREDICTED BY IDOCK:   -3.23 KCAL/MOL
REMARK 922        TOTAL FREE ENERGY PREDICTED BY IDOCK:   -4.84 KCAL/MOL
REMARK 923 INTER-LIGAND FREE ENERGY PREDICTED BY IDOCK:   -4.62 KCAL/MOL
REMARK 924 INTRA-LIGAND FREE ENERGY PREDICTED BY IDOCK:   -0.23 KCAL/MOL
REMARK 927      BINDING AFFINITY PREDICTED BY RF-SCORE:    0.00 PKD
ROOT
HETATM    1  O   UNL     1     -12.516  11.494  62.935  1.00  0.00    -0.964 OA 
HETATM    2  C   UNL     1     -11.939  12.679  63.482  1.00  0.00    -0.548 C  
HETATM    3  H   UNL     1     -12.174  11.362  62.059  1.00  0.00     0.000 HD 
ENDROOT
BRANCH   2   4
HETATM    4  C   UNL     1     -12.492  12.893  64.902  1.00  0.00    -0.478 C  
BRANCH   4   5
HETATM    5  N   UNL     1     -11.832  12.133  65.999  1.00  0.00    -0.561 NA 
BRANCH   5   6
HETATM    6  C   UNL     1     -10.412  11.855  65.631  1.00  0.00    -0.262 C  
BRANCH   6   7
HETATM    7  C   UNL     1     -10.002  10.369  65.634  1.00  0.00    -0.272 C  
HETATM    8  H   UNL     1      -9.374   9.037  64.328  1.00  0.00     0.000 HD 
HETATM    9  O   UNL     1      -9.627   9.952  64.326  1.00  0.00    -0.282 OA 
ENDBRANCH   6   7
ENDBRANCH   5   6
BRANCH   5  10
HETATM   10  C   UNL     1     -11.883  12.933  67.259  1.00  0.00    -0.356 C  
BRANCH  10  11
HETATM   11  C   UNL     1     -12.054  14.450  67.061  1.00  0.00    -0.342 C  
HETATM   12  O   UNL     1     -12.239  15.094  68.318  1.00  0.00    -0.552 OA 
HETATM   13  H   UNL     1     -12.344  16.030  68.195  1.00  0.00     0.000 HD 
ENDBRANCH  10  11
ENDBRANCH   5  10
ENDBRANCH   4   5
ENDBRANCH   2   4
TORSDOF 6
ENDMDL
MODEL       30
REMARK 921   NORMALIZED FREE ENERGY PREDICTED BY IDOCK:   -3.22 KCAL/MOL
REMARK 922        TOTAL FREE ENERGY PREDICTED BY IDOCK:   -4.83 KCAL/MOL
REMARK 923 INTER-LIGAND FREE ENERGY PREDICTED BY IDOCK:   -4.66 KCAL/MOL
REMARK 924 INTRA-LIGAND FREE ENERGY PREDICTED BY IDOCK:   -0.18 KCAL/MOL
REMARK 927      BINDING AFFINITY PREDICTED BY RF-SCORE:    0.00 PKD
ROOT
HETATM    1  O   UNL     1     -11.639  16.427  63.821  1.00  0.00    -1.605 OA 
HETATM    2  C   UNL     1     -11.393  15.375  64.754  1.00  0.00    -0.376 C  
HETATM    3  H   UNL     1     -12.373  16.182  63.269  1.00  0.00     0.000 HD 
ENDROOT
BRANCH   2   4
HETATM    4  C   UNL     1     -10.205  15.772  65.649  1.00  0.00    -0.380 C  
BRANCH   4   5
HETATM    5  N   UNL     1     -10.519  16.581  66.859  1.00  0.00    -0.301 NA 
BRANCH   5   6
HETATM    6  C   UNL     1     -10.422  15.719  68.074  1.00  0.00    -0.270 C  
BRANCH   6   7
HETATM    7  C   UNL     1     -11.744  15.481  68.830  1.00  0.00    -0.357 C  
HETATM    8  H   UNL     1     -12.607  14.010  69.812  1.00  0.00     0.000 HD 
HETATM    9  O   UNL     1     -11.792  14.156  69.346  1.00  0.00    -0.288 OA 
ENDBRANCH   6   7
ENDBRANCH   5   6
BRANCH   5  10
HETATM   10  C   UNL     1      -9.555  17.716  66.963  1.00  0.00    -0.276 C  
BRANCH  10  11
HETATM   11  C   UNL     1      -9.418  18.330  68.368  1.00  0.00    -0.323 C  
HETATM   12  O   UNL     1     -10.499  19.222  68.623  1.00  0.00    -0.480 OA 
HETATM   13  H   UNL     1     -10.415  19.600  69.491  1.00  0.00     0.000 HD 
ENDBRANCH  10  11
ENDBRANCH   5  10
ENDBRANCH   4   5
ENDBRANCH   2   4
TORSDOF 6
ENDMDL
MODEL       31
REMARK 921   NORMALIZED FREE ENERGY PREDICTED BY IDOCK:   -3.22 KCAL/MOL
REMARK 922        TOTAL FREE ENERGY PREDICTED BY IDOCK:   -4.83 KCAL/MOL
REMARK 923 INTER-LIGAND FREE ENERGY PREDICTED BY IDOCK:   -4.62 KCAL/MOL
REMARK 924 INTRA-LIGAND FREE ENERGY PREDICTED BY IDOCK:   -0.21 KCAL/MOL
REMARK 927      BINDING AFFINITY PREDICTED BY RF-SCORE:    0.00 PKD
ROOT
HETATM    1  O   UNL     1     -13.001  16.379  74.372  1.00  0.00    -0.913 OA 
HETATM    2  C   UNL     1     -13.111  15.675  73.136  1.00  0.00    -0.558 C  
HETATM    3  H   UNL     1     -13.728  16.131  74.932  1.00  0.00     0.000 HD 
ENDROOT
BRANCH   2   4
HETATM    4  C   UNL     1     -11.934  16.076  72.228  1.00  0.00    -0.538 C  
BRANCH   4   5
HETATM    5  N   UNL     1     -12.095  15.818  70.770  1.00  0.00    -0.400 NA 
BRANCH   5   6
HETATM    6  C   UNL     1     -10.753  15.795  70.117  1.00  0.00    -0.344 C  
BRANCH   6   7
HETATM    7  C   UNL     1     -10.495  16.911  69.086  1.00  0.00    -0.335 C  
HETATM    8  H   UNL     1     -10.659  17.151  67.139  1.00  0.00     0.000 HD 
HETATM    9  O   UNL     1     -10.818  16.463  67.774  1.00  0.00    -0.332 OA 
ENDBRANCH   6   7
ENDBRANCH   5   6
BRANCH   5  10
HETATM   10  C   UNL     1     -12.781  14.507  70.570  1.00  0.00    -0.345 C  
BRANCH  10  11
HETATM   11  C   UNL     1     -12.001  13.487  69.720  1.00  0.00    -0.340 C  
HETATM   12  O   UNL     1     -11.783  12.291  70.463  1.00  0.00    -0.517 OA 
HETATM   13  H   UNL     1     -11.302  11.661  69.938  1.00  0.00     0.000 HD 
ENDBRANCH  10  11
ENDBRANCH   5  10
ENDBRANCH   4   5
ENDBRANCH   2   4
TORSDOF 6
ENDMDL
MODEL       32
REMARK 921   NORMALIZED FREE ENERGY PREDICTED BY IDOCK:   -3.21 KCAL/MOL
REMARK 922        TOTAL FREE ENERGY PREDICTED BY IDOCK:   -4.82 KCAL/MOL
REMARK 923 INTER-LIGAND FREE ENERGY PREDICTED BY IDOCK:   -4.66 KCAL/MOL
REMARK 924 INTRA-LIGAND FREE ENERGY PREDICTED BY IDOCK:   -0.16 KCAL/MOL
REMARK 927      BINDING AFFINITY PREDICTED BY RF-SCORE:    0.00 PKD
ROOT
HETATM    1  O   UNL     1      -8.950  14.386  66.185  1.00  0.00    -0.490 OA 
HETATM    2  C   UNL     1     -10.098  14.953  66.815  1.00  0.00    -0.251 C  
HETATM    3  H   UNL     1      -8.201  14.492  66.760  1.00  0.00     0.000 HD 
ENDROOT
BRANCH   2   4
HETATM    4  C   UNL     1     -11.312  14.781  65.884  1.00  0.00    -0.331 C  
BRANCH   4   5
HETATM    5  N   UNL     1     -12.309  13.744  66.268  1.00  0.00    -0.447 NA 
BRANCH   5   6
HETATM    6  C   UNL     1     -12.402  12.717  65.188  1.00  0.00    -0.496 C  
BRANCH   6   7
HETATM    7  C   UNL     1     -11.674  13.064  63.875  1.00  0.00    -0.468 C  
HETATM    8  H   UNL     1     -12.101  13.959  62.174  1.00  0.00     0.000 HD 
HETATM    9  O   UNL     1     -12.550  13.745  62.984  1.00  0.00    -0.721 OA 
ENDBRANCH   6   7
ENDBRANCH   5   6
BRANCH   5  10
HETATM   10  C   UNL     1     -11.887  13.098  67.547  1.00  0.00    -0.360 C  
BRANCH  10  11
HETATM   11  C   UNL     1     -11.274  11.693  67.397  1.00  0.00    -0.298 C  
HETATM   12  O   UNL     1     -12.048  10.739  68.118  1.00  0.00    -0.802 OA 
HETATM   13  H   UNL     1     -11.670   9.872  68.025  1.00  0.00     0.000 HD 
ENDBRANCH  10  11
ENDBRANCH   5  10
ENDBRANCH   4   5
ENDBRANCH   2   4
TORSDOF 6
ENDMDL
MODEL       33
REMARK 921   NORMALIZED FREE ENERGY PREDICTED BY IDOCK:   -3.20 KCAL/MOL
REMARK 922        TOTAL FREE ENERGY PREDICTED BY IDOCK:   -4.80 KCAL/MOL
REMARK 923 INTER-LIGAND FREE ENERGY PREDICTED BY IDOCK:   -4.40 KCAL/MOL
REMARK 924 INTRA-LIGAND FREE ENERGY PREDICTED BY IDOCK:   -0.40 KCAL/MOL
REMARK 927      BINDING AFFINITY PREDICTED BY RF-SCORE:    0.00 PKD
ROOT
HETATM    1  O   UNL     1     -11.952  15.975  63.759  1.00  0.00    -1.339 OA 
HETATM    2  C   UNL     1     -12.225  14.746  64.430  1.00  0.00    -0.428 C  
HETATM    3  H   UNL     1     -12.775  16.379  63.510  1.00  0.00     0.000 HD 
ENDROOT
BRANCH   2   4
HETATM    4  C   UNL     1     -10.892  14.092  64.834  1.00  0.00    -0.411 C  
BRANCH   4   5
HETATM    5  N   UNL     1     -10.564  14.082  66.286  1.00  0.00    -0.279 NA 
BRANCH   5   6
HETATM    6  C   UNL     1     -10.000  15.408  66.680  1.00  0.00    -0.260 C  
BRANCH   6   7
HETATM    7  C   UNL     1     -10.818  16.196  67.722  1.00  0.00    -0.318 C  
HETATM    8  H   UNL     1     -10.860  16.397  69.680  1.00  0.00     0.000 HD 
HETATM    9  O   UNL     1     -10.356  15.911  69.037  1.00  0.00    -0.208 OA 
ENDBRANCH   6   7
ENDBRANCH   5   6
BRANCH   5  10
HETATM   10  C   UNL     1     -11.801  13.802  67.073  1.00  0.00    -0.410 C  
BRANCH  10  11
HETATM   11  C   UNL     1     -11.699  12.615  68.048  1.00  0.00    -0.350 C  
HETATM   12  O   UNL     1     -10.977  12.996  69.216  1.00  0.00    -0.400 OA 
HETATM   13  H   UNL     1     -10.915  12.264  69.817  1.00  0.00     0.000 HD 
ENDBRANCH  10  11
ENDBRANCH   5  10
ENDBRANCH   4   5
ENDBRANCH   2   4
TORSDOF 6
ENDMDL
MODEL       34
REMARK 921   NORMALIZED FREE ENERGY PREDICTED BY IDOCK:   -3.20 KCAL/MOL
REMARK 922        TOTAL FREE ENERGY PREDICTED BY IDOCK:   -4.80 KCAL/MOL
REMARK 923 INTER-LIGAND FREE ENERGY PREDICTED BY IDOCK:   -4.57 KCAL/MOL
REMARK 924 INTRA-LIGAND FREE ENERGY PREDICTED BY IDOCK:   -0.23 KCAL/MOL
REMARK 927      BINDING AFFINITY PREDICTED BY RF-SCORE:    0.00 PKD
ROOT
HETATM    1  O   UNL     1     -12.794  15.011  69.781  1.00  0.00    -0.596 OA 
HETATM    2  C   UNL     1     -11.939  15.777  68.932  1.00  0.00    -0.252 C  
HETATM    3  H   UNL     1     -13.171  15.586  70.436  1.00  0.00     0.000 HD 
ENDROOT
BRANCH   2   4
HETATM    4  C   UNL     1     -11.328  14.846  67.870  1.00  0.00    -0.327 C  
BRANCH   4   5
HETATM    5  N   UNL     1     -12.146  13.672  67.459  1.00  0.00    -0.355 NA 
BRANCH   5   6
HETATM    6  C   UNL     1     -12.528  13.808  66.022  1.00  0.00    -0.445 C  
BRANCH   6   7
HETATM    7  C   UNL     1     -12.187  12.603  65.125  1.00  0.00    -0.481 C  
HETATM    8  H   UNL     1     -13.032  11.608  63.651  1.00  0.00     0.000 HD 
HETATM    9  O   UNL     1     -13.242  12.351  64.205  1.00  0.00    -0.761 OA 
ENDBRANCH   6   7
ENDBRANCH   5   6
BRANCH   5  10
HETATM   10  C   UNL     1     -11.354  12.421  67.657  1.00  0.00    -0.312 C  
BRANCH  10  11
HETATM   11  C   UNL     1     -11.573  11.718  69.009  1.00  0.00    -0.311 C  
HETATM   12  O   UNL     1     -12.652  10.793  68.915  1.00  0.00    -0.735 OA 
HETATM   13  H   UNL     1     -12.786  10.359  69.750  1.00  0.00     0.000 HD 
ENDBRANCH  10  11
ENDBRANCH   5  10
ENDBRANCH   4   5
ENDBRANCH   2   4
TORSDOF 6
ENDMDL
MODEL       35
REMARK 921   NORMALIZED FREE ENERGY PREDICTED BY IDOCK:   -3.18 KCAL/MOL
REMARK 922        TOTAL FREE ENERGY PREDICTED BY IDOCK:   -4.79 KCAL/MOL
REMARK 923 INTER-LIGAND FREE ENERGY PREDICTED BY IDOCK:   -4.54 KCAL/MOL
REMARK 924 INTRA-LIGAND FREE ENERGY PREDICTED BY IDOCK:   -0.25 KCAL/MOL
REMARK 927      BINDING AFFINITY PREDICTED BY RF-SCORE:    0.00 PKD
ROOT
HETATM    1  O   UNL     1     -10.634  17.728  65.210  1.00  0.00    -0.651 OA 
HETATM    2  C   UNL     1     -10.509  16.378  65.658  1.00  0.00    -0.347 C  
HETATM    3  H   UNL     1     -10.253  18.304  65.862  1.00  0.00     0.000 HD 
ENDROOT
BRANCH   2   4
HETATM    4  C   UNL     1     -11.126  15.444  64.602  1.00  0.00    -0.347 C  
BRANCH   4   5
HETATM    5  N   UNL     1     -11.434  14.053  65.036  1.00  0.00    -0.330 NA 
BRANCH   5   6
HETATM    6  C   UNL     1     -10.813  13.085  64.084  1.00  0.00    -0.405 C  
BRANCH   6   7
HETATM    7  C   UNL     1     -11.673  11.855  63.732  1.00  0.00    -0.457 C  
HETATM    8  H   UNL     1     -13.570  11.465  63.379  1.00  0.00     0.000 HD 
HETATM    9  O   UNL     1     -13.040  12.224  63.596  1.00  0.00    -0.780 OA 
ENDBRANCH   6   7
ENDBRANCH   5   6
BRANCH   5  10
HETATM   10  C   UNL     1     -10.894  13.831  66.410  1.00  0.00    -0.287 C  
BRANCH  10  11
HETATM   11  C   UNL     1     -11.932  13.380  67.454  1.00  0.00    -0.346 C  
HETATM   12  O   UNL     1     -12.032  11.959  67.468  1.00  0.00    -0.586 OA 
HETATM   13  H   UNL     1     -12.673  11.682  68.113  1.00  0.00     0.000 HD 
ENDBRANCH  10  11
ENDBRANCH   5  10
ENDBRANCH   4   5
ENDBRANCH   2   4
TORSDOF 6
ENDMDL
MODEL       36
REMARK 921   NORMALIZED FREE ENERGY PREDICTED BY IDOCK:   -3.18 KCAL/MOL
REMARK 922        TOTAL FREE ENERGY PREDICTED BY IDOCK:   -4.78 KCAL/MOL
REMARK 923 INTER-LIGAND FREE ENERGY PREDICTED BY IDOCK:   -4.28 KCAL/MOL
REMARK 924 INTRA-LIGAND FREE ENERGY PREDICTED BY IDOCK:   -0.50 KCAL/MOL
REMARK 927      BINDING AFFINITY PREDICTED BY RF-SCORE:    0.00 PKD
ROOT
HETATM    1  O   UNL     1     -12.300  14.185  63.452  1.00  0.00    -1.109 OA 
HETATM    2  C   UNL     1     -12.124  15.447  64.096  1.00  0.00    -0.088 C  
HETATM    3  H   UNL     1     -13.012  14.257  62.827  1.00  0.00     0.000 HD 
ENDROOT
BRANCH   2   4
HETATM    4  C   UNL     1     -10.972  15.332  65.110  1.00  0.00    -0.416 C  
BRANCH   4   5
HETATM    5  N   UNL     1     -11.312  14.783  66.452  1.00  0.00    -0.348 NA 
BRANCH   5   6
HETATM    6  C   UNL     1     -10.648  13.458  66.631  1.00  0.00    -0.282 C  
BRANCH   6   7
HETATM    7  C   UNL     1     -11.596  12.245  66.723  1.00  0.00    -0.369 C  
HETATM    8  H   UNL     1     -13.020  11.434  65.633  1.00  0.00     0.000 HD 
HETATM    9  O   UNL     1     -12.436  12.181  65.577  1.00  0.00    -0.517 OA 
ENDBRANCH   6   7
ENDBRANCH   5   6
BRANCH   5  10
HETATM   10  C   UNL     1     -10.849  15.730  67.509  1.00  0.00    -0.315 C  
BRANCH  10  11
HETATM   11  C   UNL     1     -11.068  15.250  68.955  1.00  0.00    -0.260 C  
HETATM   12  O   UNL     1     -12.455  15.041  69.201  1.00  0.00    -0.575 OA 
HETATM   13  H   UNL     1     -12.590  14.745  70.094  1.00  0.00     0.000 HD 
ENDBRANCH  10  11
ENDBRANCH   5  10
ENDBRANCH   4   5
ENDBRANCH   2   4
TORSDOF 6
ENDMDL
MODEL       37
REMARK 921   NORMALIZED FREE ENERGY PREDICTED BY IDOCK:   -3.18 KCAL/MOL
REMARK 922        TOTAL FREE ENERGY PREDICTED BY IDOCK:   -4.77 KCAL/MOL
REMARK 923 INTER-LIGAND FREE ENERGY PREDICTED BY IDOCK:   -4.30 KCAL/MOL
REMARK 924 INTRA-LIGAND FREE ENERGY PREDICTED BY IDOCK:   -0.48 KCAL/MOL
REMARK 927      BINDING AFFINITY PREDICTED BY RF-SCORE:    0.00 PKD
ROOT
HETATM    1  O   UNL     1     -12.454  13.604  63.049  1.00  0.00    -1.020 OA 
HETATM    2  C   UNL     1     -11.316  13.099  63.746  1.00  0.00    -0.322 C  
HETATM    3  H   UNL     1     -12.160  14.204  62.374  1.00  0.00     0.000 HD 
ENDROOT
BRANCH   2   4
HETATM    4  C   UNL     1     -11.792  12.128  64.840  1.00  0.00    -0.302 C  
BRANCH   4   5
HETATM    5  N   UNL     1     -11.591  12.558  66.252  1.00  0.00    -0.374 NA 
BRANCH   5   6
HETATM    6  C   UNL     1     -10.631  11.633  66.924  1.00  0.00    -0.241 C  
BRANCH   6   7
HETATM    7  C   UNL     1     -11.238  10.707  67.996  1.00  0.00    -0.307 C  
HETATM    8  H   UNL     1     -12.745  10.749  69.262  1.00  0.00     0.000 HD 
HETATM    9  O   UNL     1     -12.370  11.320  68.601  1.00  0.00    -0.534 OA 
ENDBRANCH   6   7
ENDBRANCH   5   6
BRANCH   5  10
HETATM   10  C   UNL     1     -11.054  13.951  66.275  1.00  0.00    -0.304 C  
BRANCH  10  11
HETATM   11  C   UNL     1     -11.438  14.778  67.516  1.00  0.00    -0.354 C  
HETATM   12  O   UNL     1     -12.526  14.164  68.200  1.00  0.00    -0.541 OA 
HETATM   13  H   UNL     1     -12.763  14.674  68.965  1.00  0.00     0.000 HD 
ENDBRANCH  10  11
ENDBRANCH   5  10
ENDBRANCH   4   5
ENDBRANCH   2   4
TORSDOF 6
ENDMDL
MODEL       38
REMARK 921   NORMALIZED FREE ENERGY PREDICTED BY IDOCK:   -3.13 KCAL/MOL
REMARK 922        TOTAL FREE ENERGY PREDICTED BY IDOCK:   -4.71 KCAL/MOL
REMARK 923 INTER-LIGAND FREE ENERGY PREDICTED BY IDOCK:   -4.63 KCAL/MOL
REMARK 924 INTRA-LIGAND FREE ENERGY PREDICTED BY IDOCK:   -0.09 KCAL/MOL
REMARK 927      BINDING AFFINITY PREDICTED BY RF-SCORE:    0.00 PKD
ROOT
HETATM    1  O   UNL     1     -12.321  10.494  68.674  1.00  0.00    -0.785 OA 
HETATM    2  C   UNL     1     -11.503  11.395  67.929  1.00  0.00    -0.291 C  
HETATM    3  H   UNL     1     -12.109   9.604  68.418  1.00  0.00     0.000 HD 
ENDROOT
BRANCH   2   4
HETATM    4  C   UNL     1     -11.847  12.838  68.342  1.00  0.00    -0.310 C  
BRANCH   4   5
HETATM    5  N   UNL     1     -11.452  13.917  67.395  1.00  0.00    -0.329 NA 
BRANCH   5   6
HETATM    6  C   UNL     1     -12.234  13.782  66.130  1.00  0.00    -0.459 C  
BRANCH   6   7
HETATM    7  C   UNL     1     -11.601  14.431  64.884  1.00  0.00    -0.395 C  
HETATM    8  H   UNL     1     -12.188  15.011  63.097  1.00  0.00     0.000 HD 
HETATM    9  O   UNL     1     -12.578  14.611  63.865  1.00  0.00    -0.834 OA 
ENDBRANCH   6   7
ENDBRANCH   5   6
BRANCH   5  10
HETATM   10  C   UNL     1     -11.721  15.247  68.018  1.00  0.00    -0.251 C  
BRANCH  10  11
HETATM   11  C   UNL     1     -11.728  15.257  69.558  1.00  0.00    -0.339 C  
HETATM   12  O   UNL     1     -13.046  15.493  70.044  1.00  0.00    -0.632 OA 
HETATM   13  H   UNL     1     -13.050  15.498  70.994  1.00  0.00     0.000 HD 
ENDBRANCH  10  11
ENDBRANCH   5  10
ENDBRANCH   4   5
ENDBRANCH   2   4
TORSDOF 6
ENDMDL
MODEL       39
REMARK 921   NORMALIZED FREE ENERGY PREDICTED BY IDOCK:   -3.13 KCAL/MOL
REMARK 922        TOTAL FREE ENERGY PREDICTED BY IDOCK:   -4.71 KCAL/MOL
REMARK 923 INTER-LIGAND FREE ENERGY PREDICTED BY IDOCK:   -4.40 KCAL/MOL
REMARK 924 INTRA-LIGAND FREE ENERGY PREDICTED BY IDOCK:   -0.31 KCAL/MOL
REMARK 927      BINDING AFFINITY PREDICTED BY RF-SCORE:    0.00 PKD
ROOT
HETATM    1  O   UNL     1     -14.170   8.734  73.429  1.00  0.00    -1.173 OA 
HETATM    2  C   UNL     1     -14.029   8.714  72.009  1.00  0.00    -0.446 C  
HETATM    3  H   UNL     1     -14.881   8.154  73.675  1.00  0.00     0.000 HD 
ENDROOT
BRANCH   2   4
HETATM    4  C   UNL     1     -12.877   9.655  71.611  1.00  0.00    -0.405 C  
BRANCH   4   5
HETATM    5  N   UNL     1     -11.845   9.098  70.692  1.00  0.00    -0.228 NA 
BRANCH   5   6
HETATM    6  C   UNL     1     -10.866  10.166  70.335  1.00  0.00    -0.301 C  
BRANCH   6   7
HETATM    7  C   UNL     1     -10.856  10.592  68.854  1.00  0.00    -0.231 C  
HETATM    8  H   UNL     1     -12.113  11.392  67.567  1.00  0.00     0.000 HD 
HETATM    9  O   UNL     1     -12.119  11.129  68.481  1.00  0.00    -0.586 OA 
ENDBRANCH   6   7
ENDBRANCH   5   6
BRANCH   5  10
HETATM   10  C   UNL     1     -11.140   7.967  71.365  1.00  0.00    -0.243 C  
BRANCH  10  11
HETATM   11  C   UNL     1     -10.637   8.266  72.789  1.00  0.00    -0.251 C  
HETATM   12  O   UNL     1     -11.260   7.392  73.725  1.00  0.00    -0.530 OA 
HETATM   13  H   UNL     1     -10.949   7.577  74.604  1.00  0.00     0.000 HD 
ENDBRANCH  10  11
ENDBRANCH   5  10
ENDBRANCH   4   5
ENDBRANCH   2   4
TORSDOF 6
ENDMDL
MODEL       40
REMARK 921   NORMALIZED FREE ENERGY PREDICTED BY IDOCK:   -3.12 KCAL/MOL
REMARK 922        TOTAL FREE ENERGY PREDICTED BY IDOCK:   -4.70 KCAL/MOL
REMARK 923 INTER-LIGAND FREE ENERGY PREDICTED BY IDOCK:   -4.52 KCAL/MOL
REMARK 924 INTRA-LIGAND FREE ENERGY PREDICTED BY IDOCK:   -0.18 KCAL/MOL
REMARK 927      BINDING AFFINITY PREDICTED BY RF-SCORE:    0.00 PKD
ROOT
HETATM    1  O   UNL     1      -9.171  13.550  68.778  1.00  0.00    -0.381 OA 
HETATM    2  C   UNL     1     -10.331  14.364  68.609  1.00  0.00    -0.245 C  
HETATM    3  H   UNL     1      -8.593  13.966  69.406  1.00  0.00     0.000 HD 
ENDROOT
BRANCH   2   4
HETATM    4  C   UNL     1     -11.268  13.690  67.591  1.00  0.00    -0.279 C  
BRANCH   4   5
HETATM    5  N   UNL     1     -11.703  14.517  66.431  1.00  0.00    -0.376 NA 
BRANCH   5   6
HETATM    6  C   UNL     1     -10.503  15.040  65.713  1.00  0.00    -0.337 C  
BRANCH   6   7
HETATM    7  C   UNL     1     -10.392  16.575  65.634  1.00  0.00    -0.322 C  
HETATM    8  H   UNL     1      -8.976  17.935  65.784  1.00  0.00     0.000 HD 
HETATM    9  O   UNL     1      -9.045  16.988  65.833  1.00  0.00    -0.510 OA 
ENDBRANCH   6   7
ENDBRANCH   5   6
BRANCH   5  10
HETATM   10  C   UNL     1     -12.525  13.682  65.506  1.00  0.00    -0.503 C  
BRANCH  10  11
HETATM   11  C   UNL     1     -11.820  13.268  64.201  1.00  0.00    -0.443 C  
HETATM   12  O   UNL     1     -12.442  13.897  63.084  1.00  0.00    -1.121 OA 
HETATM   13  H   UNL     1     -12.006  13.642  62.279  1.00  0.00     0.000 HD 
ENDBRANCH  10  11
ENDBRANCH   5  10
ENDBRANCH   4   5
ENDBRANCH   2   4
TORSDOF 6
ENDMDL
MODEL       41
REMARK 921   NORMALIZED FREE ENERGY PREDICTED BY IDOCK:   -3.10 KCAL/MOL
REMARK 922        TOTAL FREE ENERGY PREDICTED BY IDOCK:   -4.67 KCAL/MOL
REMARK 923 INTER-LIGAND FREE ENERGY PREDICTED BY IDOCK:   -4.60 KCAL/MOL
REMARK 924 INTRA-LIGAND FREE ENERGY PREDICTED BY IDOCK:   -0.07 KCAL/MOL
REMARK 927      BINDING AFFINITY PREDICTED BY RF-SCORE:    0.00 PKD
ROOT
HETATM    1  O   UNL     1     -12.244  10.921  68.173  1.00  0.00    -0.781 OA 
HETATM    2  C   UNL     1     -11.366  11.393  67.151  1.00  0.00    -0.255 C  
HETATM    3  H   UNL     1     -11.989  10.038  68.413  1.00  0.00     0.000 HD 
ENDROOT
BRANCH   2   4
HETATM    4  C   UNL     1     -11.779  12.823  66.762  1.00  0.00    -0.392 C  
BRANCH   4   5
HETATM    5  N   UNL     1     -10.837  13.578  65.890  1.00  0.00    -0.274 NA 
BRANCH   5   6
HETATM    6  C   UNL     1     -11.605  14.525  65.028  1.00  0.00    -0.382 C  
BRANCH   6   7
HETATM    7  C   UNL     1     -11.027  15.951  64.926  1.00  0.00    -0.411 C  
HETATM    8  H   UNL     1     -11.262  17.531  63.777  1.00  0.00     0.000 HD 
HETATM    9  O   UNL     1     -11.618  16.652  63.839  1.00  0.00    -1.204 OA 
ENDBRANCH   6   7
ENDBRANCH   5   6
BRANCH   5  10
HETATM   10  C   UNL     1      -9.870  14.334  66.739  1.00  0.00    -0.270 C  
BRANCH  10  11
HETATM   11  C   UNL     1     -10.251  14.435  68.228  1.00  0.00    -0.241 C  
HETATM   12  O   UNL     1      -9.235  13.849  69.037  1.00  0.00    -0.394 OA 
HETATM   13  H   UNL     1      -9.470  13.912  69.956  1.00  0.00     0.000 HD 
ENDBRANCH  10  11
ENDBRANCH   5  10
ENDBRANCH   4   5
ENDBRANCH   2   4
TORSDOF 6
ENDMDL
MODEL       42
REMARK 921   NORMALIZED FREE ENERGY PREDICTED BY IDOCK:   -3.09 KCAL/MOL
REMARK 922        TOTAL FREE ENERGY PREDICTED BY IDOCK:   -4.66 KCAL/MOL
REMARK 923 INTER-LIGAND FREE ENERGY PREDICTED BY IDOCK:   -4.26 KCAL/MOL
REMARK 924 INTRA-LIGAND FREE ENERGY PREDICTED BY IDOCK:   -0.40 KCAL/MOL
REMARK 927      BINDING AFFINITY PREDICTED BY RF-SCORE:    0.00 PKD
ROOT
HETATM    1  O   UNL     1      -9.864  11.223  69.488  1.00  0.00    -0.413 OA 
HETATM    2  C   UNL     1     -11.142  11.228  68.852  1.00  0.00    -0.238 C  
HETATM    3  H   UNL     1      -9.970  11.494  70.392  1.00  0.00     0.000 HD 
ENDROOT
BRANCH   2   4
HETATM    4  C   UNL     1     -10.971  10.789  67.387  1.00  0.00    -0.300 C  
BRANCH   4   5
HETATM    5  N   UNL     1     -11.412  11.755  66.343  1.00  0.00    -0.435 NA 
BRANCH   5   6
HETATM    6  C   UNL     1     -11.710  13.074  66.977  1.00  0.00    -0.383 C  
BRANCH   6   7
HETATM    7  C   UNL     1     -11.874  14.258  66.005  1.00  0.00    -0.391 C  
HETATM    8  H   UNL     1     -13.107  14.792  64.567  1.00  0.00     0.000 HD 
HETATM    9  O   UNL     1     -13.006  14.062  65.166  1.00  0.00    -0.744 OA 
ENDBRANCH   6   7
ENDBRANCH   5   6
BRANCH   5  10
HETATM   10  C   UNL     1     -10.331  11.915  65.326  1.00  0.00    -0.276 C  
BRANCH  10  11
HETATM   11  C   UNL     1     -10.591  11.210  63.982  1.00  0.00    -0.368 C  
HETATM   12  O   UNL     1     -11.688  11.822  63.308  1.00  0.00    -0.714 OA 
HETATM   13  H   UNL     1     -11.848  11.387  62.479  1.00  0.00     0.000 HD 
ENDBRANCH  10  11
ENDBRANCH   5  10
ENDBRANCH   4   5
ENDBRANCH   2   4
TORSDOF 6
ENDMDL
MODEL       43
REMARK 921   NORMALIZED FREE ENERGY PREDICTED BY IDOCK:   -3.08 KCAL/MOL
REMARK 922        TOTAL FREE ENERGY PREDICTED BY IDOCK:   -4.64 KCAL/MOL
REMARK 923 INTER-LIGAND FREE ENERGY PREDICTED BY IDOCK:   -4.47 KCAL/MOL
REMARK 924 INTRA-LIGAND FREE ENERGY PREDICTED BY IDOCK:   -0.17 KCAL/MOL
REMARK 927      BINDING AFFINITY PREDICTED BY RF-SCORE:    0.00 PKD
ROOT
HETATM    1  O   UNL     1      -9.556  16.146  66.808  1.00  0.00    -0.225 OA 
HETATM    2  C   UNL     1     -10.795  15.528  66.459  1.00  0.00    -0.284 C  
HETATM    3  H   UNL     1      -9.665  16.609  67.630  1.00  0.00     0.000 HD 
ENDROOT
BRANCH   2   4
HETATM    4  C   UNL     1     -10.619  14.778  65.127  1.00  0.00    -0.417 C  
BRANCH   4   5
HETATM    5  N   UNL     1     -10.536  13.293  65.200  1.00  0.00    -0.316 NA 
BRANCH   5   6
HETATM    6  C   UNL     1     -11.550  12.784  66.172  1.00  0.00    -0.379 C  
BRANCH   6   7
HETATM    7  C   UNL     1     -11.066  11.663  67.112  1.00  0.00    -0.299 C  
HETATM    8  H   UNL     1     -11.795  10.613  68.609  1.00  0.00     0.000 HD 
HETATM    9  O   UNL     1     -12.093  11.304  68.030  1.00  0.00    -0.638 OA 
ENDBRANCH   6   7
ENDBRANCH   5   6
BRANCH   5  10
HETATM   10  C   UNL     1     -10.793  12.713  63.849  1.00  0.00    -0.429 C  
BRANCH  10  11
HETATM   11  C   UNL     1     -12.270  12.701  63.414  1.00  0.00    -0.517 C  
HETATM   12  O   UNL     1     -12.624  11.418  62.906  1.00  0.00    -0.970 OA 
HETATM   13  H   UNL     1     -13.535  11.411  62.638  1.00  0.00     0.000 HD 
ENDBRANCH  10  11
ENDBRANCH   5  10
ENDBRANCH   4   5
ENDBRANCH   2   4
TORSDOF 6
ENDMDL
MODEL       44
REMARK 921   NORMALIZED FREE ENERGY PREDICTED BY IDOCK:   -3.08 KCAL/MOL
REMARK 922        TOTAL FREE ENERGY PREDICTED BY IDOCK:   -4.64 KCAL/MOL
REMARK 923 INTER-LIGAND FREE ENERGY PREDICTED BY IDOCK:   -4.50 KCAL/MOL
REMARK 924 INTRA-LIGAND FREE ENERGY PREDICTED BY IDOCK:   -0.14 KCAL/MOL
REMARK 927      BINDING AFFINITY PREDICTED BY RF-SCORE:    0.00 PKD
ROOT
HETATM    1  O   UNL     1     -14.158   8.844  73.452  1.00  0.00    -1.256 OA 
HETATM    2  C   UNL     1     -13.908   9.103  72.071  1.00  0.00    -0.420 C  
HETATM    3  H   UNL     1     -15.053   8.541  73.550  1.00  0.00     0.000 HD 
ENDROOT
BRANCH   2   4
HETATM    4  C   UNL     1     -12.459   9.595  71.911  1.00  0.00    -0.377 C  
BRANCH   4   5
HETATM    5  N   UNL     1     -12.272  10.952  71.326  1.00  0.00    -0.325 NA 
BRANCH   5   6
HETATM    6  C   UNL     1     -12.594  10.916  69.869  1.00  0.00    -0.144 C  
BRANCH   6   7
HETATM    7  C   UNL     1     -11.400  11.128  68.918  1.00  0.00    -0.278 C  
HETATM    8  H   UNL     1     -11.088  11.895  67.132  1.00  0.00     0.000 HD 
HETATM    9  O   UNL     1     -11.825  11.764  67.718  1.00  0.00    -0.541 OA 
ENDBRANCH   6   7
ENDBRANCH   5   6
BRANCH   5  10
HETATM   10  C   UNL     1     -13.172  11.920  72.021  1.00  0.00    -0.356 C  
BRANCH  10  11
HETATM   11  C   UNL     1     -12.951  13.398  71.650  1.00  0.00    -0.355 C  
HETATM   12  O   UNL     1     -14.020  14.197  72.148  1.00  0.00    -0.450 OA 
HETATM   13  H   UNL     1     -13.883  15.108  71.919  1.00  0.00     0.000 HD 
ENDBRANCH  10  11
ENDBRANCH   5  10
ENDBRANCH   4   5
ENDBRANCH   2   4
TORSDOF 6
ENDMDL
MODEL       45
REMARK 921   NORMALIZED FREE ENERGY PREDICTED BY IDOCK:   -3.05 KCAL/MOL
REMARK 922        TOTAL FREE ENERGY PREDICTED BY IDOCK:   -4.60 KCAL/MOL
REMARK 923 INTER-LIGAND FREE ENERGY PREDICTED BY IDOCK:   -4.39 KCAL/MOL
REMARK 924 INTRA-LIGAND FREE ENERGY PREDICTED BY IDOCK:   -0.21 KCAL/MOL
REMARK 927      BINDING AFFINITY PREDICTED BY RF-SCORE:    0.00 PKD
ROOT
HETATM    1  O   UNL     1     -10.636  12.479  68.160  1.00  0.00    -0.212 OA 
HETATM    2  C   UNL     1     -11.715  12.647  67.240  1.00  0.00    -0.370 C  
HETATM    3  H   UNL     1     -10.488  11.550  68.293  1.00  0.00     0.000 HD 
ENDROOT
BRANCH   2   4
HETATM    4  C   UNL     1     -11.954  14.152  67.024  1.00  0.00    -0.439 C  
BRANCH   4   5
HETATM    5  N   UNL     1     -10.821  15.063  67.344  1.00  0.00    -0.298 NA 
BRANCH   5   6
HETATM    6  C   UNL     1     -10.351  15.733  66.095  1.00  0.00    -0.320 C  
BRANCH   6   7
HETATM    7  C   UNL     1     -11.206  15.475  64.839  1.00  0.00    -0.389 C  
HETATM    8  H   UNL     1     -11.830  16.496  63.275  1.00  0.00     0.000 HD 
HETATM    9  O   UNL     1     -11.303  16.655  64.050  1.00  0.00    -1.120 OA 
ENDBRANCH   6   7
ENDBRANCH   5   6
BRANCH   5  10
HETATM   10  C   UNL     1     -11.271  16.088  68.332  1.00  0.00    -0.364 C  
BRANCH  10  11
HETATM   11  C   UNL     1     -10.691  15.927  69.749  1.00  0.00    -0.324 C  
HETATM   12  O   UNL     1     -11.612  16.422  70.717  1.00  0.00    -0.552 OA 
HETATM   13  H   UNL     1     -11.254  16.322  71.592  1.00  0.00     0.000 HD 
ENDBRANCH  10  11
ENDBRANCH   5  10
ENDBRANCH   4   5
ENDBRANCH   2   4
TORSDOF 6
ENDMDL
MODEL       46
REMARK 921   NORMALIZED FREE ENERGY PREDICTED BY IDOCK:   -3.04 KCAL/MOL
REMARK 922        TOTAL FREE ENERGY PREDICTED BY IDOCK:   -4.59 KCAL/MOL
REMARK 923 INTER-LIGAND FREE ENERGY PREDICTED BY IDOCK:   -4.33 KCAL/MOL
REMARK 924 INTRA-LIGAND FREE ENERGY PREDICTED BY IDOCK:   -0.26 KCAL/MOL
REMARK 927      BINDING AFFINITY PREDICTED BY RF-SCORE:    0.00 PKD
ROOT
HETATM    1  O   UNL     1     -11.561   6.481  67.834  1.00  0.00    -0.623 OA 
HETATM    2  C   UNL     1     -10.823   6.908  68.978  1.00  0.00    -0.212 C  
HETATM    3  H   UNL     1     -11.199   6.899  67.062  1.00  0.00     0.000 HD 
ENDROOT
BRANCH   2   4
HETATM    4  C   UNL     1     -11.409   6.231  70.230  1.00  0.00    -0.388 C  
BRANCH   4   5
HETATM    5  N   UNL     1     -11.656   7.105  71.410  1.00  0.00    -0.269 NA 
BRANCH   5   6
HETATM    6  C   UNL     1     -10.939   8.402  71.230  1.00  0.00    -0.252 C  
BRANCH   6   7
HETATM    7  C   UNL     1      -9.709   8.614  72.135  1.00  0.00    -0.313 C  
HETATM    8  H   UNL     1      -9.112   8.049  73.924  1.00  0.00     0.000 HD 
HETATM    9  O   UNL     1      -9.870   7.919  73.366  1.00  0.00    -0.304 OA 
ENDBRANCH   6   7
ENDBRANCH   5   6
BRANCH   5  10
HETATM   10  C   UNL     1     -13.122   7.352  71.547  1.00  0.00    -0.374 C  
BRANCH  10  11
HETATM   11  C   UNL     1     -13.506   8.774  71.995  1.00  0.00    -0.418 C  
HETATM   12  O   UNL     1     -14.087   8.742  73.296  1.00  0.00    -1.180 OA 
HETATM   13  H   UNL     1     -14.323   9.619  73.572  1.00  0.00     0.000 HD 
ENDBRANCH  10  11
ENDBRANCH   5  10
ENDBRANCH   4   5
ENDBRANCH   2   4
TORSDOF 6
ENDMDL
MODEL       47
REMARK 921   NORMALIZED FREE ENERGY PREDICTED BY IDOCK:   -3.04 KCAL/MOL
REMARK 922        TOTAL FREE ENERGY PREDICTED BY IDOCK:   -4.58 KCAL/MOL
REMARK 923 INTER-LIGAND FREE ENERGY PREDICTED BY IDOCK:   -4.39 KCAL/MOL
REMARK 924 INTRA-LIGAND FREE ENERGY PREDICTED BY IDOCK:   -0.19 KCAL/MOL
REMARK 927      BINDING AFFINITY PREDICTED BY RF-SCORE:    0.00 PKD
ROOT
HETATM    1  O   UNL     1      -7.519  17.146  68.560  1.00  0.00    -0.215 OA 
HETATM    2  C   UNL     1      -7.539  16.739  67.193  1.00  0.00    -0.188 C  
HETATM    3  H   UNL     1      -7.042  16.498  69.066  1.00  0.00     0.000 HD 
ENDROOT
BRANCH   2   4
HETATM    4  C   UNL     1      -8.311  17.788  66.373  1.00  0.00    -0.248 C  
BRANCH   4   5
HETATM    5  N   UNL     1      -9.738  17.486  66.071  1.00  0.00    -0.516 NA 
BRANCH   5   6
HETATM    6  C   UNL     1      -9.889  16.029  65.780  1.00  0.00    -0.323 C  
BRANCH   6   7
HETATM    7  C   UNL     1     -11.113  15.644  64.927  1.00  0.00    -0.402 C  
HETATM    8  H   UNL     1     -12.182  16.446  63.482  1.00  0.00     0.000 HD 
HETATM    9  O   UNL     1     -11.427  16.683  64.008  1.00  0.00    -1.192 OA 
ENDBRANCH   6   7
ENDBRANCH   5   6
BRANCH   5  10
HETATM   10  C   UNL     1     -10.583  17.859  67.244  1.00  0.00    -0.332 C  
BRANCH  10  11
HETATM   11  C   UNL     1     -10.902  19.361  67.366  1.00  0.00    -0.440 C  
HETATM   12  O   UNL     1     -10.527  19.841  68.654  1.00  0.00    -0.534 OA 
HETATM   13  H   UNL     1     -10.723  20.768  68.729  1.00  0.00     0.000 HD 
ENDBRANCH  10  11
ENDBRANCH   5  10
ENDBRANCH   4   5
ENDBRANCH   2   4
TORSDOF 6
ENDMDL
MODEL       48
REMARK 921   NORMALIZED FREE ENERGY PREDICTED BY IDOCK:   -3.02 KCAL/MOL
REMARK 922        TOTAL FREE ENERGY PREDICTED BY IDOCK:   -4.56 KCAL/MOL
REMARK 923 INTER-LIGAND FREE ENERGY PREDICTED BY IDOCK:   -4.19 KCAL/MOL
REMARK 924 INTRA-LIGAND FREE ENERGY PREDICTED BY IDOCK:   -0.37 KCAL/MOL
REMARK 927      BINDING AFFINITY PREDICTED BY RF-SCORE:    0.00 PKD
ROOT
HETATM    1  O   UNL     1     -12.167  10.778  68.408  1.00  0.00    -0.832 OA 
HETATM    2  C   UNL     1     -11.225  10.803  67.336  1.00  0.00    -0.241 C  
HETATM    3  H   UNL     1     -12.375   9.874  68.613  1.00  0.00     0.000 HD 
ENDROOT
BRANCH   2   4
HETATM    4  C   UNL     1     -10.887  12.267  67.004  1.00  0.00    -0.250 C  
BRANCH   4   5
HETATM    5  N   UNL     1     -12.019  13.234  67.011  1.00  0.00    -0.380 NA 
BRANCH   5   6
HETATM    6  C   UNL     1     -11.582  14.510  67.650  1.00  0.00    -0.378 C  
BRANCH   6   7
HETATM    7  C   UNL     1     -11.971  14.680  69.132  1.00  0.00    -0.294 C  
HETATM    8  H   UNL     1     -12.392  13.516  70.662  1.00  0.00     0.000 HD 
HETATM    9  O   UNL     1     -12.152  13.411  69.749  1.00  0.00    -0.322 OA 
ENDBRANCH   6   7
ENDBRANCH   5   6
BRANCH   5  10
HETATM   10  C   UNL     1     -12.460  13.494  65.608  1.00  0.00    -0.479 C  
BRANCH  10  11
HETATM   11  C   UNL     1     -11.321  13.615  64.579  1.00  0.00    -0.375 C  
HETATM   12  O   UNL     1     -11.126  14.979  64.218  1.00  0.00    -0.635 OA 
HETATM   13  H   UNL     1     -10.423  15.054  63.583  1.00  0.00     0.000 HD 
ENDBRANCH  10  11
ENDBRANCH   5  10
ENDBRANCH   4   5
ENDBRANCH   2   4
TORSDOF 6
ENDMDL
MODEL       49
REMARK 921   NORMALIZED FREE ENERGY PREDICTED BY IDOCK:   -3.01 KCAL/MOL
REMARK 922        TOTAL FREE ENERGY PREDICTED BY IDOCK:   -4.55 KCAL/MOL
REMARK 923 INTER-LIGAND FREE ENERGY PREDICTED BY IDOCK:   -4.04 KCAL/MOL
REMARK 924 INTRA-LIGAND FREE ENERGY PREDICTED BY IDOCK:   -0.51 KCAL/MOL
REMARK 927      BINDING AFFINITY PREDICTED BY RF-SCORE:    0.00 PKD
ROOT
HETATM    1  O   UNL     1     -14.119   7.356  70.927  1.00  0.00    -0.615 OA 
HETATM    2  C   UNL     1     -14.391   8.468  71.781  1.00  0.00    -0.437 C  
HETATM    3  H   UNL     1     -14.942   6.969  70.656  1.00  0.00     0.000 HD 
ENDROOT
BRANCH   2   4
HETATM    4  C   UNL     1     -13.057   9.097  72.220  1.00  0.00    -0.438 C  
BRANCH   4   5
HETATM    5  N   UNL     1     -12.179   9.627  71.141  1.00  0.00    -0.330 NA 
BRANCH   5   6
HETATM    6  C   UNL     1     -12.315  11.113  71.071  1.00  0.00    -0.382 C  
BRANCH   6   7
HETATM    7  C   UNL     1     -11.834  11.765  69.761  1.00  0.00    -0.349 C  
HETATM    8  H   UNL     1     -11.860  11.343  67.838  1.00  0.00     0.000 HD 
HETATM    9  O   UNL     1     -12.156  10.941  68.646  1.00  0.00    -0.527 OA 
ENDBRANCH   6   7
ENDBRANCH   5   6
BRANCH   5  10
HETATM   10  C   UNL     1     -10.760   9.260  71.428  1.00  0.00    -0.362 C  
BRANCH  10  11
HETATM   11  C   UNL     1     -10.090   8.367  70.369  1.00  0.00    -0.187 C  
HETATM   12  O   UNL     1     -10.995   8.105  69.301  1.00  0.00    -0.415 OA 
HETATM   13  H   UNL     1     -10.581   7.554  68.647  1.00  0.00     0.000 HD 
ENDBRANCH  10  11
ENDBRANCH   5  10
ENDBRANCH   4   5
ENDBRANCH   2   4
TORSDOF 6
ENDMDL
MODEL       50
REMARK 921   NORMALIZED FREE ENERGY PREDICTED BY IDOCK:   -2.99 KCAL/MOL
REMARK 922        TOTAL FREE ENERGY PREDICTED BY IDOCK:   -4.53 KCAL/MOL
REMARK 923 INTER-LIGAND FREE ENERGY PREDICTED BY IDOCK:   -4.30 KCAL/MOL
REMARK 924 INTRA-LIGAND FREE ENERGY PREDICTED BY IDOCK:   -0.23 KCAL/MOL
REMARK 927      BINDING AFFINITY PREDICTED BY RF-SCORE:    0.00 PKD
ROOT
HETATM    1  O   UNL     1     -12.316  14.419  68.808  1.00  0.00    -0.568 OA 
HETATM    2  C   UNL     1     -11.091  13.960  68.238  1.00  0.00    -0.258 C  
HETATM    3  H   UNL     1     -12.247  14.381  69.754  1.00  0.00     0.000 HD 
ENDROOT
BRANCH   2   4
HETATM    4  C   UNL     1     -11.201  14.021  66.704  1.00  0.00    -0.323 C  
BRANCH   4   5
HETATM    5  N   UNL     1     -11.104  12.727  65.973  1.00  0.00    -0.278 NA 
BRANCH   5   6
HETATM    6  C   UNL     1     -11.133  11.599  66.950  1.00  0.00    -0.308 C  
BRANCH   6   7
HETATM    7  C   UNL     1     -10.206  10.412  66.623  1.00  0.00    -0.234 C  
HETATM    8  H   UNL     1      -8.720  10.030  65.389  1.00  0.00     0.000 HD 
HETATM    9  O   UNL     1      -9.292  10.762  65.591  1.00  0.00    -0.189 OA 
ENDBRANCH   6   7
ENDBRANCH   5   6
BRANCH   5  10
HETATM   10  C   UNL     1     -12.250  12.606  65.024  1.00  0.00    -0.476 C  
BRANCH  10  11
HETATM   11  C   UNL     1     -11.952  13.049  63.580  1.00  0.00    -0.539 C  
HETATM   12  O   UNL     1     -12.517  14.333  63.332  1.00  0.00    -1.125 OA 
HETATM   13  H   UNL     1     -12.332  14.606  62.441  1.00  0.00     0.000 HD 
ENDBRANCH  10  11
ENDBRANCH   5  10
ENDBRANCH   4   5
ENDBRANCH   2   4
TORSDOF 6
ENDMDL
MODEL       51
REMARK 921   NORMALIZED FREE ENERGY PREDICTED BY IDOCK:   -2.99 KCAL/MOL
REMARK 922        TOTAL FREE ENERGY PREDICTED BY IDOCK:   -4.52 KCAL/MOL
REMARK 923 INTER-LIGAND FREE ENERGY PREDICTED BY IDOCK:   -3.98 KCAL/MOL
REMARK 924 INTRA-LIGAND FREE ENERGY PREDICTED BY IDOCK:   -0.54 KCAL/MOL
REMARK 927      BINDING AFFINITY PREDICTED BY RF-SCORE:    0.00 PKD
ROOT
HETATM    1  O   UNL     1      -8.410  13.763  68.167  1.00  0.00    -0.147 OA 
HETATM    2  C   UNL     1      -9.356  13.396  67.163  1.00  0.00    -0.240 C  
HETATM    3  H   UNL     1      -7.533  13.644  67.820  1.00  0.00     0.000 HD 
ENDROOT
BRANCH   2   4
HETATM    4  C   UNL     1     -10.776  13.589  67.724  1.00  0.00    -0.252 C  
BRANCH   4   5
HETATM    5  N   UNL     1     -11.524  14.788  67.255  1.00  0.00    -0.361 NA 
BRANCH   5   6
HETATM    6  C   UNL     1     -11.468  15.852  68.301  1.00  0.00    -0.320 C  
BRANCH   6   7
HETATM    7  C   UNL     1     -10.415  16.954  68.075  1.00  0.00    -0.347 C  
HETATM    8  H   UNL     1      -8.538  17.288  68.566  1.00  0.00     0.000 HD 
HETATM    9  O   UNL     1      -9.188  16.608  68.706  1.00  0.00    -0.238 OA 
ENDBRANCH   6   7
ENDBRANCH   5   6
BRANCH   5  10
HETATM   10  C   UNL     1     -10.915  15.290  65.988  1.00  0.00    -0.317 C  
BRANCH  10  11
HETATM   11  C   UNL     1     -11.745  15.032  64.717  1.00  0.00    -0.370 C  
HETATM   12  O   UNL     1     -11.610  16.121  63.810  1.00  0.00    -1.390 OA 
HETATM   13  H   UNL     1     -12.122  15.961  63.026  1.00  0.00     0.000 HD 
ENDBRANCH  10  11
ENDBRANCH   5  10
ENDBRANCH   4   5
ENDBRANCH   2   4
TORSDOF 6
ENDMDL
MODEL       52
REMARK 921   NORMALIZED FREE ENERGY PREDICTED BY IDOCK:   -2.98 KCAL/MOL
REMARK 922        TOTAL FREE ENERGY PREDICTED BY IDOCK:   -4.51 KCAL/MOL
REMARK 923 INTER-LIGAND FREE ENERGY PREDICTED BY IDOCK:   -4.02 KCAL/MOL
REMARK 924 INTRA-LIGAND FREE ENERGY PREDICTED BY IDOCK:   -0.48 KCAL/MOL
REMARK 927      BINDING AFFINITY PREDICTED BY RF-SCORE:    0.00 PKD
ROOT
HETATM    1  O   UNL     1     -11.184  16.785  69.343  1.00  0.00    -0.294 OA 
HETATM    2  C   UNL     1     -10.253  17.345  68.417  1.00  0.00    -0.362 C  
HETATM    3  H   UNL     1     -11.463  17.464  69.945  1.00  0.00     0.000 HD 
ENDROOT
BRANCH   2   4
HETATM    4  C   UNL     1      -9.801  16.245  67.440  1.00  0.00    -0.242 C  
BRANCH   4   5
HETATM    5  N   UNL     1     -10.865  15.363  66.884  1.00  0.00    -0.316 NA 
BRANCH   5   6
HETATM    6  C   UNL     1     -10.878  15.474  65.395  1.00  0.00    -0.390 C  
BRANCH   6   7
HETATM    7  C   UNL     1     -11.678  14.385  64.654  1.00  0.00    -0.430 C  
HETATM    8  H   UNL     1     -13.255  14.294  63.479  1.00  0.00     0.000 HD 
HETATM    9  O   UNL     1     -12.761  14.965  63.936  1.00  0.00    -0.789 OA 
ENDBRANCH   6   7
ENDBRANCH   5   6
BRANCH   5  10
HETATM   10  C   UNL     1     -10.600  13.950  67.287  1.00  0.00    -0.276 C  
BRANCH  10  11
HETATM   11  C   UNL     1     -11.579  13.374  68.326  1.00  0.00    -0.344 C  
HETATM   12  O   UNL     1     -12.489  14.381  68.758  1.00  0.00    -0.582 OA 
HETATM   13  H   UNL     1     -13.093  14.025  69.399  1.00  0.00     0.000 HD 
ENDBRANCH  10  11
ENDBRANCH   5  10
ENDBRANCH   4   5
ENDBRANCH   2   4
TORSDOF 6
ENDMDL
MODEL       53
REMARK 921   NORMALIZED FREE ENERGY PREDICTED BY IDOCK:   -2.98 KCAL/MOL
REMARK 922        TOTAL FREE ENERGY PREDICTED BY IDOCK:   -4.51 KCAL/MOL
REMARK 923 INTER-LIGAND FREE ENERGY PREDICTED BY IDOCK:   -4.24 KCAL/MOL
REMARK 924 INTRA-LIGAND FREE ENERGY PREDICTED BY IDOCK:   -0.27 KCAL/MOL
REMARK 927      BINDING AFFINITY PREDICTED BY RF-SCORE:    0.00 PKD
ROOT
HETATM    1  O   UNL     1     -11.568  16.449  63.918  1.00  0.00    -1.564 OA 
HETATM    2  C   UNL     1     -11.775  15.213  64.601  1.00  0.00    -0.348 C  
HETATM    3  H   UNL     1     -11.985  16.403  63.066  1.00  0.00     0.000 HD 
ENDROOT
BRANCH   2   4
HETATM    4  C   UNL     1     -11.100  15.288  65.982  1.00  0.00    -0.278 C  
BRANCH   4   5
HETATM    5  N   UNL     1      -9.627  15.503  65.996  1.00  0.00    -0.320 NA 
BRANCH   5   6
HETATM    6  C   UNL     1      -9.318  16.799  66.671  1.00  0.00    -0.254 C  
BRANCH   6   7
HETATM    7  C   UNL     1     -10.525  17.532  67.289  1.00  0.00    -0.327 C  
HETATM    8  H   UNL     1     -11.116  18.095  69.080  1.00  0.00     0.000 HD 
HETATM    9  O   UNL     1     -10.372  17.643  68.699  1.00  0.00    -0.355 OA 
ENDBRANCH   6   7
ENDBRANCH   5   6
BRANCH   5  10
HETATM   10  C   UNL     1      -8.967  14.381  66.728  1.00  0.00    -0.233 C  
BRANCH  10  11
HETATM   11  C   UNL     1      -9.426  14.194  68.185  1.00  0.00    -0.213 C  
HETATM   12  O   UNL     1      -8.322  13.825  69.006  1.00  0.00    -0.346 OA 
HETATM   13  H   UNL     1      -8.605  13.710  69.906  1.00  0.00     0.000 HD 
ENDBRANCH  10  11
ENDBRANCH   5  10
ENDBRANCH   4   5
ENDBRANCH   2   4
TORSDOF 6
ENDMDL
MODEL       54
REMARK 921   NORMALIZED FREE ENERGY PREDICTED BY IDOCK:   -2.96 KCAL/MOL
REMARK 922        TOTAL FREE ENERGY PREDICTED BY IDOCK:   -4.49 KCAL/MOL
REMARK 923 INTER-LIGAND FREE ENERGY PREDICTED BY IDOCK:   -4.04 KCAL/MOL
REMARK 924 INTRA-LIGAND FREE ENERGY PREDICTED BY IDOCK:   -0.45 KCAL/MOL
REMARK 927      BINDING AFFINITY PREDICTED BY RF-SCORE:    0.00 PKD
ROOT
HETATM    1  O   UNL     1     -12.520  14.113  68.205  1.00  0.00    -0.541 OA 
HETATM    2  C   UNL     1     -11.354  14.865  68.542  1.00  0.00    -0.298 C  
HETATM    3  H   UNL     1     -13.203  14.306  68.835  1.00  0.00     0.000 HD 
ENDROOT
BRANCH   2   4
HETATM    4  C   UNL     1     -10.246  14.552  67.521  1.00  0.00    -0.232 C  
BRANCH   4   5
HETATM    5  N   UNL     1     -10.274  15.322  66.247  1.00  0.00    -0.272 NA 
BRANCH   5   6
HETATM    6  C   UNL     1      -8.920  15.893  65.980  1.00  0.00    -0.302 C  
BRANCH   6   7
HETATM    7  C   UNL     1      -8.638  17.265  66.624  1.00  0.00    -0.257 C  
HETATM    8  H   UNL     1      -7.957  19.021  66.052  1.00  0.00     0.000 HD 
HETATM    9  O   UNL     1      -8.131  18.176  65.655  1.00  0.00    -0.488 OA 
ENDBRANCH   6   7
ENDBRANCH   5   6
BRANCH   5  10
HETATM   10  C   UNL     1     -10.673  14.418  65.128  1.00  0.00    -0.398 C  
BRANCH  10  11
HETATM   11  C   UNL     1     -12.081  14.668  64.558  1.00  0.00    -0.475 C  
HETATM   12  O   UNL     1     -13.041  13.877  65.252  1.00  0.00    -0.777 OA 
HETATM   13  H   UNL     1     -13.910  14.032  64.901  1.00  0.00     0.000 HD 
ENDBRANCH  10  11
ENDBRANCH   5  10
ENDBRANCH   4   5
ENDBRANCH   2   4
TORSDOF 6
ENDMDL
MODEL       55
REMARK 921   NORMALIZED FREE ENERGY PREDICTED BY IDOCK:   -2.93 KCAL/MOL
REMARK 922        TOTAL FREE ENERGY PREDICTED BY IDOCK:   -4.44 KCAL/MOL
REMARK 923 INTER-LIGAND FREE ENERGY PREDICTED BY IDOCK:   -4.11 KCAL/MOL
REMARK 924 INTRA-LIGAND FREE ENERGY PREDICTED BY IDOCK:   -0.33 KCAL/MOL
REMARK 927      BINDING AFFINITY PREDICTED BY RF-SCORE:    0.00 PKD
ROOT
HETATM    1  O   UNL     1     -12.186  14.095  67.886  1.00  0.00    -0.543 OA 
HETATM    2  C   UNL     1     -11.883  13.176  66.837  1.00  0.00    -0.386 C  
HETATM    3  H   UNL     1     -11.725  13.827  68.672  1.00  0.00     0.000 HD 
ENDROOT
BRANCH   2   4
HETATM    4  C   UNL     1     -12.631  13.610  65.563  1.00  0.00    -0.496 C  
BRANCH   4   5
HETATM    5  N   UNL     1     -11.795  14.076  64.422  1.00  0.00    -0.426 NA 
BRANCH   5   6
HETATM    6  C   UNL     1     -11.489  15.529  64.588  1.00  0.00    -0.324 C  
BRANCH   6   7
HETATM    7  C   UNL     1     -10.259  15.856  65.457  1.00  0.00    -0.365 C  
HETATM    8  H   UNL     1      -9.888  16.789  67.150  1.00  0.00     0.000 HD 
HETATM    9  O   UNL     1     -10.647  16.587  66.614  1.00  0.00    -0.291 OA 
ENDBRANCH   6   7
ENDBRANCH   5   6
BRANCH   5  10
HETATM   10  C   UNL     1     -10.525  13.292  64.384  1.00  0.00    -0.404 C  
BRANCH  10  11
HETATM   11  C   UNL     1     -10.516  12.114  63.393  1.00  0.00    -0.412 C  
HETATM   12  O   UNL     1      -9.235  11.489  63.381  1.00  0.00    -0.462 OA 
HETATM   13  H   UNL     1      -9.230  10.762  62.770  1.00  0.00     0.000 HD 
ENDBRANCH  10  11
ENDBRANCH   5  10
ENDBRANCH   4   5
ENDBRANCH   2   4
TORSDOF 6
ENDMDL
MODEL       56
REMARK 921   NORMALIZED FREE ENERGY PREDICTED BY IDOCK:   -2.93 KCAL/MOL
REMARK 922        TOTAL FREE ENERGY PREDICTED BY IDOCK:   -4.44 KCAL/MOL
REMARK 923 INTER-LIGAND FREE ENERGY PREDICTED BY IDOCK:   -3.96 KCAL/MOL
REMARK 924 INTRA-LIGAND FREE ENERGY PREDICTED BY IDOCK:   -0.48 KCAL/MOL
REMARK 927      BINDING AFFINITY PREDICTED BY RF-SCORE:    0.00 PKD
ROOT
HETATM    1  O   UNL     1     -14.159   8.797  73.210  1.00  0.00    -1.180 OA 
HETATM    2  C   UNL     1     -14.079   8.602  71.798  1.00  0.00    -0.429 C  
HETATM    3  H   UNL     1     -14.510   9.663  73.380  1.00  0.00     0.000 HD 
ENDROOT
BRANCH   2   4
HETATM    4  C   UNL     1     -13.511   7.199  71.521  1.00  0.00    -0.332 C  
BRANCH   4   5
HETATM    5  N   UNL     1     -12.028   7.078  71.454  1.00  0.00    -0.319 NA 
BRANCH   5   6
HETATM    6  C   UNL     1     -11.556   6.128  72.505  1.00  0.00    -0.250 C  
BRANCH   6   7
HETATM    7  C   UNL     1     -10.628   6.729  73.579  1.00  0.00    -0.332 C  
HETATM    8  H   UNL     1      -9.591   8.382  73.836  1.00  0.00     0.000 HD 
HETATM    9  O   UNL     1     -10.163   8.012  73.174  1.00  0.00    -0.322 OA 
ENDBRANCH   6   7
ENDBRANCH   5   6
BRANCH   5  10
HETATM   10  C   UNL     1     -11.630   6.580  70.104  1.00  0.00    -0.402 C  
BRANCH  10  11
HETATM   11  C   UNL     1     -10.528   7.399  69.406  1.00  0.00    -0.217 C  
HETATM   12  O   UNL     1      -9.669   7.995  70.373  1.00  0.00    -0.177 OA 
HETATM   13  H   UNL     1      -8.989   8.500  69.941  1.00  0.00     0.000 HD 
ENDBRANCH  10  11
ENDBRANCH   5  10
ENDBRANCH   4   5
ENDBRANCH   2   4
TORSDOF 6
ENDMDL
MODEL       57
REMARK 921   NORMALIZED FREE ENERGY PREDICTED BY IDOCK:   -2.92 KCAL/MOL
REMARK 922        TOTAL FREE ENERGY PREDICTED BY IDOCK:   -4.42 KCAL/MOL
REMARK 923 INTER-LIGAND FREE ENERGY PREDICTED BY IDOCK:   -4.21 KCAL/MOL
REMARK 924 INTRA-LIGAND FREE ENERGY PREDICTED BY IDOCK:   -0.21 KCAL/MOL
REMARK 927      BINDING AFFINITY PREDICTED BY RF-SCORE:    0.00 PKD
ROOT
HETATM    1  O   UNL     1     -10.987  13.722  69.883  1.00  0.00    -0.458 OA 
HETATM    2  C   UNL     1     -11.766  13.771  68.688  1.00  0.00    -0.356 C  
HETATM    3  H   UNL     1     -11.193  14.482  70.415  1.00  0.00     0.000 HD 
ENDROOT
BRANCH   2   4
HETATM    4  C   UNL     1     -11.433  12.541  67.826  1.00  0.00    -0.321 C  
BRANCH   4   5
HETATM    5  N   UNL     1     -12.022  12.502  66.458  1.00  0.00    -0.576 NA 
BRANCH   5   6
HETATM    6  C   UNL     1     -12.219  13.895  65.960  1.00  0.00    -0.462 C  
BRANCH   6   7
HETATM    7  C   UNL     1     -11.705  14.171  64.533  1.00  0.00    -0.413 C  
HETATM    8  H   UNL     1     -12.460  14.728  62.803  1.00  0.00     0.000 HD 
HETATM    9  O   UNL     1     -12.777  14.558  63.682  1.00  0.00    -0.754 OA 
ENDBRANCH   6   7
ENDBRANCH   5   6
BRANCH   5  10
HETATM   10  C   UNL     1     -11.106  11.760  65.543  1.00  0.00    -0.280 C  
BRANCH  10  11
HETATM   11  C   UNL     1      -9.848  11.175  66.212  1.00  0.00    -0.214 C  
HETATM   12  O   UNL     1      -8.698  11.437  65.414  1.00  0.00    -0.378 OA 
HETATM   13  H   UNL     1      -7.922  11.076  65.827  1.00  0.00     0.000 HD 
ENDBRANCH  10  11
ENDBRANCH   5  10
ENDBRANCH   4   5
ENDBRANCH   2   4
TORSDOF 6
ENDMDL
MODEL       58
REMARK 921   NORMALIZED FREE ENERGY PREDICTED BY IDOCK:   -2.91 KCAL/MOL
REMARK 922        TOTAL FREE ENERGY PREDICTED BY IDOCK:   -4.41 KCAL/MOL
REMARK 923 INTER-LIGAND FREE ENERGY PREDICTED BY IDOCK:   -3.89 KCAL/MOL
REMARK 924 INTRA-LIGAND FREE ENERGY PREDICTED BY IDOCK:   -0.53 KCAL/MOL
REMARK 927      BINDING AFFINITY PREDICTED BY RF-SCORE:    0.00 PKD
ROOT
HETATM    1  O   UNL     1     -12.622  14.421  64.430  1.00  0.00    -0.668 OA 
HETATM    2  C   UNL     1     -12.422  13.265  65.244  1.00  0.00    -0.489 C  
HETATM    3  H   UNL     1     -12.796  14.143  63.539  1.00  0.00     0.000 HD 
ENDROOT
BRANCH   2   4
HETATM    4  C   UNL     1     -12.141  13.716  66.688  1.00  0.00    -0.411 C  
BRANCH   4   5
HETATM    5  N   UNL     1     -10.789  14.276  66.963  1.00  0.00    -0.293 NA 
BRANCH   5   6
HETATM    6  C   UNL     1     -10.914  15.711  67.359  1.00  0.00    -0.293 C  
BRANCH   6   7
HETATM    7  C   UNL     1     -10.307  16.729  66.373  1.00  0.00    -0.306 C  
HETATM    8  H   UNL     1     -10.030  16.875  64.430  1.00  0.00     0.000 HD 
HETATM    9  O   UNL     1     -10.404  16.248  65.037  1.00  0.00    -0.593 OA 
ENDBRANCH   6   7
ENDBRANCH   5   6
BRANCH   5  10
HETATM   10  C   UNL     1     -10.144  13.501  68.064  1.00  0.00    -0.244 C  
BRANCH  10  11
HETATM   11  C   UNL     1      -8.782  12.876  67.711  1.00  0.00    -0.188 C  
HETATM   12  O   UNL     1      -8.200  13.556  66.602  1.00  0.00    -0.401 OA 
HETATM   13  H   UNL     1      -7.359  13.171  66.385  1.00  0.00     0.000 HD 
ENDBRANCH  10  11
ENDBRANCH   5  10
ENDBRANCH   4   5
ENDBRANCH   2   4
TORSDOF 6
ENDMDL
MODEL       59
REMARK 921   NORMALIZED FREE ENERGY PREDICTED BY IDOCK:   -2.91 KCAL/MOL
REMARK 922        TOTAL FREE ENERGY PREDICTED BY IDOCK:   -4.41 KCAL/MOL
REMARK 923 INTER-LIGAND FREE ENERGY PREDICTED BY IDOCK:   -4.22 KCAL/MOL
REMARK 924 INTRA-LIGAND FREE ENERGY PREDICTED BY IDOCK:   -0.19 KCAL/MOL
REMARK 927      BINDING AFFINITY PREDICTED BY RF-SCORE:    0.00 PKD
ROOT
HETATM    1  O   UNL     1     -12.232  10.609  68.677  1.00  0.00    -0.814 OA 
HETATM    2  C   UNL     1     -11.065  10.030  69.259  1.00  0.00    -0.206 C  
HETATM    3  H   UNL     1     -12.097  10.698  67.741  1.00  0.00     0.000 HD 
ENDROOT
BRANCH   2   4
HETATM    4  C   UNL     1     -11.284   9.886  70.776  1.00  0.00    -0.353 C  
BRANCH   4   5
HETATM    5  N   UNL     1     -11.007   8.547  71.368  1.00  0.00    -0.248 NA 
BRANCH   5   6
HETATM    6  C   UNL     1      -9.719   8.591  72.121  1.00  0.00    -0.317 C  
BRANCH   6   7
HETATM    7  C   UNL     1      -8.562   7.776  71.511  1.00  0.00    -0.117 C  
HETATM    8  H   UNL     1      -6.898   8.136  70.524  1.00  0.00     0.000 HD 
HETATM    9  O   UNL     1      -7.611   8.639  70.900  1.00  0.00    -0.070 OA 
ENDBRANCH   6   7
ENDBRANCH   5   6
BRANCH   5  10
HETATM   10  C   UNL     1     -12.121   8.171  72.288  1.00  0.00    -0.364 C  
BRANCH  10  11
HETATM   11  C   UNL     1     -13.348   9.099  72.240  1.00  0.00    -0.477 C  
HETATM   12  O   UNL     1     -14.142   8.927  73.410  1.00  0.00    -1.256 OA 
HETATM   13  H   UNL     1     -14.899   9.501  73.380  1.00  0.00     0.000 HD 
ENDBRANCH  10  11
ENDBRANCH   5  10
ENDBRANCH   4   5
ENDBRANCH   2   4
TORSDOF 6
ENDMDL
MODEL       60
REMARK 921   NORMALIZED FREE ENERGY PREDICTED BY IDOCK:   -2.90 KCAL/MOL
REMARK 922        TOTAL FREE ENERGY PREDICTED BY IDOCK:   -4.40 KCAL/MOL
REMARK 923 INTER-LIGAND FREE ENERGY PREDICTED BY IDOCK:   -4.24 KCAL/MOL
REMARK 924 INTRA-LIGAND FREE ENERGY PREDICTED BY IDOCK:   -0.17 KCAL/MOL
REMARK 927      BINDING AFFINITY PREDICTED BY RF-SCORE:    0.00 PKD
ROOT
HETATM    1  O   UNL     1     -10.510  18.247  65.598  1.00  0.00    -0.627 OA 
HETATM    2  C   UNL     1     -10.202  16.912  65.997  1.00  0.00    -0.336 C  
HETATM    3  H   UNL     1     -10.207  18.846  66.270  1.00  0.00     0.000 HD 
ENDROOT
BRANCH   2   4
HETATM    4  C   UNL     1     -10.693  15.941  64.909  1.00  0.00    -0.341 C  
BRANCH   4   5
HETATM    5  N   UNL     1     -10.570  14.487  65.204  1.00  0.00    -0.383 NA 
BRANCH   5   6
HETATM    6  C   UNL     1     -10.444  14.285  66.678  1.00  0.00    -0.278 C  
BRANCH   6   7
HETATM    7  C   UNL     1     -11.365  13.209  67.285  1.00  0.00    -0.306 C  
HETATM    8  H   UNL     1     -12.806  13.123  68.623  1.00  0.00     0.000 HD 
HETATM    9  O   UNL     1     -12.238  13.786  68.249  1.00  0.00    -0.335 OA 
ENDBRANCH   6   7
ENDBRANCH   5   6
BRANCH   5  10
HETATM   10  C   UNL     1     -11.779  13.772  64.696  1.00  0.00    -0.395 C  
BRANCH  10  11
HETATM   11  C   UNL     1     -11.521  12.805  63.526  1.00  0.00    -0.459 C  
HETATM   12  O   UNL     1     -12.738  12.182  63.125  1.00  0.00    -0.780 OA 
HETATM   13  H   UNL     1     -12.579  11.585  62.403  1.00  0.00     0.000 HD 
ENDBRANCH  10  11
ENDBRANCH   5  10
ENDBRANCH   4   5
ENDBRANCH   2   4
TORSDOF 6
ENDMDL
MODEL       61
REMARK 921   NORMALIZED FREE ENERGY PREDICTED BY IDOCK:   -2.90 KCAL/MOL
REMARK 922        TOTAL FREE ENERGY PREDICTED BY IDOCK:   -4.40 KCAL/MOL
REMARK 923 INTER-LIGAND FREE ENERGY PREDICTED BY IDOCK:   -4.24 KCAL/MOL
REMARK 924 INTRA-LIGAND FREE ENERGY PREDICTED BY IDOCK:   -0.15 KCAL/MOL
REMARK 927      BINDING AFFINITY PREDICTED BY RF-SCORE:    0.00 PKD
ROOT
HETATM    1  O   UNL     1     -10.443  19.677  69.103  1.00  0.00    -0.570 OA 
HETATM    2  C   UNL     1     -10.162  19.819  67.711  1.00  0.00    -0.437 C  
HETATM    3  H   UNL     1     -10.306  20.513  69.531  1.00  0.00     0.000 HD 
ENDROOT
BRANCH   2   4
HETATM    4  C   UNL     1     -10.385  18.464  67.016  1.00  0.00    -0.393 C  
BRANCH   4   5
HETATM    5  N   UNL     1      -9.438  18.107  65.924  1.00  0.00    -0.498 NA 
BRANCH   5   6
HETATM    6  C   UNL     1      -8.035  18.259  66.411  1.00  0.00    -0.261 C  
BRANCH   6   7
HETATM    7  C   UNL     1      -7.560  17.192  67.417  1.00  0.00    -0.167 C  
HETATM    8  H   UNL     1      -7.430  17.000  69.371  1.00  0.00     0.000 HD 
HETATM    9  O   UNL     1      -7.722  17.658  68.752  1.00  0.00    -0.267 OA 
ENDBRANCH   6   7
ENDBRANCH   5   6
BRANCH   5  10
HETATM   10  C   UNL     1      -9.678  16.696  65.499  1.00  0.00     0.104 C  
BRANCH  10  11
HETATM   11  C   UNL     1     -11.153  16.331  65.253  1.00  0.00    -0.151 C  
HETATM   12  O   UNL     1     -11.519  16.636  63.911  1.00  0.00    -1.604 OA 
HETATM   13  H   UNL     1     -12.429  16.410  63.759  1.00  0.00     0.000 HD 
ENDBRANCH  10  11
ENDBRANCH   5  10
ENDBRANCH   4   5
ENDBRANCH   2   4
TORSDOF 6
ENDMDL
MODEL       62
REMARK 921   NORMALIZED FREE ENERGY PREDICTED BY IDOCK:   -2.89 KCAL/MOL
REMARK 922        TOTAL FREE ENERGY PREDICTED BY IDOCK:   -4.38 KCAL/MOL
REMARK 923 INTER-LIGAND FREE ENERGY PREDICTED BY IDOCK:   -3.98 KCAL/MOL
REMARK 924 INTRA-LIGAND FREE ENERGY PREDICTED BY IDOCK:   -0.41 KCAL/MOL
REMARK 927      BINDING AFFINITY PREDICTED BY RF-SCORE:    0.00 PKD
ROOT
HETATM    1  O   UNL     1     -14.002   8.752  73.212  1.00  0.00    -1.160 OA 
HETATM    2  C   UNL     1     -13.907   9.278  71.888  1.00  0.00    -0.349 C  
HETATM    3  H   UNL     1     -14.906   8.512  73.382  1.00  0.00     0.000 HD 
ENDROOT
BRANCH   2   4
HETATM    4  C   UNL     1     -12.443   9.667  71.612  1.00  0.00    -0.407 C  
BRANCH   4   5
HETATM    5  N   UNL     1     -11.525   8.569  71.202  1.00  0.00    -0.269 NA 
BRANCH   5   6
HETATM    6  C   UNL     1     -10.625   9.052  70.113  1.00  0.00    -0.224 C  
BRANCH   6   7
HETATM    7  C   UNL     1     -10.180   7.984  69.094  1.00  0.00    -0.217 C  
HETATM    8  H   UNL     1     -10.335   7.676  67.156  1.00  0.00     0.000 HD 
HETATM    9  O   UNL     1     -10.610   8.335  67.784  1.00  0.00    -0.227 OA 
ENDBRANCH   6   7
ENDBRANCH   5   6
BRANCH   5  10
HETATM   10  C   UNL     1     -10.712   8.136  72.377  1.00  0.00    -0.334 C  
BRANCH  10  11
HETATM   11  C   UNL     1     -10.993   6.706  72.873  1.00  0.00    -0.253 C  
HETATM   12  O   UNL     1     -12.290   6.286  72.459  1.00  0.00    -0.539 OA 
HETATM   13  H   UNL     1     -12.462   5.404  72.765  1.00  0.00     0.000 HD 
ENDBRANCH  10  11
ENDBRANCH   5  10
ENDBRANCH   4   5
ENDBRANCH   2   4
TORSDOF 6
ENDMDL
MODEL       63
REMARK 921   NORMALIZED FREE ENERGY PREDICTED BY IDOCK:   -2.86 KCAL/MOL
REMARK 922        TOTAL FREE ENERGY PREDICTED BY IDOCK:   -4.35 KCAL/MOL
REMARK 923 INTER-LIGAND FREE ENERGY PREDICTED BY IDOCK:   -3.84 KCAL/MOL
REMARK 924 INTRA-LIGAND FREE ENERGY PREDICTED BY IDOCK:   -0.51 KCAL/MOL
REMARK 927      BINDING AFFINITY PREDICTED BY RF-SCORE:    0.00 PKD
ROOT
HETATM    1  O   UNL     1     -10.923  18.313  65.165  1.00  0.00    -0.628 OA 
HETATM    2  C   UNL     1     -10.593  19.558  65.780  1.00  0.00    -0.427 C  
HETATM    3  H   UNL     1     -10.864  18.411  64.222  1.00  0.00     0.000 HD 
ENDROOT
BRANCH   2   4
HETATM    4  C   UNL     1     -10.688  19.399  67.308  1.00  0.00    -0.490 C  
BRANCH   4   5
HETATM    5  N   UNL     1      -9.425  19.077  68.028  1.00  0.00    -0.307 NA 
BRANCH   5   6
HETATM    6  C   UNL     1      -9.402  17.624  68.370  1.00  0.00    -0.289 C  
BRANCH   6   7
HETATM    7  C   UNL     1     -10.767  16.909  68.328  1.00  0.00    -0.377 C  
HETATM    8  H   UNL     1     -11.676  15.588  67.187  1.00  0.00     0.000 HD 
HETATM    9  O   UNL     1     -10.835  16.029  67.212  1.00  0.00    -0.313 OA 
ENDBRANCH   6   7
ENDBRANCH   5   6
BRANCH   5  10
HETATM   10  C   UNL     1      -8.258  19.412  67.158  1.00  0.00    -0.271 C  
BRANCH  10  11
HETATM   11  C   UNL     1      -7.336  18.227  66.820  1.00  0.00    -0.212 C  
HETATM   12  O   UNL     1      -7.072  18.191  65.420  1.00  0.00    -0.523 OA 
HETATM   13  H   UNL     1      -6.502  17.460  65.212  1.00  0.00     0.000 HD 
ENDBRANCH  10  11
ENDBRANCH   5  10
ENDBRANCH   4   5
ENDBRANCH   2   4
TORSDOF 6
ENDMDL
MODEL       64
REMARK 921   NORMALIZED FREE ENERGY PREDICTED BY IDOCK:   -2.86 KCAL/MOL
REMARK 922        TOTAL FREE ENERGY PREDICTED BY IDOCK:   -4.34 KCAL/MOL
REMARK 923 INTER-LIGAND FREE ENERGY PREDICTED BY IDOCK:   -4.20 KCAL/MOL
REMARK 924 INTRA-LIGAND FREE ENERGY PREDICTED BY IDOCK:   -0.15 KCAL/MOL
REMARK 927      BINDING AFFINITY PREDICTED BY RF-SCORE:    0.00 PKD
ROOT
HETATM    1  O   UNL     1      -8.077  17.894  68.391  1.00  0.00    -0.282 OA 
HETATM    2  C   UNL     1      -8.756  16.648  68.540  1.00  0.00    -0.242 C  
HETATM    3  H   UNL     1      -7.142  17.745  68.461  1.00  0.00     0.000 HD 
ENDROOT
BRANCH   2   4
HETATM    4  C   UNL     1     -10.272  16.890  68.427  1.00  0.00    -0.322 C  
BRANCH   4   5
HETATM    5  N   UNL     1     -11.035  15.959  67.550  1.00  0.00    -0.310 NA 
BRANCH   5   6
HETATM    6  C   UNL     1     -10.189  15.564  66.385  1.00  0.00    -0.289 C  
BRANCH   6   7
HETATM    7  C   UNL     1     -10.897  15.566  65.017  1.00  0.00    -0.450 C  
HETATM    8  H   UNL     1     -11.496  16.899  63.697  1.00  0.00     0.000 HD 
HETATM    9  O   UNL     1     -11.059  16.897  64.541  1.00  0.00    -1.054 OA 
ENDBRANCH   6   7
ENDBRANCH   5   6
BRANCH   5  10
HETATM   10  C   UNL     1     -11.423  14.747  68.331  1.00  0.00    -0.314 C  
BRANCH  10  11
HETATM   11  C   UNL     1     -11.693  14.993  69.826  1.00  0.00    -0.307 C  
HETATM   12  O   UNL     1     -13.093  15.107  70.062  1.00  0.00    -0.626 OA 
HETATM   13  H   UNL     1     -13.260  15.258  70.985  1.00  0.00     0.000 HD 
ENDBRANCH  10  11
ENDBRANCH   5  10
ENDBRANCH   4   5
ENDBRANCH   2   4
TORSDOF 6
ENDMDL
MODEL       65
REMARK 921   NORMALIZED FREE ENERGY PREDICTED BY IDOCK:   -2.85 KCAL/MOL
REMARK 922        TOTAL FREE ENERGY PREDICTED BY IDOCK:   -4.33 KCAL/MOL
REMARK 923 INTER-LIGAND FREE ENERGY PREDICTED BY IDOCK:   -4.13 KCAL/MOL
REMARK 924 INTRA-LIGAND FREE ENERGY PREDICTED BY IDOCK:   -0.20 KCAL/MOL
REMARK 927      BINDING AFFINITY PREDICTED BY RF-SCORE:    0.00 PKD
ROOT
HETATM    1  O   UNL     1     -10.882  17.290  68.248  1.00  0.00    -0.365 OA 
HETATM    2  C   UNL     1     -11.190  15.991  68.753  1.00  0.00    -0.360 C  
HETATM    3  H   UNL     1     -10.814  17.243  67.301  1.00  0.00     0.000 HD 
ENDROOT
BRANCH   2   4
HETATM    4  C   UNL     1     -11.300  16.066  70.286  1.00  0.00    -0.382 C  
BRANCH   4   5
HETATM    5  N   UNL     1     -12.039  14.963  70.960  1.00  0.00    -0.299 NA 
BRANCH   5   6
HETATM    6  C   UNL     1     -13.413  15.428  71.316  1.00  0.00    -0.519 C  
BRANCH   6   7
HETATM    7  C   UNL     1     -13.679  15.626  72.821  1.00  0.00    -0.578 C  
HETATM    8  H   UNL     1     -12.950  14.956  74.522  1.00  0.00     0.000 HD 
HETATM    9  O   UNL     1     -12.786  14.833  73.594  1.00  0.00    -0.519 OA 
ENDBRANCH   6   7
ENDBRANCH   5   6
BRANCH   5  10
HETATM   10  C   UNL     1     -12.124  13.788  70.042  1.00  0.00    -0.349 C  
BRANCH  10  11
HETATM   11  C   UNL     1     -12.427  12.445  70.730  1.00  0.00    -0.267 C  
HETATM   12  O   UNL     1     -11.454  11.471  70.361  1.00  0.00    -0.495 OA 
HETATM   13  H   UNL     1     -11.641  10.642  70.786  1.00  0.00     0.000 HD 
ENDBRANCH  10  11
ENDBRANCH   5  10
ENDBRANCH   4   5
ENDBRANCH   2   4
TORSDOF 6
ENDMDL
MODEL       66
REMARK 921   NORMALIZED FREE ENERGY PREDICTED BY IDOCK:   -2.84 KCAL/MOL
REMARK 922        TOTAL FREE ENERGY PREDICTED BY IDOCK:   -4.32 KCAL/MOL
REMARK 923 INTER-LIGAND FREE ENERGY PREDICTED BY IDOCK:   -4.16 KCAL/MOL
REMARK 924 INTRA-LIGAND FREE ENERGY PREDICTED BY IDOCK:   -0.16 KCAL/MOL
REMARK 927      BINDING AFFINITY PREDICTED BY RF-SCORE:    0.00 PKD
ROOT
HETATM    1  O   UNL     1     -10.589  15.147  70.503  1.00  0.00    -0.492 OA 
HETATM    2  C   UNL     1     -11.796  15.044  69.749  1.00  0.00    -0.321 C  
HETATM    3  H   UNL     1     -10.714  14.720  71.343  1.00  0.00     0.000 HD 
ENDROOT
BRANCH   2   4
HETATM    4  C   UNL     1     -11.594  15.735  68.389  1.00  0.00    -0.338 C  
BRANCH   4   5
HETATM    5  N   UNL     1     -11.792  14.894  67.175  1.00  0.00    -0.291 NA 
BRANCH   5   6
HETATM    6  C   UNL     1     -10.658  15.110  66.228  1.00  0.00    -0.310 C  
BRANCH   6   7
HETATM    7  C   UNL     1     -10.412  16.572  65.806  1.00  0.00    -0.329 C  
HETATM    8  H   UNL     1     -10.922  17.755  64.318  1.00  0.00     0.000 HD 
HETATM    9  O   UNL     1     -11.074  16.854  64.578  1.00  0.00    -1.054 OA 
ENDBRANCH   6   7
ENDBRANCH   5   6
BRANCH   5  10
HETATM   10  C   UNL     1     -11.856  13.456  67.571  1.00  0.00    -0.366 C  
BRANCH  10  11
HETATM   11  C   UNL     1     -11.508  12.456  66.454  1.00  0.00    -0.373 C  
HETATM   12  O   UNL     1     -11.046  11.231  67.015  1.00  0.00    -0.286 OA 
HETATM   13  H   UNL     1     -10.832  10.614  66.325  1.00  0.00     0.000 HD 
ENDBRANCH  10  11
ENDBRANCH   5  10
ENDBRANCH   4   5
ENDBRANCH   2   4
TORSDOF 6
ENDMDL
MODEL       67
REMARK 921   NORMALIZED FREE ENERGY PREDICTED BY IDOCK:   -2.84 KCAL/MOL
REMARK 922        TOTAL FREE ENERGY PREDICTED BY IDOCK:   -4.32 KCAL/MOL
REMARK 923 INTER-LIGAND FREE ENERGY PREDICTED BY IDOCK:   -4.05 KCAL/MOL
REMARK 924 INTRA-LIGAND FREE ENERGY PREDICTED BY IDOCK:   -0.27 KCAL/MOL
REMARK 927      BINDING AFFINITY PREDICTED BY RF-SCORE:    0.00 PKD
ROOT
HETATM    1  O   UNL     1     -12.204  10.916  68.414  1.00  0.00    -0.813 OA 
HETATM    2  C   UNL     1     -11.600  12.113  67.926  1.00  0.00    -0.347 C  
HETATM    3  H   UNL     1     -12.668  11.112  69.219  1.00  0.00     0.000 HD 
ENDROOT
BRANCH   2   4
HETATM    4  C   UNL     1     -10.849  11.796  66.621  1.00  0.00    -0.276 C  
BRANCH   4   5
HETATM    5  N   UNL     1     -10.046  12.900  66.024  1.00  0.00    -0.281 NA 
BRANCH   5   6
HETATM    6  C   UNL     1     -10.611  13.263  64.690  1.00  0.00    -0.404 C  
BRANCH   6   7
HETATM    7  C   UNL     1     -11.775  14.273  64.713  1.00  0.00    -0.415 C  
HETATM    8  H   UNL     1     -13.742  14.216  64.686  1.00  0.00     0.000 HD 
HETATM    9  O   UNL     1     -13.025  13.594  64.672  1.00  0.00    -0.661 OA 
ENDBRANCH   6   7
ENDBRANCH   5   6
BRANCH   5  10
HETATM   10  C   UNL     1     -10.082  14.086  66.931  1.00  0.00    -0.259 C  
BRANCH  10  11
HETATM   11  C   UNL     1      -8.798  14.934  66.946  1.00  0.00    -0.258 C  
HETATM   12  O   UNL     1      -8.907  16.012  66.021  1.00  0.00    -0.333 OA 
HETATM   13  H   UNL     1      -8.115  16.536  66.031  1.00  0.00     0.000 HD 
ENDBRANCH  10  11
ENDBRANCH   5  10
ENDBRANCH   4   5
ENDBRANCH   2   4
TORSDOF 6
ENDMDL
MODEL       68
REMARK 921   NORMALIZED FREE ENERGY PREDICTED BY IDOCK:   -2.84 KCAL/MOL
REMARK 922        TOTAL FREE ENERGY PREDICTED BY IDOCK:   -4.32 KCAL/MOL
REMARK 923 INTER-LIGAND FREE ENERGY PREDICTED BY IDOCK:   -4.08 KCAL/MOL
REMARK 924 INTRA-LIGAND FREE ENERGY PREDICTED BY IDOCK:   -0.24 KCAL/MOL
REMARK 927      BINDING AFFINITY PREDICTED BY RF-SCORE:    0.00 PKD
ROOT
HETATM    1  O   UNL     1     -14.026  15.483  70.729  1.00  0.00    -0.874 OA 
HETATM    2  C   UNL     1     -13.437  14.260  71.171  1.00  0.00    -0.273 C  
HETATM    3  H   UNL     1     -14.800  15.656  71.251  1.00  0.00     0.000 HD 
ENDROOT
BRANCH   2   4
HETATM    4  C   UNL     1     -12.181  13.979  70.326  1.00  0.00    -0.361 C  
BRANCH   4   5
HETATM    5  N   UNL     1     -12.329  14.094  68.849  1.00  0.00    -0.207 NA 
BRANCH   5   6
HETATM    6  C   UNL     1     -11.523  15.250  68.355  1.00  0.00    -0.345 C  
BRANCH   6   7
HETATM    7  C   UNL     1     -10.550  15.868  69.379  1.00  0.00    -0.263 C  
HETATM    8  H   UNL     1      -9.914  17.665  69.871  1.00  0.00     0.000 HD 
HETATM    9  O   UNL     1     -10.514  17.284  69.240  1.00  0.00    -0.338 OA 
ENDBRANCH   6   7
ENDBRANCH   5   6
BRANCH   5  10
HETATM   10  C   UNL     1     -11.857  12.834  68.202  1.00  0.00    -0.324 C  
BRANCH  10  11
HETATM   11  C   UNL     1     -11.540  11.681  69.174  1.00  0.00    -0.314 C  
HETATM   12  O   UNL     1     -12.528  10.661  69.067  1.00  0.00    -0.777 OA 
HETATM   13  H   UNL     1     -12.332   9.950  69.666  1.00  0.00     0.000 HD 
ENDBRANCH  10  11
ENDBRANCH   5  10
ENDBRANCH   4   5
ENDBRANCH   2   4
TORSDOF 6
ENDMDL
MODEL       69
REMARK 921   NORMALIZED FREE ENERGY PREDICTED BY IDOCK:   -2.84 KCAL/MOL
REMARK 922        TOTAL FREE ENERGY PREDICTED BY IDOCK:   -4.31 KCAL/MOL
REMARK 923 INTER-LIGAND FREE ENERGY PREDICTED BY IDOCK:   -4.13 KCAL/MOL
REMARK 924 INTRA-LIGAND FREE ENERGY PREDICTED BY IDOCK:   -0.18 KCAL/MOL
REMARK 927      BINDING AFFINITY PREDICTED BY RF-SCORE:    0.00 PKD
ROOT
HETATM    1  O   UNL     1      -8.418  11.638  65.869  1.00  0.00    -0.371 OA 
HETATM    2  C   UNL     1      -9.625  11.304  66.555  1.00  0.00    -0.191 C  
HETATM    3  H   UNL     1      -7.999  10.836  65.579  1.00  0.00     0.000 HD 
ENDROOT
BRANCH   2   4
HETATM    4  C   UNL     1     -10.305  12.603  67.025  1.00  0.00    -0.232 C  
BRANCH   4   5
HETATM    5  N   UNL     1     -11.696  12.840  66.547  1.00  0.00    -0.382 NA 
BRANCH   5   6
HETATM    6  C   UNL     1     -12.154  14.189  66.995  1.00  0.00    -0.414 C  
BRANCH   6   7
HETATM    7  C   UNL     1     -11.146  14.986  67.846  1.00  0.00    -0.307 C  
HETATM    8  H   UNL     1     -11.205  16.289  69.320  1.00  0.00     0.000 HD 
HETATM    9  O   UNL     1     -11.827  15.798  68.795  1.00  0.00    -0.387 OA 
ENDBRANCH   6   7
ENDBRANCH   5   6
BRANCH   5  10
HETATM   10  C   UNL     1     -11.730  12.761  65.057  1.00  0.00    -0.354 C  
BRANCH  10  11
HETATM   11  C   UNL     1     -12.179  14.051  64.346  1.00  0.00    -0.426 C  
HETATM   12  O   UNL     1     -12.534  13.771  62.995  1.00  0.00    -1.068 OA 
HETATM   13  H   UNL     1     -12.812  14.567  62.557  1.00  0.00     0.000 HD 
ENDBRANCH  10  11
ENDBRANCH   5  10
ENDBRANCH   4   5
ENDBRANCH   2   4
TORSDOF 6
ENDMDL
MODEL       70
REMARK 921   NORMALIZED FREE ENERGY PREDICTED BY IDOCK:   -2.83 KCAL/MOL
REMARK 922        TOTAL FREE ENERGY PREDICTED BY IDOCK:   -4.30 KCAL/MOL
REMARK 923 INTER-LIGAND FREE ENERGY PREDICTED BY IDOCK:   -4.12 KCAL/MOL
REMARK 924 INTRA-LIGAND FREE ENERGY PREDICTED BY IDOCK:   -0.18 KCAL/MOL
REMARK 927      BINDING AFFINITY PREDICTED BY RF-SCORE:    0.00 PKD
ROOT
HETATM    1  O   UNL     1     -14.160   8.872  73.386  1.00  0.00    -1.256 OA 
HETATM    2  C   UNL     1     -13.927   8.540  72.017  1.00  0.00    -0.433 C  
HETATM    3  H   UNL     1     -15.087   8.777  73.571  1.00  0.00     0.000 HD 
ENDROOT
BRANCH   2   4
HETATM    4  C   UNL     1     -12.425   8.693  71.717  1.00  0.00    -0.346 C  
BRANCH   4   5
HETATM    5  N   UNL     1     -11.569   7.498  71.956  1.00  0.00    -0.276 NA 
BRANCH   5   6
HETATM    6  C   UNL     1     -10.837   7.150  70.702  1.00  0.00    -0.245 C  
BRANCH   6   7
HETATM    7  C   UNL     1     -11.474   6.039  69.845  1.00  0.00    -0.155 C  
HETATM    8  H   UNL     1     -11.794   5.685  67.935  1.00  0.00     0.000 HD 
HETATM    9  O   UNL     1     -11.401   6.370  68.463  1.00  0.00    -0.303 OA 
ENDBRANCH   6   7
ENDBRANCH   5   6
BRANCH   5  10
HETATM   10  C   UNL     1     -10.595   7.794  73.047  1.00  0.00    -0.379 C  
BRANCH  10  11
HETATM   11  C   UNL     1     -10.138   6.571  73.864  1.00  0.00    -0.308 C  
HETATM   12  O   UNL     1     -11.087   5.516  73.743  1.00  0.00    -0.420 OA 
HETATM   13  H   UNL     1     -10.805   4.761  74.247  1.00  0.00     0.000 HD 
ENDBRANCH  10  11
ENDBRANCH   5  10
ENDBRANCH   4   5
ENDBRANCH   2   4
TORSDOF 6
ENDMDL
MODEL       71
REMARK 921   NORMALIZED FREE ENERGY PREDICTED BY IDOCK:   -2.83 KCAL/MOL
REMARK 922        TOTAL FREE ENERGY PREDICTED BY IDOCK:   -4.30 KCAL/MOL
REMARK 923 INTER-LIGAND FREE ENERGY PREDICTED BY IDOCK:   -4.08 KCAL/MOL
REMARK 924 INTRA-LIGAND FREE ENERGY PREDICTED BY IDOCK:   -0.22 KCAL/MOL
REMARK 927      BINDING AFFINITY PREDICTED BY RF-SCORE:    0.00 PKD
ROOT
HETATM    1  O   UNL     1     -12.409  10.697  68.575  1.00  0.00    -0.814 OA 
HETATM    2  C   UNL     1     -11.219  10.655  67.787  1.00  0.00    -0.313 C  
HETATM    3  H   UNL     1     -12.533   9.851  68.988  1.00  0.00     0.000 HD 
ENDROOT
BRANCH   2   4
HETATM    4  C   UNL     1     -11.016  12.026  67.119  1.00  0.00    -0.270 C  
BRANCH   4   5
HETATM    5  N   UNL     1     -10.256  12.041  65.838  1.00  0.00    -0.226 NA 
BRANCH   5   6
HETATM    6  C   UNL     1     -10.283  10.679  65.226  1.00  0.00    -0.282 C  
BRANCH   6   7
HETATM    7  C   UNL     1      -9.964  10.619  63.720  1.00  0.00    -0.317 C  
HETATM    8  H   UNL     1      -8.749   9.623  62.534  1.00  0.00     0.000 HD 
HETATM    9  O   UNL     1      -8.945   9.659  63.463  1.00  0.00    -0.234 OA 
ENDBRANCH   6   7
ENDBRANCH   5   6
BRANCH   5  10
HETATM   10  C   UNL     1     -10.875  13.028  64.904  1.00  0.00    -0.323 C  
BRANCH  10  11
HETATM   11  C   UNL     1     -12.339  13.389  65.213  1.00  0.00    -0.469 C  
HETATM   12  O   UNL     1     -13.220  12.497  64.536  1.00  0.00    -0.832 OA 
HETATM   13  H   UNL     1     -14.124  12.719  64.727  1.00  0.00     0.000 HD 
ENDBRANCH  10  11
ENDBRANCH   5  10
ENDBRANCH   4   5
ENDBRANCH   2   4
TORSDOF 6
ENDMDL
MODEL       72
REMARK 921   NORMALIZED FREE ENERGY PREDICTED BY IDOCK:   -2.82 KCAL/MOL
REMARK 922        TOTAL FREE ENERGY PREDICTED BY IDOCK:   -4.30 KCAL/MOL
REMARK 923 INTER-LIGAND FREE ENERGY PREDICTED BY IDOCK:   -3.83 KCAL/MOL
REMARK 924 INTRA-LIGAND FREE ENERGY PREDICTED BY IDOCK:   -0.47 KCAL/MOL
REMARK 927      BINDING AFFINITY PREDICTED BY RF-SCORE:    0.00 PKD
ROOT
HETATM    1  O   UNL     1     -10.426  15.047  69.069  1.00  0.00    -0.229 OA 
HETATM    2  C   UNL     1     -11.133  15.594  67.956  1.00  0.00    -0.335 C  
HETATM    3  H   UNL     1      -9.903  15.732  69.467  1.00  0.00     0.000 HD 
ENDROOT
BRANCH   2   4
HETATM    4  C   UNL     1     -11.982  14.484  67.311  1.00  0.00    -0.344 C  
BRANCH   4   5
HETATM    5  N   UNL     1     -11.242  13.367  66.660  1.00  0.00    -0.302 NA 
BRANCH   5   6
HETATM    6  C   UNL     1     -11.438  12.113  67.447  1.00  0.00    -0.345 C  
BRANCH   6   7
HETATM    7  C   UNL     1     -10.161  11.506  68.060  1.00  0.00    -0.186 C  
HETATM    8  H   UNL     1      -8.342  12.108  68.513  1.00  0.00     0.000 HD 
HETATM    9  O   UNL     1      -9.129  12.483  68.134  1.00  0.00    -0.196 OA 
ENDBRANCH   6   7
ENDBRANCH   5   6
BRANCH   5  10
HETATM   10  C   UNL     1     -11.749  13.178  65.269  1.00  0.00    -0.344 C  
BRANCH  10  11
HETATM   11  C   UNL     1     -12.003  14.479  64.485  1.00  0.00    -0.468 C  
HETATM   12  O   UNL     1     -12.558  14.184  63.207  1.00  0.00    -1.080 OA 
HETATM   13  H   UNL     1     -12.714  14.986  62.723  1.00  0.00     0.000 HD 
ENDBRANCH  10  11
ENDBRANCH   5  10
ENDBRANCH   4   5
ENDBRANCH   2   4
TORSDOF 6
ENDMDL
MODEL       73
REMARK 921   NORMALIZED FREE ENERGY PREDICTED BY IDOCK:   -2.82 KCAL/MOL
REMARK 922        TOTAL FREE ENERGY PREDICTED BY IDOCK:   -4.29 KCAL/MOL
REMARK 923 INTER-LIGAND FREE ENERGY PREDICTED BY IDOCK:   -4.13 KCAL/MOL
REMARK 924 INTRA-LIGAND FREE ENERGY PREDICTED BY IDOCK:   -0.17 KCAL/MOL
REMARK 927      BINDING AFFINITY PREDICTED BY RF-SCORE:    0.00 PKD
ROOT
HETATM    1  O   UNL     1      -6.767  18.447  68.362  1.00  0.00    -0.217 OA 
HETATM    2  C   UNL     1      -7.956  19.238  68.350  1.00  0.00    -0.341 C  
HETATM    3  H   UNL     1      -6.284  18.631  69.159  1.00  0.00     0.000 HD 
ENDROOT
BRANCH   2   4
HETATM    4  C   UNL     1      -8.739  18.941  67.059  1.00  0.00    -0.294 C  
BRANCH   4   5
HETATM    5  N   UNL     1      -9.567  17.703  67.048  1.00  0.00    -0.267 NA 
BRANCH   5   6
HETATM    6  C   UNL     1     -10.309  17.587  68.339  1.00  0.00    -0.378 C  
BRANCH   6   7
HETATM    7  C   UNL     1     -10.261  16.202  69.011  1.00  0.00    -0.250 C  
HETATM    8  H   UNL     1     -11.419  15.116  70.175  1.00  0.00     0.000 HD 
HETATM    9  O   UNL     1     -11.448  15.970  69.761  1.00  0.00    -0.318 OA 
ENDBRANCH   6   7
ENDBRANCH   5   6
BRANCH   5  10
HETATM   10  C   UNL     1     -10.533  17.762  65.911  1.00  0.00    -0.251 C  
BRANCH  10  11
HETATM   11  C   UNL     1     -10.770  16.424  65.187  1.00  0.00    -0.291 C  
HETATM   12  O   UNL     1     -11.480  16.641  63.971  1.00  0.00    -1.523 OA 
HETATM   13  H   UNL     1     -11.625  15.815  63.524  1.00  0.00     0.000 HD 
ENDBRANCH  10  11
ENDBRANCH   5  10
ENDBRANCH   4   5
ENDBRANCH   2   4
TORSDOF 6
ENDMDL
MODEL       74
REMARK 921   NORMALIZED FREE ENERGY PREDICTED BY IDOCK:   -2.82 KCAL/MOL
REMARK 922        TOTAL FREE ENERGY PREDICTED BY IDOCK:   -4.29 KCAL/MOL
REMARK 923 INTER-LIGAND FREE ENERGY PREDICTED BY IDOCK:   -3.88 KCAL/MOL
REMARK 924 INTRA-LIGAND FREE ENERGY PREDICTED BY IDOCK:   -0.40 KCAL/MOL
REMARK 927      BINDING AFFINITY PREDICTED BY RF-SCORE:    0.00 PKD
ROOT
HETATM    1  O   UNL     1     -12.518  10.643  69.143  1.00  0.00    -0.752 OA 
HETATM    2  C   UNL     1     -11.251  10.288  69.696  1.00  0.00    -0.269 C  
HETATM    3  H   UNL     1     -12.413  10.804  68.213  1.00  0.00     0.000 HD 
ENDROOT
BRANCH   2   4
HETATM    4  C   UNL     1     -11.421  10.026  71.203  1.00  0.00    -0.354 C  
BRANCH   4   5
HETATM    5  N   UNL     1     -10.981   8.695  71.705  1.00  0.00    -0.300 NA 
BRANCH   5   6
HETATM    6  C   UNL     1     -12.151   7.968  72.282  1.00  0.00    -0.341 C  
BRANCH   6   7
HETATM    7  C   UNL     1     -13.498   8.714  72.215  1.00  0.00    -0.374 C  
HETATM    8  H   UNL     1     -15.189   8.565  71.219  1.00  0.00     0.000 HD 
HETATM    9  O   UNL     1     -14.358   8.105  71.260  1.00  0.00    -0.361 OA 
ENDBRANCH   6   7
ENDBRANCH   5   6
BRANCH   5  10
HETATM   10  C   UNL     1     -10.399   7.906  70.579  1.00  0.00    -0.205 C  
BRANCH  10  11
HETATM   11  C   UNL     1     -11.054   6.534  70.337  1.00  0.00    -0.332 C  
HETATM   12  O   UNL     1     -11.686   6.509  69.060  1.00  0.00    -0.595 OA 
HETATM   13  H   UNL     1     -12.090   5.662  68.910  1.00  0.00     0.000 HD 
ENDBRANCH  10  11
ENDBRANCH   5  10
ENDBRANCH   4   5
ENDBRANCH   2   4
TORSDOF 6
ENDMDL
MODEL       75
REMARK 921   NORMALIZED FREE ENERGY PREDICTED BY IDOCK:   -2.82 KCAL/MOL
REMARK 922        TOTAL FREE ENERGY PREDICTED BY IDOCK:   -4.29 KCAL/MOL
REMARK 923 INTER-LIGAND FREE ENERGY PREDICTED BY IDOCK:   -4.37 KCAL/MOL
REMARK 924 INTRA-LIGAND FREE ENERGY PREDICTED BY IDOCK:    0.09 KCAL/MOL
REMARK 927      BINDING AFFINITY PREDICTED BY RF-SCORE:    0.00 PKD
ROOT
HETATM    1  O   UNL     1      -8.738  12.344  68.591  1.00  0.00    -0.346 OA 
HETATM    2  C   UNL     1      -8.031  13.524  68.210  1.00  0.00    -0.147 C  
HETATM    3  H   UNL     1      -8.108  11.674  68.830  1.00  0.00     0.000 HD 
ENDROOT
BRANCH   2   4
HETATM    4  C   UNL     1      -9.050  14.611  67.822  1.00  0.00    -0.191 C  
BRANCH   4   5
HETATM    5  N   UNL     1      -9.931  14.318  66.658  1.00  0.00    -0.267 NA 
BRANCH   5   6
HETATM    6  C   UNL     1     -11.276  13.888  67.145  1.00  0.00    -0.313 C  
BRANCH   6   7
HETATM    7  C   UNL     1     -11.893  12.679  66.415  1.00  0.00    -0.402 C  
HETATM    8  H   UNL     1     -12.196  10.768  66.778  1.00  0.00     0.000 HD 
HETATM    9  O   UNL     1     -11.816  11.513  67.228  1.00  0.00    -0.609 OA 
ENDBRANCH   6   7
ENDBRANCH   5   6
BRANCH   5  10
HETATM   10  C   UNL     1     -10.065  15.543  65.815  1.00  0.00    -0.360 C  
BRANCH  10  11
HETATM   11  C   UNL     1     -11.403  15.676  65.065  1.00  0.00    -0.253 C  
HETATM   12  O   UNL     1     -11.289  16.639  64.021  1.00  0.00    -1.486 OA 
HETATM   13  H   UNL     1     -12.115  16.721  63.558  1.00  0.00     0.000 HD 
ENDBRANCH  10  11
ENDBRANCH   5  10
ENDBRANCH   4   5
ENDBRANCH   2   4
TORSDOF 6
ENDMDL
MODEL       76
REMARK 921   NORMALIZED FREE ENERGY PREDICTED BY IDOCK:   -2.81 KCAL/MOL
REMARK 922        TOTAL FREE ENERGY PREDICTED BY IDOCK:   -4.28 KCAL/MOL
REMARK 923 INTER-LIGAND FREE ENERGY PREDICTED BY IDOCK:   -4.09 KCAL/MOL
REMARK 924 INTRA-LIGAND FREE ENERGY PREDICTED BY IDOCK:   -0.20 KCAL/MOL
REMARK 927      BINDING AFFINITY PREDICTED BY RF-SCORE:    0.00 PKD
ROOT
HETATM    1  O   UNL     1     -10.836  18.514  68.051  1.00  0.00    -0.299 OA 
HETATM    2  C   UNL     1     -10.242  17.235  68.271  1.00  0.00    -0.348 C  
HETATM    3  H   UNL     1     -10.146  19.158  67.937  1.00  0.00     0.000 HD 
ENDROOT
BRANCH   2   4
HETATM    4  C   UNL     1     -11.358  16.193  68.455  1.00  0.00    -0.359 C  
BRANCH   4   5
HETATM    5  N   UNL     1     -11.587  15.250  67.325  1.00  0.00    -0.231 NA 
BRANCH   5   6
HETATM    6  C   UNL     1     -10.598  15.521  66.240  1.00  0.00    -0.307 C  
BRANCH   6   7
HETATM    7  C   UNL     1     -11.155  15.470  64.804  1.00  0.00    -0.407 C  
HETATM    8  H   UNL     1     -11.714  16.753  63.420  1.00  0.00     0.000 HD 
HETATM    9  O   UNL     1     -11.371  16.785  64.306  1.00  0.00    -1.170 OA 
ENDBRANCH   6   7
ENDBRANCH   5   6
BRANCH   5  10
HETATM   10  C   UNL     1     -11.435  13.846  67.811  1.00  0.00    -0.323 C  
BRANCH  10  11
HETATM   11  C   UNL     1      -9.989  13.414  68.114  1.00  0.00    -0.237 C  
HETATM   12  O   UNL     1      -9.983  12.206  68.869  1.00  0.00    -0.405 OA 
HETATM   13  H   UNL     1      -9.091  11.939  69.056  1.00  0.00     0.000 HD 
ENDBRANCH  10  11
ENDBRANCH   5  10
ENDBRANCH   4   5
ENDBRANCH   2   4
TORSDOF 6
ENDMDL
MODEL       77
REMARK 921   NORMALIZED FREE ENERGY PREDICTED BY IDOCK:   -2.79 KCAL/MOL
REMARK 922        TOTAL FREE ENERGY PREDICTED BY IDOCK:   -4.25 KCAL/MOL
REMARK 923 INTER-LIGAND FREE ENERGY PREDICTED BY IDOCK:   -3.75 KCAL/MOL
REMARK 924 INTRA-LIGAND FREE ENERGY PREDICTED BY IDOCK:   -0.51 KCAL/MOL
REMARK 927      BINDING AFFINITY PREDICTED BY RF-SCORE:    0.00 PKD
ROOT
HETATM    1  O   UNL     1     -10.844  15.708  65.900  1.00  0.00    -0.326 OA 
HETATM    2  C   UNL     1     -11.306  14.706  64.994  1.00  0.00    -0.390 C  
HETATM    3  H   UNL     1     -10.285  16.314  65.428  1.00  0.00     0.000 HD 
ENDROOT
BRANCH   2   4
HETATM    4  C   UNL     1     -12.211  13.724  65.758  1.00  0.00    -0.462 C  
BRANCH   4   5
HETATM    5  N   UNL     1     -11.557  12.512  66.324  1.00  0.00    -0.374 NA 
BRANCH   5   6
HETATM    6  C   UNL     1     -10.308  12.216  65.560  1.00  0.00    -0.263 C  
BRANCH   6   7
HETATM    7  C   UNL     1     -10.257  10.835  64.878  1.00  0.00    -0.320 C  
HETATM    8  H   UNL     1     -10.170   8.948  65.431  1.00  0.00     0.000 HD 
HETATM    9  O   UNL     1     -10.202   9.800  65.852  1.00  0.00    -0.259 OA 
ENDBRANCH   6   7
ENDBRANCH   5   6
BRANCH   5  10
HETATM   10  C   UNL     1     -11.228  12.749  67.761  1.00  0.00    -0.275 C  
BRANCH  10  11
HETATM   11  C   UNL     1     -11.824  11.725  68.744  1.00  0.00    -0.320 C  
HETATM   12  O   UNL     1     -12.054  10.484  68.084  1.00  0.00    -0.756 OA 
HETATM   13  H   UNL     1     -12.420   9.852  68.690  1.00  0.00     0.000 HD 
ENDBRANCH  10  11
ENDBRANCH   5  10
ENDBRANCH   4   5
ENDBRANCH   2   4
TORSDOF 6
ENDMDL
MODEL       78
REMARK 921   NORMALIZED FREE ENERGY PREDICTED BY IDOCK:   -2.78 KCAL/MOL
REMARK 922        TOTAL FREE ENERGY PREDICTED BY IDOCK:   -4.24 KCAL/MOL
REMARK 923 INTER-LIGAND FREE ENERGY PREDICTED BY IDOCK:   -4.03 KCAL/MOL
REMARK 924 INTRA-LIGAND FREE ENERGY PREDICTED BY IDOCK:   -0.22 KCAL/MOL
REMARK 927      BINDING AFFINITY PREDICTED BY RF-SCORE:    0.00 PKD
ROOT
HETATM    1  O   UNL     1     -12.305  15.065  69.310  1.00  0.00    -0.544 OA 
HETATM    2  C   UNL     1     -11.852  14.329  68.173  1.00  0.00    -0.339 C  
HETATM    3  H   UNL     1     -12.688  14.460  69.934  1.00  0.00     0.000 HD 
ENDROOT
BRANCH   2   4
HETATM    4  C   UNL     1     -11.231  15.309  67.162  1.00  0.00    -0.291 C  
BRANCH   4   5
HETATM    5  N   UNL     1     -10.011  14.846  66.445  1.00  0.00    -0.262 NA 
BRANCH   5   6
HETATM    6  C   UNL     1     -10.269  14.838  64.974  1.00  0.00    -0.344 C  
BRANCH   6   7
HETATM    7  C   UNL     1     -11.655  15.351  64.538  1.00  0.00    -0.296 C  
HETATM    8  H   UNL     1     -12.397  16.938  63.641  1.00  0.00     0.000 HD 
HETATM    9  O   UNL     1     -11.542  16.622  63.910  1.00  0.00    -1.204 OA 
ENDBRANCH   6   7
ENDBRANCH   5   6
BRANCH   5  10
HETATM   10  C   UNL     1      -8.874  15.763  66.755  1.00  0.00    -0.267 C  
BRANCH  10  11
HETATM   11  C   UNL     1      -9.209  16.911  67.724  1.00  0.00    -0.230 C  
HETATM   12  O   UNL     1      -8.134  17.115  68.638  1.00  0.00    -0.250 OA 
HETATM   13  H   UNL     1      -8.341  17.824  69.235  1.00  0.00     0.000 HD 
ENDBRANCH  10  11
ENDBRANCH   5  10
ENDBRANCH   4   5
ENDBRANCH   2   4
TORSDOF 6
ENDMDL
MODEL       79
REMARK 921   NORMALIZED FREE ENERGY PREDICTED BY IDOCK:   -2.78 KCAL/MOL
REMARK 922        TOTAL FREE ENERGY PREDICTED BY IDOCK:   -4.24 KCAL/MOL
REMARK 923 INTER-LIGAND FREE ENERGY PREDICTED BY IDOCK:   -3.82 KCAL/MOL
REMARK 924 INTRA-LIGAND FREE ENERGY PREDICTED BY IDOCK:   -0.42 KCAL/MOL
REMARK 927      BINDING AFFINITY PREDICTED BY RF-SCORE:    0.00 PKD
ROOT
HETATM    1  O   UNL     1     -10.634  18.550  67.316  1.00  0.00    -0.405 OA 
HETATM    2  C   UNL     1      -9.760  17.839  66.439  1.00  0.00    -0.308 C  
HETATM    3  H   UNL     1     -10.119  19.149  67.842  1.00  0.00     0.000 HD 
ENDROOT
BRANCH   2   4
HETATM    4  C   UNL     1     -10.593  16.867  65.585  1.00  0.00    -0.221 C  
BRANCH   4   5
HETATM    5  N   UNL     1     -10.306  15.415  65.750  1.00  0.00    -0.333 NA 
BRANCH   5   6
HETATM    6  C   UNL     1      -9.649  15.184  67.071  1.00  0.00    -0.226 C  
BRANCH   6   7
HETATM    7  C   UNL     1     -10.584  14.734  68.210  1.00  0.00    -0.241 C  
HETATM    8  H   UNL     1     -11.571  15.575  69.692  1.00  0.00     0.000 HD 
HETATM    9  O   UNL     1     -10.994  15.852  68.990  1.00  0.00    -0.240 OA 
ENDBRANCH   6   7
ENDBRANCH   5   6
BRANCH   5  10
HETATM   10  C   UNL     1     -11.583  14.645  65.677  1.00  0.00    -0.328 C  
BRANCH  10  11
HETATM   11  C   UNL     1     -11.739  13.759  64.427  1.00  0.00    -0.408 C  
HETATM   12  O   UNL     1     -12.474  14.450  63.421  1.00  0.00    -1.109 OA 
HETATM   13  H   UNL     1     -12.569  13.904  62.650  1.00  0.00     0.000 HD 
ENDBRANCH  10  11
ENDBRANCH   5  10
ENDBRANCH   4   5
ENDBRANCH   2   4
TORSDOF 6
ENDMDL
MODEL       80
REMARK 921   NORMALIZED FREE ENERGY PREDICTED BY IDOCK:   -2.78 KCAL/MOL
REMARK 922        TOTAL FREE ENERGY PREDICTED BY IDOCK:   -4.24 KCAL/MOL
REMARK 923 INTER-LIGAND FREE ENERGY PREDICTED BY IDOCK:   -4.06 KCAL/MOL
REMARK 924 INTRA-LIGAND FREE ENERGY PREDICTED BY IDOCK:   -0.17 KCAL/MOL
REMARK 927      BINDING AFFINITY PREDICTED BY RF-SCORE:    0.00 PKD
ROOT
HETATM    1  O   UNL     1      -7.252  19.121  69.020  1.00  0.00    -0.331 OA 
HETATM    2  C   UNL     1      -8.292  19.425  68.090  1.00  0.00    -0.328 C  
HETATM    3  H   UNL     1      -6.413  19.277  68.604  1.00  0.00     0.000 HD 
ENDROOT
BRANCH   2   4
HETATM    4  C   UNL     1      -9.652  19.172  68.764  1.00  0.00    -0.416 C  
BRANCH   4   5
HETATM    5  N   UNL     1     -10.496  18.091  68.182  1.00  0.00    -0.378 NA 
BRANCH   5   6
HETATM    6  C   UNL     1     -10.619  18.293  66.708  1.00  0.00    -0.312 C  
BRANCH   6   7
HETATM    7  C   UNL     1     -10.540  17.013  65.853  1.00  0.00    -0.216 C  
HETATM    8  H   UNL     1     -11.063  16.446  64.041  1.00  0.00     0.000 HD 
HETATM    9  O   UNL     1     -11.111  17.235  64.569  1.00  0.00    -1.082 OA 
ENDBRANCH   6   7
ENDBRANCH   5   6
BRANCH   5  10
HETATM   10  C   UNL     1      -9.870  16.766  68.463  1.00  0.00    -0.257 C  
BRANCH  10  11
HETATM   11  C   UNL     1     -10.530  15.959  69.597  1.00  0.00    -0.295 C  
HETATM   12  O   UNL     1      -9.651  14.935  70.050  1.00  0.00    -0.447 OA 
HETATM   13  H   UNL     1     -10.058  14.438  70.750  1.00  0.00     0.000 HD 
ENDBRANCH  10  11
ENDBRANCH   5  10
ENDBRANCH   4   5
ENDBRANCH   2   4
TORSDOF 6
ENDMDL
MODEL       81
REMARK 921   NORMALIZED FREE ENERGY PREDICTED BY IDOCK:   -2.77 KCAL/MOL
REMARK 922        TOTAL FREE ENERGY PREDICTED BY IDOCK:   -4.23 KCAL/MOL
REMARK 923 INTER-LIGAND FREE ENERGY PREDICTED BY IDOCK:   -3.98 KCAL/MOL
REMARK 924 INTRA-LIGAND FREE ENERGY PREDICTED BY IDOCK:   -0.25 KCAL/MOL
REMARK 927      BINDING AFFINITY PREDICTED BY RF-SCORE:    0.00 PKD
ROOT
HETATM    1  O   UNL     1      -9.795   8.172  66.184  1.00  0.00    -0.435 OA 
HETATM    2  C   UNL     1      -9.809   9.546  66.573  1.00  0.00    -0.240 C  
HETATM    3  H   UNL     1      -9.868   7.632  66.962  1.00  0.00     0.000 HD 
ENDROOT
BRANCH   2   4
HETATM    4  C   UNL     1      -9.691  10.421  65.313  1.00  0.00    -0.278 C  
BRANCH   4   5
HETATM    5  N   UNL     1     -10.570  11.622  65.247  1.00  0.00    -0.273 NA 
BRANCH   5   6
HETATM    6  C   UNL     1     -10.002  12.704  66.105  1.00  0.00    -0.261 C  
BRANCH   6   7
HETATM    7  C   UNL     1     -10.942  13.249  67.198  1.00  0.00    -0.272 C  
HETATM    8  H   UNL     1     -12.495  12.611  68.224  1.00  0.00     0.000 HD 
HETATM    9  O   UNL     1     -11.916  12.274  67.550  1.00  0.00    -0.513 OA 
ENDBRANCH   6   7
ENDBRANCH   5   6
BRANCH   5  10
HETATM   10  C   UNL     1     -10.665  12.092  63.833  1.00  0.00    -0.397 C  
BRANCH  10  11
HETATM   11  C   UNL     1     -11.943  12.879  63.492  1.00  0.00    -0.556 C  
HETATM   12  O   UNL     1     -13.087  12.037  63.607  1.00  0.00    -0.756 OA 
HETATM   13  H   UNL     1     -13.875  12.524  63.397  1.00  0.00     0.000 HD 
ENDBRANCH  10  11
ENDBRANCH   5  10
ENDBRANCH   4   5
ENDBRANCH   2   4
TORSDOF 6
ENDMDL
MODEL       82
REMARK 921   NORMALIZED FREE ENERGY PREDICTED BY IDOCK:   -2.76 KCAL/MOL
REMARK 922        TOTAL FREE ENERGY PREDICTED BY IDOCK:   -4.22 KCAL/MOL
REMARK 923 INTER-LIGAND FREE ENERGY PREDICTED BY IDOCK:   -4.02 KCAL/MOL
REMARK 924 INTRA-LIGAND FREE ENERGY PREDICTED BY IDOCK:   -0.20 KCAL/MOL
REMARK 927      BINDING AFFINITY PREDICTED BY RF-SCORE:    0.00 PKD
ROOT
HETATM    1  O   UNL     1     -11.456  16.465  63.903  1.00  0.00    -1.569 OA 
HETATM    2  C   UNL     1     -12.102  15.230  64.209  1.00  0.00    -0.208 C  
HETATM    3  H   UNL     1     -11.697  16.728  63.022  1.00  0.00     0.000 HD 
ENDROOT
BRANCH   2   4
HETATM    4  C   UNL     1     -11.712  14.805  65.636  1.00  0.00    -0.257 C  
BRANCH   4   5
HETATM    5  N   UNL     1     -10.897  13.566  65.766  1.00  0.00    -0.273 NA 
BRANCH   5   6
HETATM    6  C   UNL     1     -10.396  13.155  64.421  1.00  0.00    -0.368 C  
BRANCH   6   7
HETATM    7  C   UNL     1     -10.175  11.642  64.227  1.00  0.00    -0.311 C  
HETATM    8  H   UNL     1      -9.687  10.425  62.758  1.00  0.00     0.000 HD 
HETATM    9  O   UNL     1      -9.824  11.358  62.878  1.00  0.00    -0.342 OA 
ENDBRANCH   6   7
ENDBRANCH   5   6
BRANCH   5  10
HETATM   10  C   UNL     1      -9.745  13.822  66.681  1.00  0.00    -0.289 C  
BRANCH  10  11
HETATM   11  C   UNL     1      -9.516  15.302  67.042  1.00  0.00    -0.223 C  
HETATM   12  O   UNL     1      -8.995  15.412  68.363  1.00  0.00    -0.179 OA 
HETATM   13  H   UNL     1      -8.853  16.324  68.585  1.00  0.00     0.000 HD 
ENDBRANCH  10  11
ENDBRANCH   5  10
ENDBRANCH   4   5
ENDBRANCH   2   4
TORSDOF 6
ENDMDL
MODEL       83
REMARK 921   NORMALIZED FREE ENERGY PREDICTED BY IDOCK:   -2.75 KCAL/MOL
REMARK 922        TOTAL FREE ENERGY PREDICTED BY IDOCK:   -4.20 KCAL/MOL
REMARK 923 INTER-LIGAND FREE ENERGY PREDICTED BY IDOCK:   -3.92 KCAL/MOL
REMARK 924 INTRA-LIGAND FREE ENERGY PREDICTED BY IDOCK:   -0.28 KCAL/MOL
REMARK 927      BINDING AFFINITY PREDICTED BY RF-SCORE:    0.00 PKD
ROOT
HETATM    1  O   UNL     1      -6.342  19.931  66.737  1.00  0.00    -0.182 OA 
HETATM    2  C   UNL     1      -7.136  19.398  65.677  1.00  0.00    -0.267 C  
HETATM    3  H   UNL     1      -6.015  20.784  66.476  1.00  0.00     0.000 HD 
ENDROOT
BRANCH   2   4
HETATM    4  C   UNL     1      -7.667  18.017  66.098  1.00  0.00    -0.231 C  
BRANCH   4   5
HETATM    5  N   UNL     1      -9.146  17.864  66.181  1.00  0.00    -0.496 NA 
BRANCH   5   6
HETATM    6  C   UNL     1      -9.524  16.461  65.835  1.00  0.00    -0.254 C  
BRANCH   6   7
HETATM    7  C   UNL     1     -11.001  16.244  65.452  1.00  0.00    -0.197 C  
HETATM    8  H   UNL     1     -12.167  16.610  63.909  1.00  0.00     0.000 HD 
HETATM    9  O   UNL     1     -11.256  16.744  64.145  1.00  0.00    -1.155 OA 
ENDBRANCH   6   7
ENDBRANCH   5   6
BRANCH   5  10
HETATM   10  C   UNL     1      -9.603  18.186  67.565  1.00  0.00    -0.280 C  
BRANCH  10  11
HETATM   11  C   UNL     1     -10.475  19.449  67.687  1.00  0.00    -0.457 C  
HETATM   12  O   UNL     1     -10.583  20.098  66.424  1.00  0.00    -0.399 OA 
HETATM   13  H   UNL     1     -11.121  20.877  66.499  1.00  0.00     0.000 HD 
ENDBRANCH  10  11
ENDBRANCH   5  10
ENDBRANCH   4   5
ENDBRANCH   2   4
TORSDOF 6
ENDMDL
MODEL       84
REMARK 921   NORMALIZED FREE ENERGY PREDICTED BY IDOCK:   -2.73 KCAL/MOL
REMARK 922        TOTAL FREE ENERGY PREDICTED BY IDOCK:   -4.17 KCAL/MOL
REMARK 923 INTER-LIGAND FREE ENERGY PREDICTED BY IDOCK:   -3.95 KCAL/MOL
REMARK 924 INTRA-LIGAND FREE ENERGY PREDICTED BY IDOCK:   -0.22 KCAL/MOL
REMARK 927      BINDING AFFINITY PREDICTED BY RF-SCORE:    0.00 PKD
ROOT
HETATM    1  O   UNL     1      -8.829  11.882  65.579  1.00  0.00    -0.407 OA 
HETATM    2  C   UNL     1      -9.669  10.802  65.986  1.00  0.00    -0.217 C  
HETATM    3  H   UNL     1      -7.999  11.529  65.282  1.00  0.00     0.000 HD 
ENDROOT
BRANCH   2   4
HETATM    4  C   UNL     1     -11.015  11.372  66.467  1.00  0.00    -0.272 C  
BRANCH   4   5
HETATM    5  N   UNL     1     -11.453  12.659  65.859  1.00  0.00    -0.343 NA 
BRANCH   5   6
HETATM    6  C   UNL     1     -12.437  12.387  64.769  1.00  0.00    -0.401 C  
BRANCH   6   7
HETATM    7  C   UNL     1     -12.154  13.089  63.426  1.00  0.00    -0.515 C  
HETATM    8  H   UNL     1     -12.417  14.875  62.642  1.00  0.00     0.000 HD 
HETATM    9  O   UNL     1     -12.591  14.442  63.470  1.00  0.00    -0.784 OA 
ENDBRANCH   6   7
ENDBRANCH   5   6
BRANCH   5  10
HETATM   10  C   UNL     1     -12.082  13.516  66.907  1.00  0.00    -0.368 C  
BRANCH  10  11
HETATM   11  C   UNL     1     -11.420  13.439  68.296  1.00  0.00    -0.315 C  
HETATM   12  O   UNL     1     -12.156  14.217  69.236  1.00  0.00    -0.326 OA 
HETATM   13  H   UNL     1     -11.748  14.168  70.093  1.00  0.00     0.000 HD 
ENDBRANCH  10  11
ENDBRANCH   5  10
ENDBRANCH   4   5
ENDBRANCH   2   4
TORSDOF 6
ENDMDL
MODEL       85
REMARK 921   NORMALIZED FREE ENERGY PREDICTED BY IDOCK:   -2.73 KCAL/MOL
REMARK 922        TOTAL FREE ENERGY PREDICTED BY IDOCK:   -4.17 KCAL/MOL
REMARK 923 INTER-LIGAND FREE ENERGY PREDICTED BY IDOCK:   -4.00 KCAL/MOL
REMARK 924 INTRA-LIGAND FREE ENERGY PREDICTED BY IDOCK:   -0.17 KCAL/MOL
REMARK 927      BINDING AFFINITY PREDICTED BY RF-SCORE:    0.00 PKD
ROOT
HETATM    1  O   UNL     1     -14.264   8.926  73.360  1.00  0.00    -1.241 OA 
HETATM    2  C   UNL     1     -13.986   8.672  71.983  1.00  0.00    -0.446 C  
HETATM    3  H   UNL     1     -15.179   8.734  73.529  1.00  0.00     0.000 HD 
ENDROOT
BRANCH   2   4
HETATM    4  C   UNL     1     -12.504   8.982  71.710  1.00  0.00    -0.368 C  
BRANCH   4   5
HETATM    5  N   UNL     1     -11.509   7.997  72.218  1.00  0.00    -0.333 NA 
BRANCH   5   6
HETATM    6  C   UNL     1     -11.886   6.627  71.762  1.00  0.00    -0.335 C  
BRANCH   6   7
HETATM    7  C   UNL     1     -11.056   5.474  72.361  1.00  0.00    -0.256 C  
HETATM    8  H   UNL     1      -9.791   4.111  71.716  1.00  0.00     0.000 HD 
HETATM    9  O   UNL     1     -10.303   4.822  71.346  1.00  0.00    -0.190 OA 
ENDBRANCH   6   7
ENDBRANCH   5   6
BRANCH   5  10
HETATM   10  C   UNL     1     -10.153   8.349  71.702  1.00  0.00    -0.239 C  
BRANCH  10  11
HETATM   11  C   UNL     1     -10.122   9.505  70.684  1.00  0.00    -0.286 C  
HETATM   12  O   UNL     1      -8.777   9.900  70.428  1.00  0.00    -0.309 OA 
HETATM   13  H   UNL     1      -8.758  10.612  69.800  1.00  0.00     0.000 HD 
ENDBRANCH  10  11
ENDBRANCH   5  10
ENDBRANCH   4   5
ENDBRANCH   2   4
TORSDOF 6
ENDMDL
MODEL       86
REMARK 921   NORMALIZED FREE ENERGY PREDICTED BY IDOCK:   -2.73 KCAL/MOL
REMARK 922        TOTAL FREE ENERGY PREDICTED BY IDOCK:   -4.17 KCAL/MOL
REMARK 923 INTER-LIGAND FREE ENERGY PREDICTED BY IDOCK:   -3.95 KCAL/MOL
REMARK 924 INTRA-LIGAND FREE ENERGY PREDICTED BY IDOCK:   -0.22 KCAL/MOL
REMARK 927      BINDING AFFINITY PREDICTED BY RF-SCORE:    0.00 PKD
ROOT
HETATM    1  O   UNL     1     -12.332  13.871  63.148  1.00  0.00    -1.122 OA 
HETATM    2  C   UNL     1     -12.369  14.632  64.355  1.00  0.00    -0.398 C  
HETATM    3  H   UNL     1     -12.147  14.456  62.422  1.00  0.00     0.000 HD 
ENDROOT
BRANCH   2   4
HETATM    4  C   UNL     1     -12.668  13.684  65.531  1.00  0.00    -0.466 C  
BRANCH   4   5
HETATM    5  N   UNL     1     -11.813  13.831  66.742  1.00  0.00    -0.395 NA 
BRANCH   5   6
HETATM    6  C   UNL     1     -10.971  12.609  66.908  1.00  0.00    -0.262 C  
BRANCH   6   7
HETATM    7  C   UNL     1      -9.576  12.668  66.254  1.00  0.00    -0.244 C  
HETATM    8  H   UNL     1      -8.177  11.395  65.710  1.00  0.00     0.000 HD 
HETATM    9  O   UNL     1      -9.036  11.359  66.113  1.00  0.00    -0.199 OA 
ENDBRANCH   6   7
ENDBRANCH   5   6
BRANCH   5  10
HETATM   10  C   UNL     1     -10.941  15.033  66.592  1.00  0.00    -0.325 C  
BRANCH  10  11
HETATM   11  C   UNL     1     -10.890  15.959  67.821  1.00  0.00    -0.324 C  
HETATM   12  O   UNL     1      -9.539  16.206  68.198  1.00  0.00    -0.213 OA 
HETATM   13  H   UNL     1      -9.508  16.778  68.955  1.00  0.00     0.000 HD 
ENDBRANCH  10  11
ENDBRANCH   5  10
ENDBRANCH   4   5
ENDBRANCH   2   4
TORSDOF 6
ENDMDL
MODEL       87
REMARK 921   NORMALIZED FREE ENERGY PREDICTED BY IDOCK:   -2.73 KCAL/MOL
REMARK 922        TOTAL FREE ENERGY PREDICTED BY IDOCK:   -4.17 KCAL/MOL
REMARK 923 INTER-LIGAND FREE ENERGY PREDICTED BY IDOCK:   -3.78 KCAL/MOL
REMARK 924 INTRA-LIGAND FREE ENERGY PREDICTED BY IDOCK:   -0.39 KCAL/MOL
REMARK 927      BINDING AFFINITY PREDICTED BY RF-SCORE:    0.00 PKD
ROOT
HETATM    1  O   UNL     1      -8.836  10.561  68.043  1.00  0.00    -0.128 OA 
HETATM    2  C   UNL     1      -9.940  10.709  67.151  1.00  0.00    -0.195 C  
HETATM    3  H   UNL     1      -9.133  10.115  68.828  1.00  0.00     0.000 HD 
ENDROOT
BRANCH   2   4
HETATM    4  C   UNL     1      -9.458  11.430  65.879  1.00  0.00    -0.228 C  
BRANCH   4   5
HETATM    5  N   UNL     1     -10.229  12.634  65.460  1.00  0.00    -0.279 NA 
BRANCH   5   6
HETATM    6  C   UNL     1     -10.494  12.570  63.991  1.00  0.00    -0.422 C  
BRANCH   6   7
HETATM    7  C   UNL     1     -11.734  11.757  63.573  1.00  0.00    -0.383 C  
HETATM    8  H   UNL     1     -13.534  12.121  62.865  1.00  0.00     0.000 HD 
HETATM    9  O   UNL     1     -12.770  12.623  63.123  1.00  0.00    -0.605 OA 
ENDBRANCH   6   7
ENDBRANCH   5   6
BRANCH   5  10
HETATM   10  C   UNL     1     -11.521  12.682  66.206  1.00  0.00    -0.364 C  
BRANCH  10  11
HETATM   11  C   UNL     1     -12.175  14.073  66.290  1.00  0.00    -0.462 C  
HETATM   12  O   UNL     1     -13.426  14.072  65.610  1.00  0.00    -0.713 OA 
HETATM   13  H   UNL     1     -13.829  14.930  65.662  1.00  0.00     0.000 HD 
ENDBRANCH  10  11
ENDBRANCH   5  10
ENDBRANCH   4   5
ENDBRANCH   2   4
TORSDOF 6
ENDMDL
MODEL       88
REMARK 921   NORMALIZED FREE ENERGY PREDICTED BY IDOCK:   -2.72 KCAL/MOL
REMARK 922        TOTAL FREE ENERGY PREDICTED BY IDOCK:   -4.16 KCAL/MOL
REMARK 923 INTER-LIGAND FREE ENERGY PREDICTED BY IDOCK:   -3.95 KCAL/MOL
REMARK 924 INTRA-LIGAND FREE ENERGY PREDICTED BY IDOCK:   -0.21 KCAL/MOL
REMARK 927      BINDING AFFINITY PREDICTED BY RF-SCORE:    0.00 PKD
ROOT
HETATM    1  O   UNL     1     -12.311  10.717  68.516  1.00  0.00    -0.825 OA 
HETATM    2  C   UNL     1     -11.124  11.489  68.699  1.00  0.00    -0.238 C  
HETATM    3  H   UNL     1     -12.156   9.836  68.834  1.00  0.00     0.000 HD 
ENDROOT
BRANCH   2   4
HETATM    4  C   UNL     1     -11.374  12.917  68.184  1.00  0.00    -0.289 C  
BRANCH   4   5
HETATM    5  N   UNL     1     -10.316  13.514  67.323  1.00  0.00    -0.241 NA 
BRANCH   5   6
HETATM    6  C   UNL     1     -10.888  13.843  65.984  1.00  0.00    -0.290 C  
BRANCH   6   7
HETATM    7  C   UNL     1     -12.206  13.127  65.629  1.00  0.00    -0.466 C  
HETATM    8  H   UNL     1     -14.062  13.632  65.209  1.00  0.00     0.000 HD 
HETATM    9  O   UNL     1     -13.249  14.074  65.428  1.00  0.00    -0.761 OA 
ENDBRANCH   6   7
ENDBRANCH   5   6
BRANCH   5  10
HETATM   10  C   UNL     1      -9.789  14.753  67.969  1.00  0.00    -0.218 C  
BRANCH  10  11
HETATM   11  C   UNL     1     -10.805  15.903  68.097  1.00  0.00    -0.317 C  
HETATM   12  O   UNL     1     -10.340  17.052  67.395  1.00  0.00    -0.304 OA 
HETATM   13  H   UNL     1     -10.967  17.761  67.474  1.00  0.00     0.000 HD 
ENDBRANCH  10  11
ENDBRANCH   5  10
ENDBRANCH   4   5
ENDBRANCH   2   4
TORSDOF 6
ENDMDL
MODEL       89
REMARK 921   NORMALIZED FREE ENERGY PREDICTED BY IDOCK:   -2.72 KCAL/MOL
REMARK 922        TOTAL FREE ENERGY PREDICTED BY IDOCK:   -4.16 KCAL/MOL
REMARK 923 INTER-LIGAND FREE ENERGY PREDICTED BY IDOCK:   -3.97 KCAL/MOL
REMARK 924 INTRA-LIGAND FREE ENERGY PREDICTED BY IDOCK:   -0.19 KCAL/MOL
REMARK 927      BINDING AFFINITY PREDICTED BY RF-SCORE:    0.00 PKD
ROOT
HETATM    1  O   UNL     1     -12.525  14.426  68.540  1.00  0.00    -0.585 OA 
HETATM    2  C   UNL     1     -11.396  13.582  68.316  1.00  0.00    -0.294 C  
HETATM    3  H   UNL     1     -12.752  14.397  69.462  1.00  0.00     0.000 HD 
ENDROOT
BRANCH   2   4
HETATM    4  C   UNL     1     -11.028  13.628  66.823  1.00  0.00    -0.292 C  
BRANCH   4   5
HETATM    5  N   UNL     1     -11.473  12.479  65.987  1.00  0.00    -0.356 NA 
BRANCH   5   6
HETATM    6  C   UNL     1     -11.049  12.697  64.572  1.00  0.00    -0.327 C  
BRANCH   6   7
HETATM    7  C   UNL     1     -12.191  12.765  63.538  1.00  0.00    -0.525 C  
HETATM    8  H   UNL     1     -14.002  12.023  63.329  1.00  0.00     0.000 HD 
HETATM    9  O   UNL     1     -13.298  11.981  63.966  1.00  0.00    -0.703 OA 
ENDBRANCH   6   7
ENDBRANCH   5   6
BRANCH   5  10
HETATM   10  C   UNL     1     -10.865  11.219  66.510  1.00  0.00    -0.265 C  
BRANCH  10  11
HETATM   11  C   UNL     1      -9.568  10.780  65.806  1.00  0.00    -0.208 C  
HETATM   12  O   UNL     1      -9.751   9.512  65.183  1.00  0.00    -0.415 OA 
HETATM   13  H   UNL     1      -8.950   9.241  64.749  1.00  0.00     0.000 HD 
ENDBRANCH  10  11
ENDBRANCH   5  10
ENDBRANCH   4   5
ENDBRANCH   2   4
TORSDOF 6
ENDMDL
MODEL       90
REMARK 921   NORMALIZED FREE ENERGY PREDICTED BY IDOCK:   -2.71 KCAL/MOL
REMARK 922        TOTAL FREE ENERGY PREDICTED BY IDOCK:   -4.15 KCAL/MOL
REMARK 923 INTER-LIGAND FREE ENERGY PREDICTED BY IDOCK:   -4.03 KCAL/MOL
REMARK 924 INTRA-LIGAND FREE ENERGY PREDICTED BY IDOCK:   -0.12 KCAL/MOL
REMARK 927      BINDING AFFINITY PREDICTED BY RF-SCORE:    0.00 PKD
ROOT
HETATM    1  O   UNL     1      -8.285  14.798  66.725  1.00  0.00    -0.361 OA 
HETATM    2  C   UNL     1      -9.217  13.750  66.993  1.00  0.00    -0.251 C  
HETATM    3  H   UNL     1      -7.519  14.675  67.273  1.00  0.00     0.000 HD 
ENDROOT
BRANCH   2   4
HETATM    4  C   UNL     1     -10.459  13.949  66.106  1.00  0.00    -0.297 C  
BRANCH   4   5
HETATM    5  N   UNL     1     -10.583  13.059  64.919  1.00  0.00    -0.320 NA 
BRANCH   5   6
HETATM    6  C   UNL     1     -10.910  11.672  65.367  1.00  0.00    -0.280 C  
BRANCH   6   7
HETATM    7  C   UNL     1      -9.798  10.625  65.157  1.00  0.00    -0.284 C  
HETATM    8  H   UNL     1      -9.497   8.727  65.581  1.00  0.00     0.000 HD 
HETATM    9  O   UNL     1     -10.183   9.372  65.710  1.00  0.00    -0.231 OA 
ENDBRANCH   6   7
ENDBRANCH   5   6
BRANCH   5  10
HETATM   10  C   UNL     1     -11.663  13.570  64.024  1.00  0.00    -0.395 C  
BRANCH  10  11
HETATM   11  C   UNL     1     -12.405  14.815  64.544  1.00  0.00    -0.366 C  
HETATM   12  O   UNL     1     -12.125  15.939  63.715  1.00  0.00    -1.239 OA 
HETATM   13  H   UNL     1     -12.584  16.706  64.035  1.00  0.00     0.000 HD 
ENDBRANCH  10  11
ENDBRANCH   5  10
ENDBRANCH   4   5
ENDBRANCH   2   4
TORSDOF 6
ENDMDL
MODEL       91
REMARK 921   NORMALIZED FREE ENERGY PREDICTED BY IDOCK:   -2.71 KCAL/MOL
REMARK 922        TOTAL FREE ENERGY PREDICTED BY IDOCK:   -4.14 KCAL/MOL
REMARK 923 INTER-LIGAND FREE ENERGY PREDICTED BY IDOCK:   -3.92 KCAL/MOL
REMARK 924 INTRA-LIGAND FREE ENERGY PREDICTED BY IDOCK:   -0.22 KCAL/MOL
REMARK 927      BINDING AFFINITY PREDICTED BY RF-SCORE:    0.00 PKD
ROOT
HETATM    1  O   UNL     1      -8.856   8.660  73.031  1.00  0.00    -0.355 OA 
HETATM    2  C   UNL     1      -9.696   7.582  73.441  1.00  0.00    -0.291 C  
HETATM    3  H   UNL     1      -8.016   8.577  73.466  1.00  0.00     0.000 HD 
ENDROOT
BRANCH   2   4
HETATM    4  C   UNL     1     -11.057   7.715  72.735  1.00  0.00    -0.383 C  
BRANCH   4   5
HETATM    5  N   UNL     1     -11.151   8.727  71.646  1.00  0.00    -0.301 NA 
BRANCH   5   6
HETATM    6  C   UNL     1     -11.403   8.039  70.346  1.00  0.00    -0.187 C  
BRANCH   6   7
HETATM    7  C   UNL     1     -10.277   7.107  69.856  1.00  0.00    -0.207 C  
HETATM    8  H   UNL     1      -8.371   7.258  69.390  1.00  0.00     0.000 HD 
HETATM    9  O   UNL     1      -9.065   7.833  69.692  1.00  0.00    -0.146 OA 
ENDBRANCH   6   7
ENDBRANCH   5   6
BRANCH   5  10
HETATM   10  C   UNL     1     -12.265   9.676  71.943  1.00  0.00    -0.336 C  
BRANCH  10  11
HETATM   11  C   UNL     1     -13.665   9.037  72.008  1.00  0.00    -0.461 C  
HETATM   12  O   UNL     1     -14.073   8.879  73.363  1.00  0.00    -1.256 OA 
HETATM   13  H   UNL     1     -14.937   8.486  73.403  1.00  0.00     0.000 HD 
ENDBRANCH  10  11
ENDBRANCH   5  10
ENDBRANCH   4   5
ENDBRANCH   2   4
TORSDOF 6
ENDMDL
MODEL       92
REMARK 921   NORMALIZED FREE ENERGY PREDICTED BY IDOCK:   -2.71 KCAL/MOL
REMARK 922        TOTAL FREE ENERGY PREDICTED BY IDOCK:   -4.14 KCAL/MOL
REMARK 923 INTER-LIGAND FREE ENERGY PREDICTED BY IDOCK:   -4.05 KCAL/MOL
REMARK 924 INTRA-LIGAND FREE ENERGY PREDICTED BY IDOCK:   -0.10 KCAL/MOL
REMARK 927      BINDING AFFINITY PREDICTED BY RF-SCORE:    0.00 PKD
ROOT
HETATM    1  O   UNL     1     -13.965  15.981  73.156  1.00  0.00    -0.693 OA 
HETATM    2  C   UNL     1     -14.295  14.991  72.182  1.00  0.00    -0.530 C  
HETATM    3  H   UNL     1     -14.582  16.700  73.084  1.00  0.00     0.000 HD 
ENDROOT
BRANCH   2   4
HETATM    4  C   UNL     1     -13.296  13.827  72.298  1.00  0.00    -0.521 C  
BRANCH   4   5
HETATM    5  N   UNL     1     -12.973  13.094  71.042  1.00  0.00    -0.194 NA 
BRANCH   5   6
HETATM    6  C   UNL     1     -11.683  13.599  70.487  1.00  0.00    -0.099 C  
BRANCH   6   7
HETATM    7  C   UNL     1     -11.801  14.749  69.467  1.00  0.00    -0.326 C  
HETATM    8  H   UNL     1     -10.766  15.449  67.947  1.00  0.00     0.000 HD 
HETATM    9  O   UNL     1     -10.693  14.740  68.575  1.00  0.00    -0.235 OA 
ENDBRANCH   6   7
ENDBRANCH   5   6
BRANCH   5  10
HETATM   10  C   UNL     1     -12.864  11.633  71.333  1.00  0.00    -0.356 C  
BRANCH  10  11
HETATM   11  C   UNL     1     -11.983  10.837  70.353  1.00  0.00    -0.357 C  
HETATM   12  O   UNL     1     -12.642  10.702  69.097  1.00  0.00    -0.734 OA 
HETATM   13  H   UNL     1     -12.098  10.211  68.492  1.00  0.00     0.000 HD 
ENDBRANCH  10  11
ENDBRANCH   5  10
ENDBRANCH   4   5
ENDBRANCH   2   4
TORSDOF 6
ENDMDL
MODEL       93
REMARK 921   NORMALIZED FREE ENERGY PREDICTED BY IDOCK:   -2.70 KCAL/MOL
REMARK 922        TOTAL FREE ENERGY PREDICTED BY IDOCK:   -4.13 KCAL/MOL
REMARK 923 INTER-LIGAND FREE ENERGY PREDICTED BY IDOCK:   -3.85 KCAL/MOL
REMARK 924 INTRA-LIGAND FREE ENERGY PREDICTED BY IDOCK:   -0.28 KCAL/MOL
REMARK 927      BINDING AFFINITY PREDICTED BY RF-SCORE:    0.00 PKD
ROOT
HETATM    1  O   UNL     1     -12.648  15.093  69.809  1.00  0.00    -0.567 OA 
HETATM    2  C   UNL     1     -11.619  14.369  69.136  1.00  0.00    -0.307 C  
HETATM    3  H   UNL     1     -12.684  14.806  70.714  1.00  0.00     0.000 HD 
ENDROOT
BRANCH   2   4
HETATM    4  C   UNL     1     -11.561  14.834  67.670  1.00  0.00    -0.354 C  
BRANCH   4   5
HETATM    5  N   UNL     1     -11.416  13.772  66.636  1.00  0.00    -0.331 NA 
BRANCH   5   6
HETATM    6  C   UNL     1     -12.102  14.199  65.381  1.00  0.00    -0.410 C  
BRANCH   6   7
HETATM    7  C   UNL     1     -12.120  13.158  64.244  1.00  0.00    -0.414 C  
HETATM    8  H   UNL     1     -13.107  11.514  63.802  1.00  0.00     0.000 HD 
HETATM    9  O   UNL     1     -13.096  12.155  64.503  1.00  0.00    -0.720 OA 
ENDBRANCH   6   7
ENDBRANCH   5   6
BRANCH   5  10
HETATM   10  C   UNL     1      -9.966  13.535  66.367  1.00  0.00    -0.295 C  
BRANCH  10  11
HETATM   11  C   UNL     1      -9.454  12.131  66.738  1.00  0.00    -0.212 C  
HETATM   12  O   UNL     1     -10.538  11.208  66.786  1.00  0.00    -0.241 OA 
HETATM   13  H   UNL     1     -10.222  10.342  67.014  1.00  0.00     0.000 HD 
ENDBRANCH  10  11
ENDBRANCH   5  10
ENDBRANCH   4   5
ENDBRANCH   2   4
TORSDOF 6
ENDMDL
MODEL       94
REMARK 921   NORMALIZED FREE ENERGY PREDICTED BY IDOCK:   -2.70 KCAL/MOL
REMARK 922        TOTAL FREE ENERGY PREDICTED BY IDOCK:   -4.13 KCAL/MOL
REMARK 923 INTER-LIGAND FREE ENERGY PREDICTED BY IDOCK:   -3.94 KCAL/MOL
REMARK 924 INTRA-LIGAND FREE ENERGY PREDICTED BY IDOCK:   -0.20 KCAL/MOL
REMARK 927      BINDING AFFINITY PREDICTED BY RF-SCORE:    0.00 PKD
ROOT
HETATM    1  O   UNL     1     -10.357  19.524  68.826  1.00  0.00    -0.534 OA 
HETATM    2  C   UNL     1     -10.536  18.423  67.935  1.00  0.00    -0.391 C  
HETATM    3  H   UNL     1     -10.571  20.328  68.368  1.00  0.00     0.000 HD 
ENDROOT
BRANCH   2   4
HETATM    4  C   UNL     1     -10.189  17.120  68.677  1.00  0.00    -0.336 C  
BRANCH   4   5
HETATM    5  N   UNL     1     -11.290  16.133  68.846  1.00  0.00    -0.355 NA 
BRANCH   5   6
HETATM    6  C   UNL     1     -11.261  15.154  67.718  1.00  0.00    -0.323 C  
BRANCH   6   7
HETATM    7  C   UNL     1     -11.235  13.668  68.126  1.00  0.00    -0.275 C  
HETATM    8  H   UNL     1     -10.116  12.088  67.773  1.00  0.00     0.000 HD 
HETATM    9  O   UNL     1     -10.132  13.004  67.522  1.00  0.00    -0.214 OA 
ENDBRANCH   6   7
ENDBRANCH   5   6
BRANCH   5  10
HETATM   10  C   UNL     1     -11.120  15.415  70.144  1.00  0.00    -0.307 C  
BRANCH  10  11
HETATM   11  C   UNL     1     -12.281  15.586  71.141  1.00  0.00    -0.396 C  
HETATM   12  O   UNL     1     -13.519  15.687  70.443  1.00  0.00    -0.804 OA 
HETATM   13  H   UNL     1     -14.235  15.791  71.058  1.00  0.00     0.000 HD 
ENDBRANCH  10  11
ENDBRANCH   5  10
ENDBRANCH   4   5
ENDBRANCH   2   4
TORSDOF 6
ENDMDL
MODEL       95
REMARK 921   NORMALIZED FREE ENERGY PREDICTED BY IDOCK:   -2.70 KCAL/MOL
REMARK 922        TOTAL FREE ENERGY PREDICTED BY IDOCK:   -4.13 KCAL/MOL
REMARK 923 INTER-LIGAND FREE ENERGY PREDICTED BY IDOCK:   -3.95 KCAL/MOL
REMARK 924 INTRA-LIGAND FREE ENERGY PREDICTED BY IDOCK:   -0.18 KCAL/MOL
REMARK 927      BINDING AFFINITY PREDICTED BY RF-SCORE:    0.00 PKD
ROOT
HETATM    1  O   UNL     1     -14.367   8.990  73.362  1.00  0.00    -1.143 OA 
HETATM    2  C   UNL     1     -13.719   9.343  72.140  1.00  0.00    -0.420 C  
HETATM    3  H   UNL     1     -15.207   9.432  73.403  1.00  0.00     0.000 HD 
ENDROOT
BRANCH   2   4
HETATM    4  C   UNL     1     -12.359   8.626  72.072  1.00  0.00    -0.371 C  
BRANCH   4   5
HETATM    5  N   UNL     1     -11.197   9.437  71.615  1.00  0.00    -0.382 NA 
BRANCH   5   6
HETATM    6  C   UNL     1      -9.936   8.668  71.829  1.00  0.00    -0.301 C  
BRANCH   6   7
HETATM    7  C   UNL     1     -10.071   7.394  72.687  1.00  0.00    -0.208 C  
HETATM    8  H   UNL     1      -9.544   6.797  74.487  1.00  0.00     0.000 HD 
HETATM    9  O   UNL     1      -9.461   7.582  73.958  1.00  0.00    -0.263 OA 
ENDBRANCH   6   7
ENDBRANCH   5   6
BRANCH   5  10
HETATM   10  C   UNL     1     -11.355   9.759  70.165  1.00  0.00    -0.251 C  
BRANCH  10  11
HETATM   11  C   UNL     1     -10.189   9.308  69.266  1.00  0.00    -0.206 C  
HETATM   12  O   UNL     1     -10.682   8.549  68.165  1.00  0.00    -0.404 OA 
HETATM   13  H   UNL     1      -9.962   8.271  67.610  1.00  0.00     0.000 HD 
ENDBRANCH  10  11
ENDBRANCH   5  10
ENDBRANCH   4   5
ENDBRANCH   2   4
TORSDOF 6
ENDMDL
MODEL       96
REMARK 921   NORMALIZED FREE ENERGY PREDICTED BY IDOCK:   -2.69 KCAL/MOL
REMARK 922        TOTAL FREE ENERGY PREDICTED BY IDOCK:   -4.12 KCAL/MOL
REMARK 923 INTER-LIGAND FREE ENERGY PREDICTED BY IDOCK:   -3.89 KCAL/MOL
REMARK 924 INTRA-LIGAND FREE ENERGY PREDICTED BY IDOCK:   -0.23 KCAL/MOL
REMARK 927      BINDING AFFINITY PREDICTED BY RF-SCORE:    0.00 PKD
ROOT
HETATM    1  O   UNL     1     -10.202   4.904  72.596  1.00  0.00    -0.174 OA 
HETATM    2  C   UNL     1     -11.366   5.729  72.546  1.00  0.00    -0.307 C  
HETATM    3  H   UNL     1     -10.443   4.018  72.353  1.00  0.00     0.000 HD 
ENDROOT
BRANCH   2   4
HETATM    4  C   UNL     1     -10.976   7.165  72.940  1.00  0.00    -0.320 C  
BRANCH   4   5
HETATM    5  N   UNL     1     -11.902   8.250  72.512  1.00  0.00    -0.398 NA 
BRANCH   5   6
HETATM    6  C   UNL     1     -11.152   9.256  71.702  1.00  0.00    -0.368 C  
BRANCH   6   7
HETATM    7  C   UNL     1      -9.795   8.783  71.144  1.00  0.00    -0.244 C  
HETATM    8  H   UNL     1      -9.036   8.303  69.392  1.00  0.00     0.000 HD 
HETATM    9  O   UNL     1      -9.873   8.594  69.736  1.00  0.00    -0.178 OA 
ENDBRANCH   6   7
ENDBRANCH   5   6
BRANCH   5  10
HETATM   10  C   UNL     1     -13.010   7.668  71.699  1.00  0.00    -0.350 C  
BRANCH  10  11
HETATM   11  C   UNL     1     -14.351   8.419  71.790  1.00  0.00    -0.472 C  
HETATM   12  O   UNL     1     -14.409   9.179  72.994  1.00  0.00    -1.075 OA 
HETATM   13  H   UNL     1     -15.237   9.642  73.050  1.00  0.00     0.000 HD 
ENDBRANCH  10  11
ENDBRANCH   5  10
ENDBRANCH   4   5
ENDBRANCH   2   4
TORSDOF 6
ENDMDL
MODEL       97
REMARK 921   NORMALIZED FREE ENERGY PREDICTED BY IDOCK:   -2.68 KCAL/MOL
REMARK 922        TOTAL FREE ENERGY PREDICTED BY IDOCK:   -4.11 KCAL/MOL
REMARK 923 INTER-LIGAND FREE ENERGY PREDICTED BY IDOCK:   -3.95 KCAL/MOL
REMARK 924 INTRA-LIGAND FREE ENERGY PREDICTED BY IDOCK:   -0.16 KCAL/MOL
REMARK 927      BINDING AFFINITY PREDICTED BY RF-SCORE:    0.00 PKD
ROOT
HETATM    1  O   UNL     1     -14.281   8.686  73.147  1.00  0.00    -1.059 OA 
HETATM    2  C   UNL     1     -13.899   9.390  71.965  1.00  0.00    -0.340 C  
HETATM    3  H   UNL     1     -15.228   8.616  73.169  1.00  0.00     0.000 HD 
ENDROOT
BRANCH   2   4
HETATM    4  C   UNL     1     -12.365   9.504  71.929  1.00  0.00    -0.373 C  
BRANCH   4   5
HETATM    5  N   UNL     1     -11.682   8.957  70.724  1.00  0.00    -0.264 NA 
BRANCH   5   6
HETATM    6  C   UNL     1     -10.805  10.008  70.127  1.00  0.00    -0.311 C  
BRANCH   6   7
HETATM    7  C   UNL     1     -11.044  10.305  68.633  1.00  0.00    -0.239 C  
HETATM    8  H   UNL     1     -12.369  11.268  67.541  1.00  0.00     0.000 HD 
HETATM    9  O   UNL     1     -12.222  11.085  68.462  1.00  0.00    -0.582 OA 
ENDBRANCH   6   7
ENDBRANCH   5   6
BRANCH   5  10
HETATM   10  C   UNL     1     -10.861   7.772  71.112  1.00  0.00    -0.235 C  
BRANCH  10  11
HETATM   11  C   UNL     1     -11.666   6.509  71.466  1.00  0.00    -0.324 C  
HETATM   12  O   UNL     1     -10.812   5.368  71.481  1.00  0.00    -0.224 OA 
HETATM   13  H   UNL     1     -11.309   4.589  71.700  1.00  0.00     0.000 HD 
ENDBRANCH  10  11
ENDBRANCH   5  10
ENDBRANCH   4   5
ENDBRANCH   2   4
TORSDOF 6
ENDMDL
MODEL       98
REMARK 921   NORMALIZED FREE ENERGY PREDICTED BY IDOCK:   -2.67 KCAL/MOL
REMARK 922        TOTAL FREE ENERGY PREDICTED BY IDOCK:   -4.08 KCAL/MOL
REMARK 923 INTER-LIGAND FREE ENERGY PREDICTED BY IDOCK:   -3.62 KCAL/MOL
REMARK 924 INTRA-LIGAND FREE ENERGY PREDICTED BY IDOCK:   -0.46 KCAL/MOL
REMARK 927      BINDING AFFINITY PREDICTED BY RF-SCORE:    0.00 PKD
ROOT
HETATM    1  O   UNL     1     -11.963   6.593  69.763  1.00  0.00    -0.654 OA 
HETATM    2  C   UNL     1     -12.531   6.913  71.032  1.00  0.00    -0.313 C  
HETATM    3  H   UNL     1     -12.651   6.279  69.188  1.00  0.00     0.000 HD 
ENDROOT
BRANCH   2   4
HETATM    4  C   UNL     1     -11.416   7.422  71.963  1.00  0.00    -0.273 C  
BRANCH   4   5
HETATM    5  N   UNL     1     -11.186   8.893  71.990  1.00  0.00    -0.368 NA 
BRANCH   5   6
HETATM    6  C   UNL     1     -10.079   9.242  71.051  1.00  0.00    -0.303 C  
BRANCH   6   7
HETATM    7  C   UNL     1      -9.034   8.134  70.813  1.00  0.00    -0.145 C  
HETATM    8  H   UNL     1      -8.414   7.026  69.308  1.00  0.00     0.000 HD 
HETATM    9  O   UNL     1      -9.059   7.709  69.455  1.00  0.00    -0.146 OA 
ENDBRANCH   6   7
ENDBRANCH   5   6
BRANCH   5  10
HETATM   10  C   UNL     1     -12.437   9.599  71.585  1.00  0.00    -0.407 C  
BRANCH  10  11
HETATM   11  C   UNL     1     -12.226  10.851  70.713  1.00  0.00    -0.383 C  
HETATM   12  O   UNL     1     -12.848  10.678  69.443  1.00  0.00    -0.629 OA 
HETATM   13  H   UNL     1     -12.718  11.451  68.906  1.00  0.00     0.000 HD 
ENDBRANCH  10  11
ENDBRANCH   5  10
ENDBRANCH   4   5
ENDBRANCH   2   4
TORSDOF 6
ENDMDL
MODEL       99
REMARK 921   NORMALIZED FREE ENERGY PREDICTED BY IDOCK:   -2.66 KCAL/MOL
REMARK 922        TOTAL FREE ENERGY PREDICTED BY IDOCK:   -4.08 KCAL/MOL
REMARK 923 INTER-LIGAND FREE ENERGY PREDICTED BY IDOCK:   -3.72 KCAL/MOL
REMARK 924 INTRA-LIGAND FREE ENERGY PREDICTED BY IDOCK:   -0.36 KCAL/MOL
REMARK 927      BINDING AFFINITY PREDICTED BY RF-SCORE:    0.00 PKD
ROOT
HETATM    1  O   UNL     1     -11.103   8.759  68.480  1.00  0.00    -0.444 OA 
HETATM    2  C   UNL     1     -10.787   9.987  69.134  1.00  0.00    -0.222 C  
HETATM    3  H   UNL     1     -11.125   8.908  67.542  1.00  0.00     0.000 HD 
ENDROOT
BRANCH   2   4
HETATM    4  C   UNL     1     -10.749   9.747  70.654  1.00  0.00    -0.326 C  
BRANCH   4   5
HETATM    5  N   UNL     1     -11.856  10.341  71.453  1.00  0.00    -0.331 NA 
BRANCH   5   6
HETATM    6  C   UNL     1     -12.596  11.335  70.620  1.00  0.00    -0.288 C  
BRANCH   6   7
HETATM    7  C   UNL     1     -12.666  12.764  71.193  1.00  0.00    -0.263 C  
HETATM    8  H   UNL     1     -13.527  13.677  72.710  1.00  0.00     0.000 HD 
HETATM    9  O   UNL     1     -13.484  12.795  72.356  1.00  0.00    -0.557 OA 
ENDBRANCH   6   7
ENDBRANCH   5   6
BRANCH   5  10
HETATM   10  C   UNL     1     -12.785   9.260  71.897  1.00  0.00    -0.394 C  
BRANCH  10  11
HETATM   11  C   UNL     1     -12.279   7.826  71.657  1.00  0.00    -0.313 C  
HETATM   12  O   UNL     1     -13.054   7.192  70.644  1.00  0.00    -0.582 OA 
HETATM   13  H   UNL     1     -12.741   6.308  70.496  1.00  0.00     0.000 HD 
ENDBRANCH  10  11
ENDBRANCH   5  10
ENDBRANCH   4   5
ENDBRANCH   2   4
TORSDOF 6
ENDMDL
MODEL      100
REMARK 921   NORMALIZED FREE ENERGY PREDICTED BY IDOCK:   -2.65 KCAL/MOL
REMARK 922        TOTAL FREE ENERGY PREDICTED BY IDOCK:   -4.07 KCAL/MOL
REMARK 923 INTER-LIGAND FREE ENERGY PREDICTED BY IDOCK:   -3.77 KCAL/MOL
REMARK 924 INTRA-LIGAND FREE ENERGY PREDICTED BY IDOCK:   -0.30 KCAL/MOL
REMARK 927      BINDING AFFINITY PREDICTED BY RF-SCORE:    0.00 PKD
ROOT
HETATM    1  O   UNL     1     -10.905   5.484  71.112  1.00  0.00    -0.239 OA 
HETATM    2  C   UNL     1     -11.478   6.489  70.276  1.00  0.00    -0.411 C  
HETATM    3  H   UNL     1     -11.457   4.711  71.085  1.00  0.00     0.000 HD 
ENDROOT
BRANCH   2   4
HETATM    4  C   UNL     1     -10.584   7.741  70.320  1.00  0.00    -0.231 C  
BRANCH   4   5
HETATM    5  N   UNL     1     -11.276   9.060  70.284  1.00  0.00    -0.235 NA 
BRANCH   5   6
HETATM    6  C   UNL     1     -11.680   9.449  71.668  1.00  0.00    -0.398 C  
BRANCH   6   7
HETATM    7  C   UNL     1     -13.125   9.963  71.820  1.00  0.00    -0.452 C  
HETATM    8  H   UNL     1     -14.042  11.703  71.904  1.00  0.00     0.000 HD 
HETATM    9  O   UNL     1     -13.151  11.386  71.811  1.00  0.00    -0.480 OA 
ENDBRANCH   6   7
ENDBRANCH   5   6
BRANCH   5  10
HETATM   10  C   UNL     1     -10.356  10.089  69.716  1.00  0.00    -0.255 C  
BRANCH  10  11
HETATM   11  C   UNL     1     -11.047  11.218  68.929  1.00  0.00    -0.238 C  
HETATM   12  O   UNL     1     -12.264  10.748  68.358  1.00  0.00    -0.832 OA 
HETATM   13  H   UNL     1     -12.690  11.445  67.873  1.00  0.00     0.000 HD 
ENDBRANCH  10  11
ENDBRANCH   5  10
ENDBRANCH   4   5
ENDBRANCH   2   4
TORSDOF 6
ENDMDL
MODEL      101
REMARK 921   NORMALIZED FREE ENERGY PREDICTED BY IDOCK:   -2.65 KCAL/MOL
REMARK 922        TOTAL FREE ENERGY PREDICTED BY IDOCK:   -4.06 KCAL/MOL
REMARK 923 INTER-LIGAND FREE ENERGY PREDICTED BY IDOCK:   -4.00 KCAL/MOL
REMARK 924 INTRA-LIGAND FREE ENERGY PREDICTED BY IDOCK:   -0.06 KCAL/MOL
REMARK 927      BINDING AFFINITY PREDICTED BY RF-SCORE:    0.00 PKD
ROOT
HETATM    1  O   UNL     1     -10.441  19.792  69.143  1.00  0.00    -0.592 OA 
HETATM    2  C   UNL     1      -9.826  18.710  68.446  1.00  0.00    -0.384 C  
HETATM    3  H   UNL     1     -10.053  19.860  70.008  1.00  0.00     0.000 HD 
ENDROOT
BRANCH   2   4
HETATM    4  C   UNL     1     -10.454  18.599  67.045  1.00  0.00    -0.407 C  
BRANCH   4   5
HETATM    5  N   UNL     1      -9.673  17.856  66.018  1.00  0.00    -0.539 NA 
BRANCH   5   6
HETATM    6  C   UNL     1      -8.228  17.852  66.395  1.00  0.00    -0.255 C  
BRANCH   6   7
HETATM    7  C   UNL     1      -7.395  19.029  65.851  1.00  0.00    -0.239 C  
HETATM    8  H   UNL     1      -6.040  19.321  64.453  1.00  0.00     0.000 HD 
HETATM    9  O   UNL     1      -6.554  18.596  64.789  1.00  0.00    -0.472 OA 
ENDBRANCH   6   7
ENDBRANCH   5   6
BRANCH   5  10
HETATM   10  C   UNL     1     -10.177  16.454  65.927  1.00  0.00    -0.359 C  
BRANCH  10  11
HETATM   11  C   UNL     1     -11.331  16.239  64.931  1.00  0.00    -0.159 C  
HETATM   12  O   UNL     1     -11.122  15.042  64.186  1.00  0.00    -0.597 OA 
HETATM   13  H   UNL     1     -11.835  14.910  63.571  1.00  0.00     0.000 HD 
ENDBRANCH  10  11
ENDBRANCH   5  10
ENDBRANCH   4   5
ENDBRANCH   2   4
TORSDOF 6
ENDMDL
MODEL      102
REMARK 921   NORMALIZED FREE ENERGY PREDICTED BY IDOCK:   -2.65 KCAL/MOL
REMARK 922        TOTAL FREE ENERGY PREDICTED BY IDOCK:   -4.06 KCAL/MOL
REMARK 923 INTER-LIGAND FREE ENERGY PREDICTED BY IDOCK:   -3.71 KCAL/MOL
REMARK 924 INTRA-LIGAND FREE ENERGY PREDICTED BY IDOCK:   -0.34 KCAL/MOL
REMARK 927      BINDING AFFINITY PREDICTED BY RF-SCORE:    0.00 PKD
ROOT
HETATM    1  O   UNL     1     -11.902   6.683  69.307  1.00  0.00    -0.629 OA 
HETATM    2  C   UNL     1     -11.206   6.195  70.453  1.00  0.00    -0.353 C  
HETATM    3  H   UNL     1     -11.488   6.336  68.526  1.00  0.00     0.000 HD 
ENDROOT
BRANCH   2   4
HETATM    4  C   UNL     1     -11.876   6.757  71.720  1.00  0.00    -0.330 C  
BRANCH   4   5
HETATM    5  N   UNL     1     -11.091   7.745  72.510  1.00  0.00    -0.317 NA 
BRANCH   5   6
HETATM    6  C   UNL     1      -9.707   7.227  72.723  1.00  0.00    -0.162 C  
BRANCH   6   7
HETATM    7  C   UNL     1      -8.945   7.834  73.918  1.00  0.00    -0.259 C  
HETATM    8  H   UNL     1      -7.457   9.092  74.199  1.00  0.00     0.000 HD 
HETATM    9  O   UNL     1      -7.926   8.717  73.463  1.00  0.00    -0.410 OA 
ENDBRANCH   6   7
ENDBRANCH   5   6
BRANCH   5  10
HETATM   10  C   UNL     1     -11.039   9.042  71.774  1.00  0.00    -0.374 C  
BRANCH  10  11
HETATM   11  C   UNL     1     -12.409   9.688  71.493  1.00  0.00    -0.390 C  
HETATM   12  O   UNL     1     -12.608   9.832  70.090  1.00  0.00    -0.490 OA 
HETATM   13  H   UNL     1     -13.453  10.230  69.917  1.00  0.00     0.000 HD 
ENDBRANCH  10  11
ENDBRANCH   5  10
ENDBRANCH   4   5
ENDBRANCH   2   4
TORSDOF 6
ENDMDL
MODEL      103
REMARK 921   NORMALIZED FREE ENERGY PREDICTED BY IDOCK:   -2.62 KCAL/MOL
REMARK 922        TOTAL FREE ENERGY PREDICTED BY IDOCK:   -4.03 KCAL/MOL
REMARK 923 INTER-LIGAND FREE ENERGY PREDICTED BY IDOCK:   -3.79 KCAL/MOL
REMARK 924 INTRA-LIGAND FREE ENERGY PREDICTED BY IDOCK:   -0.24 KCAL/MOL
REMARK 927      BINDING AFFINITY PREDICTED BY RF-SCORE:    0.00 PKD
ROOT
HETATM    1  O   UNL     1     -11.174   7.343  68.195  1.00  0.00    -0.453 OA 
HETATM    2  C   UNL     1     -10.565   8.300  69.062  1.00  0.00    -0.150 C  
HETATM    3  H   UNL     1     -10.834   7.465  67.317  1.00  0.00     0.000 HD 
ENDROOT
BRANCH   2   4
HETATM    4  C   UNL     1     -11.115   8.103  70.486  1.00  0.00    -0.253 C  
BRANCH   4   5
HETATM    5  N   UNL     1     -11.832   6.825  70.756  1.00  0.00    -0.380 NA 
BRANCH   5   6
HETATM    6  C   UNL     1     -10.935   5.899  71.509  1.00  0.00    -0.262 C  
BRANCH   6   7
HETATM    7  C   UNL     1     -11.207   5.793  73.022  1.00  0.00    -0.246 C  
HETATM    8  H   UNL     1     -11.690   4.387  74.313  1.00  0.00     0.000 HD 
HETATM    9  O   UNL     1     -11.523   4.452  73.379  1.00  0.00    -0.300 OA 
ENDBRANCH   6   7
ENDBRANCH   5   6
BRANCH   5  10
HETATM   10  C   UNL     1     -13.061   7.104  71.557  1.00  0.00    -0.375 C  
BRANCH  10  11
HETATM   11  C   UNL     1     -13.400   8.596  71.732  1.00  0.00    -0.374 C  
HETATM   12  O   UNL     1     -14.279   8.775  72.839  1.00  0.00    -1.000 OA 
HETATM   13  H   UNL     1     -14.488   9.695  72.947  1.00  0.00     0.000 HD 
ENDBRANCH  10  11
ENDBRANCH   5  10
ENDBRANCH   4   5
ENDBRANCH   2   4
TORSDOF 6
ENDMDL
MODEL      104
REMARK 921   NORMALIZED FREE ENERGY PREDICTED BY IDOCK:   -2.60 KCAL/MOL
REMARK 922        TOTAL FREE ENERGY PREDICTED BY IDOCK:   -3.99 KCAL/MOL
REMARK 923 INTER-LIGAND FREE ENERGY PREDICTED BY IDOCK:   -3.82 KCAL/MOL
REMARK 924 INTRA-LIGAND FREE ENERGY PREDICTED BY IDOCK:   -0.17 KCAL/MOL
REMARK 927      BINDING AFFINITY PREDICTED BY RF-SCORE:    0.00 PKD
ROOT
HETATM    1  O   UNL     1      -6.349  20.450  70.862  1.00  0.00    -0.551 OA 
HETATM    2  C   UNL     1      -6.219  20.167  69.469  1.00  0.00    -0.335 C  
HETATM    3  H   UNL     1      -5.782  21.180  71.081  1.00  0.00     0.000 HD 
ENDROOT
BRANCH   2   4
HETATM    4  C   UNL     1      -7.138  18.984  69.114  1.00  0.00    -0.294 C  
BRANCH   4   5
HETATM    5  N   UNL     1      -8.070  19.181  67.970  1.00  0.00    -0.288 NA 
BRANCH   5   6
HETATM    6  C   UNL     1      -9.422  19.554  68.485  1.00  0.00    -0.386 C  
BRANCH   6   7
HETATM    7  C   UNL     1     -10.610  19.144  67.593  1.00  0.00    -0.451 C  
HETATM    8  H   UNL     1     -11.555  17.486  67.109  1.00  0.00     0.000 HD 
HETATM    9  O   UNL     1     -10.822  17.739  67.659  1.00  0.00    -0.363 OA 
ENDBRANCH   6   7
ENDBRANCH   5   6
BRANCH   5  10
HETATM   10  C   UNL     1      -7.549  20.264  67.084  1.00  0.00    -0.315 C  
BRANCH  10  11
HETATM   11  C   UNL     1      -7.158  19.815  65.664  1.00  0.00    -0.309 C  
HETATM   12  O   UNL     1      -7.031  20.945  64.807  1.00  0.00    -0.530 OA 
HETATM   13  H   UNL     1      -6.789  20.667  63.931  1.00  0.00     0.000 HD 
ENDBRANCH  10  11
ENDBRANCH   5  10
ENDBRANCH   4   5
ENDBRANCH   2   4
TORSDOF 6
ENDMDL
MODEL      105
REMARK 921   NORMALIZED FREE ENERGY PREDICTED BY IDOCK:   -2.59 KCAL/MOL
REMARK 922        TOTAL FREE ENERGY PREDICTED BY IDOCK:   -3.98 KCAL/MOL
REMARK 923 INTER-LIGAND FREE ENERGY PREDICTED BY IDOCK:   -3.82 KCAL/MOL
REMARK 924 INTRA-LIGAND FREE ENERGY PREDICTED BY IDOCK:   -0.15 KCAL/MOL
REMARK 927      BINDING AFFINITY PREDICTED BY RF-SCORE:    0.00 PKD
ROOT
HETATM    1  O   UNL     1     -10.065   8.562  66.028  1.00  0.00    -0.473 OA 
HETATM    2  C   UNL     1     -10.075   9.941  66.395  1.00  0.00    -0.240 C  
HETATM    3  H   UNL     1     -10.101   8.034  66.818  1.00  0.00     0.000 HD 
ENDROOT
BRANCH   2   4
HETATM    4  C   UNL     1     -10.017  10.796  65.116  1.00  0.00    -0.291 C  
BRANCH   4   5
HETATM    5  N   UNL     1     -10.358  12.239  65.260  1.00  0.00    -0.275 NA 
BRANCH   5   6
HETATM    6  C   UNL     1     -11.795  12.449  64.911  1.00  0.00    -0.386 C  
BRANCH   6   7
HETATM    7  C   UNL     1     -12.070  12.883  63.458  1.00  0.00    -0.555 C  
HETATM    8  H   UNL     1     -12.829  14.446  62.532  1.00  0.00     0.000 HD 
HETATM    9  O   UNL     1     -12.659  14.178  63.428  1.00  0.00    -0.818 OA 
ENDBRANCH   6   7
ENDBRANCH   5   6
BRANCH   5  10
HETATM   10  C   UNL     1     -10.109  12.671  66.667  1.00  0.00    -0.241 C  
BRANCH  10  11
HETATM   11  C   UNL     1     -10.436  14.146  66.963  1.00  0.00    -0.271 C  
HETATM   12  O   UNL     1      -9.495  14.999  66.318  1.00  0.00    -0.275 OA 
HETATM   13  H   UNL     1      -9.698  15.909  66.501  1.00  0.00     0.000 HD 
ENDBRANCH  10  11
ENDBRANCH   5  10
ENDBRANCH   4   5
ENDBRANCH   2   4
TORSDOF 6
ENDMDL
MODEL      106
REMARK 921   NORMALIZED FREE ENERGY PREDICTED BY IDOCK:   -2.58 KCAL/MOL
REMARK 922        TOTAL FREE ENERGY PREDICTED BY IDOCK:   -3.96 KCAL/MOL
REMARK 923 INTER-LIGAND FREE ENERGY PREDICTED BY IDOCK:   -3.55 KCAL/MOL
REMARK 924 INTRA-LIGAND FREE ENERGY PREDICTED BY IDOCK:   -0.41 KCAL/MOL
REMARK 927      BINDING AFFINITY PREDICTED BY RF-SCORE:    0.00 PKD
ROOT
HETATM    1  O   UNL     1      -9.805  16.605  67.213  1.00  0.00    -0.245 OA 
HETATM    2  C   UNL     1     -10.761  15.831  66.490  1.00  0.00    -0.283 C  
HETATM    3  H   UNL     1      -9.509  17.320  66.663  1.00  0.00     0.000 HD 
ENDROOT
BRANCH   2   4
HETATM    4  C   UNL     1     -11.241  14.673  67.382  1.00  0.00    -0.342 C  
BRANCH   4   5
HETATM    5  N   UNL     1     -12.004  13.583  66.711  1.00  0.00    -0.400 NA 
BRANCH   5   6
HETATM    6  C   UNL     1     -12.215  13.932  65.275  1.00  0.00    -0.433 C  
BRANCH   6   7
HETATM    7  C   UNL     1     -12.518  12.746  64.339  1.00  0.00    -0.399 C  
HETATM    8  H   UNL     1     -11.656  11.846  62.815  1.00  0.00     0.000 HD 
HETATM    9  O   UNL     1     -11.470  12.577  63.392  1.00  0.00    -0.472 OA 
ENDBRANCH   6   7
ENDBRANCH   5   6
BRANCH   5  10
HETATM   10  C   UNL     1     -11.240  12.305  66.816  1.00  0.00    -0.318 C  
BRANCH  10  11
HETATM   11  C   UNL     1      -9.710  12.451  66.733  1.00  0.00    -0.223 C  
HETATM   12  O   UNL     1      -9.256  12.150  65.417  1.00  0.00    -0.433 OA 
HETATM   13  H   UNL     1      -8.312  12.241  65.366  1.00  0.00     0.000 HD 
ENDBRANCH  10  11
ENDBRANCH   5  10
ENDBRANCH   4   5
ENDBRANCH   2   4
TORSDOF 6
ENDMDL
MODEL      107
REMARK 921   NORMALIZED FREE ENERGY PREDICTED BY IDOCK:   -2.56 KCAL/MOL
REMARK 922        TOTAL FREE ENERGY PREDICTED BY IDOCK:   -3.94 KCAL/MOL
REMARK 923 INTER-LIGAND FREE ENERGY PREDICTED BY IDOCK:   -3.61 KCAL/MOL
REMARK 924 INTRA-LIGAND FREE ENERGY PREDICTED BY IDOCK:   -0.33 KCAL/MOL
REMARK 927      BINDING AFFINITY PREDICTED BY RF-SCORE:    0.00 PKD
ROOT
HETATM    1  O   UNL     1     -13.664   8.879  71.138  1.00  0.00    -0.564 OA 
HETATM    2  C   UNL     1     -12.691   9.496  71.981  1.00  0.00    -0.396 C  
HETATM    3  H   UNL     1     -14.245   9.549  70.798  1.00  0.00     0.000 HD 
ENDROOT
BRANCH   2   4
HETATM    4  C   UNL     1     -11.750   8.411  72.533  1.00  0.00    -0.359 C  
BRANCH   4   5
HETATM    5  N   UNL     1     -10.318   8.501  72.134  1.00  0.00    -0.322 NA 
BRANCH   5   6
HETATM    6  C   UNL     1      -9.462   7.931  73.217  1.00  0.00    -0.285 C  
BRANCH   6   7
HETATM    7  C   UNL     1      -7.963   8.281  73.135  1.00  0.00    -0.140 C  
HETATM    8  H   UNL     1      -6.594   9.071  74.307  1.00  0.00     0.000 HD 
HETATM    9  O   UNL     1      -7.518   8.855  74.358  1.00  0.00    -0.420 OA 
ENDBRANCH   6   7
ENDBRANCH   5   6
BRANCH   5  10
HETATM   10  C   UNL     1     -10.106   7.742  70.867  1.00  0.00    -0.187 C  
BRANCH  10  11
HETATM   11  C   UNL     1     -10.948   6.460  70.725  1.00  0.00    -0.290 C  
HETATM   12  O   UNL     1     -11.889   6.603  69.665  1.00  0.00    -0.649 OA 
HETATM   13  H   UNL     1     -12.407   5.812  69.578  1.00  0.00     0.000 HD 
ENDBRANCH  10  11
ENDBRANCH   5  10
ENDBRANCH   4   5
ENDBRANCH   2   4
TORSDOF 6
ENDMDL
MODEL      108
REMARK 921   NORMALIZED FREE ENERGY PREDICTED BY IDOCK:   -2.55 KCAL/MOL
REMARK 922        TOTAL FREE ENERGY PREDICTED BY IDOCK:   -3.92 KCAL/MOL
REMARK 923 INTER-LIGAND FREE ENERGY PREDICTED BY IDOCK:   -3.47 KCAL/MOL
REMARK 924 INTRA-LIGAND FREE ENERGY PREDICTED BY IDOCK:   -0.45 KCAL/MOL
REMARK 927      BINDING AFFINITY PREDICTED BY RF-SCORE:    0.00 PKD
ROOT
HETATM    1  O   UNL     1     -11.462   6.376  67.920  1.00  0.00    -0.622 OA 
HETATM    2  C   UNL     1     -10.682   6.277  69.112  1.00  0.00    -0.301 C  
HETATM    3  H   UNL     1     -11.265   5.633  67.362  1.00  0.00     0.000 HD 
ENDROOT
BRANCH   2   4
HETATM    4  C   UNL     1     -11.002   7.481  70.016  1.00  0.00    -0.240 C  
BRANCH   4   5
HETATM    5  N   UNL     1     -11.569   7.177  71.359  1.00  0.00    -0.269 NA 
BRANCH   5   6
HETATM    6  C   UNL     1     -13.051   7.031  71.254  1.00  0.00    -0.262 C  
BRANCH   6   7
HETATM    7  C   UNL     1     -13.880   8.113  71.973  1.00  0.00    -0.314 C  
HETATM    8  H   UNL     1     -13.535   9.743  73.022  1.00  0.00     0.000 HD 
HETATM    9  O   UNL     1     -13.025   9.075  72.579  1.00  0.00    -0.418 OA 
ENDBRANCH   6   7
ENDBRANCH   5   6
BRANCH   5  10
HETATM   10  C   UNL     1     -10.970   5.912  71.877  1.00  0.00    -0.266 C  
BRANCH  10  11
HETATM   11  C   UNL     1     -10.729   5.878  73.398  1.00  0.00    -0.267 C  
HETATM   12  O   UNL     1     -10.882   7.183  73.950  1.00  0.00    -0.510 OA 
HETATM   13  H   UNL     1     -10.734   7.162  74.888  1.00  0.00     0.000 HD 
ENDBRANCH  10  11
ENDBRANCH   5  10
ENDBRANCH   4   5
ENDBRANCH   2   4
TORSDOF 6
ENDMDL
MODEL      109
REMARK 921   NORMALIZED FREE ENERGY PREDICTED BY IDOCK:   -2.54 KCAL/MOL
REMARK 922        TOTAL FREE ENERGY PREDICTED BY IDOCK:   -3.91 KCAL/MOL
REMARK 923 INTER-LIGAND FREE ENERGY PREDICTED BY IDOCK:   -3.72 KCAL/MOL
REMARK 924 INTRA-LIGAND FREE ENERGY PREDICTED BY IDOCK:   -0.19 KCAL/MOL
REMARK 927      BINDING AFFINITY PREDICTED BY RF-SCORE:    0.00 PKD
ROOT
HETATM    1  O   UNL     1     -10.654  19.959  68.936  1.00  0.00    -0.540 OA 
HETATM    2  C   UNL     1      -9.686  19.662  67.930  1.00  0.00    -0.374 C  
HETATM    3  H   UNL     1     -11.028  20.814  68.759  1.00  0.00     0.000 HD 
ENDROOT
BRANCH   2   4
HETATM    4  C   UNL     1      -9.080  18.276  68.217  1.00  0.00    -0.305 C  
BRANCH   4   5
HETATM    5  N   UNL     1      -7.655  18.245  68.650  1.00  0.00    -0.295 NA 
BRANCH   5   6
HETATM    6  C   UNL     1      -6.855  17.445  67.675  1.00  0.00    -0.154 C  
BRANCH   6   7
HETATM    7  C   UNL     1      -7.484  17.274  66.279  1.00  0.00    -0.319 C  
HETATM    8  H   UNL     1      -7.445  18.211  64.548  1.00  0.00     0.000 HD 
HETATM    9  O   UNL     1      -7.058  18.317  65.409  1.00  0.00    -0.537 OA 
ENDBRANCH   6   7
ENDBRANCH   5   6
BRANCH   5  10
HETATM   10  C   UNL     1      -7.126  19.639  68.717  1.00  0.00    -0.346 C  
BRANCH  10  11
HETATM   11  C   UNL     1      -5.904  19.829  69.635  1.00  0.00    -0.279 C  
HETATM   12  O   UNL     1      -6.285  20.502  70.831  1.00  0.00    -0.572 OA 
HETATM   13  H   UNL     1      -5.531  20.618  71.397  1.00  0.00     0.000 HD 
ENDBRANCH  10  11
ENDBRANCH   5  10
ENDBRANCH   4   5
ENDBRANCH   2   4
TORSDOF 6
ENDMDL
MODEL      110
REMARK 921   NORMALIZED FREE ENERGY PREDICTED BY IDOCK:   -2.53 KCAL/MOL
REMARK 922        TOTAL FREE ENERGY PREDICTED BY IDOCK:   -3.91 KCAL/MOL
REMARK 923 INTER-LIGAND FREE ENERGY PREDICTED BY IDOCK:   -3.67 KCAL/MOL
REMARK 924 INTRA-LIGAND FREE ENERGY PREDICTED BY IDOCK:   -0.24 KCAL/MOL
REMARK 927      BINDING AFFINITY PREDICTED BY RF-SCORE:    0.00 PKD
ROOT
HETATM    1  O   UNL     1     -12.696  13.985  65.625  1.00  0.00    -0.526 OA 
HETATM    2  C   UNL     1     -11.979  13.114  66.499  1.00  0.00    -0.398 C  
HETATM    3  H   UNL     1     -12.965  13.496  64.856  1.00  0.00     0.000 HD 
ENDROOT
BRANCH   2   4
HETATM    4  C   UNL     1     -11.544  13.906  67.745  1.00  0.00    -0.347 C  
BRANCH   4   5
HETATM    5  N   UNL     1     -11.276  15.359  67.554  1.00  0.00    -0.324 NA 
BRANCH   5   6
HETATM    6  C   UNL     1     -11.616  16.097  68.807  1.00  0.00    -0.297 C  
BRANCH   6   7
HETATM    7  C   UNL     1     -10.963  15.560  70.095  1.00  0.00    -0.321 C  
HETATM    8  H   UNL     1     -11.414  15.440  72.007  1.00  0.00     0.000 HD 
HETATM    9  O   UNL     1     -11.817  15.771  71.213  1.00  0.00    -0.360 OA 
ENDBRANCH   6   7
ENDBRANCH   5   6
BRANCH   5  10
HETATM   10  C   UNL     1      -9.834  15.559  67.223  1.00  0.00    -0.224 C  
BRANCH  10  11
HETATM   11  C   UNL     1      -9.544  15.894  65.748  1.00  0.00    -0.304 C  
HETATM   12  O   UNL     1     -10.139  17.141  65.400  1.00  0.00    -0.571 OA 
HETATM   13  H   UNL     1      -9.960  17.347  64.490  1.00  0.00     0.000 HD 
ENDBRANCH  10  11
ENDBRANCH   5  10
ENDBRANCH   4   5
ENDBRANCH   2   4
TORSDOF 6
ENDMDL
MODEL      111
REMARK 921   NORMALIZED FREE ENERGY PREDICTED BY IDOCK:   -2.52 KCAL/MOL
REMARK 922        TOTAL FREE ENERGY PREDICTED BY IDOCK:   -3.89 KCAL/MOL
REMARK 923 INTER-LIGAND FREE ENERGY PREDICTED BY IDOCK:   -3.68 KCAL/MOL
REMARK 924 INTRA-LIGAND FREE ENERGY PREDICTED BY IDOCK:   -0.22 KCAL/MOL
REMARK 927      BINDING AFFINITY PREDICTED BY RF-SCORE:    0.00 PKD
ROOT
HETATM    1  O   UNL     1     -13.243  15.795  70.628  1.00  0.00    -0.705 OA 
HETATM    2  C   UNL     1     -12.135  15.856  69.729  1.00  0.00    -0.215 C  
HETATM    3  H   UNL     1     -13.566  16.675  70.777  1.00  0.00     0.000 HD 
ENDROOT
BRANCH   2   4
HETATM    4  C   UNL     1     -11.611  14.430  69.487  1.00  0.00    -0.304 C  
BRANCH   4   5
HETATM    5  N   UNL     1     -10.937  14.177  68.183  1.00  0.00    -0.243 NA 
BRANCH   5   6
HETATM    6  C   UNL     1     -11.874  13.458  67.269  1.00  0.00    -0.376 C  
BRANCH   6   7
HETATM    7  C   UNL     1     -12.049  14.081  65.870  1.00  0.00    -0.428 C  
HETATM    8  H   UNL     1     -13.427  14.125  64.465  1.00  0.00     0.000 HD 
HETATM    9  O   UNL     1     -13.319  13.740  65.328  1.00  0.00    -0.710 OA 
ENDBRANCH   6   7
ENDBRANCH   5   6
BRANCH   5  10
HETATM   10  C   UNL     1     -10.531  15.477  67.573  1.00  0.00    -0.282 C  
BRANCH  10  11
HETATM   11  C   UNL     1      -9.013  15.728  67.523  1.00  0.00    -0.194 C  
HETATM   12  O   UNL     1      -8.665  16.816  68.376  1.00  0.00    -0.218 OA 
HETATM   13  H   UNL     1      -7.728  16.970  68.345  1.00  0.00     0.000 HD 
ENDBRANCH  10  11
ENDBRANCH   5  10
ENDBRANCH   4   5
ENDBRANCH   2   4
TORSDOF 6
ENDMDL
MODEL      112
REMARK 921   NORMALIZED FREE ENERGY PREDICTED BY IDOCK:   -2.52 KCAL/MOL
REMARK 922        TOTAL FREE ENERGY PREDICTED BY IDOCK:   -3.88 KCAL/MOL
REMARK 923 INTER-LIGAND FREE ENERGY PREDICTED BY IDOCK:   -3.72 KCAL/MOL
REMARK 924 INTRA-LIGAND FREE ENERGY PREDICTED BY IDOCK:   -0.17 KCAL/MOL
REMARK 927      BINDING AFFINITY PREDICTED BY RF-SCORE:    0.00 PKD
ROOT
HETATM    1  O   UNL     1     -11.601   6.620  68.457  1.00  0.00    -0.552 OA 
HETATM    2  C   UNL     1     -10.834   6.635  69.661  1.00  0.00    -0.286 C  
HETATM    3  H   UNL     1     -11.031   6.396  67.732  1.00  0.00     0.000 HD 
ENDROOT
BRANCH   2   4
HETATM    4  C   UNL     1     -11.758   6.997  70.836  1.00  0.00    -0.343 C  
BRANCH   4   5
HETATM    5  N   UNL     1     -11.260   8.030  71.786  1.00  0.00    -0.255 NA 
BRANCH   5   6
HETATM    6  C   UNL     1     -12.347   9.014  72.069  1.00  0.00    -0.384 C  
BRANCH   6   7
HETATM    7  C   UNL     1     -12.393  10.241  71.138  1.00  0.00    -0.395 C  
HETATM    8  H   UNL     1     -13.166  12.052  71.163  1.00  0.00     0.000 HD 
HETATM    9  O   UNL     1     -13.137  11.295  71.738  1.00  0.00    -0.472 OA 
ENDBRANCH   6   7
ENDBRANCH   5   6
BRANCH   5  10
HETATM   10  C   UNL     1     -10.828   7.372  73.055  1.00  0.00    -0.375 C  
BRANCH  10  11
HETATM   11  C   UNL     1      -9.396   7.708  73.510  1.00  0.00    -0.282 C  
HETATM   12  O   UNL     1      -8.827   8.697  72.657  1.00  0.00    -0.371 OA 
HETATM   13  H   UNL     1      -7.944   8.904  72.938  1.00  0.00     0.000 HD 
ENDBRANCH  10  11
ENDBRANCH   5  10
ENDBRANCH   4   5
ENDBRANCH   2   4
TORSDOF 6
ENDMDL
MODEL      113
REMARK 921   NORMALIZED FREE ENERGY PREDICTED BY IDOCK:   -2.50 KCAL/MOL
REMARK 922        TOTAL FREE ENERGY PREDICTED BY IDOCK:   -3.86 KCAL/MOL
REMARK 923 INTER-LIGAND FREE ENERGY PREDICTED BY IDOCK:   -3.71 KCAL/MOL
REMARK 924 INTRA-LIGAND FREE ENERGY PREDICTED BY IDOCK:   -0.15 KCAL/MOL
REMARK 927      BINDING AFFINITY PREDICTED BY RF-SCORE:    0.00 PKD
ROOT
HETATM    1  O   UNL     1      -9.137  16.652  67.185  1.00  0.00    -0.208 OA 
HETATM    2  C   UNL     1     -10.412  16.136  67.566  1.00  0.00    -0.302 C  
HETATM    3  H   UNL     1      -9.250  17.533  66.848  1.00  0.00     0.000 HD 
ENDROOT
BRANCH   2   4
HETATM    4  C   UNL     1     -10.229  14.709  68.112  1.00  0.00    -0.231 C  
BRANCH   4   5
HETATM    5  N   UNL     1     -11.090  14.316  69.262  1.00  0.00    -0.263 NA 
BRANCH   5   6
HETATM    6  C   UNL     1     -11.936  15.476  69.671  1.00  0.00    -0.359 C  
BRANCH   6   7
HETATM    7  C   UNL     1     -12.345  15.512  71.156  1.00  0.00    -0.411 C  
HETATM    8  H   UNL     1     -14.006  15.684  72.199  1.00  0.00     0.000 HD 
HETATM    9  O   UNL     1     -13.754  15.663  71.283  1.00  0.00    -0.568 OA 
ENDBRANCH   6   7
ENDBRANCH   5   6
BRANCH   5  10
HETATM   10  C   UNL     1     -11.959  13.169  68.864  1.00  0.00    -0.277 C  
BRANCH  10  11
HETATM   11  C   UNL     1     -11.666  11.845  69.593  1.00  0.00    -0.343 C  
HETATM   12  O   UNL     1     -12.389  10.778  68.987  1.00  0.00    -0.751 OA 
HETATM   13  H   UNL     1     -12.208   9.961  69.437  1.00  0.00     0.000 HD 
ENDBRANCH  10  11
ENDBRANCH   5  10
ENDBRANCH   4   5
ENDBRANCH   2   4
TORSDOF 6
ENDMDL
MODEL      114
REMARK 921   NORMALIZED FREE ENERGY PREDICTED BY IDOCK:   -2.49 KCAL/MOL
REMARK 922        TOTAL FREE ENERGY PREDICTED BY IDOCK:   -3.85 KCAL/MOL
REMARK 923 INTER-LIGAND FREE ENERGY PREDICTED BY IDOCK:   -3.65 KCAL/MOL
REMARK 924 INTRA-LIGAND FREE ENERGY PREDICTED BY IDOCK:   -0.20 KCAL/MOL
REMARK 927      BINDING AFFINITY PREDICTED BY RF-SCORE:    0.00 PKD
ROOT
HETATM    1  O   UNL     1      -7.216  14.048  67.070  1.00  0.00    -0.355 OA 
HETATM    2  C   UNL     1      -8.354  13.306  67.507  1.00  0.00    -0.186 C  
HETATM    3  H   UNL     1      -6.471  13.815  67.611  1.00  0.00     0.000 HD 
ENDROOT
BRANCH   2   4
HETATM    4  C   UNL     1      -9.561  13.684  66.629  1.00  0.00    -0.283 C  
BRANCH   4   5
HETATM    5  N   UNL     1     -10.736  12.770  66.679  1.00  0.00    -0.259 NA 
BRANCH   5   6
HETATM    6  C   UNL     1     -10.609  11.857  67.853  1.00  0.00    -0.201 C  
BRANCH   6   7
HETATM    7  C   UNL     1     -11.900  11.634  68.666  1.00  0.00    -0.308 C  
HETATM    8  H   UNL     1     -12.481  11.808  70.539  1.00  0.00     0.000 HD 
HETATM    9  O   UNL     1     -11.685  11.945  70.038  1.00  0.00    -0.317 OA 
ENDBRANCH   6   7
ENDBRANCH   5   6
BRANCH   5  10
HETATM   10  C   UNL     1     -11.987  13.576  66.796  1.00  0.00    -0.404 C  
BRANCH  10  11
HETATM   11  C   UNL     1     -12.724  13.834  65.468  1.00  0.00    -0.488 C  
HETATM   12  O   UNL     1     -13.113  12.600  64.872  1.00  0.00    -0.850 OA 
HETATM   13  H   UNL     1     -13.567  12.759  64.054  1.00  0.00     0.000 HD 
ENDBRANCH  10  11
ENDBRANCH   5  10
ENDBRANCH   4   5
ENDBRANCH   2   4
TORSDOF 6
ENDMDL
MODEL      115
REMARK 921   NORMALIZED FREE ENERGY PREDICTED BY IDOCK:   -2.49 KCAL/MOL
REMARK 922        TOTAL FREE ENERGY PREDICTED BY IDOCK:   -3.84 KCAL/MOL
REMARK 923 INTER-LIGAND FREE ENERGY PREDICTED BY IDOCK:   -3.69 KCAL/MOL
REMARK 924 INTRA-LIGAND FREE ENERGY PREDICTED BY IDOCK:   -0.16 KCAL/MOL
REMARK 927      BINDING AFFINITY PREDICTED BY RF-SCORE:    0.00 PKD
ROOT
HETATM    1  O   UNL     1      -7.823  10.287  70.390  1.00  0.00    -0.427 OA 
HETATM    2  C   UNL     1      -9.034   9.549  70.223  1.00  0.00    -0.248 C  
HETATM    3  H   UNL     1      -7.265   9.826  71.004  1.00  0.00     0.000 HD 
ENDROOT
BRANCH   2   4
HETATM    4  C   UNL     1      -9.939  10.296  69.227  1.00  0.00    -0.227 C  
BRANCH   4   5
HETATM    5  N   UNL     1     -11.395  10.324  69.537  1.00  0.00    -0.249 NA 
BRANCH   5   6
HETATM    6  C   UNL     1     -11.618   9.838  70.931  1.00  0.00    -0.361 C  
BRANCH   6   7
HETATM    7  C   UNL     1     -12.848  10.424  71.652  1.00  0.00    -0.474 C  
HETATM    8  H   UNL     1     -14.351   9.753  72.731  1.00  0.00     0.000 HD 
HETATM    9  O   UNL     1     -13.593   9.392  72.286  1.00  0.00    -0.447 OA 
ENDBRANCH   6   7
ENDBRANCH   5   6
BRANCH   5  10
HETATM   10  C   UNL     1     -11.906  11.720  69.399  1.00  0.00    -0.334 C  
BRANCH  10  11
HETATM   11  C   UNL     1     -11.420  12.471  68.145  1.00  0.00    -0.319 C  
HETATM   12  O   UNL     1     -12.045  11.941  66.980  1.00  0.00    -0.600 OA 
HETATM   13  H   UNL     1     -11.746  12.404  66.207  1.00  0.00     0.000 HD 
ENDBRANCH  10  11
ENDBRANCH   5  10
ENDBRANCH   4   5
ENDBRANCH   2   4
TORSDOF 6
ENDMDL
MODEL      116
REMARK 921   NORMALIZED FREE ENERGY PREDICTED BY IDOCK:   -2.49 KCAL/MOL
REMARK 922        TOTAL FREE ENERGY PREDICTED BY IDOCK:   -3.84 KCAL/MOL
REMARK 923 INTER-LIGAND FREE ENERGY PREDICTED BY IDOCK:   -3.39 KCAL/MOL
REMARK 924 INTRA-LIGAND FREE ENERGY PREDICTED BY IDOCK:   -0.46 KCAL/MOL
REMARK 927      BINDING AFFINITY PREDICTED BY RF-SCORE:    0.00 PKD
ROOT
HETATM    1  O   UNL     1     -11.345  11.231  70.333  1.00  0.00    -0.482 OA 
HETATM    2  C   UNL     1     -12.239  11.348  69.226  1.00  0.00    -0.204 C  
HETATM    3  H   UNL     1     -11.681  10.574  70.930  1.00  0.00     0.000 HD 
ENDROOT
BRANCH   2   4
HETATM    4  C   UNL     1     -11.695  12.414  68.258  1.00  0.00    -0.345 C  
BRANCH   4   5
HETATM    5  N   UNL     1     -10.709  11.954  67.241  1.00  0.00    -0.227 NA 
BRANCH   5   6
HETATM    6  C   UNL     1     -10.938  12.682  65.958  1.00  0.00    -0.282 C  
BRANCH   6   7
HETATM    7  C   UNL     1     -11.973  13.823  66.015  1.00  0.00    -0.414 C  
HETATM    8  H   UNL     1     -13.746  14.211  65.252  1.00  0.00     0.000 HD 
HETATM    9  O   UNL     1     -13.108  13.507  65.217  1.00  0.00    -0.713 OA 
ENDBRANCH   6   7
ENDBRANCH   5   6
BRANCH   5  10
HETATM   10  C   UNL     1      -9.325  12.221  67.735  1.00  0.00    -0.194 C  
BRANCH  10  11
HETATM   11  C   UNL     1      -8.538  10.972  68.175  1.00  0.00    -0.140 C  
HETATM   12  O   UNL     1      -8.640  10.796  69.584  1.00  0.00    -0.384 OA 
HETATM   13  H   UNL     1      -8.155  10.025  69.855  1.00  0.00     0.000 HD 
ENDBRANCH  10  11
ENDBRANCH   5  10
ENDBRANCH   4   5
ENDBRANCH   2   4
TORSDOF 6
ENDMDL
MODEL      117
REMARK 921   NORMALIZED FREE ENERGY PREDICTED BY IDOCK:   -2.48 KCAL/MOL
REMARK 922        TOTAL FREE ENERGY PREDICTED BY IDOCK:   -3.83 KCAL/MOL
REMARK 923 INTER-LIGAND FREE ENERGY PREDICTED BY IDOCK:   -3.83 KCAL/MOL
REMARK 924 INTRA-LIGAND FREE ENERGY PREDICTED BY IDOCK:   -0.00 KCAL/MOL
REMARK 927      BINDING AFFINITY PREDICTED BY RF-SCORE:    0.00 PKD
ROOT
HETATM    1  O   UNL     1     -13.863  16.258  73.572  1.00  0.00    -0.868 OA 
HETATM    2  C   UNL     1     -13.731  15.312  72.512  1.00  0.00    -0.526 C  
HETATM    3  H   UNL     1     -14.786  16.434  73.714  1.00  0.00     0.000 HD 
ENDROOT
BRANCH   2   4
HETATM    4  C   UNL     1     -12.236  15.026  72.282  1.00  0.00    -0.357 C  
BRANCH   4   5
HETATM    5  N   UNL     1     -11.856  14.483  70.949  1.00  0.00    -0.313 NA 
BRANCH   5   6
HETATM    6  C   UNL     1     -12.380  13.092  70.809  1.00  0.00    -0.310 C  
BRANCH   6   7
HETATM    7  C   UNL     1     -11.723  12.240  69.705  1.00  0.00    -0.298 C  
HETATM    8  H   UNL     1     -11.786  10.373  69.085  1.00  0.00     0.000 HD 
HETATM    9  O   UNL     1     -12.192  10.898  69.765  1.00  0.00    -0.326 OA 
ENDBRANCH   6   7
ENDBRANCH   5   6
BRANCH   5  10
HETATM   10  C   UNL     1     -12.427  15.350  69.876  1.00  0.00    -0.240 C  
BRANCH  10  11
HETATM   11  C   UNL     1     -11.564  15.471  68.607  1.00  0.00    -0.368 C  
HETATM   12  O   UNL     1     -10.342  16.141  68.903  1.00  0.00    -0.224 OA 
HETATM   13  H   UNL     1      -9.809  16.215  68.120  1.00  0.00     0.000 HD 
ENDBRANCH  10  11
ENDBRANCH   5  10
ENDBRANCH   4   5
ENDBRANCH   2   4
TORSDOF 6
ENDMDL
MODEL      118
REMARK 921   NORMALIZED FREE ENERGY PREDICTED BY IDOCK:   -2.48 KCAL/MOL
REMARK 922        TOTAL FREE ENERGY PREDICTED BY IDOCK:   -3.83 KCAL/MOL
REMARK 923 INTER-LIGAND FREE ENERGY PREDICTED BY IDOCK:   -3.60 KCAL/MOL
REMARK 924 INTRA-LIGAND FREE ENERGY PREDICTED BY IDOCK:   -0.23 KCAL/MOL
REMARK 927      BINDING AFFINITY PREDICTED BY RF-SCORE:    0.00 PKD
ROOT
HETATM    1  O   UNL     1     -12.010  10.716  68.209  1.00  0.00    -0.793 OA 
HETATM    2  C   UNL     1     -10.934  11.171  69.029  1.00  0.00    -0.235 C  
HETATM    3  H   UNL     1     -12.383  11.461  67.752  1.00  0.00     0.000 HD 
ENDROOT
BRANCH   2   4
HETATM    4  C   UNL     1     -10.328   9.965  69.769  1.00  0.00    -0.246 C  
BRANCH   4   5
HETATM    5  N   UNL     1     -11.015   8.656  69.591  1.00  0.00    -0.153 NA 
BRANCH   5   6
HETATM    6  C   UNL     1     -10.146   7.739  68.796  1.00  0.00    -0.196 C  
BRANCH   6   7
HETATM    7  C   UNL     1     -10.421   7.710  67.279  1.00  0.00    -0.326 C  
HETATM    8  H   UNL     1     -11.485   6.635  66.020  1.00  0.00     0.000 HD 
HETATM    9  O   UNL     1     -11.316   6.653  66.955  1.00  0.00    -0.348 OA 
ENDBRANCH   6   7
ENDBRANCH   5   6
BRANCH   5  10
HETATM   10  C   UNL     1     -11.295   8.056  70.929  1.00  0.00    -0.276 C  
BRANCH  10  11
HETATM   11  C   UNL     1     -12.189   8.905  71.851  1.00  0.00    -0.374 C  
HETATM   12  O   UNL     1     -12.556   8.158  73.007  1.00  0.00    -0.656 OA 
HETATM   13  H   UNL     1     -13.107   8.683  73.576  1.00  0.00     0.000 HD 
ENDBRANCH  10  11
ENDBRANCH   5  10
ENDBRANCH   4   5
ENDBRANCH   2   4
TORSDOF 6
ENDMDL
MODEL      119
REMARK 921   NORMALIZED FREE ENERGY PREDICTED BY IDOCK:   -2.47 KCAL/MOL
REMARK 922        TOTAL FREE ENERGY PREDICTED BY IDOCK:   -3.81 KCAL/MOL
REMARK 923 INTER-LIGAND FREE ENERGY PREDICTED BY IDOCK:   -3.37 KCAL/MOL
REMARK 924 INTRA-LIGAND FREE ENERGY PREDICTED BY IDOCK:   -0.44 KCAL/MOL
REMARK 927      BINDING AFFINITY PREDICTED BY RF-SCORE:    0.00 PKD
ROOT
HETATM    1  O   UNL     1     -12.121  12.031  66.934  1.00  0.00    -0.608 OA 
HETATM    2  C   UNL     1     -11.371  11.106  67.720  1.00  0.00    -0.293 C  
HETATM    3  H   UNL     1     -11.716  12.106  66.078  1.00  0.00     0.000 HD 
ENDROOT
BRANCH   2   4
HETATM    4  C   UNL     1     -12.027  10.983  69.106  1.00  0.00    -0.324 C  
BRANCH   4   5
HETATM    5  N   UNL     1     -11.561   9.865  69.972  1.00  0.00    -0.213 NA 
BRANCH   5   6
HETATM    6  C   UNL     1     -10.071   9.898  70.071  1.00  0.00    -0.260 C  
BRANCH   6   7
HETATM    7  C   UNL     1      -9.350   8.584  69.710  1.00  0.00    -0.161 C  
HETATM    8  H   UNL     1      -9.410   6.698  70.270  1.00  0.00     0.000 HD 
HETATM    9  O   UNL     1      -9.855   7.508  70.492  1.00  0.00    -0.183 OA 
ENDBRANCH   6   7
ENDBRANCH   5   6
BRANCH   5  10
HETATM   10  C   UNL     1     -12.163  10.003  71.331  1.00  0.00    -0.416 C  
BRANCH  10  11
HETATM   11  C   UNL     1     -13.151   8.889  71.723  1.00  0.00    -0.374 C  
HETATM   12  O   UNL     1     -12.911   7.721  70.943  1.00  0.00    -0.540 OA 
HETATM   13  H   UNL     1     -13.520   7.033  71.186  1.00  0.00     0.000 HD 
ENDBRANCH  10  11
ENDBRANCH   5  10
ENDBRANCH   4   5
ENDBRANCH   2   4
TORSDOF 6
ENDMDL
MODEL      120
REMARK 921   NORMALIZED FREE ENERGY PREDICTED BY IDOCK:   -2.46 KCAL/MOL
REMARK 922        TOTAL FREE ENERGY PREDICTED BY IDOCK:   -3.81 KCAL/MOL
REMARK 923 INTER-LIGAND FREE ENERGY PREDICTED BY IDOCK:   -3.62 KCAL/MOL
REMARK 924 INTRA-LIGAND FREE ENERGY PREDICTED BY IDOCK:   -0.19 KCAL/MOL
REMARK 927      BINDING AFFINITY PREDICTED BY RF-SCORE:    0.00 PKD
ROOT
HETATM    1  O   UNL     1      -9.737  15.883  67.275  1.00  0.00    -0.221 OA 
HETATM    2  C   UNL     1     -11.106  15.738  67.652  1.00  0.00    -0.283 C  
HETATM    3  H   UNL     1      -9.511  16.806  67.289  1.00  0.00     0.000 HD 
ENDROOT
BRANCH   2   4
HETATM    4  C   UNL     1     -11.472  14.243  67.630  1.00  0.00    -0.346 C  
BRANCH   4   5
HETATM    5  N   UNL     1     -11.939  13.650  68.914  1.00  0.00    -0.356 NA 
BRANCH   5   6
HETATM    6  C   UNL     1     -11.012  12.553  69.323  1.00  0.00    -0.080 C  
BRANCH   6   7
HETATM    7  C   UNL     1     -11.643  11.150  69.420  1.00  0.00    -0.318 C  
HETATM    8  H   UNL     1     -12.208   9.727  68.184  1.00  0.00     0.000 HD 
HETATM    9  O   UNL     1     -11.820  10.592  68.124  1.00  0.00    -0.482 OA 
ENDBRANCH   6   7
ENDBRANCH   5   6
BRANCH   5  10
HETATM   10  C   UNL     1     -11.971  14.707  69.968  1.00  0.00    -0.320 C  
BRANCH  10  11
HETATM   11  C   UNL     1     -13.071  14.535  71.031  1.00  0.00    -0.366 C  
HETATM   12  O   UNL     1     -14.027  15.587  70.927  1.00  0.00    -0.847 OA 
HETATM   13  H   UNL     1     -14.706  15.480  71.582  1.00  0.00     0.000 HD 
ENDBRANCH  10  11
ENDBRANCH   5  10
ENDBRANCH   4   5
ENDBRANCH   2   4
TORSDOF 6
ENDMDL
MODEL      121
REMARK 921   NORMALIZED FREE ENERGY PREDICTED BY IDOCK:   -2.46 KCAL/MOL
REMARK 922        TOTAL FREE ENERGY PREDICTED BY IDOCK:   -3.80 KCAL/MOL
REMARK 923 INTER-LIGAND FREE ENERGY PREDICTED BY IDOCK:   -3.71 KCAL/MOL
REMARK 924 INTRA-LIGAND FREE ENERGY PREDICTED BY IDOCK:   -0.09 KCAL/MOL
REMARK 927      BINDING AFFINITY PREDICTED BY RF-SCORE:    0.00 PKD
ROOT
HETATM    1  O   UNL     1      -9.373  15.158  70.146  1.00  0.00    -0.419 OA 
HETATM    2  C   UNL     1     -10.657  15.764  69.996  1.00  0.00    -0.326 C  
HETATM    3  H   UNL     1      -9.413  14.527  70.855  1.00  0.00     0.000 HD 
ENDROOT
BRANCH   2   4
HETATM    4  C   UNL     1     -10.594  16.787  68.848  1.00  0.00    -0.350 C  
BRANCH   4   5
HETATM    5  N   UNL     1      -9.395  17.670  68.803  1.00  0.00    -0.261 NA 
BRANCH   5   6
HETATM    6  C   UNL     1      -8.562  17.320  67.614  1.00  0.00    -0.217 C  
BRANCH   6   7
HETATM    7  C   UNL     1      -9.219  16.364  66.599  1.00  0.00    -0.253 C  
HETATM    8  H   UNL     1     -10.195  16.507  64.895  1.00  0.00     0.000 HD 
HETATM    9  O   UNL     1      -9.790  17.097  65.521  1.00  0.00    -0.549 OA 
ENDBRANCH   6   7
ENDBRANCH   5   6
BRANCH   5  10
HETATM   10  C   UNL     1      -9.830  19.095  68.716  1.00  0.00    -0.439 C  
BRANCH  10  11
HETATM   11  C   UNL     1     -10.685  19.442  67.483  1.00  0.00    -0.453 C  
HETATM   12  O   UNL     1      -9.946  20.269  66.588  1.00  0.00    -0.442 OA 
HETATM   13  H   UNL     1     -10.473  20.482  65.827  1.00  0.00     0.000 HD 
ENDBRANCH  10  11
ENDBRANCH   5  10
ENDBRANCH   4   5
ENDBRANCH   2   4
TORSDOF 6
ENDMDL
MODEL      122
REMARK 921   NORMALIZED FREE ENERGY PREDICTED BY IDOCK:   -2.45 KCAL/MOL
REMARK 922        TOTAL FREE ENERGY PREDICTED BY IDOCK:   -3.79 KCAL/MOL
REMARK 923 INTER-LIGAND FREE ENERGY PREDICTED BY IDOCK:   -3.57 KCAL/MOL
REMARK 924 INTRA-LIGAND FREE ENERGY PREDICTED BY IDOCK:   -0.22 KCAL/MOL
REMARK 927      BINDING AFFINITY PREDICTED BY RF-SCORE:    0.00 PKD
ROOT
HETATM    1  O   UNL     1     -12.311  14.737  63.625  1.00  0.00    -1.046 OA 
HETATM    2  C   UNL     1     -11.540  15.345  64.661  1.00  0.00    -0.311 C  
HETATM    3  H   UNL     1     -12.436  15.367  62.925  1.00  0.00     0.000 HD 
ENDROOT
BRANCH   2   4
HETATM    4  C   UNL     1     -11.337  14.324  65.794  1.00  0.00    -0.326 C  
BRANCH   4   5
HETATM    5  N   UNL     1     -10.473  14.749  66.931  1.00  0.00    -0.274 NA 
BRANCH   5   6
HETATM    6  C   UNL     1      -9.146  14.073  66.829  1.00  0.00    -0.232 C  
BRANCH   6   7
HETATM    7  C   UNL     1      -8.056  14.600  67.782  1.00  0.00    -0.152 C  
HETATM    8  H   UNL     1      -6.143  15.056  67.685  1.00  0.00     0.000 HD 
HETATM    9  O   UNL     1      -6.815  14.731  67.097  1.00  0.00    -0.242 OA 
ENDBRANCH   6   7
ENDBRANCH   5   6
BRANCH   5  10
HETATM   10  C   UNL     1     -10.292  16.230  66.891  1.00  0.00    -0.299 C  
BRANCH  10  11
HETATM   11  C   UNL     1     -10.748  16.977  68.158  1.00  0.00    -0.374 C  
HETATM   12  O   UNL     1     -11.328  16.065  69.086  1.00  0.00    -0.319 OA 
HETATM   13  H   UNL     1     -11.609  16.526  69.868  1.00  0.00     0.000 HD 
ENDBRANCH  10  11
ENDBRANCH   5  10
ENDBRANCH   4   5
ENDBRANCH   2   4
TORSDOF 6
ENDMDL
MODEL      123
REMARK 921   NORMALIZED FREE ENERGY PREDICTED BY IDOCK:   -2.44 KCAL/MOL
REMARK 922        TOTAL FREE ENERGY PREDICTED BY IDOCK:   -3.78 KCAL/MOL
REMARK 923 INTER-LIGAND FREE ENERGY PREDICTED BY IDOCK:   -3.58 KCAL/MOL
REMARK 924 INTRA-LIGAND FREE ENERGY PREDICTED BY IDOCK:   -0.19 KCAL/MOL
REMARK 927      BINDING AFFINITY PREDICTED BY RF-SCORE:    0.00 PKD
ROOT
HETATM    1  O   UNL     1      -9.255  19.897  66.850  1.00  0.00    -0.333 OA 
HETATM    2  C   UNL     1      -9.473  18.932  67.880  1.00  0.00    -0.305 C  
HETATM    3  H   UNL     1      -8.626  20.538  67.159  1.00  0.00     0.000 HD 
ENDROOT
BRANCH   2   4
HETATM    4  C   UNL     1     -10.492  17.893  67.380  1.00  0.00    -0.383 C  
BRANCH   4   5
HETATM    5  N   UNL     1      -9.961  16.540  67.052  1.00  0.00    -0.261 NA 
BRANCH   5   6
HETATM    6  C   UNL     1     -10.952  15.806  66.210  1.00  0.00    -0.163 C  
BRANCH   6   7
HETATM    7  C   UNL     1     -10.595  15.683  64.716  1.00  0.00    -0.183 C  
HETATM    8  H   UNL     1     -11.129  16.536  63.024  1.00  0.00     0.000 HD 
HETATM    9  O   UNL     1     -11.350  16.611  63.945  1.00  0.00    -1.104 OA 
ENDBRANCH   6   7
ENDBRANCH   5   6
BRANCH   5  10
HETATM   10  C   UNL     1      -8.671  16.677  66.314  1.00  0.00    -0.324 C  
BRANCH  10  11
HETATM   11  C   UNL     1      -7.481  15.921  66.933  1.00  0.00    -0.198 C  
HETATM   12  O   UNL     1      -7.753  14.524  66.975  1.00  0.00    -0.328 OA 
HETATM   13  H   UNL     1      -7.019  14.057  67.357  1.00  0.00     0.000 HD 
ENDBRANCH  10  11
ENDBRANCH   5  10
ENDBRANCH   4   5
ENDBRANCH   2   4
TORSDOF 6
ENDMDL
MODEL      124
REMARK 921   NORMALIZED FREE ENERGY PREDICTED BY IDOCK:   -2.44 KCAL/MOL
REMARK 922        TOTAL FREE ENERGY PREDICTED BY IDOCK:   -3.77 KCAL/MOL
REMARK 923 INTER-LIGAND FREE ENERGY PREDICTED BY IDOCK:   -3.43 KCAL/MOL
REMARK 924 INTRA-LIGAND FREE ENERGY PREDICTED BY IDOCK:   -0.35 KCAL/MOL
REMARK 927      BINDING AFFINITY PREDICTED BY RF-SCORE:    0.00 PKD
ROOT
HETATM    1  O   UNL     1      -7.988  15.869  69.085  1.00  0.00    -0.209 OA 
HETATM    2  C   UNL     1      -9.044  14.915  68.980  1.00  0.00    -0.175 C  
HETATM    3  H   UNL     1      -7.747  15.960  69.999  1.00  0.00     0.000 HD 
ENDROOT
BRANCH   2   4
HETATM    4  C   UNL     1      -9.435  14.766  67.499  1.00  0.00    -0.197 C  
BRANCH   4   5
HETATM    5  N   UNL     1     -10.704  15.420  67.072  1.00  0.00    -0.317 NA 
BRANCH   5   6
HETATM    6  C   UNL     1     -11.807  14.414  67.071  1.00  0.00    -0.412 C  
BRANCH   6   7
HETATM    7  C   UNL     1     -11.891  13.519  65.819  1.00  0.00    -0.372 C  
HETATM    8  H   UNL     1     -13.156  13.207  64.343  1.00  0.00     0.000 HD 
HETATM    9  O   UNL     1     -13.105  13.758  65.115  1.00  0.00    -0.762 OA 
ENDBRANCH   6   7
ENDBRANCH   5   6
BRANCH   5  10
HETATM   10  C   UNL     1     -11.031  16.531  68.014  1.00  0.00    -0.320 C  
BRANCH  10  11
HETATM   11  C   UNL     1     -10.649  17.938  67.520  1.00  0.00    -0.376 C  
HETATM   12  O   UNL     1      -9.415  18.347  68.101  1.00  0.00    -0.289 OA 
HETATM   13  H   UNL     1      -9.179  19.215  67.795  1.00  0.00     0.000 HD 
ENDBRANCH  10  11
ENDBRANCH   5  10
ENDBRANCH   4   5
ENDBRANCH   2   4
TORSDOF 6
ENDMDL
MODEL      125
REMARK 921   NORMALIZED FREE ENERGY PREDICTED BY IDOCK:   -2.43 KCAL/MOL
REMARK 922        TOTAL FREE ENERGY PREDICTED BY IDOCK:   -3.77 KCAL/MOL
REMARK 923 INTER-LIGAND FREE ENERGY PREDICTED BY IDOCK:   -3.59 KCAL/MOL
REMARK 924 INTRA-LIGAND FREE ENERGY PREDICTED BY IDOCK:   -0.18 KCAL/MOL
REMARK 927      BINDING AFFINITY PREDICTED BY RF-SCORE:    0.00 PKD
ROOT
HETATM    1  O   UNL     1      -9.525  12.584  65.804  1.00  0.00    -0.408 OA 
HETATM    2  C   UNL     1     -10.009  13.623  66.654  1.00  0.00    -0.283 C  
HETATM    3  H   UNL     1      -9.393  12.937  64.932  1.00  0.00     0.000 HD 
ENDROOT
BRANCH   2   4
HETATM    4  C   UNL     1     -10.223  13.052  68.067  1.00  0.00    -0.233 C  
BRANCH   4   5
HETATM    5  N   UNL     1     -11.631  12.794  68.478  1.00  0.00    -0.299 NA 
BRANCH   5   6
HETATM    6  C   UNL     1     -11.815  11.335  68.740  1.00  0.00    -0.329 C  
BRANCH   6   7
HETATM    7  C   UNL     1     -12.085  10.952  70.208  1.00  0.00    -0.355 C  
HETATM    8  H   UNL     1     -11.205   9.891  71.614  1.00  0.00     0.000 HD 
HETATM    9  O   UNL     1     -11.039  10.127  70.708  1.00  0.00    -0.322 OA 
ENDBRANCH   6   7
ENDBRANCH   5   6
BRANCH   5  10
HETATM   10  C   UNL     1     -11.939  13.574  69.713  1.00  0.00    -0.340 C  
BRANCH  10  11
HETATM   11  C   UNL     1     -11.986  15.102  69.524  1.00  0.00    -0.321 C  
HETATM   12  O   UNL     1     -13.173  15.634  70.104  1.00  0.00    -0.703 OA 
HETATM   13  H   UNL     1     -13.202  16.576  69.988  1.00  0.00     0.000 HD 
ENDBRANCH  10  11
ENDBRANCH   5  10
ENDBRANCH   4   5
ENDBRANCH   2   4
TORSDOF 6
ENDMDL
MODEL      126
REMARK 921   NORMALIZED FREE ENERGY PREDICTED BY IDOCK:   -2.43 KCAL/MOL
REMARK 922        TOTAL FREE ENERGY PREDICTED BY IDOCK:   -3.77 KCAL/MOL
REMARK 923 INTER-LIGAND FREE ENERGY PREDICTED BY IDOCK:   -3.64 KCAL/MOL
REMARK 924 INTRA-LIGAND FREE ENERGY PREDICTED BY IDOCK:   -0.13 KCAL/MOL
REMARK 927      BINDING AFFINITY PREDICTED BY RF-SCORE:    0.00 PKD
ROOT
HETATM    1  O   UNL     1      -8.508  16.459  68.924  1.00  0.00    -0.231 OA 
HETATM    2  C   UNL     1      -9.887  16.310  68.588  1.00  0.00    -0.230 C  
HETATM    3  H   UNL     1      -8.270  17.375  68.843  1.00  0.00     0.000 HD 
ENDROOT
BRANCH   2   4
HETATM    4  C   UNL     1     -10.274  14.826  68.719  1.00  0.00    -0.239 C  
BRANCH   4   5
HETATM    5  N   UNL     1     -11.730  14.513  68.747  1.00  0.00    -0.312 NA 
BRANCH   5   6
HETATM    6  C   UNL     1     -11.992  13.283  67.942  1.00  0.00    -0.309 C  
BRANCH   6   7
HETATM    7  C   UNL     1     -12.203  13.509  66.432  1.00  0.00    -0.400 C  
HETATM    8  H   UNL     1     -11.330  12.972  64.751  1.00  0.00     0.000 HD 
HETATM    9  O   UNL     1     -11.200  12.833  65.682  1.00  0.00    -0.287 OA 
ENDBRANCH   6   7
ENDBRANCH   5   6
BRANCH   5  10
HETATM   10  C   UNL     1     -12.165  14.297  70.159  1.00  0.00    -0.345 C  
BRANCH  10  11
HETATM   11  C   UNL     1     -12.649  15.561  70.893  1.00  0.00    -0.456 C  
HETATM   12  O   UNL     1     -14.061  15.699  70.758  1.00  0.00    -0.828 OA 
HETATM   13  H   UNL     1     -14.359  16.479  71.211  1.00  0.00     0.000 HD 
ENDBRANCH  10  11
ENDBRANCH   5  10
ENDBRANCH   4   5
ENDBRANCH   2   4
TORSDOF 6
ENDMDL
MODEL      127
REMARK 921   NORMALIZED FREE ENERGY PREDICTED BY IDOCK:   -2.41 KCAL/MOL
REMARK 922        TOTAL FREE ENERGY PREDICTED BY IDOCK:   -3.74 KCAL/MOL
REMARK 923 INTER-LIGAND FREE ENERGY PREDICTED BY IDOCK:   -3.29 KCAL/MOL
REMARK 924 INTRA-LIGAND FREE ENERGY PREDICTED BY IDOCK:   -0.45 KCAL/MOL
REMARK 927      BINDING AFFINITY PREDICTED BY RF-SCORE:    0.00 PKD
ROOT
HETATM    1  O   UNL     1      -5.698  16.948  66.428  1.00  0.00    -0.330 OA 
HETATM    2  C   UNL     1      -6.873  17.592  65.937  1.00  0.00    -0.218 C  
HETATM    3  H   UNL     1      -5.036  16.956  65.747  1.00  0.00     0.000 HD 
ENDROOT
BRANCH   2   4
HETATM    4  C   UNL     1      -7.946  17.579  67.040  1.00  0.00    -0.216 C  
BRANCH   4   5
HETATM    5  N   UNL     1      -8.374  18.902  67.573  1.00  0.00    -0.271 NA 
BRANCH   5   6
HETATM    6  C   UNL     1      -7.188  19.628  68.118  1.00  0.00    -0.302 C  
BRANCH   6   7
HETATM    7  C   UNL     1      -6.577  19.035  69.403  1.00  0.00    -0.288 C  
HETATM    8  H   UNL     1      -4.944  18.063  69.915  1.00  0.00     0.000 HD 
HETATM    9  O   UNL     1      -5.321  18.429  69.123  1.00  0.00    -0.191 OA 
ENDBRANCH   6   7
ENDBRANCH   5   6
BRANCH   5  10
HETATM   10  C   UNL     1      -8.999  19.701  66.478  1.00  0.00    -0.369 C  
BRANCH  10  11
HETATM   11  C   UNL     1     -10.521  19.522  66.327  1.00  0.00    -0.512 C  
HETATM   12  O   UNL     1     -10.810  18.667  65.225  1.00  0.00    -0.591 OA 
HETATM   13  H   UNL     1     -11.749  18.557  65.132  1.00  0.00     0.000 HD 
ENDBRANCH  10  11
ENDBRANCH   5  10
ENDBRANCH   4   5
ENDBRANCH   2   4
TORSDOF 6
ENDMDL
MODEL      128
REMARK 921   NORMALIZED FREE ENERGY PREDICTED BY IDOCK:   -2.41 KCAL/MOL
REMARK 922        TOTAL FREE ENERGY PREDICTED BY IDOCK:   -3.74 KCAL/MOL
REMARK 923 INTER-LIGAND FREE ENERGY PREDICTED BY IDOCK:   -3.51 KCAL/MOL
REMARK 924 INTRA-LIGAND FREE ENERGY PREDICTED BY IDOCK:   -0.23 KCAL/MOL
REMARK 927      BINDING AFFINITY PREDICTED BY RF-SCORE:    0.00 PKD
ROOT
HETATM    1  O   UNL     1      -6.280  16.816  66.343  1.00  0.00    -0.279 OA 
HETATM    2  C   UNL     1      -7.440  17.647  66.354  1.00  0.00    -0.288 C  
HETATM    3  H   UNL     1      -5.532  17.336  66.074  1.00  0.00     0.000 HD 
ENDROOT
BRANCH   2   4
HETATM    4  C   UNL     1      -8.652  16.805  66.790  1.00  0.00    -0.232 C  
BRANCH   4   5
HETATM    5  N   UNL     1      -9.238  17.116  68.123  1.00  0.00    -0.253 NA 
BRANCH   5   6
HETATM    6  C   UNL     1      -8.862  18.504  68.523  1.00  0.00    -0.326 C  
BRANCH   6   7
HETATM    7  C   UNL     1     -10.026  19.510  68.613  1.00  0.00    -0.449 C  
HETATM    8  H   UNL     1     -10.719  21.022  67.560  1.00  0.00     0.000 HD 
HETATM    9  O   UNL     1     -10.001  20.402  67.505  1.00  0.00    -0.420 OA 
ENDBRANCH   6   7
ENDBRANCH   5   6
BRANCH   5  10
HETATM   10  C   UNL     1     -10.725  16.993  68.053  1.00  0.00    -0.365 C  
BRANCH  10  11
HETATM   11  C   UNL     1     -11.345  16.001  69.054  1.00  0.00    -0.363 C  
HETATM   12  O   UNL     1     -12.350  15.220  68.415  1.00  0.00    -0.541 OA 
HETATM   13  H   UNL     1     -12.733  14.607  69.032  1.00  0.00     0.000 HD 
ENDBRANCH  10  11
ENDBRANCH   5  10
ENDBRANCH   4   5
ENDBRANCH   2   4
TORSDOF 6
ENDMDL
MODEL      129
REMARK 921   NORMALIZED FREE ENERGY PREDICTED BY IDOCK:   -2.40 KCAL/MOL
REMARK 922        TOTAL FREE ENERGY PREDICTED BY IDOCK:   -3.72 KCAL/MOL
REMARK 923 INTER-LIGAND FREE ENERGY PREDICTED BY IDOCK:   -3.60 KCAL/MOL
REMARK 924 INTRA-LIGAND FREE ENERGY PREDICTED BY IDOCK:   -0.13 KCAL/MOL
REMARK 927      BINDING AFFINITY PREDICTED BY RF-SCORE:    0.00 PKD
ROOT
HETATM    1  O   UNL     1      -8.200   8.881  72.393  1.00  0.00    -0.384 OA 
HETATM    2  C   UNL     1      -9.204   8.120  73.065  1.00  0.00    -0.273 C  
HETATM    3  H   UNL     1      -7.368   8.743  72.828  1.00  0.00     0.000 HD 
ENDROOT
BRANCH   2   4
HETATM    4  C   UNL     1     -10.553   8.343  72.360  1.00  0.00    -0.335 C  
BRANCH   4   5
HETATM    5  N   UNL     1     -10.518   9.072  71.062  1.00  0.00    -0.244 NA 
BRANCH   5   6
HETATM    6  C   UNL     1     -10.589   8.093  69.937  1.00  0.00    -0.239 C  
BRANCH   6   7
HETATM    7  C   UNL     1     -11.043   6.671  70.320  1.00  0.00    -0.326 C  
HETATM    8  H   UNL     1     -11.785   5.092  69.409  1.00  0.00     0.000 HD 
HETATM    9  O   UNL     1     -11.506   5.969  69.172  1.00  0.00    -0.316 OA 
ENDBRANCH   6   7
ENDBRANCH   5   6
BRANCH   5  10
HETATM   10  C   UNL     1     -11.675  10.013  70.989  1.00  0.00    -0.392 C  
BRANCH  10  11
HETATM   11  C   UNL     1     -11.535  11.140  69.948  1.00  0.00    -0.306 C  
HETATM   12  O   UNL     1     -12.281  10.824  68.777  1.00  0.00    -0.783 OA 
HETATM   13  H   UNL     1     -12.195  11.520  68.135  1.00  0.00     0.000 HD 
ENDBRANCH  10  11
ENDBRANCH   5  10
ENDBRANCH   4   5
ENDBRANCH   2   4
TORSDOF 6
ENDMDL
MODEL      130
REMARK 921   NORMALIZED FREE ENERGY PREDICTED BY IDOCK:   -2.40 KCAL/MOL
REMARK 922        TOTAL FREE ENERGY PREDICTED BY IDOCK:   -3.72 KCAL/MOL
REMARK 923 INTER-LIGAND FREE ENERGY PREDICTED BY IDOCK:   -3.17 KCAL/MOL
REMARK 924 INTRA-LIGAND FREE ENERGY PREDICTED BY IDOCK:   -0.55 KCAL/MOL
REMARK 927      BINDING AFFINITY PREDICTED BY RF-SCORE:    0.00 PKD
ROOT
HETATM    1  O   UNL     1      -6.277  20.046  68.590  1.00  0.00    -0.258 OA 
HETATM    2  C   UNL     1      -7.572  19.498  68.835  1.00  0.00    -0.348 C  
HETATM    3  H   UNL     1      -6.239  20.920  68.959  1.00  0.00     0.000 HD 
ENDROOT
BRANCH   2   4
HETATM    4  C   UNL     1      -7.635  18.081  68.237  1.00  0.00    -0.275 C  
BRANCH   4   5
HETATM    5  N   UNL     1      -8.139  17.965  66.841  1.00  0.00    -0.221 NA 
BRANCH   5   6
HETATM    6  C   UNL     1      -8.838  19.227  66.455  1.00  0.00    -0.346 C  
BRANCH   6   7
HETATM    7  C   UNL     1     -10.375  19.142  66.384  1.00  0.00    -0.455 C  
HETATM    8  H   UNL     1     -11.728  18.322  65.212  1.00  0.00     0.000 HD 
HETATM    9  O   UNL     1     -10.780  18.375  65.256  1.00  0.00    -0.594 OA 
ENDBRANCH   6   7
ENDBRANCH   5   6
BRANCH   5  10
HETATM   10  C   UNL     1      -6.992  17.718  65.917  1.00  0.00    -0.256 C  
BRANCH  10  11
HETATM   11  C   UNL     1      -6.424  18.974  65.232  1.00  0.00    -0.266 C  
HETATM   12  O   UNL     1      -5.234  19.400  65.891  1.00  0.00    -0.153 OA 
HETATM   13  H   UNL     1      -4.884  20.174  65.468  1.00  0.00     0.000 HD 
ENDBRANCH  10  11
ENDBRANCH   5  10
ENDBRANCH   4   5
ENDBRANCH   2   4
TORSDOF 6
ENDMDL
MODEL      131
REMARK 921   NORMALIZED FREE ENERGY PREDICTED BY IDOCK:   -2.38 KCAL/MOL
REMARK 922        TOTAL FREE ENERGY PREDICTED BY IDOCK:   -3.69 KCAL/MOL
REMARK 923 INTER-LIGAND FREE ENERGY PREDICTED BY IDOCK:   -3.54 KCAL/MOL
REMARK 924 INTRA-LIGAND FREE ENERGY PREDICTED BY IDOCK:   -0.16 KCAL/MOL
REMARK 927      BINDING AFFINITY PREDICTED BY RF-SCORE:    0.00 PKD
ROOT
HETATM    1  O   UNL     1     -12.540  15.390  69.806  1.00  0.00    -0.592 OA 
HETATM    2  C   UNL     1     -11.354  16.027  69.332  1.00  0.00    -0.355 C  
HETATM    3  H   UNL     1     -13.180  16.056  70.025  1.00  0.00     0.000 HD 
ENDROOT
BRANCH   2   4
HETATM    4  C   UNL     1     -10.316  14.948  68.978  1.00  0.00    -0.245 C  
BRANCH   4   5
HETATM    5  N   UNL     1     -10.266  14.507  67.556  1.00  0.00    -0.232 NA 
BRANCH   5   6
HETATM    6  C   UNL     1     -10.901  13.162  67.427  1.00  0.00    -0.255 C  
BRANCH   6   7
HETATM    7  C   UNL     1      -9.950  11.959  67.577  1.00  0.00    -0.187 C  
HETATM    8  H   UNL     1      -8.684  10.963  66.446  1.00  0.00     0.000 HD 
HETATM    9  O   UNL     1      -9.270  11.705  66.353  1.00  0.00    -0.201 OA 
ENDBRANCH   6   7
ENDBRANCH   5   6
BRANCH   5  10
HETATM   10  C   UNL     1     -10.992  15.495  66.704  1.00  0.00    -0.248 C  
BRANCH  10  11
HETATM   11  C   UNL     1     -10.636  15.450  65.206  1.00  0.00    -0.428 C  
HETATM   12  O   UNL     1     -10.958  16.692  64.586  1.00  0.00    -0.793 OA 
HETATM   13  H   UNL     1     -10.738  16.664  63.662  1.00  0.00     0.000 HD 
ENDBRANCH  10  11
ENDBRANCH   5  10
ENDBRANCH   4   5
ENDBRANCH   2   4
TORSDOF 6
ENDMDL
MODEL      132
REMARK 921   NORMALIZED FREE ENERGY PREDICTED BY IDOCK:   -2.37 KCAL/MOL
REMARK 922        TOTAL FREE ENERGY PREDICTED BY IDOCK:   -3.69 KCAL/MOL
REMARK 923 INTER-LIGAND FREE ENERGY PREDICTED BY IDOCK:   -3.48 KCAL/MOL
REMARK 924 INTRA-LIGAND FREE ENERGY PREDICTED BY IDOCK:   -0.20 KCAL/MOL
REMARK 927      BINDING AFFINITY PREDICTED BY RF-SCORE:    0.00 PKD
ROOT
HETATM    1  O   UNL     1     -12.196  12.134  66.161  1.00  0.00    -0.611 OA 
HETATM    2  C   UNL     1     -11.271  12.869  66.962  1.00  0.00    -0.288 C  
HETATM    3  H   UNL     1     -11.825  12.016  65.294  1.00  0.00     0.000 HD 
ENDROOT
BRANCH   2   4
HETATM    4  C   UNL     1     -11.871  13.059  68.367  1.00  0.00    -0.334 C  
BRANCH   4   5
HETATM    5  N   UNL     1     -11.297  14.153  69.198  1.00  0.00    -0.265 NA 
BRANCH   5   6
HETATM    6  C   UNL     1     -10.589  15.130  68.317  1.00  0.00    -0.243 C  
BRANCH   6   7
HETATM    7  C   UNL     1     -11.148  16.566  68.333  1.00  0.00    -0.333 C  
HETATM    8  H   UNL     1     -10.477  18.377  68.715  1.00  0.00     0.000 HD 
HETATM    9  O   UNL     1     -10.133  17.492  68.705  1.00  0.00    -0.331 OA 
ENDBRANCH   6   7
ENDBRANCH   5   6
BRANCH   5  10
HETATM   10  C   UNL     1     -12.393  14.842  69.941  1.00  0.00    -0.283 C  
BRANCH  10  11
HETATM   11  C   UNL     1     -12.450  14.538  71.449  1.00  0.00    -0.353 C  
HETATM   12  O   UNL     1     -11.458  15.291  72.141  1.00  0.00    -0.439 OA 
HETATM   13  H   UNL     1     -11.493  15.104  73.072  1.00  0.00     0.000 HD 
ENDBRANCH  10  11
ENDBRANCH   5  10
ENDBRANCH   4   5
ENDBRANCH   2   4
TORSDOF 6
ENDMDL
MODEL      133
REMARK 921   NORMALIZED FREE ENERGY PREDICTED BY IDOCK:   -2.35 KCAL/MOL
REMARK 922        TOTAL FREE ENERGY PREDICTED BY IDOCK:   -3.66 KCAL/MOL
REMARK 923 INTER-LIGAND FREE ENERGY PREDICTED BY IDOCK:   -3.45 KCAL/MOL
REMARK 924 INTRA-LIGAND FREE ENERGY PREDICTED BY IDOCK:   -0.21 KCAL/MOL
REMARK 927      BINDING AFFINITY PREDICTED BY RF-SCORE:    0.00 PKD
ROOT
HETATM    1  O   UNL     1      -5.536  18.684  70.755  1.00  0.00    -0.225 OA 
HETATM    2  C   UNL     1      -5.913  19.923  70.155  1.00  0.00    -0.328 C  
HETATM    3  H   UNL     1      -5.318  18.838  71.667  1.00  0.00     0.000 HD 
ENDROOT
BRANCH   2   4
HETATM    4  C   UNL     1      -6.267  19.674  68.679  1.00  0.00    -0.248 C  
BRANCH   4   5
HETATM    5  N   UNL     1      -7.703  19.801  68.304  1.00  0.00    -0.311 NA 
BRANCH   5   6
HETATM    6  C   UNL     1      -7.810  20.264  66.889  1.00  0.00    -0.309 C  
BRANCH   6   7
HETATM    7  C   UNL     1      -6.570  20.011  66.009  1.00  0.00    -0.233 C  
HETATM    8  H   UNL     1      -6.117  18.950  64.414  1.00  0.00     0.000 HD 
HETATM    9  O   UNL     1      -6.882  19.106  64.956  1.00  0.00    -0.466 OA 
ENDBRANCH   6   7
ENDBRANCH   5   6
BRANCH   5  10
HETATM   10  C   UNL     1      -8.375  18.476  68.457  1.00  0.00    -0.334 C  
BRANCH  10  11
HETATM   11  C   UNL     1      -9.913  18.529  68.519  1.00  0.00    -0.384 C  
HETATM   12  O   UNL     1     -10.336  19.605  69.351  1.00  0.00    -0.615 OA 
HETATM   13  H   UNL     1     -11.285  19.637  69.389  1.00  0.00     0.000 HD 
ENDBRANCH  10  11
ENDBRANCH   5  10
ENDBRANCH   4   5
ENDBRANCH   2   4
TORSDOF 6
ENDMDL
MODEL      134
REMARK 921   NORMALIZED FREE ENERGY PREDICTED BY IDOCK:   -2.35 KCAL/MOL
REMARK 922        TOTAL FREE ENERGY PREDICTED BY IDOCK:   -3.65 KCAL/MOL
REMARK 923 INTER-LIGAND FREE ENERGY PREDICTED BY IDOCK:   -3.33 KCAL/MOL
REMARK 924 INTRA-LIGAND FREE ENERGY PREDICTED BY IDOCK:   -0.32 KCAL/MOL
REMARK 927      BINDING AFFINITY PREDICTED BY RF-SCORE:    0.00 PKD
ROOT
HETATM    1  O   UNL     1     -10.743   8.326  67.259  1.00  0.00    -0.427 OA 
HETATM    2  C   UNL     1     -10.748   7.276  68.226  1.00  0.00    -0.123 C  
HETATM    3  H   UNL     1     -11.216   8.035  66.488  1.00  0.00     0.000 HD 
ENDROOT
BRANCH   2   4
HETATM    4  C   UNL     1      -9.982   7.748  69.475  1.00  0.00    -0.187 C  
BRANCH   4   5
HETATM    5  N   UNL     1     -10.592   7.426  70.795  1.00  0.00    -0.221 NA 
BRANCH   5   6
HETATM    6  C   UNL     1     -10.796   8.686  71.571  1.00  0.00    -0.282 C  
BRANCH   6   7
HETATM    7  C   UNL     1     -11.224   9.915  70.745  1.00  0.00    -0.353 C  
HETATM    8  H   UNL     1     -12.698  11.219  70.744  1.00  0.00     0.000 HD 
HETATM    9  O   UNL     1     -12.435  10.461  71.253  1.00  0.00    -0.345 OA 
ENDBRANCH   6   7
ENDBRANCH   5   6
BRANCH   5  10
HETATM   10  C   UNL     1     -11.903   6.743  70.584  1.00  0.00    -0.387 C  
BRANCH  10  11
HETATM   11  C   UNL     1     -12.965   7.019  71.664  1.00  0.00    -0.352 C  
HETATM   12  O   UNL     1     -14.120   7.613  71.079  1.00  0.00    -0.655 OA 
HETATM   13  H   UNL     1     -14.775   7.783  71.746  1.00  0.00     0.000 HD 
ENDBRANCH  10  11
ENDBRANCH   5  10
ENDBRANCH   4   5
ENDBRANCH   2   4
TORSDOF 6
ENDMDL
MODEL      135
REMARK 921   NORMALIZED FREE ENERGY PREDICTED BY IDOCK:   -2.33 KCAL/MOL
REMARK 922        TOTAL FREE ENERGY PREDICTED BY IDOCK:   -3.64 KCAL/MOL
REMARK 923 INTER-LIGAND FREE ENERGY PREDICTED BY IDOCK:   -3.47 KCAL/MOL
REMARK 924 INTRA-LIGAND FREE ENERGY PREDICTED BY IDOCK:   -0.16 KCAL/MOL
REMARK 927      BINDING AFFINITY PREDICTED BY RF-SCORE:    0.00 PKD
ROOT
HETATM    1  O   UNL     1     -12.217  15.067  63.642  1.00  0.00    -0.927 OA 
HETATM    2  C   UNL     1     -11.522  15.519  64.804  1.00  0.00    -0.313 C  
HETATM    3  H   UNL     1     -12.280  15.785  63.023  1.00  0.00     0.000 HD 
ENDROOT
BRANCH   2   4
HETATM    4  C   UNL     1     -11.420  14.356  65.807  1.00  0.00    -0.335 C  
BRANCH   4   5
HETATM    5  N   UNL     1     -10.779  14.656  67.117  1.00  0.00    -0.287 NA 
BRANCH   5   6
HETATM    6  C   UNL     1     -11.807  15.169  68.070  1.00  0.00    -0.202 C  
BRANCH   6   7
HETATM    7  C   UNL     1     -11.262  15.749  69.390  1.00  0.00    -0.324 C  
HETATM    8  H   UNL     1     -11.392  15.348  71.313  1.00  0.00     0.000 HD 
HETATM    9  O   UNL     1     -11.728  14.990  70.499  1.00  0.00    -0.261 OA 
ENDBRANCH   6   7
ENDBRANCH   5   6
BRANCH   5  10
HETATM   10  C   UNL     1     -10.157  13.413  67.662  1.00  0.00    -0.229 C  
BRANCH  10  11
HETATM   11  C   UNL     1      -8.753  13.092  67.117  1.00  0.00    -0.213 C  
HETATM   12  O   UNL     1      -8.053  14.297  66.819  1.00  0.00    -0.382 OA 
HETATM   13  H   UNL     1      -7.187  14.099  66.483  1.00  0.00     0.000 HD 
ENDBRANCH  10  11
ENDBRANCH   5  10
ENDBRANCH   4   5
ENDBRANCH   2   4
TORSDOF 6
ENDMDL
MODEL      136
REMARK 921   NORMALIZED FREE ENERGY PREDICTED BY IDOCK:   -2.33 KCAL/MOL
REMARK 922        TOTAL FREE ENERGY PREDICTED BY IDOCK:   -3.63 KCAL/MOL
REMARK 923 INTER-LIGAND FREE ENERGY PREDICTED BY IDOCK:   -3.43 KCAL/MOL
REMARK 924 INTRA-LIGAND FREE ENERGY PREDICTED BY IDOCK:   -0.20 KCAL/MOL
REMARK 927      BINDING AFFINITY PREDICTED BY RF-SCORE:    0.00 PKD
ROOT
HETATM    1  O   UNL     1      -6.408  17.805  69.456  1.00  0.00    -0.246 OA 
HETATM    2  C   UNL     1      -6.982  18.445  68.317  1.00  0.00    -0.249 C  
HETATM    3  H   UNL     1      -5.471  17.724  69.323  1.00  0.00     0.000 HD 
ENDROOT
BRANCH   2   4
HETATM    4  C   UNL     1      -8.500  18.575  68.531  1.00  0.00    -0.329 C  
BRANCH   4   5
HETATM    5  N   UNL     1      -9.377  18.073  67.437  1.00  0.00    -0.252 NA 
BRANCH   5   6
HETATM    6  C   UNL     1      -9.835  16.689  67.760  1.00  0.00    -0.252 C  
BRANCH   6   7
HETATM    7  C   UNL     1      -9.869  16.332  69.259  1.00  0.00    -0.252 C  
HETATM    8  H   UNL     1     -11.222  15.846  70.604  1.00  0.00     0.000 HD 
HETATM    9  O   UNL     1     -11.202  16.067  69.679  1.00  0.00    -0.294 OA 
ENDBRANCH   6   7
ENDBRANCH   5   6
BRANCH   5  10
HETATM   10  C   UNL     1     -10.556  18.977  67.290  1.00  0.00    -0.470 C  
BRANCH  10  11
HETATM   11  C   UNL     1     -10.575  19.819  66.001  1.00  0.00    -0.468 C  
HETATM   12  O   UNL     1      -9.331  20.493  65.834  1.00  0.00    -0.617 OA 
HETATM   13  H   UNL     1      -9.343  21.013  65.039  1.00  0.00     0.000 HD 
ENDBRANCH  10  11
ENDBRANCH   5  10
ENDBRANCH   4   5
ENDBRANCH   2   4
TORSDOF 6
ENDMDL
MODEL      137
REMARK 921   NORMALIZED FREE ENERGY PREDICTED BY IDOCK:   -2.33 KCAL/MOL
REMARK 922        TOTAL FREE ENERGY PREDICTED BY IDOCK:   -3.63 KCAL/MOL
REMARK 923 INTER-LIGAND FREE ENERGY PREDICTED BY IDOCK:   -3.45 KCAL/MOL
REMARK 924 INTRA-LIGAND FREE ENERGY PREDICTED BY IDOCK:   -0.18 KCAL/MOL
REMARK 927      BINDING AFFINITY PREDICTED BY RF-SCORE:    0.00 PKD
ROOT
HETATM    1  O   UNL     1      -9.559   9.828  65.625  1.00  0.00    -0.223 OA 
HETATM    2  C   UNL     1      -9.362  11.229  65.434  1.00  0.00    -0.210 C  
HETATM    3  H   UNL     1      -8.726   9.429  65.848  1.00  0.00     0.000 HD 
ENDROOT
BRANCH   2   4
HETATM    4  C   UNL     1     -10.711  11.876  65.072  1.00  0.00    -0.292 C  
BRANCH   4   5
HETATM    5  N   UNL     1     -11.013  13.191  65.702  1.00  0.00    -0.276 NA 
BRANCH   5   6
HETATM    6  C   UNL     1     -10.593  13.167  67.134  1.00  0.00    -0.257 C  
BRANCH   6   7
HETATM    7  C   UNL     1     -11.685  12.755  68.141  1.00  0.00    -0.345 C  
HETATM    8  H   UNL     1     -12.536  11.090  68.756  1.00  0.00     0.000 HD 
HETATM    9  O   UNL     1     -11.863  11.344  68.135  1.00  0.00    -0.530 OA 
ENDBRANCH   6   7
ENDBRANCH   5   6
BRANCH   5  10
HETATM   10  C   UNL     1     -10.279  14.270  64.976  1.00  0.00    -0.372 C  
BRANCH  10  11
HETATM   11  C   UNL     1      -9.907  15.495  65.832  1.00  0.00    -0.353 C  
HETATM   12  O   UNL     1     -10.242  16.697  65.144  1.00  0.00    -0.592 OA 
HETATM   13  H   UNL     1     -10.012  17.452  65.673  1.00  0.00     0.000 HD 
ENDBRANCH  10  11
ENDBRANCH   5  10
ENDBRANCH   4   5
ENDBRANCH   2   4
TORSDOF 6
ENDMDL
MODEL      138
REMARK 921   NORMALIZED FREE ENERGY PREDICTED BY IDOCK:   -2.32 KCAL/MOL
REMARK 922        TOTAL FREE ENERGY PREDICTED BY IDOCK:   -3.62 KCAL/MOL
REMARK 923 INTER-LIGAND FREE ENERGY PREDICTED BY IDOCK:   -3.40 KCAL/MOL
REMARK 924 INTRA-LIGAND FREE ENERGY PREDICTED BY IDOCK:   -0.22 KCAL/MOL
REMARK 927      BINDING AFFINITY PREDICTED BY RF-SCORE:    0.00 PKD
ROOT
HETATM    1  O   UNL     1     -10.952  19.293  67.314  1.00  0.00    -0.483 OA 
HETATM    2  C   UNL     1     -10.276  19.078  66.076  1.00  0.00    -0.401 C  
HETATM    3  H   UNL     1     -10.722  20.153  67.645  1.00  0.00     0.000 HD 
ENDROOT
BRANCH   2   4
HETATM    4  C   UNL     1     -10.649  17.684  65.541  1.00  0.00    -0.068 C  
BRANCH   4   5
HETATM    5  N   UNL     1      -9.627  16.612  65.695  1.00  0.00    -0.519 NA 
BRANCH   5   6
HETATM    6  C   UNL     1      -8.405  17.176  66.341  1.00  0.00    -0.280 C  
BRANCH   6   7
HETATM    7  C   UNL     1      -8.162  16.742  67.800  1.00  0.00    -0.183 C  
HETATM    8  H   UNL     1      -7.170  17.407  69.364  1.00  0.00     0.000 HD 
HETATM    9  O   UNL     1      -7.320  17.675  68.465  1.00  0.00    -0.235 OA 
ENDBRANCH   6   7
ENDBRANCH   5   6
BRANCH   5  10
HETATM   10  C   UNL     1     -10.184  15.511  66.536  1.00  0.00    -0.283 C  
BRANCH  10  11
HETATM   11  C   UNL     1     -10.633  14.260  65.759  1.00  0.00    -0.309 C  
HETATM   12  O   UNL     1      -9.902  14.147  64.541  1.00  0.00    -0.634 OA 
HETATM   13  H   UNL     1     -10.179  13.374  64.063  1.00  0.00     0.000 HD 
ENDBRANCH  10  11
ENDBRANCH   5  10
ENDBRANCH   4   5
ENDBRANCH   2   4
TORSDOF 6
ENDMDL
MODEL      139
REMARK 921   NORMALIZED FREE ENERGY PREDICTED BY IDOCK:   -2.31 KCAL/MOL
REMARK 922        TOTAL FREE ENERGY PREDICTED BY IDOCK:   -3.60 KCAL/MOL
REMARK 923 INTER-LIGAND FREE ENERGY PREDICTED BY IDOCK:   -3.09 KCAL/MOL
REMARK 924 INTRA-LIGAND FREE ENERGY PREDICTED BY IDOCK:   -0.51 KCAL/MOL
REMARK 927      BINDING AFFINITY PREDICTED BY RF-SCORE:    0.00 PKD
ROOT
HETATM    1  O   UNL     1     -12.603   6.993  70.466  1.00  0.00    -0.618 OA 
HETATM    2  C   UNL     1     -11.372   6.591  69.865  1.00  0.00    -0.406 C  
HETATM    3  H   UNL     1     -13.288   6.394  70.193  1.00  0.00     0.000 HD 
ENDROOT
BRANCH   2   4
HETATM    4  C   UNL     1     -10.262   7.561  70.306  1.00  0.00    -0.204 C  
BRANCH   4   5
HETATM    5  N   UNL     1      -9.832   8.584  69.313  1.00  0.00    -0.181 NA 
BRANCH   5   6
HETATM    6  C   UNL     1     -10.499   8.318  68.003  1.00  0.00    -0.181 C  
BRANCH   6   7
HETATM    7  C   UNL     1      -9.630   8.559  66.753  1.00  0.00    -0.210 C  
HETATM    8  H   UNL     1      -9.605   9.798  65.223  1.00  0.00     0.000 HD 
HETATM    9  O   UNL     1     -10.141   9.649  65.994  1.00  0.00    -0.283 OA 
ENDBRANCH   6   7
ENDBRANCH   5   6
BRANCH   5  10
HETATM   10  C   UNL     1     -10.205   9.943  69.805  1.00  0.00    -0.246 C  
BRANCH  10  11
HETATM   11  C   UNL     1     -11.543  10.486  69.271  1.00  0.00    -0.236 C  
HETATM   12  O   UNL     1     -12.621  10.028  70.083  1.00  0.00    -0.521 OA 
HETATM   13  H   UNL     1     -13.446  10.364  69.753  1.00  0.00     0.000 HD 
ENDBRANCH  10  11
ENDBRANCH   5  10
ENDBRANCH   4   5
ENDBRANCH   2   4
TORSDOF 6
ENDMDL
MODEL      140
REMARK 921   NORMALIZED FREE ENERGY PREDICTED BY IDOCK:   -2.30 KCAL/MOL
REMARK 922        TOTAL FREE ENERGY PREDICTED BY IDOCK:   -3.60 KCAL/MOL
REMARK 923 INTER-LIGAND FREE ENERGY PREDICTED BY IDOCK:   -3.39 KCAL/MOL
REMARK 924 INTRA-LIGAND FREE ENERGY PREDICTED BY IDOCK:   -0.21 KCAL/MOL
REMARK 927      BINDING AFFINITY PREDICTED BY RF-SCORE:    0.00 PKD
ROOT
HETATM    1  O   UNL     1      -9.525   4.735  73.976  1.00  0.00    -0.119 OA 
HETATM    2  C   UNL     1     -10.743   5.404  73.649  1.00  0.00    -0.293 C  
HETATM    3  H   UNL     1      -9.725   3.984  74.522  1.00  0.00     0.000 HD 
ENDROOT
BRANCH   2   4
HETATM    4  C   UNL     1     -10.420   6.622  72.765  1.00  0.00    -0.217 C  
BRANCH   4   5
HETATM    5  N   UNL     1     -11.570   7.472  72.350  1.00  0.00    -0.307 NA 
BRANCH   5   6
HETATM    6  C   UNL     1     -11.085   8.850  72.039  1.00  0.00    -0.351 C  
BRANCH   6   7
HETATM    7  C   UNL     1     -12.106   9.774  71.346  1.00  0.00    -0.400 C  
HETATM    8  H   UNL     1     -13.855  10.574  71.766  1.00  0.00     0.000 HD 
HETATM    9  O   UNL     1     -13.226  10.004  72.193  1.00  0.00    -0.442 OA 
ENDBRANCH   6   7
ENDBRANCH   5   6
BRANCH   5  10
HETATM   10  C   UNL     1     -12.219   6.878  71.144  1.00  0.00    -0.379 C  
BRANCH  10  11
HETATM   11  C   UNL     1     -11.246   6.388  70.055  1.00  0.00    -0.411 C  
HETATM   12  O   UNL     1     -11.359   7.202  68.891  1.00  0.00    -0.468 OA 
HETATM   13  H   UNL     1     -10.759   6.900  68.220  1.00  0.00     0.000 HD 
ENDBRANCH  10  11
ENDBRANCH   5  10
ENDBRANCH   4   5
ENDBRANCH   2   4
TORSDOF 6
ENDMDL
MODEL      141
REMARK 921   NORMALIZED FREE ENERGY PREDICTED BY IDOCK:   -2.30 KCAL/MOL
REMARK 922        TOTAL FREE ENERGY PREDICTED BY IDOCK:   -3.59 KCAL/MOL
REMARK 923 INTER-LIGAND FREE ENERGY PREDICTED BY IDOCK:   -3.19 KCAL/MOL
REMARK 924 INTRA-LIGAND FREE ENERGY PREDICTED BY IDOCK:   -0.40 KCAL/MOL
REMARK 927      BINDING AFFINITY PREDICTED BY RF-SCORE:    0.00 PKD
ROOT
HETATM    1  O   UNL     1      -9.966  12.907  67.832  1.00  0.00    -0.219 OA 
HETATM    2  C   UNL     1     -10.797  13.701  66.986  1.00  0.00    -0.286 C  
HETATM    3  H   UNL     1      -9.831  12.060  67.422  1.00  0.00     0.000 HD 
ENDROOT
BRANCH   2   4
HETATM    4  C   UNL     1     -11.015  15.073  67.648  1.00  0.00    -0.305 C  
BRANCH   4   5
HETATM    5  N   UNL     1     -10.206  16.207  67.123  1.00  0.00    -0.275 NA 
BRANCH   5   6
HETATM    6  C   UNL     1     -10.784  17.498  67.602  1.00  0.00    -0.306 C  
BRANCH   6   7
HETATM    7  C   UNL     1     -10.348  18.753  66.823  1.00  0.00    -0.412 C  
HETATM    8  H   UNL     1     -10.475  19.431  64.979  1.00  0.00     0.000 HD 
HETATM    9  O   UNL     1     -10.744  18.656  65.459  1.00  0.00    -0.577 OA 
ENDBRANCH   6   7
ENDBRANCH   5   6
BRANCH   5  10
HETATM   10  C   UNL     1      -8.797  16.075  67.599  1.00  0.00    -0.185 C  
BRANCH  10  11
HETATM   11  C   UNL     1      -8.627  16.032  69.129  1.00  0.00    -0.247 C  
HETATM   12  O   UNL     1      -8.262  14.720  69.548  1.00  0.00    -0.376 OA 
HETATM   13  H   UNL     1      -8.157  14.694  70.492  1.00  0.00     0.000 HD 
ENDBRANCH  10  11
ENDBRANCH   5  10
ENDBRANCH   4   5
ENDBRANCH   2   4
TORSDOF 6
ENDMDL
MODEL      142
REMARK 921   NORMALIZED FREE ENERGY PREDICTED BY IDOCK:   -2.29 KCAL/MOL
REMARK 922        TOTAL FREE ENERGY PREDICTED BY IDOCK:   -3.58 KCAL/MOL
REMARK 923 INTER-LIGAND FREE ENERGY PREDICTED BY IDOCK:   -3.39 KCAL/MOL
REMARK 924 INTRA-LIGAND FREE ENERGY PREDICTED BY IDOCK:   -0.19 KCAL/MOL
REMARK 927      BINDING AFFINITY PREDICTED BY RF-SCORE:    0.00 PKD
ROOT
HETATM    1  O   UNL     1     -10.262   4.728  72.798  1.00  0.00    -0.168 OA 
HETATM    2  C   UNL     1     -11.264   5.743  72.738  1.00  0.00    -0.292 C  
HETATM    3  H   UNL     1     -10.638   3.909  72.497  1.00  0.00     0.000 HD 
ENDROOT
BRANCH   2   4
HETATM    4  C   UNL     1     -10.656   7.071  73.224  1.00  0.00    -0.344 C  
BRANCH   4   5
HETATM    5  N   UNL     1     -11.178   8.316  72.595  1.00  0.00    -0.376 NA 
BRANCH   5   6
HETATM    6  C   UNL     1     -10.128   8.907  71.713  1.00  0.00    -0.337 C  
BRANCH   6   7
HETATM    7  C   UNL     1      -8.689   8.421  71.973  1.00  0.00    -0.202 C  
HETATM    8  H   UNL     1      -6.860   9.093  71.694  1.00  0.00     0.000 HD 
HETATM    9  O   UNL     1      -7.747   9.393  71.533  1.00  0.00    -0.321 OA 
ENDBRANCH   6   7
ENDBRANCH   5   6
BRANCH   5  10
HETATM   10  C   UNL     1     -12.394   7.995  71.791  1.00  0.00    -0.319 C  
BRANCH  10  11
HETATM   11  C   UNL     1     -13.490   9.076  71.806  1.00  0.00    -0.411 C  
HETATM   12  O   UNL     1     -13.462   9.824  70.594  1.00  0.00    -0.619 OA 
HETATM   13  H   UNL     1     -14.138  10.491  70.603  1.00  0.00     0.000 HD 
ENDBRANCH  10  11
ENDBRANCH   5  10
ENDBRANCH   4   5
ENDBRANCH   2   4
TORSDOF 6
ENDMDL
MODEL      143
REMARK 921   NORMALIZED FREE ENERGY PREDICTED BY IDOCK:   -2.28 KCAL/MOL
REMARK 922        TOTAL FREE ENERGY PREDICTED BY IDOCK:   -3.56 KCAL/MOL
REMARK 923 INTER-LIGAND FREE ENERGY PREDICTED BY IDOCK:   -3.32 KCAL/MOL
REMARK 924 INTRA-LIGAND FREE ENERGY PREDICTED BY IDOCK:   -0.24 KCAL/MOL
REMARK 927      BINDING AFFINITY PREDICTED BY RF-SCORE:    0.00 PKD
ROOT
HETATM    1  O   UNL     1      -5.865  16.629  66.571  1.00  0.00    -0.324 OA 
HETATM    2  C   UNL     1      -7.113  17.229  66.222  1.00  0.00    -0.276 C  
HETATM    3  H   UNL     1      -5.332  16.554  65.788  1.00  0.00     0.000 HD 
ENDROOT
BRANCH   2   4
HETATM    4  C   UNL     1      -7.977  17.352  67.490  1.00  0.00    -0.195 C  
BRANCH   4   5
HETATM    5  N   UNL     1      -9.438  17.108  67.330  1.00  0.00    -0.241 NA 
BRANCH   5   6
HETATM    6  C   UNL     1      -9.655  15.781  66.682  1.00  0.00    -0.247 C  
BRANCH   6   7
HETATM    7  C   UNL     1     -10.434  15.808  65.352  1.00  0.00    -0.414 C  
HETATM    8  H   UNL     1     -11.239  17.162  64.172  1.00  0.00     0.000 HD 
HETATM    9  O   UNL     1     -10.759  17.145  64.992  1.00  0.00    -0.712 OA 
ENDBRANCH   6   7
ENDBRANCH   5   6
BRANCH   5  10
HETATM   10  C   UNL     1     -10.096  17.133  68.670  1.00  0.00    -0.329 C  
BRANCH  10  11
HETATM   11  C   UNL     1     -10.837  15.840  69.056  1.00  0.00    -0.248 C  
HETATM   12  O   UNL     1     -11.814  16.112  70.057  1.00  0.00    -0.338 OA 
HETATM   13  H   UNL     1     -12.271  15.314  70.295  1.00  0.00     0.000 HD 
ENDBRANCH  10  11
ENDBRANCH   5  10
ENDBRANCH   4   5
ENDBRANCH   2   4
TORSDOF 6
ENDMDL
MODEL      144
REMARK 921   NORMALIZED FREE ENERGY PREDICTED BY IDOCK:   -2.27 KCAL/MOL
REMARK 922        TOTAL FREE ENERGY PREDICTED BY IDOCK:   -3.55 KCAL/MOL
REMARK 923 INTER-LIGAND FREE ENERGY PREDICTED BY IDOCK:   -3.35 KCAL/MOL
REMARK 924 INTRA-LIGAND FREE ENERGY PREDICTED BY IDOCK:   -0.20 KCAL/MOL
REMARK 927      BINDING AFFINITY PREDICTED BY RF-SCORE:    0.00 PKD
ROOT
HETATM    1  O   UNL     1      -5.130  18.810  72.048  1.00  0.00    -0.770 OA 
HETATM    2  C   UNL     1      -5.775  19.970  71.523  1.00  0.00    -0.368 C  
HETATM    3  H   UNL     1      -5.088  18.883  72.994  1.00  0.00     0.000 HD 
ENDROOT
BRANCH   2   4
HETATM    4  C   UNL     1      -5.843  19.852  69.990  1.00  0.00    -0.306 C  
BRANCH   4   5
HETATM    5  N   UNL     1      -6.814  18.867  69.438  1.00  0.00    -0.258 NA 
BRANCH   5   6
HETATM    6  C   UNL     1      -7.661  19.530  68.401  1.00  0.00    -0.337 C  
BRANCH   6   7
HETATM    7  C   UNL     1      -9.182  19.339  68.563  1.00  0.00    -0.382 C  
HETATM    8  H   UNL     1     -10.464  17.846  68.548  1.00  0.00     0.000 HD 
HETATM    9  O   UNL     1      -9.527  17.963  68.448  1.00  0.00    -0.282 OA 
ENDBRANCH   6   7
ENDBRANCH   5   6
BRANCH   5  10
HETATM   10  C   UNL     1      -6.072  17.723  68.831  1.00  0.00    -0.203 C  
BRANCH  10  11
HETATM   11  C   UNL     1      -5.904  17.792  67.302  1.00  0.00    -0.137 C  
HETATM   12  O   UNL     1      -5.984  16.486  66.738  1.00  0.00    -0.309 OA 
HETATM   13  H   UNL     1      -5.882  16.529  65.794  1.00  0.00     0.000 HD 
ENDBRANCH  10  11
ENDBRANCH   5  10
ENDBRANCH   4   5
ENDBRANCH   2   4
TORSDOF 6
ENDMDL
MODEL      145
REMARK 921   NORMALIZED FREE ENERGY PREDICTED BY IDOCK:   -2.27 KCAL/MOL
REMARK 922        TOTAL FREE ENERGY PREDICTED BY IDOCK:   -3.55 KCAL/MOL
REMARK 923 INTER-LIGAND FREE ENERGY PREDICTED BY IDOCK:   -3.44 KCAL/MOL
REMARK 924 INTRA-LIGAND FREE ENERGY PREDICTED BY IDOCK:   -0.11 KCAL/MOL
REMARK 927      BINDING AFFINITY PREDICTED BY RF-SCORE:    0.00 PKD
ROOT
HETATM    1  O   UNL     1     -10.621  13.955  65.883  1.00  0.00    -0.282 OA 
HETATM    2  C   UNL     1     -10.256  15.081  66.682  1.00  0.00    -0.268 C  
HETATM    3  H   UNL     1      -9.986  13.856  65.184  1.00  0.00     0.000 HD 
ENDROOT
BRANCH   2   4
HETATM    4  C   UNL     1     -11.284  15.241  67.816  1.00  0.00    -0.326 C  
BRANCH   4   5
HETATM    5  N   UNL     1     -11.285  16.542  68.540  1.00  0.00    -0.345 NA 
BRANCH   5   6
HETATM    6  C   UNL     1     -11.127  16.297  70.005  1.00  0.00    -0.348 C  
BRANCH   6   7
HETATM    7  C   UNL     1     -12.213  15.417  70.654  1.00  0.00    -0.385 C  
HETATM    8  H   UNL     1     -13.399  15.501  72.223  1.00  0.00     0.000 HD 
HETATM    9  O   UNL     1     -12.730  16.043  71.823  1.00  0.00    -0.443 OA 
ENDBRANCH   6   7
ENDBRANCH   5   6
BRANCH   5  10
HETATM   10  C   UNL     1     -10.160  17.388  68.043  1.00  0.00    -0.326 C  
BRANCH  10  11
HETATM   11  C   UNL     1     -10.080  18.796  68.662  1.00  0.00    -0.380 C  
HETATM   12  O   UNL     1      -8.808  19.380  68.395  1.00  0.00    -0.332 OA 
HETATM   13  H   UNL     1      -8.759  20.249  68.776  1.00  0.00     0.000 HD 
ENDBRANCH  10  11
ENDBRANCH   5  10
ENDBRANCH   4   5
ENDBRANCH   2   4
TORSDOF 6
ENDMDL
MODEL      146
REMARK 921   NORMALIZED FREE ENERGY PREDICTED BY IDOCK:   -2.26 KCAL/MOL
REMARK 922        TOTAL FREE ENERGY PREDICTED BY IDOCK:   -3.53 KCAL/MOL
REMARK 923 INTER-LIGAND FREE ENERGY PREDICTED BY IDOCK:   -3.39 KCAL/MOL
REMARK 924 INTRA-LIGAND FREE ENERGY PREDICTED BY IDOCK:   -0.14 KCAL/MOL
REMARK 927      BINDING AFFINITY PREDICTED BY RF-SCORE:    0.00 PKD
ROOT
HETATM    1  O   UNL     1      -7.441  16.000  69.442  1.00  0.00    -0.226 OA 
HETATM    2  C   UNL     1      -8.358  16.112  68.354  1.00  0.00    -0.179 C  
HETATM    3  H   UNL     1      -7.063  15.129  69.436  1.00  0.00     0.000 HD 
ENDROOT
BRANCH   2   4
HETATM    4  C   UNL     1      -8.971  17.524  68.363  1.00  0.00    -0.276 C  
BRANCH   4   5
HETATM    5  N   UNL     1      -8.304  18.549  67.512  1.00  0.00    -0.255 NA 
BRANCH   5   6
HETATM    6  C   UNL     1      -9.186  18.890  66.357  1.00  0.00    -0.313 C  
BRANCH   6   7
HETATM    7  C   UNL     1     -10.508  18.101  66.273  1.00  0.00    -0.361 C  
HETATM    8  H   UNL     1     -11.621  17.284  64.871  1.00  0.00     0.000 HD 
HETATM    9  O   UNL     1     -10.806  17.770  64.922  1.00  0.00    -0.815 OA 
ENDBRANCH   6   7
ENDBRANCH   5   6
BRANCH   5  10
HETATM   10  C   UNL     1      -8.036  19.772  68.325  1.00  0.00    -0.295 C  
BRANCH  10  11
HETATM   11  C   UNL     1      -6.706  19.761  69.101  1.00  0.00    -0.346 C  
HETATM   12  O   UNL     1      -6.027  21.002  68.932  1.00  0.00    -0.326 OA 
HETATM   13  H   UNL     1      -5.207  20.996  69.412  1.00  0.00     0.000 HD 
ENDBRANCH  10  11
ENDBRANCH   5  10
ENDBRANCH   4   5
ENDBRANCH   2   4
TORSDOF 6
ENDMDL
MODEL      147
REMARK 921   NORMALIZED FREE ENERGY PREDICTED BY IDOCK:   -2.26 KCAL/MOL
REMARK 922        TOTAL FREE ENERGY PREDICTED BY IDOCK:   -3.53 KCAL/MOL
REMARK 923 INTER-LIGAND FREE ENERGY PREDICTED BY IDOCK:   -3.06 KCAL/MOL
REMARK 924 INTRA-LIGAND FREE ENERGY PREDICTED BY IDOCK:   -0.47 KCAL/MOL
REMARK 927      BINDING AFFINITY PREDICTED BY RF-SCORE:    0.00 PKD
ROOT
HETATM    1  O   UNL     1      -9.807   6.775  66.225  1.00  0.00    -0.382 OA 
HETATM    2  C   UNL     1     -10.928   6.976  67.084  1.00  0.00    -0.323 C  
HETATM    3  H   UNL     1      -9.980   7.196  65.391  1.00  0.00     0.000 HD 
ENDROOT
BRANCH   2   4
HETATM    4  C   UNL     1     -10.648   6.295  68.436  1.00  0.00    -0.260 C  
BRANCH   4   5
HETATM    5  N   UNL     1     -11.015   7.060  69.660  1.00  0.00    -0.248 NA 
BRANCH   5   6
HETATM    6  C   UNL     1     -11.238   6.113  70.793  1.00  0.00    -0.306 C  
BRANCH   6   7
HETATM    7  C   UNL     1     -12.223   6.593  71.877  1.00  0.00    -0.335 C  
HETATM    8  H   UNL     1     -13.571   8.012  72.084  1.00  0.00     0.000 HD 
HETATM    9  O   UNL     1     -12.964   7.717  71.416  1.00  0.00    -0.339 OA 
ENDBRANCH   6   7
ENDBRANCH   5   6
BRANCH   5  10
HETATM   10  C   UNL     1      -9.913   8.009  70.001  1.00  0.00    -0.191 C  
BRANCH  10  11
HETATM   11  C   UNL     1     -10.269   9.500  69.856  1.00  0.00    -0.231 C  
HETATM   12  O   UNL     1     -11.608   9.645  69.392  1.00  0.00    -0.444 OA 
HETATM   13  H   UNL     1     -11.828  10.565  69.304  1.00  0.00     0.000 HD 
ENDBRANCH  10  11
ENDBRANCH   5  10
ENDBRANCH   4   5
ENDBRANCH   2   4
TORSDOF 6
ENDMDL
MODEL      148
REMARK 921   NORMALIZED FREE ENERGY PREDICTED BY IDOCK:   -2.26 KCAL/MOL
REMARK 922        TOTAL FREE ENERGY PREDICTED BY IDOCK:   -3.53 KCAL/MOL
REMARK 923 INTER-LIGAND FREE ENERGY PREDICTED BY IDOCK:   -3.28 KCAL/MOL
REMARK 924 INTRA-LIGAND FREE ENERGY PREDICTED BY IDOCK:   -0.25 KCAL/MOL
REMARK 927      BINDING AFFINITY PREDICTED BY RF-SCORE:    0.00 PKD
ROOT
HETATM    1  O   UNL     1     -10.003  13.726  64.566  1.00  0.00    -0.606 OA 
HETATM    2  C   UNL     1     -10.205  13.596  65.973  1.00  0.00    -0.307 C  
HETATM    3  H   UNL     1      -9.123  13.436  64.354  1.00  0.00     0.000 HD 
ENDROOT
BRANCH   2   4
HETATM    4  C   UNL     1     -11.630  14.064  66.316  1.00  0.00    -0.369 C  
BRANCH   4   5
HETATM    5  N   UNL     1     -11.887  14.448  67.732  1.00  0.00    -0.374 NA 
BRANCH   5   6
HETATM    6  C   UNL     1     -12.217  13.228  68.527  1.00  0.00    -0.068 C  
BRANCH   6   7
HETATM    7  C   UNL     1     -11.541  13.130  69.908  1.00  0.00    -0.185 C  
HETATM    8  H   UNL     1     -12.025  13.470  71.786  1.00  0.00     0.000 HD 
HETATM    9  O   UNL     1     -12.442  13.530  70.934  1.00  0.00    -0.356 OA 
ENDBRANCH   6   7
ENDBRANCH   5   6
BRANCH   5  10
HETATM   10  C   UNL     1     -10.672  15.107  68.296  1.00  0.00    -0.251 C  
BRANCH  10  11
HETATM   11  C   UNL     1     -10.837  16.601  68.631  1.00  0.00    -0.344 C  
HETATM   12  O   UNL     1     -10.946  16.781  70.040  1.00  0.00    -0.415 OA 
HETATM   13  H   UNL     1     -11.047  17.703  70.247  1.00  0.00     0.000 HD 
ENDBRANCH  10  11
ENDBRANCH   5  10
ENDBRANCH   4   5
ENDBRANCH   2   4
TORSDOF 6
ENDMDL
MODEL      149
REMARK 921   NORMALIZED FREE ENERGY PREDICTED BY IDOCK:   -2.25 KCAL/MOL
REMARK 922        TOTAL FREE ENERGY PREDICTED BY IDOCK:   -3.53 KCAL/MOL
REMARK 923 INTER-LIGAND FREE ENERGY PREDICTED BY IDOCK:   -3.37 KCAL/MOL
REMARK 924 INTRA-LIGAND FREE ENERGY PREDICTED BY IDOCK:   -0.16 KCAL/MOL
REMARK 927      BINDING AFFINITY PREDICTED BY RF-SCORE:    0.00 PKD
ROOT
HETATM    1  O   UNL     1      -7.465  16.656  69.202  1.00  0.00    -0.232 OA 
HETATM    2  C   UNL     1      -8.523  15.949  68.557  1.00  0.00    -0.184 C  
HETATM    3  H   UNL     1      -6.805  16.879  68.555  1.00  0.00     0.000 HD 
ENDROOT
BRANCH   2   4
HETATM    4  C   UNL     1      -9.592  15.588  69.604  1.00  0.00    -0.262 C  
BRANCH   4   5
HETATM    5  N   UNL     1     -10.856  14.990  69.092  1.00  0.00    -0.241 NA 
BRANCH   5   6
HETATM    6  C   UNL     1     -11.979  15.330  70.016  1.00  0.00    -0.343 C  
BRANCH   6   7
HETATM    7  C   UNL     1     -11.650  15.254  71.520  1.00  0.00    -0.396 C  
HETATM    8  H   UNL     1     -11.815  16.417  73.099  1.00  0.00     0.000 HD 
HETATM    9  O   UNL     1     -12.018  16.464  72.172  1.00  0.00    -0.509 OA 
ENDBRANCH   6   7
ENDBRANCH   5   6
BRANCH   5  10
HETATM   10  C   UNL     1     -11.142  15.525  67.728  1.00  0.00    -0.315 C  
BRANCH  10  11
HETATM   11  C   UNL     1     -11.327  14.457  66.634  1.00  0.00    -0.353 C  
HETATM   12  O   UNL     1     -12.708  14.139  66.484  1.00  0.00    -0.528 OA 
HETATM   13  H   UNL     1     -12.822  13.481  65.809  1.00  0.00     0.000 HD 
ENDBRANCH  10  11
ENDBRANCH   5  10
ENDBRANCH   4   5
ENDBRANCH   2   4
TORSDOF 6
ENDMDL
MODEL      150
REMARK 921   NORMALIZED FREE ENERGY PREDICTED BY IDOCK:   -2.25 KCAL/MOL
REMARK 922        TOTAL FREE ENERGY PREDICTED BY IDOCK:   -3.53 KCAL/MOL
REMARK 923 INTER-LIGAND FREE ENERGY PREDICTED BY IDOCK:   -3.43 KCAL/MOL
REMARK 924 INTRA-LIGAND FREE ENERGY PREDICTED BY IDOCK:   -0.10 KCAL/MOL
REMARK 927      BINDING AFFINITY PREDICTED BY RF-SCORE:    0.00 PKD
ROOT
HETATM    1  O   UNL     1      -5.630  16.898  66.431  1.00  0.00    -0.341 OA 
HETATM    2  C   UNL     1      -6.838  17.593  66.120  1.00  0.00    -0.293 C  
HETATM    3  H   UNL     1      -4.897  17.492  66.319  1.00  0.00     0.000 HD 
ENDROOT
BRANCH   2   4
HETATM    4  C   UNL     1      -8.026  16.632  66.302  1.00  0.00    -0.305 C  
BRANCH   4   5
HETATM    5  N   UNL     1      -9.143  17.103  67.167  1.00  0.00    -0.224 NA 
BRANCH   5   6
HETATM    6  C   UNL     1      -8.930  18.539  67.518  1.00  0.00    -0.276 C  
BRANCH   6   7
HETATM    7  C   UNL     1      -9.827  19.546  66.771  1.00  0.00    -0.382 C  
HETATM    8  H   UNL     1     -11.426  20.627  67.157  1.00  0.00     0.000 HD 
HETATM    9  O   UNL     1     -10.874  20.006  67.617  1.00  0.00    -0.274 OA 
ENDBRANCH   6   7
ENDBRANCH   5   6
BRANCH   5  10
HETATM   10  C   UNL     1     -10.437  16.944  66.440  1.00  0.00    -0.252 C  
BRANCH  10  11
HETATM   11  C   UNL     1     -10.657  15.563  65.794  1.00  0.00    -0.356 C  
HETATM   12  O   UNL     1     -10.959  15.709  64.410  1.00  0.00    -0.727 OA 
HETATM   13  H   UNL     1     -11.094  14.857  64.012  1.00  0.00     0.000 HD 
ENDBRANCH  10  11
ENDBRANCH   5  10
ENDBRANCH   4   5
ENDBRANCH   2   4
TORSDOF 6
ENDMDL
MODEL      151
REMARK 921   NORMALIZED FREE ENERGY PREDICTED BY IDOCK:   -2.25 KCAL/MOL
REMARK 922        TOTAL FREE ENERGY PREDICTED BY IDOCK:   -3.53 KCAL/MOL
REMARK 923 INTER-LIGAND FREE ENERGY PREDICTED BY IDOCK:   -3.33 KCAL/MOL
REMARK 924 INTRA-LIGAND FREE ENERGY PREDICTED BY IDOCK:   -0.20 KCAL/MOL
REMARK 927      BINDING AFFINITY PREDICTED BY RF-SCORE:    0.00 PKD
ROOT
HETATM    1  O   UNL     1     -10.901  18.974  67.468  1.00  0.00    -0.463 OA 
HETATM    2  C   UNL     1     -10.164  17.969  68.163  1.00  0.00    -0.384 C  
HETATM    3  H   UNL     1     -10.307  19.671  67.216  1.00  0.00     0.000 HD 
ENDROOT
BRANCH   2   4
HETATM    4  C   UNL     1     -11.126  16.839  68.571  1.00  0.00    -0.260 C  
BRANCH   4   5
HETATM    5  N   UNL     1     -10.604  15.831  69.536  1.00  0.00    -0.248 NA 
BRANCH   5   6
HETATM    6  C   UNL     1     -11.337  15.955  70.832  1.00  0.00    -0.391 C  
BRANCH   6   7
HETATM    7  C   UNL     1     -12.463  14.928  71.060  1.00  0.00    -0.330 C  
HETATM    8  H   UNL     1     -14.431  14.898  71.000  1.00  0.00     0.000 HD 
HETATM    9  O   UNL     1     -13.736  15.531  70.859  1.00  0.00    -0.524 OA 
ENDBRANCH   6   7
ENDBRANCH   5   6
BRANCH   5  10
HETATM   10  C   UNL     1     -10.794  14.461  68.975  1.00  0.00    -0.252 C  
BRANCH  10  11
HETATM   11  C   UNL     1      -9.634  13.947  68.102  1.00  0.00    -0.218 C  
HETATM   12  O   UNL     1     -10.015  13.942  66.730  1.00  0.00    -0.256 OA 
HETATM   13  H   UNL     1      -9.299  13.625  66.191  1.00  0.00     0.000 HD 
ENDBRANCH  10  11
ENDBRANCH   5  10
ENDBRANCH   4   5
ENDBRANCH   2   4
TORSDOF 6
ENDMDL
MODEL      152
REMARK 921   NORMALIZED FREE ENERGY PREDICTED BY IDOCK:   -2.24 KCAL/MOL
REMARK 922        TOTAL FREE ENERGY PREDICTED BY IDOCK:   -3.51 KCAL/MOL
REMARK 923 INTER-LIGAND FREE ENERGY PREDICTED BY IDOCK:   -3.41 KCAL/MOL
REMARK 924 INTRA-LIGAND FREE ENERGY PREDICTED BY IDOCK:   -0.11 KCAL/MOL
REMARK 927      BINDING AFFINITY PREDICTED BY RF-SCORE:    0.00 PKD
ROOT
HETATM    1  O   UNL     1     -10.496  19.741  69.228  1.00  0.00    -0.599 OA 
HETATM    2  C   UNL     1     -10.280  19.416  67.855  1.00  0.00    -0.420 C  
HETATM    3  H   UNL     1     -10.192  20.627  69.385  1.00  0.00     0.000 HD 
ENDROOT
BRANCH   2   4
HETATM    4  C   UNL     1     -10.772  17.980  67.600  1.00  0.00    -0.344 C  
BRANCH   4   5
HETATM    5  N   UNL     1      -9.728  16.951  67.339  1.00  0.00    -0.243 NA 
BRANCH   5   6
HETATM    6  C   UNL     1      -8.986  17.298  66.090  1.00  0.00    -0.154 C  
BRANCH   6   7
HETATM    7  C   UNL     1      -7.585  17.906  66.295  1.00  0.00    -0.280 C  
HETATM    8  H   UNL     1      -6.625  19.543  65.773  1.00  0.00     0.000 HD 
HETATM    9  O   UNL     1      -7.489  19.169  65.647  1.00  0.00    -0.448 OA 
ENDBRANCH   6   7
ENDBRANCH   5   6
BRANCH   5  10
HETATM   10  C   UNL     1      -8.782  16.898  68.493  1.00  0.00    -0.251 C  
BRANCH  10  11
HETATM   11  C   UNL     1      -8.586  15.502  69.112  1.00  0.00    -0.246 C  
HETATM   12  O   UNL     1      -9.534  15.287  70.154  1.00  0.00    -0.421 OA 
HETATM   13  H   UNL     1      -9.413  14.425  70.535  1.00  0.00     0.000 HD 
ENDBRANCH  10  11
ENDBRANCH   5  10
ENDBRANCH   4   5
ENDBRANCH   2   4
TORSDOF 6
ENDMDL
MODEL      153
REMARK 921   NORMALIZED FREE ENERGY PREDICTED BY IDOCK:   -2.24 KCAL/MOL
REMARK 922        TOTAL FREE ENERGY PREDICTED BY IDOCK:   -3.51 KCAL/MOL
REMARK 923 INTER-LIGAND FREE ENERGY PREDICTED BY IDOCK:   -3.28 KCAL/MOL
REMARK 924 INTRA-LIGAND FREE ENERGY PREDICTED BY IDOCK:   -0.23 KCAL/MOL
REMARK 927      BINDING AFFINITY PREDICTED BY RF-SCORE:    0.00 PKD
ROOT
HETATM    1  O   UNL     1     -14.345   7.782  70.895  1.00  0.00    -0.656 OA 
HETATM    2  C   UNL     1     -13.402   7.154  71.763  1.00  0.00    -0.283 C  
HETATM    3  H   UNL     1     -15.085   7.200  70.773  1.00  0.00     0.000 HD 
ENDROOT
BRANCH   2   4
HETATM    4  C   UNL     1     -12.202   8.098  71.960  1.00  0.00    -0.339 C  
BRANCH   4   5
HETATM    5  N   UNL     1     -11.032   7.890  71.062  1.00  0.00    -0.240 NA 
BRANCH   5   6
HETATM    6  C   UNL     1     -10.837   9.101  70.210  1.00  0.00    -0.246 C  
BRANCH   6   7
HETATM    7  C   UNL     1     -11.730  10.309  70.554  1.00  0.00    -0.331 C  
HETATM    8  H   UNL     1     -12.665  11.743  69.583  1.00  0.00     0.000 HD 
HETATM    9  O   UNL     1     -12.114  10.998  69.371  1.00  0.00    -0.333 OA 
ENDBRANCH   6   7
ENDBRANCH   5   6
BRANCH   5  10
HETATM   10  C   UNL     1      -9.811   7.646  71.885  1.00  0.00    -0.165 C  
BRANCH  10  11
HETATM   11  C   UNL     1     -10.079   7.197  73.333  1.00  0.00    -0.303 C  
HETATM   12  O   UNL     1      -9.284   7.956  74.240  1.00  0.00    -0.389 OA 
HETATM   13  H   UNL     1      -9.450   7.679  75.133  1.00  0.00     0.000 HD 
ENDBRANCH  10  11
ENDBRANCH   5  10
ENDBRANCH   4   5
ENDBRANCH   2   4
TORSDOF 6
ENDMDL
MODEL      154
REMARK 921   NORMALIZED FREE ENERGY PREDICTED BY IDOCK:   -2.24 KCAL/MOL
REMARK 922        TOTAL FREE ENERGY PREDICTED BY IDOCK:   -3.51 KCAL/MOL
REMARK 923 INTER-LIGAND FREE ENERGY PREDICTED BY IDOCK:   -3.42 KCAL/MOL
REMARK 924 INTRA-LIGAND FREE ENERGY PREDICTED BY IDOCK:   -0.09 KCAL/MOL
REMARK 927      BINDING AFFINITY PREDICTED BY RF-SCORE:    0.00 PKD
ROOT
HETATM    1  O   UNL     1      -8.208  11.365  68.314  1.00  0.00    -0.134 OA 
HETATM    2  C   UNL     1      -7.859  11.427  66.931  1.00  0.00    -0.158 C  
HETATM    3  H   UNL     1      -7.420  11.471  68.834  1.00  0.00     0.000 HD 
ENDROOT
BRANCH   2   4
HETATM    4  C   UNL     1      -9.135  11.254  66.088  1.00  0.00    -0.204 C  
BRANCH   4   5
HETATM    5  N   UNL     1     -10.041  12.433  65.994  1.00  0.00    -0.246 NA 
BRANCH   5   6
HETATM    6  C   UNL     1     -10.619  12.510  64.620  1.00  0.00    -0.316 C  
BRANCH   6   7
HETATM    7  C   UNL     1     -11.971  13.242  64.506  1.00  0.00    -0.400 C  
HETATM    8  H   UNL     1     -13.637  13.056  63.474  1.00  0.00     0.000 HD 
HETATM    9  O   UNL     1     -12.803  12.605  63.544  1.00  0.00    -0.712 OA 
ENDBRANCH   6   7
ENDBRANCH   5   6
BRANCH   5  10
HETATM   10  C   UNL     1     -11.136  12.300  66.999  1.00  0.00    -0.287 C  
BRANCH  10  11
HETATM   11  C   UNL     1     -11.429  10.859  67.458  1.00  0.00    -0.152 C  
HETATM   12  O   UNL     1     -12.314  10.867  68.574  1.00  0.00    -0.807 OA 
HETATM   13  H   UNL     1     -12.494   9.978  68.856  1.00  0.00     0.000 HD 
ENDBRANCH  10  11
ENDBRANCH   5  10
ENDBRANCH   4   5
ENDBRANCH   2   4
TORSDOF 6
ENDMDL
MODEL      155
REMARK 921   NORMALIZED FREE ENERGY PREDICTED BY IDOCK:   -2.24 KCAL/MOL
REMARK 922        TOTAL FREE ENERGY PREDICTED BY IDOCK:   -3.51 KCAL/MOL
REMARK 923 INTER-LIGAND FREE ENERGY PREDICTED BY IDOCK:   -3.29 KCAL/MOL
REMARK 924 INTRA-LIGAND FREE ENERGY PREDICTED BY IDOCK:   -0.21 KCAL/MOL
REMARK 927      BINDING AFFINITY PREDICTED BY RF-SCORE:    0.00 PKD
ROOT
HETATM    1  O   UNL     1     -10.514  16.029  69.907  1.00  0.00    -0.290 OA 
HETATM    2  C   UNL     1     -10.169  16.585  68.638  1.00  0.00    -0.264 C  
HETATM    3  H   UNL     1     -10.374  15.090  69.879  1.00  0.00     0.000 HD 
ENDROOT
BRANCH   2   4
HETATM    4  C   UNL     1     -10.395  18.106  68.683  1.00  0.00    -0.298 C  
BRANCH   4   5
HETATM    5  N   UNL     1      -9.177  18.964  68.681  1.00  0.00    -0.354 NA 
BRANCH   5   6
HETATM    6  C   UNL     1      -7.981  18.132  68.354  1.00  0.00    -0.302 C  
BRANCH   6   7
HETATM    7  C   UNL     1      -6.712  18.440  69.173  1.00  0.00    -0.260 C  
HETATM    8  H   UNL     1      -5.437  17.447  70.297  1.00  0.00     0.000 HD 
HETATM    9  O   UNL     1      -6.219  17.257  69.792  1.00  0.00    -0.248 OA 
ENDBRANCH   6   7
ENDBRANCH   5   6
BRANCH   5  10
HETATM   10  C   UNL     1      -9.334  20.048  67.667  1.00  0.00    -0.360 C  
BRANCH  10  11
HETATM   11  C   UNL     1      -8.990  19.644  66.221  1.00  0.00    -0.375 C  
HETATM   12  O   UNL     1      -7.914  20.437  65.730  1.00  0.00    -0.543 OA 
HETATM   13  H   UNL     1      -7.702  20.187  64.838  1.00  0.00     0.000 HD 
ENDBRANCH  10  11
ENDBRANCH   5  10
ENDBRANCH   4   5
ENDBRANCH   2   4
TORSDOF 6
ENDMDL
MODEL      156
REMARK 921   NORMALIZED FREE ENERGY PREDICTED BY IDOCK:   -2.23 KCAL/MOL
REMARK 922        TOTAL FREE ENERGY PREDICTED BY IDOCK:   -3.50 KCAL/MOL
REMARK 923 INTER-LIGAND FREE ENERGY PREDICTED BY IDOCK:   -3.26 KCAL/MOL
REMARK 924 INTRA-LIGAND FREE ENERGY PREDICTED BY IDOCK:   -0.24 KCAL/MOL
REMARK 927      BINDING AFFINITY PREDICTED BY RF-SCORE:    0.00 PKD
ROOT
HETATM    1  O   UNL     1     -12.194  10.095  69.476  1.00  0.00    -0.509 OA 
HETATM    2  C   UNL     1     -10.814  10.181  69.833  1.00  0.00    -0.299 C  
HETATM    3  H   UNL     1     -12.457  10.911  69.068  1.00  0.00     0.000 HD 
ENDROOT
BRANCH   2   4
HETATM    4  C   UNL     1     -10.388   8.858  70.495  1.00  0.00    -0.203 C  
BRANCH   4   5
HETATM    5  N   UNL     1     -11.481   7.940  70.919  1.00  0.00    -0.282 NA 
BRANCH   5   6
HETATM    6  C   UNL     1     -11.191   6.559  70.428  1.00  0.00    -0.355 C  
BRANCH   6   7
HETATM    7  C   UNL     1     -11.152   6.393  68.896  1.00  0.00    -0.348 C  
HETATM    8  H   UNL     1     -10.043   5.454  67.569  1.00  0.00     0.000 HD 
HETATM    9  O   UNL     1     -10.066   5.557  68.513  1.00  0.00    -0.156 OA 
ENDBRANCH   6   7
ENDBRANCH   5   6
BRANCH   5  10
HETATM   10  C   UNL     1     -11.578   7.938  72.409  1.00  0.00    -0.380 C  
BRANCH  10  11
HETATM   11  C   UNL     1     -10.883   6.754  73.107  1.00  0.00    -0.284 C  
HETATM   12  O   UNL     1     -10.124   7.215  74.221  1.00  0.00    -0.444 OA 
HETATM   13  H   UNL     1      -9.696   6.484  74.651  1.00  0.00     0.000 HD 
ENDBRANCH  10  11
ENDBRANCH   5  10
ENDBRANCH   4   5
ENDBRANCH   2   4
TORSDOF 6
ENDMDL
MODEL      157
REMARK 921   NORMALIZED FREE ENERGY PREDICTED BY IDOCK:   -2.23 KCAL/MOL
REMARK 922        TOTAL FREE ENERGY PREDICTED BY IDOCK:   -3.50 KCAL/MOL
REMARK 923 INTER-LIGAND FREE ENERGY PREDICTED BY IDOCK:   -3.00 KCAL/MOL
REMARK 924 INTRA-LIGAND FREE ENERGY PREDICTED BY IDOCK:   -0.50 KCAL/MOL
REMARK 927      BINDING AFFINITY PREDICTED BY RF-SCORE:    0.00 PKD
ROOT
HETATM    1  O   UNL     1     -10.360  13.737  67.986  1.00  0.00    -0.235 OA 
HETATM    2  C   UNL     1     -10.442  14.766  67.001  1.00  0.00    -0.270 C  
HETATM    3  H   UNL     1     -10.090  12.929  67.565  1.00  0.00     0.000 HD 
ENDROOT
BRANCH   2   4
HETATM    4  C   UNL     1     -10.879  16.074  67.683  1.00  0.00    -0.311 C  
BRANCH   4   5
HETATM    5  N   UNL     1      -9.844  17.136  67.821  1.00  0.00    -0.266 NA 
BRANCH   5   6
HETATM    6  C   UNL     1      -8.534  16.624  67.318  1.00  0.00    -0.194 C  
BRANCH   6   7
HETATM    7  C   UNL     1      -7.302  17.474  67.686  1.00  0.00    -0.181 C  
HETATM    8  H   UNL     1      -6.608  18.408  69.274  1.00  0.00     0.000 HD 
HETATM    9  O   UNL     1      -7.368  17.885  69.047  1.00  0.00    -0.260 OA 
ENDBRANCH   6   7
ENDBRANCH   5   6
BRANCH   5  10
HETATM   10  C   UNL     1     -10.255  18.337  67.035  1.00  0.00    -0.378 C  
BRANCH  10  11
HETATM   11  C   UNL     1     -10.504  19.608  67.868  1.00  0.00    -0.423 C  
HETATM   12  O   UNL     1      -9.924  19.470  69.162  1.00  0.00    -0.482 OA 
HETATM   13  H   UNL     1     -10.077  20.255  69.675  1.00  0.00     0.000 HD 
ENDBRANCH  10  11
ENDBRANCH   5  10
ENDBRANCH   4   5
ENDBRANCH   2   4
TORSDOF 6
ENDMDL
MODEL      158
REMARK 921   NORMALIZED FREE ENERGY PREDICTED BY IDOCK:   -2.23 KCAL/MOL
REMARK 922        TOTAL FREE ENERGY PREDICTED BY IDOCK:   -3.50 KCAL/MOL
REMARK 923 INTER-LIGAND FREE ENERGY PREDICTED BY IDOCK:   -3.14 KCAL/MOL
REMARK 924 INTRA-LIGAND FREE ENERGY PREDICTED BY IDOCK:   -0.35 KCAL/MOL
REMARK 927      BINDING AFFINITY PREDICTED BY RF-SCORE:    0.00 PKD
ROOT
HETATM    1  O   UNL     1     -12.580   8.154  72.936  1.00  0.00    -0.614 OA 
HETATM    2  C   UNL     1     -11.475   7.662  72.179  1.00  0.00    -0.298 C  
HETATM    3  H   UNL     1     -13.275   7.507  72.921  1.00  0.00     0.000 HD 
ENDROOT
BRANCH   2   4
HETATM    4  C   UNL     1     -10.348   8.710  72.203  1.00  0.00    -0.333 C  
BRANCH   4   5
HETATM    5  N   UNL     1     -10.024   9.375  70.910  1.00  0.00    -0.291 NA 
BRANCH   5   6
HETATM    6  C   UNL     1      -8.886   8.664  70.255  1.00  0.00    -0.152 C  
BRANCH   6   7
HETATM    7  C   UNL     1      -7.632   8.468  71.129  1.00  0.00    -0.096 C  
HETATM    8  H   UNL     1      -6.276   9.604  71.994  1.00  0.00     0.000 HD 
HETATM    9  O   UNL     1      -7.049   9.725  71.455  1.00  0.00    -0.299 OA 
ENDBRANCH   6   7
ENDBRANCH   5   6
BRANCH   5  10
HETATM   10  C   UNL     1     -11.223   9.342  70.020  1.00  0.00    -0.168 C  
BRANCH  10  11
HETATM   11  C   UNL     1     -12.216  10.501  70.221  1.00  0.00    -0.311 C  
HETATM   12  O   UNL     1     -13.464  10.004  70.697  1.00  0.00    -0.582 OA 
HETATM   13  H   UNL     1     -14.076  10.719  70.821  1.00  0.00     0.000 HD 
ENDBRANCH  10  11
ENDBRANCH   5  10
ENDBRANCH   4   5
ENDBRANCH   2   4
TORSDOF 6
ENDMDL
MODEL      159
REMARK 921   NORMALIZED FREE ENERGY PREDICTED BY IDOCK:   -2.22 KCAL/MOL
REMARK 922        TOTAL FREE ENERGY PREDICTED BY IDOCK:   -3.49 KCAL/MOL
REMARK 923 INTER-LIGAND FREE ENERGY PREDICTED BY IDOCK:   -2.92 KCAL/MOL
REMARK 924 INTRA-LIGAND FREE ENERGY PREDICTED BY IDOCK:   -0.57 KCAL/MOL
REMARK 927      BINDING AFFINITY PREDICTED BY RF-SCORE:    0.00 PKD
ROOT
HETATM    1  O   UNL     1     -10.108   6.445  68.926  1.00  0.00    -0.148 OA 
HETATM    2  C   UNL     1     -11.157   6.204  69.863  1.00  0.00    -0.410 C  
HETATM    3  H   UNL     1     -10.412   6.209  68.057  1.00  0.00     0.000 HD 
ENDROOT
BRANCH   2   4
HETATM    4  C   UNL     1     -10.664   6.586  71.270  1.00  0.00    -0.237 C  
BRANCH   4   5
HETATM    5  N   UNL     1     -10.945   7.977  71.723  1.00  0.00    -0.240 NA 
BRANCH   5   6
HETATM    6  C   UNL     1      -9.751   8.836  71.465  1.00  0.00    -0.291 C  
BRANCH   6   7
HETATM    7  C   UNL     1      -9.848   9.760  70.235  1.00  0.00    -0.240 C  
HETATM    8  H   UNL     1      -9.087   9.843  68.421  1.00  0.00     0.000 HD 
HETATM    9  O   UNL     1      -9.027   9.273  69.180  1.00  0.00    -0.138 OA 
ENDBRANCH   6   7
ENDBRANCH   5   6
BRANCH   5  10
HETATM   10  C   UNL     1     -12.125   8.513  70.981  1.00  0.00    -0.205 C  
BRANCH  10  11
HETATM   11  C   UNL     1     -13.471   8.385  71.718  1.00  0.00    -0.364 C  
HETATM   12  O   UNL     1     -14.407   7.674  70.914  1.00  0.00    -0.644 OA 
HETATM   13  H   UNL     1     -15.237   7.595  71.369  1.00  0.00     0.000 HD 
ENDBRANCH  10  11
ENDBRANCH   5  10
ENDBRANCH   4   5
ENDBRANCH   2   4
TORSDOF 6
ENDMDL
MODEL      160
REMARK 921   NORMALIZED FREE ENERGY PREDICTED BY IDOCK:   -2.22 KCAL/MOL
REMARK 922        TOTAL FREE ENERGY PREDICTED BY IDOCK:   -3.48 KCAL/MOL
REMARK 923 INTER-LIGAND FREE ENERGY PREDICTED BY IDOCK:   -3.33 KCAL/MOL
REMARK 924 INTRA-LIGAND FREE ENERGY PREDICTED BY IDOCK:   -0.15 KCAL/MOL
REMARK 927      BINDING AFFINITY PREDICTED BY RF-SCORE:    0.00 PKD
ROOT
HETATM    1  O   UNL     1      -5.805  18.550  69.136  1.00  0.00    -0.212 OA 
HETATM    2  C   UNL     1      -7.165  18.953  68.982  1.00  0.00    -0.293 C  
HETATM    3  H   UNL     1      -5.363  19.171  69.703  1.00  0.00     0.000 HD 
ENDROOT
BRANCH   2   4
HETATM    4  C   UNL     1      -7.882  17.948  68.063  1.00  0.00    -0.251 C  
BRANCH   4   5
HETATM    5  N   UNL     1      -8.610  18.513  66.893  1.00  0.00    -0.269 NA 
BRANCH   5   6
HETATM    6  C   UNL     1      -7.647  19.223  66.001  1.00  0.00    -0.272 C  
BRANCH   6   7
HETATM    7  C   UNL     1      -6.477  18.371  65.471  1.00  0.00    -0.268 C  
HETATM    8  H   UNL     1      -5.269  18.374  63.917  1.00  0.00     0.000 HD 
HETATM    9  O   UNL     1      -5.990  18.900  64.243  1.00  0.00    -0.416 OA 
ENDBRANCH   6   7
ENDBRANCH   5   6
BRANCH   5  10
HETATM   10  C   UNL     1      -9.277  17.407  66.143  1.00  0.00    -0.142 C  
BRANCH  10  11
HETATM   11  C   UNL     1     -10.743  17.674  65.755  1.00  0.00    -0.110 C  
HETATM   12  O   UNL     1     -11.046  17.051  64.510  1.00  0.00    -1.098 OA 
HETATM   13  H   UNL     1     -11.950  17.215  64.272  1.00  0.00     0.000 HD 
ENDBRANCH  10  11
ENDBRANCH   5  10
ENDBRANCH   4   5
ENDBRANCH   2   4
TORSDOF 6
ENDMDL
MODEL      161
REMARK 921   NORMALIZED FREE ENERGY PREDICTED BY IDOCK:   -2.22 KCAL/MOL
REMARK 922        TOTAL FREE ENERGY PREDICTED BY IDOCK:   -3.48 KCAL/MOL
REMARK 923 INTER-LIGAND FREE ENERGY PREDICTED BY IDOCK:   -3.25 KCAL/MOL
REMARK 924 INTRA-LIGAND FREE ENERGY PREDICTED BY IDOCK:   -0.23 KCAL/MOL
REMARK 927      BINDING AFFINITY PREDICTED BY RF-SCORE:    0.00 PKD
ROOT
HETATM    1  O   UNL     1     -10.520  19.706  69.228  1.00  0.00    -0.560 OA 
HETATM    2  C   UNL     1     -10.174  19.374  67.883  1.00  0.00    -0.420 C  
HETATM    3  H   UNL     1     -10.240  20.596  69.407  1.00  0.00     0.000 HD 
ENDROOT
BRANCH   2   4
HETATM    4  C   UNL     1     -10.628  17.933  67.593  1.00  0.00    -0.387 C  
BRANCH   4   5
HETATM    5  N   UNL     1      -9.568  16.887  67.576  1.00  0.00    -0.242 NA 
BRANCH   5   6
HETATM    6  C   UNL     1     -10.199  15.535  67.611  1.00  0.00    -0.255 C  
BRANCH   6   7
HETATM    7  C   UNL     1     -10.379  14.849  66.242  1.00  0.00    -0.294 C  
HETATM    8  H   UNL     1     -11.863  14.140  65.160  1.00  0.00     0.000 HD 
HETATM    9  O   UNL     1     -11.752  14.563  66.004  1.00  0.00    -0.362 OA 
ENDBRANCH   6   7
ENDBRANCH   5   6
BRANCH   5  10
HETATM   10  C   UNL     1      -8.747  17.032  66.338  1.00  0.00    -0.273 C  
BRANCH  10  11
HETATM   11  C   UNL     1      -7.231  17.167  66.572  1.00  0.00    -0.273 C  
HETATM   12  O   UNL     1      -6.877  18.538  66.734  1.00  0.00    -0.185 OA 
HETATM   13  H   UNL     1      -5.942  18.621  66.880  1.00  0.00     0.000 HD 
ENDBRANCH  10  11
ENDBRANCH   5  10
ENDBRANCH   4   5
ENDBRANCH   2   4
TORSDOF 6
ENDMDL
MODEL      162
REMARK 921   NORMALIZED FREE ENERGY PREDICTED BY IDOCK:   -2.22 KCAL/MOL
REMARK 922        TOTAL FREE ENERGY PREDICTED BY IDOCK:   -3.48 KCAL/MOL
REMARK 923 INTER-LIGAND FREE ENERGY PREDICTED BY IDOCK:   -3.32 KCAL/MOL
REMARK 924 INTRA-LIGAND FREE ENERGY PREDICTED BY IDOCK:   -0.16 KCAL/MOL
REMARK 927      BINDING AFFINITY PREDICTED BY RF-SCORE:    0.00 PKD
ROOT
HETATM    1  O   UNL     1      -9.122  11.231  69.207  1.00  0.00    -0.393 OA 
HETATM    2  C   UNL     1     -10.412  11.265  68.598  1.00  0.00    -0.203 C  
HETATM    3  H   UNL     1      -9.184  10.765  70.032  1.00  0.00     0.000 HD 
ENDROOT
BRANCH   2   4
HETATM    4  C   UNL     1     -10.311  12.020  67.260  1.00  0.00    -0.212 C  
BRANCH   4   5
HETATM    5  N   UNL     1     -11.254  11.605  66.184  1.00  0.00    -0.289 NA 
BRANCH   5   6
HETATM    6  C   UNL     1     -12.101  12.768  65.787  1.00  0.00    -0.448 C  
BRANCH   6   7
HETATM    7  C   UNL     1     -12.068  13.974  66.746  1.00  0.00    -0.447 C  
HETATM    8  H   UNL     1     -11.377  15.817  66.733  1.00  0.00     0.000 HD 
HETATM    9  O   UNL     1     -11.397  15.074  66.142  1.00  0.00    -0.339 OA 
ENDBRANCH   6   7
ENDBRANCH   5   6
BRANCH   5  10
HETATM   10  C   UNL     1     -10.479  11.114  65.006  1.00  0.00    -0.293 C  
BRANCH  10  11
HETATM   11  C   UNL     1      -9.405  10.058  65.325  1.00  0.00    -0.237 C  
HETATM   12  O   UNL     1     -10.015   8.866  65.811  1.00  0.00    -0.459 OA 
HETATM   13  H   UNL     1      -9.352   8.214  66.007  1.00  0.00     0.000 HD 
ENDBRANCH  10  11
ENDBRANCH   5  10
ENDBRANCH   4   5
ENDBRANCH   2   4
TORSDOF 6
ENDMDL
MODEL      163
REMARK 921   NORMALIZED FREE ENERGY PREDICTED BY IDOCK:   -2.22 KCAL/MOL
REMARK 922        TOTAL FREE ENERGY PREDICTED BY IDOCK:   -3.48 KCAL/MOL
REMARK 923 INTER-LIGAND FREE ENERGY PREDICTED BY IDOCK:   -3.36 KCAL/MOL
REMARK 924 INTRA-LIGAND FREE ENERGY PREDICTED BY IDOCK:   -0.11 KCAL/MOL
REMARK 927      BINDING AFFINITY PREDICTED BY RF-SCORE:    0.00 PKD
ROOT
HETATM    1  O   UNL     1     -10.942  17.271  68.266  1.00  0.00    -0.336 OA 
HETATM    2  C   UNL     1     -11.320  15.959  67.848  1.00  0.00    -0.252 C  
HETATM    3  H   UNL     1     -11.689  17.850  68.171  1.00  0.00     0.000 HD 
ENDROOT
BRANCH   2   4
HETATM    4  C   UNL     1     -10.112  15.020  68.003  1.00  0.00    -0.223 C  
BRANCH   4   5
HETATM    5  N   UNL     1      -9.381  14.657  66.757  1.00  0.00    -0.245 NA 
BRANCH   5   6
HETATM    6  C   UNL     1     -10.218  13.730  65.940  1.00  0.00    -0.313 C  
BRANCH   6   7
HETATM    7  C   UNL     1     -10.833  12.540  66.703  1.00  0.00    -0.246 C  
HETATM    8  H   UNL     1     -12.619  11.756  66.968  1.00  0.00     0.000 HD 
HETATM    9  O   UNL     1     -12.240  12.490  66.498  1.00  0.00    -0.569 OA 
ENDBRANCH   6   7
ENDBRANCH   5   6
BRANCH   5  10
HETATM   10  C   UNL     1      -9.085  15.895  65.977  1.00  0.00    -0.328 C  
BRANCH  10  11
HETATM   11  C   UNL     1      -7.801  16.636  66.392  1.00  0.00    -0.312 C  
HETATM   12  O   UNL     1      -7.635  17.813  65.606  1.00  0.00    -0.541 OA 
HETATM   13  H   UNL     1      -6.843  18.270  65.863  1.00  0.00     0.000 HD 
ENDBRANCH  10  11
ENDBRANCH   5  10
ENDBRANCH   4   5
ENDBRANCH   2   4
TORSDOF 6
ENDMDL
MODEL      164
REMARK 921   NORMALIZED FREE ENERGY PREDICTED BY IDOCK:   -2.20 KCAL/MOL
REMARK 922        TOTAL FREE ENERGY PREDICTED BY IDOCK:   -3.45 KCAL/MOL
REMARK 923 INTER-LIGAND FREE ENERGY PREDICTED BY IDOCK:   -3.25 KCAL/MOL
REMARK 924 INTRA-LIGAND FREE ENERGY PREDICTED BY IDOCK:   -0.21 KCAL/MOL
REMARK 927      BINDING AFFINITY PREDICTED BY RF-SCORE:    0.00 PKD
ROOT
HETATM    1  O   UNL     1      -8.247  14.931  69.687  1.00  0.00    -0.405 OA 
HETATM    2  C   UNL     1      -9.422  15.049  68.885  1.00  0.00    -0.211 C  
HETATM    3  H   UNL     1      -8.475  14.505  70.505  1.00  0.00     0.000 HD 
ENDROOT
BRANCH   2   4
HETATM    4  C   UNL     1      -9.053  15.738  67.560  1.00  0.00    -0.195 C  
BRANCH   4   5
HETATM    5  N   UNL     1      -9.243  17.213  67.496  1.00  0.00    -0.231 NA 
BRANCH   5   6
HETATM    6  C   UNL     1      -7.911  17.885  67.424  1.00  0.00    -0.213 C  
BRANCH   6   7
HETATM    7  C   UNL     1      -6.971  17.381  66.312  1.00  0.00    -0.284 C  
HETATM    8  H   UNL     1      -6.159  18.095  64.667  1.00  0.00     0.000 HD 
HETATM    9  O   UNL     1      -6.738  18.406  65.353  1.00  0.00    -0.450 OA 
ENDBRANCH   6   7
ENDBRANCH   5   6
BRANCH   5  10
HETATM   10  C   UNL     1     -10.052  17.559  66.290  1.00  0.00    -0.336 C  
BRANCH  10  11
HETATM   11  C   UNL     1     -10.532  19.021  66.224  1.00  0.00    -0.457 C  
HETATM   12  O   UNL     1     -10.968  19.455  67.509  1.00  0.00    -0.464 OA 
HETATM   13  H   UNL     1     -11.263  20.357  67.468  1.00  0.00     0.000 HD 
ENDBRANCH  10  11
ENDBRANCH   5  10
ENDBRANCH   4   5
ENDBRANCH   2   4
TORSDOF 6
ENDMDL
MODEL      165
REMARK 921   NORMALIZED FREE ENERGY PREDICTED BY IDOCK:   -2.20 KCAL/MOL
REMARK 922        TOTAL FREE ENERGY PREDICTED BY IDOCK:   -3.45 KCAL/MOL
REMARK 923 INTER-LIGAND FREE ENERGY PREDICTED BY IDOCK:   -3.15 KCAL/MOL
REMARK 924 INTRA-LIGAND FREE ENERGY PREDICTED BY IDOCK:   -0.30 KCAL/MOL
REMARK 927      BINDING AFFINITY PREDICTED BY RF-SCORE:    0.00 PKD
ROOT
HETATM    1  O   UNL     1      -9.898  13.668  67.452  1.00  0.00    -0.227 OA 
HETATM    2  C   UNL     1     -10.654  14.729  66.868  1.00  0.00    -0.294 C  
HETATM    3  H   UNL     1      -9.887  12.933  66.851  1.00  0.00     0.000 HD 
ENDROOT
BRANCH   2   4
HETATM    4  C   UNL     1     -10.672  15.921  67.841  1.00  0.00    -0.312 C  
BRANCH   4   5
HETATM    5  N   UNL     1      -9.980  17.162  67.394  1.00  0.00    -0.272 NA 
BRANCH   5   6
HETATM    6  C   UNL     1     -10.649  18.352  67.998  1.00  0.00    -0.318 C  
BRANCH   6   7
HETATM    7  C   UNL     1      -9.783  19.623  68.098  1.00  0.00    -0.402 C  
HETATM    8  H   UNL     1      -9.395  21.203  66.990  1.00  0.00     0.000 HD 
HETATM    9  O   UNL     1      -9.929  20.419  66.928  1.00  0.00    -0.450 OA 
ENDBRANCH   6   7
ENDBRANCH   5   6
BRANCH   5  10
HETATM   10  C   UNL     1      -8.550  17.114  67.817  1.00  0.00    -0.216 C  
BRANCH  10  11
HETATM   11  C   UNL     1      -7.544  16.823  66.688  1.00  0.00    -0.276 C  
HETATM   12  O   UNL     1      -7.899  17.549  65.514  1.00  0.00    -0.386 OA 
HETATM   13  H   UNL     1      -7.278  17.370  64.817  1.00  0.00     0.000 HD 
ENDBRANCH  10  11
ENDBRANCH   5  10
ENDBRANCH   4   5
ENDBRANCH   2   4
TORSDOF 6
ENDMDL
MODEL      166
REMARK 921   NORMALIZED FREE ENERGY PREDICTED BY IDOCK:   -2.19 KCAL/MOL
REMARK 922        TOTAL FREE ENERGY PREDICTED BY IDOCK:   -3.45 KCAL/MOL
REMARK 923 INTER-LIGAND FREE ENERGY PREDICTED BY IDOCK:   -3.25 KCAL/MOL
REMARK 924 INTRA-LIGAND FREE ENERGY PREDICTED BY IDOCK:   -0.20 KCAL/MOL
REMARK 927      BINDING AFFINITY PREDICTED BY RF-SCORE:    0.00 PKD
ROOT
HETATM    1  O   UNL     1     -10.139   5.153  70.129  1.00  0.00    -0.228 OA 
HETATM    2  C   UNL     1     -10.623   6.235  69.333  1.00  0.00    -0.271 C  
HETATM    3  H   UNL     1     -10.566   4.352  69.850  1.00  0.00     0.000 HD 
ENDROOT
BRANCH   2   4
HETATM    4  C   UNL     1      -9.931   7.533  69.784  1.00  0.00    -0.186 C  
BRANCH   4   5
HETATM    5  N   UNL     1     -10.790   8.744  69.904  1.00  0.00    -0.226 NA 
BRANCH   5   6
HETATM    6  C   UNL     1     -10.836   9.184  71.330  1.00  0.00    -0.349 C  
BRANCH   6   7
HETATM    7  C   UNL     1     -10.122   8.260  72.336  1.00  0.00    -0.312 C  
HETATM    8  H   UNL     1     -10.630   7.001  73.761  1.00  0.00     0.000 HD 
HETATM    9  O   UNL     1     -11.071   7.571  73.141  1.00  0.00    -0.383 OA 
ENDBRANCH   6   7
ENDBRANCH   5   6
BRANCH   5  10
HETATM   10  C   UNL     1     -10.232   9.836  69.053  1.00  0.00    -0.203 C  
BRANCH  10  11
HETATM   11  C   UNL     1     -11.151  10.307  67.911  1.00  0.00    -0.276 C  
HETATM   12  O   UNL     1     -12.400  10.748  68.433  1.00  0.00    -0.813 OA 
HETATM   13  H   UNL     1     -12.967  11.039  67.728  1.00  0.00     0.000 HD 
ENDBRANCH  10  11
ENDBRANCH   5  10
ENDBRANCH   4   5
ENDBRANCH   2   4
TORSDOF 6
ENDMDL
MODEL      167
REMARK 921   NORMALIZED FREE ENERGY PREDICTED BY IDOCK:   -2.19 KCAL/MOL
REMARK 922        TOTAL FREE ENERGY PREDICTED BY IDOCK:   -3.44 KCAL/MOL
REMARK 923 INTER-LIGAND FREE ENERGY PREDICTED BY IDOCK:   -3.38 KCAL/MOL
REMARK 924 INTRA-LIGAND FREE ENERGY PREDICTED BY IDOCK:   -0.07 KCAL/MOL
REMARK 927      BINDING AFFINITY PREDICTED BY RF-SCORE:    0.00 PKD
ROOT
HETATM    1  O   UNL     1      -6.419  18.145  68.948  1.00  0.00    -0.212 OA 
HETATM    2  C   UNL     1      -7.494  18.466  68.066  1.00  0.00    -0.253 C  
HETATM    3  H   UNL     1      -5.661  17.898  68.431  1.00  0.00     0.000 HD 
ENDROOT
BRANCH   2   4
HETATM    4  C   UNL     1      -8.721  18.867  68.903  1.00  0.00    -0.227 C  
BRANCH   4   5
HETATM    5  N   UNL     1      -9.984  18.123  68.637  1.00  0.00    -0.383 NA 
BRANCH   5   6
HETATM    6  C   UNL     1     -10.287  18.159  67.175  1.00  0.00    -0.379 C  
BRANCH   6   7
HETATM    7  C   UNL     1     -10.846  19.494  66.644  1.00  0.00    -0.370 C  
HETATM    8  H   UNL     1     -10.133  21.164  65.885  1.00  0.00     0.000 HD 
HETATM    9  O   UNL     1      -9.788  20.341  66.212  1.00  0.00    -0.422 OA 
ENDBRANCH   6   7
ENDBRANCH   5   6
BRANCH   5  10
HETATM   10  C   UNL     1      -9.833  16.709  69.089  1.00  0.00    -0.244 C  
BRANCH  10  11
HETATM   11  C   UNL     1     -11.024  16.148  69.887  1.00  0.00    -0.362 C  
HETATM   12  O   UNL     1     -10.576  15.164  70.815  1.00  0.00    -0.524 OA 
HETATM   13  H   UNL     1     -11.312  14.818  71.308  1.00  0.00     0.000 HD 
ENDBRANCH  10  11
ENDBRANCH   5  10
ENDBRANCH   4   5
ENDBRANCH   2   4
TORSDOF 6
ENDMDL
MODEL      168
REMARK 921   NORMALIZED FREE ENERGY PREDICTED BY IDOCK:   -2.18 KCAL/MOL
REMARK 922        TOTAL FREE ENERGY PREDICTED BY IDOCK:   -3.43 KCAL/MOL
REMARK 923 INTER-LIGAND FREE ENERGY PREDICTED BY IDOCK:   -3.27 KCAL/MOL
REMARK 924 INTRA-LIGAND FREE ENERGY PREDICTED BY IDOCK:   -0.16 KCAL/MOL
REMARK 927      BINDING AFFINITY PREDICTED BY RF-SCORE:    0.00 PKD
ROOT
HETATM    1  O   UNL     1      -8.117   8.619  72.834  1.00  0.00    -0.388 OA 
HETATM    2  C   UNL     1      -9.237   7.856  72.386  1.00  0.00    -0.181 C  
HETATM    3  H   UNL     1      -7.400   8.026  73.028  1.00  0.00     0.000 HD 
ENDROOT
BRANCH   2   4
HETATM    4  C   UNL     1     -10.398   8.816  72.071  1.00  0.00    -0.340 C  
BRANCH   4   5
HETATM    5  N   UNL     1     -11.149   8.568  70.809  1.00  0.00    -0.250 NA 
BRANCH   5   6
HETATM    6  C   UNL     1     -11.377   9.862  70.101  1.00  0.00    -0.275 C  
BRANCH   6   7
HETATM    7  C   UNL     1     -12.063  10.964  70.934  1.00  0.00    -0.349 C  
HETATM    8  H   UNL     1     -13.749  11.196  71.921  1.00  0.00     0.000 HD 
HETATM    9  O   UNL     1     -13.327  10.517  71.408  1.00  0.00    -0.337 OA 
ENDBRANCH   6   7
ENDBRANCH   5   6
BRANCH   5  10
HETATM   10  C   UNL     1     -10.364   7.644  69.937  1.00  0.00    -0.225 C  
BRANCH  10  11
HETATM   11  C   UNL     1     -11.142   6.423  69.413  1.00  0.00    -0.387 C  
HETATM   12  O   UNL     1     -11.298   6.509  67.999  1.00  0.00    -0.541 OA 
HETATM   13  H   UNL     1     -11.778   5.755  67.676  1.00  0.00     0.000 HD 
ENDBRANCH  10  11
ENDBRANCH   5  10
ENDBRANCH   4   5
ENDBRANCH   2   4
TORSDOF 6
ENDMDL
MODEL      169
REMARK 921   NORMALIZED FREE ENERGY PREDICTED BY IDOCK:   -2.17 KCAL/MOL
REMARK 922        TOTAL FREE ENERGY PREDICTED BY IDOCK:   -3.42 KCAL/MOL
REMARK 923 INTER-LIGAND FREE ENERGY PREDICTED BY IDOCK:   -3.19 KCAL/MOL
REMARK 924 INTRA-LIGAND FREE ENERGY PREDICTED BY IDOCK:   -0.22 KCAL/MOL
REMARK 927      BINDING AFFINITY PREDICTED BY RF-SCORE:    0.00 PKD
ROOT
HETATM    1  O   UNL     1     -12.010  10.716  68.209  1.00  0.00    -0.793 OA 
HETATM    2  C   UNL     1     -10.934  11.171  69.029  1.00  0.00    -0.235 C  
HETATM    3  H   UNL     1     -12.383  11.461  67.752  1.00  0.00     0.000 HD 
ENDROOT
BRANCH   2   4
HETATM    4  C   UNL     1     -10.328   9.965  69.769  1.00  0.00    -0.246 C  
BRANCH   4   5
HETATM    5  N   UNL     1     -11.015   8.656  69.591  1.00  0.00    -0.153 NA 
BRANCH   5   6
HETATM    6  C   UNL     1     -10.146   7.739  68.796  1.00  0.00    -0.196 C  
BRANCH   6   7
HETATM    7  C   UNL     1      -9.188   6.852  69.615  1.00  0.00    -0.146 C  
HETATM    8  H   UNL     1      -7.322   6.924  70.237  1.00  0.00     0.000 HD 
HETATM    9  O   UNL     1      -7.912   7.471  69.732  1.00  0.00    -0.118 OA 
ENDBRANCH   6   7
ENDBRANCH   5   6
BRANCH   5  10
HETATM   10  C   UNL     1     -11.295   8.056  70.929  1.00  0.00    -0.276 C  
BRANCH  10  11
HETATM   11  C   UNL     1     -12.189   8.905  71.851  1.00  0.00    -0.374 C  
HETATM   12  O   UNL     1     -12.556   8.158  73.007  1.00  0.00    -0.656 OA 
HETATM   13  H   UNL     1     -13.107   8.683  73.576  1.00  0.00     0.000 HD 
ENDBRANCH  10  11
ENDBRANCH   5  10
ENDBRANCH   4   5
ENDBRANCH   2   4
TORSDOF 6
ENDMDL
MODEL      170
REMARK 921   NORMALIZED FREE ENERGY PREDICTED BY IDOCK:   -2.16 KCAL/MOL
REMARK 922        TOTAL FREE ENERGY PREDICTED BY IDOCK:   -3.40 KCAL/MOL
REMARK 923 INTER-LIGAND FREE ENERGY PREDICTED BY IDOCK:   -3.15 KCAL/MOL
REMARK 924 INTRA-LIGAND FREE ENERGY PREDICTED BY IDOCK:   -0.25 KCAL/MOL
REMARK 927      BINDING AFFINITY PREDICTED BY RF-SCORE:    0.00 PKD
ROOT
HETATM    1  O   UNL     1      -8.663   9.915  70.541  1.00  0.00    -0.312 OA 
HETATM    2  C   UNL     1     -10.007   9.825  70.069  1.00  0.00    -0.254 C  
HETATM    3  H   UNL     1      -8.392  10.826  70.524  1.00  0.00     0.000 HD 
ENDROOT
BRANCH   2   4
HETATM    4  C   UNL     1     -10.446   8.350  70.096  1.00  0.00    -0.228 C  
BRANCH   4   5
HETATM    5  N   UNL     1     -10.458   7.679  71.426  1.00  0.00    -0.208 NA 
BRANCH   5   6
HETATM    6  C   UNL     1     -11.308   8.462  72.372  1.00  0.00    -0.378 C  
BRANCH   6   7
HETATM    7  C   UNL     1     -12.802   8.556  72.002  1.00  0.00    -0.374 C  
HETATM    8  H   UNL     1     -14.121   9.975  71.656  1.00  0.00     0.000 HD 
HETATM    9  O   UNL     1     -13.201   9.917  71.883  1.00  0.00    -0.408 OA 
ENDBRANCH   6   7
ENDBRANCH   5   6
BRANCH   5  10
HETATM   10  C   UNL     1     -11.002   6.296  71.280  1.00  0.00    -0.275 C  
BRANCH  10  11
HETATM   11  C   UNL     1     -10.610   5.320  72.404  1.00  0.00    -0.225 C  
HETATM   12  O   UNL     1     -11.745   5.014  73.209  1.00  0.00    -0.491 OA 
HETATM   13  H   UNL     1     -11.503   4.411  73.902  1.00  0.00     0.000 HD 
ENDBRANCH  10  11
ENDBRANCH   5  10
ENDBRANCH   4   5
ENDBRANCH   2   4
TORSDOF 6
ENDMDL
MODEL      171
REMARK 921   NORMALIZED FREE ENERGY PREDICTED BY IDOCK:   -2.15 KCAL/MOL
REMARK 922        TOTAL FREE ENERGY PREDICTED BY IDOCK:   -3.39 KCAL/MOL
REMARK 923 INTER-LIGAND FREE ENERGY PREDICTED BY IDOCK:   -3.27 KCAL/MOL
REMARK 924 INTRA-LIGAND FREE ENERGY PREDICTED BY IDOCK:   -0.12 KCAL/MOL
REMARK 927      BINDING AFFINITY PREDICTED BY RF-SCORE:    0.00 PKD
ROOT
HETATM    1  O   UNL     1      -8.451   9.192  71.096  1.00  0.00    -0.239 OA 
HETATM    2  C   UNL     1      -9.856   9.367  70.917  1.00  0.00    -0.268 C  
HETATM    3  H   UNL     1      -8.005   9.984  70.821  1.00  0.00     0.000 HD 
ENDROOT
BRANCH   2   4
HETATM    4  C   UNL     1     -10.579   8.083  71.364  1.00  0.00    -0.216 C  
BRANCH   4   5
HETATM    5  N   UNL     1     -11.818   7.720  70.622  1.00  0.00    -0.189 NA 
BRANCH   5   6
HETATM    6  C   UNL     1     -11.629   6.401  69.950  1.00  0.00    -0.353 C  
BRANCH   6   7
HETATM    7  C   UNL     1     -10.668   6.399  68.745  1.00  0.00    -0.287 C  
HETATM    8  H   UNL     1     -10.794   6.588  66.790  1.00  0.00     0.000 HD 
HETATM    9  O   UNL     1     -11.387   6.589  67.532  1.00  0.00    -0.284 OA 
ENDBRANCH   6   7
ENDBRANCH   5   6
BRANCH   5  10
HETATM   10  C   UNL     1     -12.964   7.644  71.576  1.00  0.00    -0.341 C  
BRANCH  10  11
HETATM   11  C   UNL     1     -13.001   8.756  72.641  1.00  0.00    -0.243 C  
HETATM   12  O   UNL     1     -14.325   9.265  72.777  1.00  0.00    -0.852 OA 
HETATM   13  H   UNL     1     -14.347   9.950  73.434  1.00  0.00     0.000 HD 
ENDBRANCH  10  11
ENDBRANCH   5  10
ENDBRANCH   4   5
ENDBRANCH   2   4
TORSDOF 6
ENDMDL
MODEL      172
REMARK 921   NORMALIZED FREE ENERGY PREDICTED BY IDOCK:   -2.15 KCAL/MOL
REMARK 922        TOTAL FREE ENERGY PREDICTED BY IDOCK:   -3.39 KCAL/MOL
REMARK 923 INTER-LIGAND FREE ENERGY PREDICTED BY IDOCK:   -2.95 KCAL/MOL
REMARK 924 INTRA-LIGAND FREE ENERGY PREDICTED BY IDOCK:   -0.44 KCAL/MOL
REMARK 927      BINDING AFFINITY PREDICTED BY RF-SCORE:    0.00 PKD
ROOT
HETATM    1  O   UNL     1     -12.541  12.426  71.154  1.00  0.00    -0.364 OA 
HETATM    2  C   UNL     1     -12.143  11.115  70.753  1.00  0.00    -0.357 C  
HETATM    3  H   UNL     1     -12.713  12.423  72.088  1.00  0.00     0.000 HD 
ENDROOT
BRANCH   2   4
HETATM    4  C   UNL     1     -11.864  11.121  69.240  1.00  0.00    -0.352 C  
BRANCH   4   5
HETATM    5  N   UNL     1     -10.886  12.129  68.743  1.00  0.00    -0.227 NA 
BRANCH   5   6
HETATM    6  C   UNL     1      -9.737  11.432  68.093  1.00  0.00    -0.192 C  
BRANCH   6   7
HETATM    7  C   UNL     1      -8.922  10.497  69.008  1.00  0.00    -0.176 C  
HETATM    8  H   UNL     1      -8.428   8.592  69.063  1.00  0.00     0.000 HD 
HETATM    9  O   UNL     1      -8.930   9.168  68.499  1.00  0.00    -0.132 OA 
ENDBRANCH   6   7
ENDBRANCH   5   6
BRANCH   5  10
HETATM   10  C   UNL     1     -11.557  13.028  67.758  1.00  0.00    -0.340 C  
BRANCH  10  11
HETATM   11  C   UNL     1     -11.464  14.531  68.079  1.00  0.00    -0.321 C  
HETATM   12  O   UNL     1     -12.208  14.831  69.256  1.00  0.00    -0.489 OA 
HETATM   13  H   UNL     1     -12.150  15.759  69.454  1.00  0.00     0.000 HD 
ENDBRANCH  10  11
ENDBRANCH   5  10
ENDBRANCH   4   5
ENDBRANCH   2   4
TORSDOF 6
ENDMDL
MODEL      173
REMARK 921   NORMALIZED FREE ENERGY PREDICTED BY IDOCK:   -2.15 KCAL/MOL
REMARK 922        TOTAL FREE ENERGY PREDICTED BY IDOCK:   -3.39 KCAL/MOL
REMARK 923 INTER-LIGAND FREE ENERGY PREDICTED BY IDOCK:   -3.19 KCAL/MOL
REMARK 924 INTRA-LIGAND FREE ENERGY PREDICTED BY IDOCK:   -0.20 KCAL/MOL
REMARK 927      BINDING AFFINITY PREDICTED BY RF-SCORE:    0.00 PKD
ROOT
HETATM    1  O   UNL     1     -10.464  16.678  69.492  1.00  0.00    -0.305 OA 
HETATM    2  C   UNL     1     -10.603  17.326  68.228  1.00  0.00    -0.383 C  
HETATM    3  H   UNL     1     -11.059  15.938  69.525  1.00  0.00     0.000 HD 
ENDROOT
BRANCH   2   4
HETATM    4  C   UNL     1      -9.639  18.524  68.174  1.00  0.00    -0.327 C  
BRANCH   4   5
HETATM    5  N   UNL     1      -8.451  18.389  67.286  1.00  0.00    -0.251 NA 
BRANCH   5   6
HETATM    6  C   UNL     1      -8.432  19.513  66.303  1.00  0.00    -0.352 C  
BRANCH   6   7
HETATM    7  C   UNL     1      -7.053  19.845  65.699  1.00  0.00    -0.315 C  
HETATM    8  H   UNL     1      -5.871  19.120  64.302  1.00  0.00     0.000 HD 
HETATM    9  O   UNL     1      -6.721  18.915  64.674  1.00  0.00    -0.388 OA 
ENDBRANCH   6   7
ENDBRANCH   5   6
BRANCH   5  10
HETATM   10  C   UNL     1      -7.208  18.416  68.112  1.00  0.00    -0.261 C  
BRANCH  10  11
HETATM   11  C   UNL     1      -7.230  19.406  69.291  1.00  0.00    -0.301 C  
HETATM   12  O   UNL     1      -6.078  20.244  69.252  1.00  0.00    -0.304 OA 
HETATM   13  H   UNL     1      -6.092  20.855  69.980  1.00  0.00     0.000 HD 
ENDBRANCH  10  11
ENDBRANCH   5  10
ENDBRANCH   4   5
ENDBRANCH   2   4
TORSDOF 6
ENDMDL
MODEL      174
REMARK 921   NORMALIZED FREE ENERGY PREDICTED BY IDOCK:   -2.15 KCAL/MOL
REMARK 922        TOTAL FREE ENERGY PREDICTED BY IDOCK:   -3.39 KCAL/MOL
REMARK 923 INTER-LIGAND FREE ENERGY PREDICTED BY IDOCK:   -2.91 KCAL/MOL
REMARK 924 INTRA-LIGAND FREE ENERGY PREDICTED BY IDOCK:   -0.48 KCAL/MOL
REMARK 927      BINDING AFFINITY PREDICTED BY RF-SCORE:    0.00 PKD
ROOT
HETATM    1  O   UNL     1     -12.185   8.013  70.537  1.00  0.00    -0.488 OA 
HETATM    2  C   UNL     1     -11.365   6.896  70.193  1.00  0.00    -0.314 C  
HETATM    3  H   UNL     1     -12.632   7.826  71.354  1.00  0.00     0.000 HD 
ENDROOT
BRANCH   2   4
HETATM    4  C   UNL     1     -10.641   7.199  68.869  1.00  0.00    -0.201 C  
BRANCH   4   5
HETATM    5  N   UNL     1     -10.045   8.556  68.727  1.00  0.00    -0.192 NA 
BRANCH   5   6
HETATM    6  C   UNL     1      -8.563   8.439  68.591  1.00  0.00    -0.132 C  
BRANCH   6   7
HETATM    7  C   UNL     1      -8.021   7.006  68.421  1.00  0.00    -0.123 C  
HETATM    8  H   UNL     1      -7.247   5.911  66.981  1.00  0.00     0.000 HD 
HETATM    9  O   UNL     1      -7.581   6.794  67.085  1.00  0.00    -0.095 OA 
ENDBRANCH   6   7
ENDBRANCH   5   6
BRANCH   5  10
HETATM   10  C   UNL     1     -10.615   9.225  67.520  1.00  0.00    -0.262 C  
BRANCH  10  11
HETATM   11  C   UNL     1     -11.262  10.598  67.779  1.00  0.00    -0.313 C  
HETATM   12  O   UNL     1     -12.336  10.469  68.706  1.00  0.00    -0.790 OA 
HETATM   13  H   UNL     1     -12.735  11.316  68.867  1.00  0.00     0.000 HD 
ENDBRANCH  10  11
ENDBRANCH   5  10
ENDBRANCH   4   5
ENDBRANCH   2   4
TORSDOF 6
ENDMDL
MODEL      175
REMARK 921   NORMALIZED FREE ENERGY PREDICTED BY IDOCK:   -2.14 KCAL/MOL
REMARK 922        TOTAL FREE ENERGY PREDICTED BY IDOCK:   -3.38 KCAL/MOL
REMARK 923 INTER-LIGAND FREE ENERGY PREDICTED BY IDOCK:   -3.18 KCAL/MOL
REMARK 924 INTRA-LIGAND FREE ENERGY PREDICTED BY IDOCK:   -0.20 KCAL/MOL
REMARK 927      BINDING AFFINITY PREDICTED BY RF-SCORE:    0.00 PKD
ROOT
HETATM    1  O   UNL     1      -7.573  16.317  69.103  1.00  0.00    -0.218 OA 
HETATM    2  C   UNL     1      -7.374  16.538  67.707  1.00  0.00    -0.138 C  
HETATM    3  H   UNL     1      -7.465  15.391  69.285  1.00  0.00     0.000 HD 
ENDROOT
BRANCH   2   4
HETATM    4  C   UNL     1      -7.548  18.038  67.410  1.00  0.00    -0.204 C  
BRANCH   4   5
HETATM    5  N   UNL     1      -8.333  18.394  66.196  1.00  0.00    -0.476 NA 
BRANCH   5   6
HETATM    6  C   UNL     1      -9.787  18.183  66.461  1.00  0.00    -0.362 C  
BRANCH   6   7
HETATM    7  C   UNL     1     -10.597  19.454  66.780  1.00  0.00    -0.472 C  
HETATM    8  H   UNL     1     -11.142  20.462  68.381  1.00  0.00     0.000 HD 
HETATM    9  O   UNL     1     -10.642  19.678  68.184  1.00  0.00    -0.416 OA 
ENDBRANCH   6   7
ENDBRANCH   5   6
BRANCH   5  10
HETATM   10  C   UNL     1      -8.084  19.824  65.844  1.00  0.00    -0.252 C  
BRANCH  10  11
HETATM   11  C   UNL     1      -6.752  20.400  66.361  1.00  0.00    -0.245 C  
HETATM   12  O   UNL     1      -6.187  21.279  65.393  1.00  0.00    -0.402 OA 
HETATM   13  H   UNL     1      -5.366  21.634  65.712  1.00  0.00     0.000 HD 
ENDBRANCH  10  11
ENDBRANCH   5  10
ENDBRANCH   4   5
ENDBRANCH   2   4
TORSDOF 6
ENDMDL
MODEL      176
REMARK 921   NORMALIZED FREE ENERGY PREDICTED BY IDOCK:   -2.13 KCAL/MOL
REMARK 922        TOTAL FREE ENERGY PREDICTED BY IDOCK:   -3.36 KCAL/MOL
REMARK 923 INTER-LIGAND FREE ENERGY PREDICTED BY IDOCK:   -3.18 KCAL/MOL
REMARK 924 INTRA-LIGAND FREE ENERGY PREDICTED BY IDOCK:   -0.19 KCAL/MOL
REMARK 927      BINDING AFFINITY PREDICTED BY RF-SCORE:    0.00 PKD
ROOT
HETATM    1  O   UNL     1      -5.162  18.795  72.000  1.00  0.00    -0.744 OA 
HETATM    2  C   UNL     1      -5.696  19.977  71.406  1.00  0.00    -0.347 C  
HETATM    3  H   UNL     1      -5.099  18.925  72.939  1.00  0.00     0.000 HD 
ENDROOT
BRANCH   2   4
HETATM    4  C   UNL     1      -5.798  19.766  69.884  1.00  0.00    -0.280 C  
BRANCH   4   5
HETATM    5  N   UNL     1      -7.098  19.259  69.364  1.00  0.00    -0.291 NA 
BRANCH   5   6
HETATM    6  C   UNL     1      -7.529  20.090  68.201  1.00  0.00    -0.266 C  
BRANCH   6   7
HETATM    7  C   UNL     1      -6.423  20.938  67.542  1.00  0.00    -0.340 C  
HETATM    8  H   UNL     1      -5.373  20.907  65.878  1.00  0.00     0.000 HD 
HETATM    9  O   UNL     1      -6.054  20.385  66.284  1.00  0.00    -0.180 OA 
ENDBRANCH   6   7
ENDBRANCH   5   6
BRANCH   5  10
HETATM   10  C   UNL     1      -6.942  17.836  68.940  1.00  0.00    -0.250 C  
BRANCH  10  11
HETATM   11  C   UNL     1      -8.253  17.116  68.577  1.00  0.00    -0.261 C  
HETATM   12  O   UNL     1      -8.268  15.806  69.137  1.00  0.00    -0.216 OA 
HETATM   13  H   UNL     1      -9.078  15.362  68.914  1.00  0.00     0.000 HD 
ENDBRANCH  10  11
ENDBRANCH   5  10
ENDBRANCH   4   5
ENDBRANCH   2   4
TORSDOF 6
ENDMDL
MODEL      177
REMARK 921   NORMALIZED FREE ENERGY PREDICTED BY IDOCK:   -2.13 KCAL/MOL
REMARK 922        TOTAL FREE ENERGY PREDICTED BY IDOCK:   -3.36 KCAL/MOL
REMARK 923 INTER-LIGAND FREE ENERGY PREDICTED BY IDOCK:   -3.17 KCAL/MOL
REMARK 924 INTRA-LIGAND FREE ENERGY PREDICTED BY IDOCK:   -0.18 KCAL/MOL
REMARK 927      BINDING AFFINITY PREDICTED BY RF-SCORE:    0.00 PKD
ROOT
HETATM    1  O   UNL     1      -7.268  19.788  69.305  1.00  0.00    -0.340 OA 
HETATM    2  C   UNL     1      -8.086  19.484  68.176  1.00  0.00    -0.319 C  
HETATM    3  H   UNL     1      -6.461  20.185  69.001  1.00  0.00     0.000 HD 
ENDROOT
BRANCH   2   4
HETATM    4  C   UNL     1      -9.395  18.841  68.667  1.00  0.00    -0.351 C  
BRANCH   4   5
HETATM    5  N   UNL     1      -9.743  17.511  68.096  1.00  0.00    -0.289 NA 
BRANCH   5   6
HETATM    6  C   UNL     1      -8.496  16.720  67.877  1.00  0.00    -0.200 C  
BRANCH   6   7
HETATM    7  C   UNL     1      -7.961  15.965  69.109  1.00  0.00    -0.233 C  
HETATM    8  H   UNL     1      -7.503  14.111  69.586  1.00  0.00     0.000 HD 
HETATM    9  O   UNL     1      -7.833  14.576  68.827  1.00  0.00    -0.137 OA 
ENDBRANCH   6   7
ENDBRANCH   5   6
BRANCH   5  10
HETATM   10  C   UNL     1     -10.644  16.785  69.040  1.00  0.00    -0.343 C  
BRANCH  10  11
HETATM   11  C   UNL     1     -11.503  15.678  68.401  1.00  0.00    -0.369 C  
HETATM   12  O   UNL     1     -12.650  15.419  69.204  1.00  0.00    -0.590 OA 
HETATM   13  H   UNL     1     -13.180  14.736  68.809  1.00  0.00     0.000 HD 
ENDBRANCH  10  11
ENDBRANCH   5  10
ENDBRANCH   4   5
ENDBRANCH   2   4
TORSDOF 6
ENDMDL
MODEL      178
REMARK 921   NORMALIZED FREE ENERGY PREDICTED BY IDOCK:   -2.13 KCAL/MOL
REMARK 922        TOTAL FREE ENERGY PREDICTED BY IDOCK:   -3.36 KCAL/MOL
REMARK 923 INTER-LIGAND FREE ENERGY PREDICTED BY IDOCK:   -3.18 KCAL/MOL
REMARK 924 INTRA-LIGAND FREE ENERGY PREDICTED BY IDOCK:   -0.17 KCAL/MOL
REMARK 927      BINDING AFFINITY PREDICTED BY RF-SCORE:    0.00 PKD
ROOT
HETATM    1  O   UNL     1     -10.353   8.225  66.267  1.00  0.00    -0.439 OA 
HETATM    2  C   UNL     1      -9.589   8.254  67.472  1.00  0.00    -0.154 C  
HETATM    3  H   UNL     1      -9.772   8.031  65.540  1.00  0.00     0.000 HD 
ENDROOT
BRANCH   2   4
HETATM    4  C   UNL     1     -10.530   8.567  68.650  1.00  0.00    -0.169 C  
BRANCH   4   5
HETATM    5  N   UNL     1     -10.090   9.632  69.592  1.00  0.00    -0.209 NA 
BRANCH   5   6
HETATM    6  C   UNL     1     -10.273  10.970  68.954  1.00  0.00    -0.203 C  
BRANCH   6   7
HETATM    7  C   UNL     1     -11.727  11.473  68.869  1.00  0.00    -0.339 C  
HETATM    8  H   UNL     1     -12.994  12.012  67.462  1.00  0.00     0.000 HD 
HETATM    9  O   UNL     1     -12.098  11.701  67.514  1.00  0.00    -0.611 OA 
ENDBRANCH   6   7
ENDBRANCH   5   6
BRANCH   5  10
HETATM   10  C   UNL     1     -10.899   9.553  70.845  1.00  0.00    -0.337 C  
BRANCH  10  11
HETATM   11  C   UNL     1     -10.229   8.797  72.007  1.00  0.00    -0.331 C  
HETATM   12  O   UNL     1     -11.213   8.140  72.801  1.00  0.00    -0.389 OA 
HETATM   13  H   UNL     1     -10.799   7.674  73.517  1.00  0.00     0.000 HD 
ENDBRANCH  10  11
ENDBRANCH   5  10
ENDBRANCH   4   5
ENDBRANCH   2   4
TORSDOF 6
ENDMDL
MODEL      179
REMARK 921   NORMALIZED FREE ENERGY PREDICTED BY IDOCK:   -2.11 KCAL/MOL
REMARK 922        TOTAL FREE ENERGY PREDICTED BY IDOCK:   -3.34 KCAL/MOL
REMARK 923 INTER-LIGAND FREE ENERGY PREDICTED BY IDOCK:   -3.13 KCAL/MOL
REMARK 924 INTRA-LIGAND FREE ENERGY PREDICTED BY IDOCK:   -0.20 KCAL/MOL
REMARK 927      BINDING AFFINITY PREDICTED BY RF-SCORE:    0.00 PKD
ROOT
HETATM    1  O   UNL     1      -7.478  16.645  68.578  1.00  0.00    -0.183 OA 
HETATM    2  C   UNL     1      -8.297  15.797  67.774  1.00  0.00    -0.154 C  
HETATM    3  H   UNL     1      -7.041  16.116  69.235  1.00  0.00     0.000 HD 
ENDROOT
BRANCH   2   4
HETATM    4  C   UNL     1      -9.006  16.654  66.710  1.00  0.00    -0.237 C  
BRANCH   4   5
HETATM    5  N   UNL     1     -10.384  17.118  67.033  1.00  0.00    -0.315 NA 
BRANCH   5   6
HETATM    6  C   UNL     1     -11.025  16.157  67.979  1.00  0.00    -0.338 C  
BRANCH   6   7
HETATM    7  C   UNL     1     -11.726  14.949  67.328  1.00  0.00    -0.291 C  
HETATM    8  H   UNL     1     -11.940  13.027  67.696  1.00  0.00     0.000 HD 
HETATM    9  O   UNL     1     -11.508  13.772  68.097  1.00  0.00    -0.276 OA 
ENDBRANCH   6   7
ENDBRANCH   5   6
BRANCH   5  10
HETATM   10  C   UNL     1     -10.319  18.474  67.653  1.00  0.00    -0.410 C  
BRANCH  10  11
HETATM   11  C   UNL     1      -9.307  19.439  67.007  1.00  0.00    -0.326 C  
HETATM   12  O   UNL     1      -9.811  20.771  67.031  1.00  0.00    -0.605 OA 
HETATM   13  H   UNL     1      -9.187  21.366  66.633  1.00  0.00     0.000 HD 
ENDBRANCH  10  11
ENDBRANCH   5  10
ENDBRANCH   4   5
ENDBRANCH   2   4
TORSDOF 6
ENDMDL
MODEL      180
REMARK 921   NORMALIZED FREE ENERGY PREDICTED BY IDOCK:   -2.11 KCAL/MOL
REMARK 922        TOTAL FREE ENERGY PREDICTED BY IDOCK:   -3.33 KCAL/MOL
REMARK 923 INTER-LIGAND FREE ENERGY PREDICTED BY IDOCK:   -3.17 KCAL/MOL
REMARK 924 INTRA-LIGAND FREE ENERGY PREDICTED BY IDOCK:   -0.16 KCAL/MOL
REMARK 927      BINDING AFFINITY PREDICTED BY RF-SCORE:    0.00 PKD
ROOT
HETATM    1  O   UNL     1     -11.610   6.653  67.179  1.00  0.00    -0.749 OA 
HETATM    2  C   UNL     1     -10.418   7.430  67.063  1.00  0.00    -0.333 C  
HETATM    3  H   UNL     1     -11.385   5.733  67.106  1.00  0.00     0.000 HD 
ENDROOT
BRANCH   2   4
HETATM    4  C   UNL     1     -10.782   8.921  67.182  1.00  0.00    -0.133 C  
BRANCH   4   5
HETATM    5  N   UNL     1      -9.791   9.800  67.860  1.00  0.00    -0.145 NA 
BRANCH   5   6
HETATM    6  C   UNL     1     -10.202  11.227  67.707  1.00  0.00    -0.180 C  
BRANCH   6   7
HETATM    7  C   UNL     1     -10.683  11.634  66.301  1.00  0.00    -0.272 C  
HETATM    8  H   UNL     1     -12.307  12.396  65.489  1.00  0.00     0.000 HD 
HETATM    9  O   UNL     1     -12.010  12.145  66.356  1.00  0.00    -0.611 OA 
ENDBRANCH   6   7
ENDBRANCH   5   6
BRANCH   5  10
HETATM   10  C   UNL     1      -9.720   9.445  69.309  1.00  0.00    -0.172 C  
BRANCH  10  11
HETATM   11  C   UNL     1     -11.077   9.392  70.034  1.00  0.00    -0.221 C  
HETATM   12  O   UNL     1     -11.205  10.500  70.921  1.00  0.00    -0.355 OA 
HETATM   13  H   UNL     1     -12.043  10.467  71.368  1.00  0.00     0.000 HD 
ENDBRANCH  10  11
ENDBRANCH   5  10
ENDBRANCH   4   5
ENDBRANCH   2   4
TORSDOF 6
ENDMDL
MODEL      181
REMARK 921   NORMALIZED FREE ENERGY PREDICTED BY IDOCK:   -2.09 KCAL/MOL
REMARK 922        TOTAL FREE ENERGY PREDICTED BY IDOCK:   -3.31 KCAL/MOL
REMARK 923 INTER-LIGAND FREE ENERGY PREDICTED BY IDOCK:   -3.21 KCAL/MOL
REMARK 924 INTRA-LIGAND FREE ENERGY PREDICTED BY IDOCK:   -0.10 KCAL/MOL
REMARK 927      BINDING AFFINITY PREDICTED BY RF-SCORE:    0.00 PKD
ROOT
HETATM    1  O   UNL     1     -10.755   6.274  68.338  1.00  0.00    -0.230 OA 
HETATM    2  C   UNL     1     -10.360   5.815  69.631  1.00  0.00    -0.260 C  
HETATM    3  H   UNL     1     -10.135   5.950  67.695  1.00  0.00     0.000 HD 
ENDROOT
BRANCH   2   4
HETATM    4  C   UNL     1     -11.364   6.339  70.673  1.00  0.00    -0.343 C  
BRANCH   4   5
HETATM    5  N   UNL     1     -11.427   7.816  70.859  1.00  0.00    -0.279 NA 
BRANCH   5   6
HETATM    6  C   UNL     1     -12.224   8.131  72.082  1.00  0.00    -0.350 C  
BRANCH   6   7
HETATM    7  C   UNL     1     -13.753   8.013  71.929  1.00  0.00    -0.323 C  
HETATM    8  H   UNL     1     -15.346   9.041  72.457  1.00  0.00     0.000 HD 
HETATM    9  O   UNL     1     -14.403   9.114  72.551  1.00  0.00    -0.529 OA 
ENDBRANCH   6   7
ENDBRANCH   5   6
BRANCH   5  10
HETATM   10  C   UNL     1     -10.043   8.358  71.001  1.00  0.00    -0.196 C  
BRANCH  10  11
HETATM   11  C   UNL     1      -9.745   9.613  70.161  1.00  0.00    -0.254 C  
HETATM   12  O   UNL     1     -10.707  10.628  70.433  1.00  0.00    -0.445 OA 
HETATM   13  H   UNL     1     -10.522  11.403  69.915  1.00  0.00     0.000 HD 
ENDBRANCH  10  11
ENDBRANCH   5  10
ENDBRANCH   4   5
ENDBRANCH   2   4
TORSDOF 6
ENDMDL
MODEL      182
REMARK 921   NORMALIZED FREE ENERGY PREDICTED BY IDOCK:   -2.09 KCAL/MOL
REMARK 922        TOTAL FREE ENERGY PREDICTED BY IDOCK:   -3.31 KCAL/MOL
REMARK 923 INTER-LIGAND FREE ENERGY PREDICTED BY IDOCK:   -3.17 KCAL/MOL
REMARK 924 INTRA-LIGAND FREE ENERGY PREDICTED BY IDOCK:   -0.13 KCAL/MOL
REMARK 927      BINDING AFFINITY PREDICTED BY RF-SCORE:    0.00 PKD
ROOT
HETATM    1  O   UNL     1      -8.034  11.701  69.218  1.00  0.00    -0.354 OA 
HETATM    2  C   UNL     1      -8.559  12.479  68.143  1.00  0.00    -0.189 C  
HETATM    3  H   UNL     1      -7.115  11.914  69.331  1.00  0.00     0.000 HD 
ENDROOT
BRANCH   2   4
HETATM    4  C   UNL     1     -10.048  12.135  67.961  1.00  0.00    -0.204 C  
BRANCH   4   5
HETATM    5  N   UNL     1     -10.456  11.608  66.629  1.00  0.00    -0.225 NA 
BRANCH   5   6
HETATM    6  C   UNL     1     -10.706  12.748  65.697  1.00  0.00    -0.273 C  
BRANCH   6   7
HETATM    7  C   UNL     1     -12.154  13.274  65.662  1.00  0.00    -0.441 C  
HETATM    8  H   UNL     1     -13.566  13.541  64.317  1.00  0.00     0.000 HD 
HETATM    9  O   UNL     1     -12.673  13.217  64.339  1.00  0.00    -0.653 OA 
ENDBRANCH   6   7
ENDBRANCH   5   6
BRANCH   5  10
HETATM   10  C   UNL     1      -9.372  10.737  66.086  1.00  0.00    -0.183 C  
BRANCH  10  11
HETATM   11  C   UNL     1      -9.631   9.224  66.203  1.00  0.00    -0.260 C  
HETATM   12  O   UNL     1      -9.372   8.582  64.958  1.00  0.00    -0.394 OA 
HETATM   13  H   UNL     1      -9.531   7.648  65.030  1.00  0.00     0.000 HD 
ENDBRANCH  10  11
ENDBRANCH   5  10
ENDBRANCH   4   5
ENDBRANCH   2   4
TORSDOF 6
ENDMDL
MODEL      183
REMARK 921   NORMALIZED FREE ENERGY PREDICTED BY IDOCK:   -2.09 KCAL/MOL
REMARK 922        TOTAL FREE ENERGY PREDICTED BY IDOCK:   -3.30 KCAL/MOL
REMARK 923 INTER-LIGAND FREE ENERGY PREDICTED BY IDOCK:   -2.91 KCAL/MOL
REMARK 924 INTRA-LIGAND FREE ENERGY PREDICTED BY IDOCK:   -0.39 KCAL/MOL
REMARK 927      BINDING AFFINITY PREDICTED BY RF-SCORE:    0.00 PKD
ROOT
HETATM    1  O   UNL     1      -7.438  10.762  67.979  1.00  0.00    -0.087 OA 
HETATM    2  C   UNL     1      -7.559  11.150  66.611  1.00  0.00    -0.147 C  
HETATM    3  H   UNL     1      -6.603  10.325  68.101  1.00  0.00     0.000 HD 
ENDROOT
BRANCH   2   4
HETATM    4  C   UNL     1      -8.911  11.859  66.413  1.00  0.00    -0.152 C  
BRANCH   4   5
HETATM    5  N   UNL     1      -9.969  11.093  65.698  1.00  0.00    -0.236 NA 
BRANCH   5   6
HETATM    6  C   UNL     1     -10.505  10.026  66.594  1.00  0.00    -0.174 C  
BRANCH   6   7
HETATM    7  C   UNL     1     -10.920  10.487  68.005  1.00  0.00    -0.290 C  
HETATM    8  H   UNL     1     -10.326  10.193  69.859  1.00  0.00     0.000 HD 
HETATM    9  O   UNL     1     -10.071   9.908  68.989  1.00  0.00    -0.172 OA 
ENDBRANCH   6   7
ENDBRANCH   5   6
BRANCH   5  10
HETATM   10  C   UNL     1     -11.069  12.020  65.299  1.00  0.00    -0.317 C  
BRANCH  10  11
HETATM   11  C   UNL     1     -11.119  12.366  63.799  1.00  0.00    -0.445 C  
HETATM   12  O   UNL     1     -11.880  11.391  63.093  1.00  0.00    -0.887 OA 
HETATM   13  H   UNL     1     -11.910  11.605  62.168  1.00  0.00     0.000 HD 
ENDBRANCH  10  11
ENDBRANCH   5  10
ENDBRANCH   4   5
ENDBRANCH   2   4
TORSDOF 6
ENDMDL
MODEL      184
REMARK 921   NORMALIZED FREE ENERGY PREDICTED BY IDOCK:   -2.08 KCAL/MOL
REMARK 922        TOTAL FREE ENERGY PREDICTED BY IDOCK:   -3.29 KCAL/MOL
REMARK 923 INTER-LIGAND FREE ENERGY PREDICTED BY IDOCK:   -3.13 KCAL/MOL
REMARK 924 INTRA-LIGAND FREE ENERGY PREDICTED BY IDOCK:   -0.16 KCAL/MOL
REMARK 927      BINDING AFFINITY PREDICTED BY RF-SCORE:    0.00 PKD
ROOT
HETATM    1  O   UNL     1     -11.283   5.701  66.203  1.00  0.00    -0.763 OA 
HETATM    2  C   UNL     1     -10.881   6.382  67.390  1.00  0.00    -0.375 C  
HETATM    3  H   UNL     1     -11.611   4.841  66.438  1.00  0.00     0.000 HD 
ENDROOT
BRANCH   2   4
HETATM    4  C   UNL     1     -10.350   7.776  67.009  1.00  0.00    -0.334 C  
BRANCH   4   5
HETATM    5  N   UNL     1      -9.588   8.511  68.056  1.00  0.00    -0.147 NA 
BRANCH   5   6
HETATM    6  C   UNL     1      -8.921   9.700  67.446  1.00  0.00    -0.131 C  
BRANCH   6   7
HETATM    7  C   UNL     1      -7.411   9.832  67.725  1.00  0.00    -0.090 C  
HETATM    8  H   UNL     1      -6.087  11.281  67.878  1.00  0.00     0.000 HD 
HETATM    9  O   UNL     1      -7.018  11.200  67.705  1.00  0.00    -0.074 OA 
ENDBRANCH   6   7
ENDBRANCH   5   6
BRANCH   5  10
HETATM   10  C   UNL     1     -10.523   8.952  69.134  1.00  0.00    -0.223 C  
BRANCH  10  11
HETATM   11  C   UNL     1     -10.780  10.469  69.194  1.00  0.00    -0.231 C  
HETATM   12  O   UNL     1     -12.073  10.771  68.678  1.00  0.00    -0.763 OA 
HETATM   13  H   UNL     1     -12.231  11.707  68.716  1.00  0.00     0.000 HD 
ENDBRANCH  10  11
ENDBRANCH   5  10
ENDBRANCH   4   5
ENDBRANCH   2   4
TORSDOF 6
ENDMDL
MODEL      185
REMARK 921   NORMALIZED FREE ENERGY PREDICTED BY IDOCK:   -2.07 KCAL/MOL
REMARK 922        TOTAL FREE ENERGY PREDICTED BY IDOCK:   -3.28 KCAL/MOL
REMARK 923 INTER-LIGAND FREE ENERGY PREDICTED BY IDOCK:   -3.11 KCAL/MOL
REMARK 924 INTRA-LIGAND FREE ENERGY PREDICTED BY IDOCK:   -0.17 KCAL/MOL
REMARK 927      BINDING AFFINITY PREDICTED BY RF-SCORE:    0.00 PKD
ROOT
HETATM    1  O   UNL     1     -10.263  19.374  68.355  1.00  0.00    -0.405 OA 
HETATM    2  C   UNL     1     -10.932  18.166  67.996  1.00  0.00    -0.013 C  
HETATM    3  H   UNL     1     -10.792  20.112  68.077  1.00  0.00     0.000 HD 
ENDROOT
BRANCH   2   4
HETATM    4  C   UNL     1     -10.074  16.970  68.446  1.00  0.00    -0.302 C  
BRANCH   4   5
HETATM    5  N   UNL     1      -9.764  15.943  67.413  1.00  0.00    -0.226 NA 
BRANCH   5   6
HETATM    6  C   UNL     1      -9.412  14.654  68.080  1.00  0.00    -0.212 C  
BRANCH   6   7
HETATM    7  C   UNL     1      -8.057  14.042  67.674  1.00  0.00    -0.174 C  
HETATM    8  H   UNL     1      -6.334  13.636  68.536  1.00  0.00     0.000 HD 
HETATM    9  O   UNL     1      -7.170  14.013  68.786  1.00  0.00    -0.105 OA 
ENDBRANCH   6   7
ENDBRANCH   5   6
BRANCH   5  10
HETATM   10  C   UNL     1     -10.952  15.749  66.530  1.00  0.00    -0.165 C  
BRANCH  10  11
HETATM   11  C   UNL     1     -10.676  15.894  65.023  1.00  0.00    -0.404 C  
HETATM   12  O   UNL     1     -11.172  17.142  64.548  1.00  0.00    -1.104 OA 
HETATM   13  H   UNL     1     -11.000  17.231  63.617  1.00  0.00     0.000 HD 
ENDBRANCH  10  11
ENDBRANCH   5  10
ENDBRANCH   4   5
ENDBRANCH   2   4
TORSDOF 6
ENDMDL
MODEL      186
REMARK 921   NORMALIZED FREE ENERGY PREDICTED BY IDOCK:   -2.07 KCAL/MOL
REMARK 922        TOTAL FREE ENERGY PREDICTED BY IDOCK:   -3.28 KCAL/MOL
REMARK 923 INTER-LIGAND FREE ENERGY PREDICTED BY IDOCK:   -3.08 KCAL/MOL
REMARK 924 INTRA-LIGAND FREE ENERGY PREDICTED BY IDOCK:   -0.20 KCAL/MOL
REMARK 927      BINDING AFFINITY PREDICTED BY RF-SCORE:    0.00 PKD
ROOT
HETATM    1  O   UNL     1     -10.934  17.119  68.518  1.00  0.00    -0.317 OA 
HETATM    2  C   UNL     1     -11.516  15.818  68.602  1.00  0.00    -0.386 C  
HETATM    3  H   UNL     1     -11.628  17.760  68.419  1.00  0.00     0.000 HD 
ENDROOT
BRANCH   2   4
HETATM    4  C   UNL     1     -10.391  14.780  68.763  1.00  0.00    -0.248 C  
BRANCH   4   5
HETATM    5  N   UNL     1     -10.064  13.957  67.565  1.00  0.00    -0.242 NA 
BRANCH   5   6
HETATM    6  C   UNL     1      -8.653  14.217  67.151  1.00  0.00    -0.216 C  
BRANCH   6   7
HETATM    7  C   UNL     1      -8.374  15.624  66.586  1.00  0.00    -0.275 C  
HETATM    8  H   UNL     1      -7.015  17.030  66.805  1.00  0.00     0.000 HD 
HETATM    9  O   UNL     1      -7.187  16.163  67.154  1.00  0.00    -0.179 OA 
ENDBRANCH   6   7
ENDBRANCH   5   6
BRANCH   5  10
HETATM   10  C   UNL     1     -10.237  12.511  67.894  1.00  0.00    -0.219 C  
BRANCH  10  11
HETATM   11  C   UNL     1     -11.695  12.014  67.901  1.00  0.00    -0.323 C  
HETATM   12  O   UNL     1     -11.735  10.607  68.123  1.00  0.00    -0.671 OA 
HETATM   13  H   UNL     1     -12.635  10.301  68.128  1.00  0.00     0.000 HD 
ENDBRANCH  10  11
ENDBRANCH   5  10
ENDBRANCH   4   5
ENDBRANCH   2   4
TORSDOF 6
ENDMDL
MODEL      187
REMARK 921   NORMALIZED FREE ENERGY PREDICTED BY IDOCK:   -2.07 KCAL/MOL
REMARK 922        TOTAL FREE ENERGY PREDICTED BY IDOCK:   -3.27 KCAL/MOL
REMARK 923 INTER-LIGAND FREE ENERGY PREDICTED BY IDOCK:   -3.10 KCAL/MOL
REMARK 924 INTRA-LIGAND FREE ENERGY PREDICTED BY IDOCK:   -0.17 KCAL/MOL
REMARK 927      BINDING AFFINITY PREDICTED BY RF-SCORE:    0.00 PKD
ROOT
HETATM    1  O   UNL     1      -9.068   9.011  65.715  1.00  0.00    -0.190 OA 
HETATM    2  C   UNL     1      -8.985  10.216  66.476  1.00  0.00    -0.143 C  
HETATM    3  H   UNL     1      -8.550   8.340  66.145  1.00  0.00     0.000 HD 
ENDROOT
BRANCH   2   4
HETATM    4  C   UNL     1      -9.823  11.302  65.780  1.00  0.00    -0.232 C  
BRANCH   4   5
HETATM    5  N   UNL     1     -10.188  12.493  66.597  1.00  0.00    -0.227 NA 
BRANCH   5   6
HETATM    6  C   UNL     1      -9.968  13.734  65.797  1.00  0.00    -0.275 C  
BRANCH   6   7
HETATM    7  C   UNL     1      -9.596  14.991  66.608  1.00  0.00    -0.263 C  
HETATM    8  H   UNL     1     -10.526  16.543  67.384  1.00  0.00     0.000 HD 
HETATM    9  O   UNL     1     -10.756  15.768  66.884  1.00  0.00    -0.315 OA 
ENDBRANCH   6   7
ENDBRANCH   5   6
BRANCH   5  10
HETATM   10  C   UNL     1     -11.622  12.397  67.001  1.00  0.00    -0.365 C  
BRANCH  10  11
HETATM   11  C   UNL     1     -11.866  12.264  68.516  1.00  0.00    -0.307 C  
HETATM   12  O   UNL     1     -12.338  10.956  68.826  1.00  0.00    -0.783 OA 
HETATM   13  H   UNL     1     -12.488  10.874  69.761  1.00  0.00     0.000 HD 
ENDBRANCH  10  11
ENDBRANCH   5  10
ENDBRANCH   4   5
ENDBRANCH   2   4
TORSDOF 6
ENDMDL
MODEL      188
REMARK 921   NORMALIZED FREE ENERGY PREDICTED BY IDOCK:   -2.06 KCAL/MOL
REMARK 922        TOTAL FREE ENERGY PREDICTED BY IDOCK:   -3.27 KCAL/MOL
REMARK 923 INTER-LIGAND FREE ENERGY PREDICTED BY IDOCK:   -3.13 KCAL/MOL
REMARK 924 INTRA-LIGAND FREE ENERGY PREDICTED BY IDOCK:   -0.13 KCAL/MOL
REMARK 927      BINDING AFFINITY PREDICTED BY RF-SCORE:    0.00 PKD
ROOT
HETATM    1  O   UNL     1     -11.230   5.775  66.019  1.00  0.00    -0.677 OA 
HETATM    2  C   UNL     1     -10.942   6.448  67.245  1.00  0.00    -0.392 C  
HETATM    3  H   UNL     1     -11.932   5.152  66.169  1.00  0.00     0.000 HD 
ENDROOT
BRANCH   2   4
HETATM    4  C   UNL     1      -9.805   7.457  67.003  1.00  0.00    -0.209 C  
BRANCH   4   5
HETATM    5  N   UNL     1     -10.205   8.829  66.584  1.00  0.00    -0.284 NA 
BRANCH   5   6
HETATM    6  C   UNL     1      -9.974   9.782  67.710  1.00  0.00    -0.168 C  
BRANCH   6   7
HETATM    7  C   UNL     1     -11.225  10.522  68.222  1.00  0.00    -0.291 C  
HETATM    8  H   UNL     1     -11.625  12.037  69.414  1.00  0.00     0.000 HD 
HETATM    9  O   UNL     1     -10.854  11.580  69.099  1.00  0.00    -0.216 OA 
ENDBRANCH   6   7
ENDBRANCH   5   6
BRANCH   5  10
HETATM   10  C   UNL     1      -9.399   9.241  65.397  1.00  0.00    -0.226 C  
BRANCH  10  11
HETATM   11  C   UNL     1      -9.777  10.606  64.793  1.00  0.00    -0.292 C  
HETATM   12  O   UNL     1      -8.698  11.117  64.016  1.00  0.00    -0.377 OA 
HETATM   13  H   UNL     1      -8.933  11.959  63.643  1.00  0.00     0.000 HD 
ENDBRANCH  10  11
ENDBRANCH   5  10
ENDBRANCH   4   5
ENDBRANCH   2   4
TORSDOF 6
ENDMDL
MODEL      189
REMARK 921   NORMALIZED FREE ENERGY PREDICTED BY IDOCK:   -2.05 KCAL/MOL
REMARK 922        TOTAL FREE ENERGY PREDICTED BY IDOCK:   -3.25 KCAL/MOL
REMARK 923 INTER-LIGAND FREE ENERGY PREDICTED BY IDOCK:   -3.08 KCAL/MOL
REMARK 924 INTRA-LIGAND FREE ENERGY PREDICTED BY IDOCK:   -0.17 KCAL/MOL
REMARK 927      BINDING AFFINITY PREDICTED BY RF-SCORE:    0.00 PKD
ROOT
HETATM    1  O   UNL     1      -8.479   8.686  72.797  1.00  0.00    -0.396 OA 
HETATM    2  C   UNL     1      -9.172   7.687  73.545  1.00  0.00    -0.275 C  
HETATM    3  H   UNL     1      -7.547   8.597  72.955  1.00  0.00     0.000 HD 
ENDROOT
BRANCH   2   4
HETATM    4  C   UNL     1     -10.682   7.831  73.288  1.00  0.00    -0.272 C  
BRANCH   4   5
HETATM    5  N   UNL     1     -11.219   7.172  72.065  1.00  0.00    -0.244 NA 
BRANCH   5   6
HETATM    6  C   UNL     1     -11.993   5.956  72.453  1.00  0.00    -0.150 C  
BRANCH   6   7
HETATM    7  C   UNL     1     -11.162   4.796  73.035  1.00  0.00    -0.262 C  
HETATM    8  H   UNL     1      -9.612   3.710  72.495  1.00  0.00     0.000 HD 
HETATM    9  O   UNL     1     -10.124   4.425  72.136  1.00  0.00    -0.184 OA 
ENDBRANCH   6   7
ENDBRANCH   5   6
BRANCH   5  10
HETATM   10  C   UNL     1     -12.106   8.126  71.335  1.00  0.00    -0.297 C  
BRANCH  10  11
HETATM   11  C   UNL     1     -13.502   8.323  71.953  1.00  0.00    -0.346 C  
HETATM   12  O   UNL     1     -13.625   9.639  72.485  1.00  0.00    -0.658 OA 
HETATM   13  H   UNL     1     -14.487   9.760  72.866  1.00  0.00     0.000 HD 
ENDBRANCH  10  11
ENDBRANCH   5  10
ENDBRANCH   4   5
ENDBRANCH   2   4
TORSDOF 6
ENDMDL
MODEL      190
REMARK 921   NORMALIZED FREE ENERGY PREDICTED BY IDOCK:   -2.05 KCAL/MOL
REMARK 922        TOTAL FREE ENERGY PREDICTED BY IDOCK:   -3.25 KCAL/MOL
REMARK 923 INTER-LIGAND FREE ENERGY PREDICTED BY IDOCK:   -3.03 KCAL/MOL
REMARK 924 INTRA-LIGAND FREE ENERGY PREDICTED BY IDOCK:   -0.22 KCAL/MOL
REMARK 927      BINDING AFFINITY PREDICTED BY RF-SCORE:    0.00 PKD
ROOT
HETATM    1  O   UNL     1     -12.535   6.809  70.431  1.00  0.00    -0.574 OA 
HETATM    2  C   UNL     1     -11.376   6.526  69.647  1.00  0.00    -0.380 C  
HETATM    3  H   UNL     1     -13.104   6.049  70.423  1.00  0.00     0.000 HD 
ENDROOT
BRANCH   2   4
HETATM    4  C   UNL     1     -10.453   7.758  69.660  1.00  0.00    -0.229 C  
BRANCH   4   5
HETATM    5  N   UNL     1      -9.849   8.156  68.358  1.00  0.00    -0.166 NA 
BRANCH   5   6
HETATM    6  C   UNL     1     -10.755   9.115  67.660  1.00  0.00    -0.189 C  
BRANCH   6   7
HETATM    7  C   UNL     1     -10.748  10.556  68.205  1.00  0.00    -0.229 C  
HETATM    8  H   UNL     1     -12.073  11.923  68.705  1.00  0.00     0.000 HD 
HETATM    9  O   UNL     1     -12.077  11.035  68.369  1.00  0.00    -0.594 OA 
ENDBRANCH   6   7
ENDBRANCH   5   6
BRANCH   5  10
HETATM   10  C   UNL     1      -8.522   8.796  68.601  1.00  0.00    -0.129 C  
BRANCH  10  11
HETATM   11  C   UNL     1      -8.086   8.854  70.076  1.00  0.00    -0.116 C  
HETATM   12  O   UNL     1      -7.847  10.203  70.467  1.00  0.00    -0.424 OA 
HETATM   13  H   UNL     1      -7.579  10.238  71.378  1.00  0.00     0.000 HD 
ENDBRANCH  10  11
ENDBRANCH   5  10
ENDBRANCH   4   5
ENDBRANCH   2   4
TORSDOF 6
ENDMDL
MODEL      191
REMARK 921   NORMALIZED FREE ENERGY PREDICTED BY IDOCK:   -2.05 KCAL/MOL
REMARK 922        TOTAL FREE ENERGY PREDICTED BY IDOCK:   -3.25 KCAL/MOL
REMARK 923 INTER-LIGAND FREE ENERGY PREDICTED BY IDOCK:   -3.03 KCAL/MOL
REMARK 924 INTRA-LIGAND FREE ENERGY PREDICTED BY IDOCK:   -0.22 KCAL/MOL
REMARK 927      BINDING AFFINITY PREDICTED BY RF-SCORE:    0.00 PKD
ROOT
HETATM    1  O   UNL     1     -10.614   5.900  66.200  1.00  0.00    -0.466 OA 
HETATM    2  C   UNL     1     -11.145   6.556  67.351  1.00  0.00    -0.327 C  
HETATM    3  H   UNL     1     -11.334   5.605  65.655  1.00  0.00     0.000 HD 
ENDROOT
BRANCH   2   4
HETATM    4  C   UNL     1      -9.979   7.035  68.233  1.00  0.00    -0.153 C  
BRANCH   4   5
HETATM    5  N   UNL     1     -10.260   7.190  69.688  1.00  0.00    -0.202 NA 
BRANCH   5   6
HETATM    6  C   UNL     1     -10.554   8.623  69.989  1.00  0.00    -0.227 C  
BRANCH   6   7
HETATM    7  C   UNL     1      -9.699   9.653  69.225  1.00  0.00    -0.185 C  
HETATM    8  H   UNL     1      -7.926  10.488  69.412  1.00  0.00     0.000 HD 
HETATM    9  O   UNL     1      -8.453   9.853  69.883  1.00  0.00    -0.186 OA 
ENDBRANCH   6   7
ENDBRANCH   5   6
BRANCH   5  10
HETATM   10  C   UNL     1     -11.430   6.343  70.061  1.00  0.00    -0.428 C  
BRANCH  10  11
HETATM   11  C   UNL     1     -12.450   7.015  70.999  1.00  0.00    -0.326 C  
HETATM   12  O   UNL     1     -12.438   6.383  72.275  1.00  0.00    -0.532 OA 
HETATM   13  H   UNL     1     -13.066   6.799  72.854  1.00  0.00     0.000 HD 
ENDBRANCH  10  11
ENDBRANCH   5  10
ENDBRANCH   4   5
ENDBRANCH   2   4
TORSDOF 6
ENDMDL
MODEL      192
REMARK 921   NORMALIZED FREE ENERGY PREDICTED BY IDOCK:   -2.05 KCAL/MOL
REMARK 922        TOTAL FREE ENERGY PREDICTED BY IDOCK:   -3.25 KCAL/MOL
REMARK 923 INTER-LIGAND FREE ENERGY PREDICTED BY IDOCK:   -3.92 KCAL/MOL
REMARK 924 INTRA-LIGAND FREE ENERGY PREDICTED BY IDOCK:    0.67 KCAL/MOL
REMARK 927      BINDING AFFINITY PREDICTED BY RF-SCORE:    0.00 PKD
ROOT
HETATM    1  O   UNL     1     -10.440  13.492  68.062  1.00  0.00    -0.231 OA 
HETATM    2  C   UNL     1     -11.055  14.397  67.145  1.00  0.00    -0.312 C  
HETATM    3  H   UNL     1     -10.397  12.632  67.662  1.00  0.00     0.000 HD 
ENDROOT
BRANCH   2   4
HETATM    4  C   UNL     1     -11.124  15.791  67.793  1.00  0.00    -0.313 C  
BRANCH   4   5
HETATM    5  N   UNL     1     -10.193  16.824  67.260  1.00  0.00    -0.286 NA 
BRANCH   5   6
HETATM    6  C   UNL     1      -8.807  16.270  67.214  1.00  0.00    -0.188 C  
BRANCH   6   7
HETATM    7  C   UNL     1      -7.694  17.287  66.895  1.00  0.00    -0.215 C  
HETATM    8  H   UNL     1      -5.806  17.241  66.338  1.00  0.00     0.000 HD 
HETATM    9  O   UNL     1      -6.492  16.614  66.535  1.00  0.00    -0.248 OA 
ENDBRANCH   6   7
ENDBRANCH   5   6
BRANCH   5  10
HETATM   10  C   UNL     1     -10.626  17.224  65.889  1.00  0.00    -0.204 C  
BRANCH  10  11
HETATM   11  C   UNL     1     -10.726  16.070  64.874  1.00  0.00    -0.316 C  
HETATM   12  O   UNL     1     -11.541  16.453  63.771  1.00  0.00    -1.605 OA 
HETATM   13  H   UNL     1     -11.602  15.741  63.144  1.00  0.00     0.000 HD 
ENDBRANCH  10  11
ENDBRANCH   5  10
ENDBRANCH   4   5
ENDBRANCH   2   4
TORSDOF 6
ENDMDL
MODEL      193
REMARK 921   NORMALIZED FREE ENERGY PREDICTED BY IDOCK:   -2.04 KCAL/MOL
REMARK 922        TOTAL FREE ENERGY PREDICTED BY IDOCK:   -3.24 KCAL/MOL
REMARK 923 INTER-LIGAND FREE ENERGY PREDICTED BY IDOCK:   -3.09 KCAL/MOL
REMARK 924 INTRA-LIGAND FREE ENERGY PREDICTED BY IDOCK:   -0.16 KCAL/MOL
REMARK 927      BINDING AFFINITY PREDICTED BY RF-SCORE:    0.00 PKD
ROOT
HETATM    1  O   UNL     1     -11.219   9.455  67.730  1.00  0.00    -0.492 OA 
HETATM    2  C   UNL     1     -11.056  10.844  68.013  1.00  0.00    -0.293 C  
HETATM    3  H   UNL     1     -10.945   8.952  68.489  1.00  0.00     0.000 HD 
ENDROOT
BRANCH   2   4
HETATM    4  C   UNL     1     -11.499  11.658  66.785  1.00  0.00    -0.225 C  
BRANCH   4   5
HETATM    5  N   UNL     1     -10.421  12.296  65.979  1.00  0.00    -0.247 NA 
BRANCH   5   6
HETATM    6  C   UNL     1      -9.451  12.973  66.890  1.00  0.00    -0.242 C  
BRANCH   6   7
HETATM    7  C   UNL     1      -9.453  14.513  66.839  1.00  0.00    -0.252 C  
HETATM    8  H   UNL     1      -8.163  15.974  67.116  1.00  0.00     0.000 HD 
HETATM    9  O   UNL     1      -8.162  15.024  67.147  1.00  0.00    -0.195 OA 
ENDBRANCH   6   7
ENDBRANCH   5   6
BRANCH   5  10
HETATM   10  C   UNL     1      -9.719  11.252  65.174  1.00  0.00    -0.244 C  
BRANCH  10  11
HETATM   11  C   UNL     1     -10.081  11.230  63.678  1.00  0.00    -0.382 C  
HETATM   12  O   UNL     1      -9.898  12.522  63.107  1.00  0.00    -0.516 OA 
HETATM   13  H   UNL     1     -10.121  12.508  62.184  1.00  0.00     0.000 HD 
ENDBRANCH  10  11
ENDBRANCH   5  10
ENDBRANCH   4   5
ENDBRANCH   2   4
TORSDOF 6
ENDMDL
MODEL      194
REMARK 921   NORMALIZED FREE ENERGY PREDICTED BY IDOCK:   -2.04 KCAL/MOL
REMARK 922        TOTAL FREE ENERGY PREDICTED BY IDOCK:   -3.24 KCAL/MOL
REMARK 923 INTER-LIGAND FREE ENERGY PREDICTED BY IDOCK:   -2.90 KCAL/MOL
REMARK 924 INTRA-LIGAND FREE ENERGY PREDICTED BY IDOCK:   -0.35 KCAL/MOL
REMARK 927      BINDING AFFINITY PREDICTED BY RF-SCORE:    0.00 PKD
ROOT
HETATM    1  O   UNL     1      -7.300   7.987  69.572  1.00  0.00    -0.081 OA 
HETATM    2  C   UNL     1      -7.902   8.123  70.860  1.00  0.00    -0.091 C  
HETATM    3  H   UNL     1      -6.661   7.285  69.605  1.00  0.00     0.000 HD 
ENDROOT
BRANCH   2   4
HETATM    4  C   UNL     1      -8.938   9.260  70.808  1.00  0.00    -0.232 C  
BRANCH   4   5
HETATM    5  N   UNL     1     -10.333   8.879  70.452  1.00  0.00    -0.195 NA 
BRANCH   5   6
HETATM    6  C   UNL     1     -11.279   9.459  71.451  1.00  0.00    -0.381 C  
BRANCH   6   7
HETATM    7  C   UNL     1     -12.579   8.663  71.676  1.00  0.00    -0.338 C  
HETATM    8  H   UNL     1     -14.510   8.937  71.412  1.00  0.00     0.000 HD 
HETATM    9  O   UNL     1     -13.709   9.428  71.273  1.00  0.00    -0.346 OA 
ENDBRANCH   6   7
ENDBRANCH   5   6
BRANCH   5  10
HETATM   10  C   UNL     1     -10.656   9.394  69.088  1.00  0.00    -0.218 C  
BRANCH  10  11
HETATM   11  C   UNL     1     -11.127  10.859  69.039  1.00  0.00    -0.246 C  
HETATM   12  O   UNL     1     -12.509  10.922  68.700  1.00  0.00    -0.772 OA 
HETATM   13  H   UNL     1     -12.799  11.826  68.670  1.00  0.00     0.000 HD 
ENDBRANCH  10  11
ENDBRANCH   5  10
ENDBRANCH   4   5
ENDBRANCH   2   4
TORSDOF 6
ENDMDL
MODEL      195
REMARK 921   NORMALIZED FREE ENERGY PREDICTED BY IDOCK:   -2.03 KCAL/MOL
REMARK 922        TOTAL FREE ENERGY PREDICTED BY IDOCK:   -3.23 KCAL/MOL
REMARK 923 INTER-LIGAND FREE ENERGY PREDICTED BY IDOCK:   -3.13 KCAL/MOL
REMARK 924 INTRA-LIGAND FREE ENERGY PREDICTED BY IDOCK:   -0.10 KCAL/MOL
REMARK 927      BINDING AFFINITY PREDICTED BY RF-SCORE:    0.00 PKD
ROOT
HETATM    1  O   UNL     1      -9.987   8.628  69.218  1.00  0.00    -0.184 OA 
HETATM    2  C   UNL     1      -9.890   9.810  70.012  1.00  0.00    -0.251 C  
HETATM    3  H   UNL     1      -9.225   8.574  68.653  1.00  0.00     0.000 HD 
ENDROOT
BRANCH   2   4
HETATM    4  C   UNL     1     -11.124   9.898  70.928  1.00  0.00    -0.348 C  
BRANCH   4   5
HETATM    5  N   UNL     1     -12.318  10.598  70.378  1.00  0.00    -0.323 NA 
BRANCH   5   6
HETATM    6  C   UNL     1     -13.559   9.920  70.856  1.00  0.00    -0.027 C  
BRANCH   6   7
HETATM    7  C   UNL     1     -13.362   8.889  71.984  1.00  0.00    -0.421 C  
HETATM    8  H   UNL     1     -14.261   8.388  73.663  1.00  0.00     0.000 HD 
HETATM    9  O   UNL     1     -14.382   9.024  72.967  1.00  0.00    -0.462 OA 
ENDBRANCH   6   7
ENDBRANCH   5   6
BRANCH   5  10
HETATM   10  C   UNL     1     -12.311  12.021  70.830  1.00  0.00    -0.308 C  
BRANCH  10  11
HETATM   11  C   UNL     1     -13.281  12.345  71.981  1.00  0.00    -0.409 C  
HETATM   12  O   UNL     1     -13.744  13.687  71.873  1.00  0.00    -0.400 OA 
HETATM   13  H   UNL     1     -14.343  13.886  72.583  1.00  0.00     0.000 HD 
ENDBRANCH  10  11
ENDBRANCH   5  10
ENDBRANCH   4   5
ENDBRANCH   2   4
TORSDOF 6
ENDMDL
MODEL      196
REMARK 921   NORMALIZED FREE ENERGY PREDICTED BY IDOCK:   -2.03 KCAL/MOL
REMARK 922        TOTAL FREE ENERGY PREDICTED BY IDOCK:   -3.22 KCAL/MOL
REMARK 923 INTER-LIGAND FREE ENERGY PREDICTED BY IDOCK:   -2.98 KCAL/MOL
REMARK 924 INTRA-LIGAND FREE ENERGY PREDICTED BY IDOCK:   -0.24 KCAL/MOL
REMARK 927      BINDING AFFINITY PREDICTED BY RF-SCORE:    0.00 PKD
ROOT
HETATM    1  O   UNL     1     -11.295  11.333  70.303  1.00  0.00    -0.465 OA 
HETATM    2  C   UNL     1     -11.372   9.908  70.269  1.00  0.00    -0.291 C  
HETATM    3  H   UNL     1     -12.155  11.691  70.117  1.00  0.00     0.000 HD 
ENDROOT
BRANCH   2   4
HETATM    4  C   UNL     1      -9.979   9.328  70.570  1.00  0.00    -0.249 C  
BRANCH   4   5
HETATM    5  N   UNL     1      -9.868   7.843  70.615  1.00  0.00    -0.184 NA 
BRANCH   5   6
HETATM    6  C   UNL     1      -9.518   7.411  72.001  1.00  0.00    -0.136 C  
BRANCH   6   7
HETATM    7  C   UNL     1     -10.713   7.125  72.931  1.00  0.00    -0.302 C  
HETATM    8  H   UNL     1     -11.447   5.587  73.916  1.00  0.00     0.000 HD 
HETATM    9  O   UNL     1     -10.710   5.763  73.342  1.00  0.00    -0.246 OA 
ENDBRANCH   6   7
ENDBRANCH   5   6
BRANCH   5  10
HETATM   10  C   UNL     1     -11.169   7.235  70.207  1.00  0.00    -0.262 C  
BRANCH  10  11
HETATM   11  C   UNL     1     -11.107   6.343  68.953  1.00  0.00    -0.348 C  
HETATM   12  O   UNL     1     -11.044   7.147  67.779  1.00  0.00    -0.497 OA 
HETATM   13  H   UNL     1     -11.005   6.596  67.006  1.00  0.00     0.000 HD 
ENDBRANCH  10  11
ENDBRANCH   5  10
ENDBRANCH   4   5
ENDBRANCH   2   4
TORSDOF 6
ENDMDL
MODEL      197
REMARK 921   NORMALIZED FREE ENERGY PREDICTED BY IDOCK:   -2.01 KCAL/MOL
REMARK 922        TOTAL FREE ENERGY PREDICTED BY IDOCK:   -3.19 KCAL/MOL
REMARK 923 INTER-LIGAND FREE ENERGY PREDICTED BY IDOCK:   -2.90 KCAL/MOL
REMARK 924 INTRA-LIGAND FREE ENERGY PREDICTED BY IDOCK:   -0.30 KCAL/MOL
REMARK 927      BINDING AFFINITY PREDICTED BY RF-SCORE:    0.00 PKD
ROOT
HETATM    1  O   UNL     1     -12.648  14.444  70.376  1.00  0.00    -0.337 OA 
HETATM    2  C   UNL     1     -11.744  15.501  70.055  1.00  0.00    -0.346 C  
HETATM    3  H   UNL     1     -12.671  14.336  71.320  1.00  0.00     0.000 HD 
ENDROOT
BRANCH   2   4
HETATM    4  C   UNL     1     -11.706  15.676  68.527  1.00  0.00    -0.327 C  
BRANCH   4   5
HETATM    5  N   UNL     1     -10.361  15.687  67.888  1.00  0.00    -0.254 NA 
BRANCH   5   6
HETATM    6  C   UNL     1      -9.717  14.350  68.056  1.00  0.00    -0.221 C  
BRANCH   6   7
HETATM    7  C   UNL     1      -8.290  14.366  68.637  1.00  0.00    -0.147 C  
HETATM    8  H   UNL     1      -7.255  15.456  69.908  1.00  0.00     0.000 HD 
HETATM    9  O   UNL     1      -8.135  15.446  69.550  1.00  0.00    -0.236 OA 
ENDBRANCH   6   7
ENDBRANCH   5   6
BRANCH   5  10
HETATM   10  C   UNL     1     -10.502  16.002  66.435  1.00  0.00    -0.309 C  
BRANCH  10  11
HETATM   11  C   UNL     1     -10.504  14.779  65.499  1.00  0.00    -0.359 C  
HETATM   12  O   UNL     1     -11.833  14.479  65.082  1.00  0.00    -0.359 OA 
HETATM   13  H   UNL     1     -11.833  13.725  64.505  1.00  0.00     0.000 HD 
ENDBRANCH  10  11
ENDBRANCH   5  10
ENDBRANCH   4   5
ENDBRANCH   2   4
TORSDOF 6
ENDMDL
MODEL      198
REMARK 921   NORMALIZED FREE ENERGY PREDICTED BY IDOCK:   -2.01 KCAL/MOL
REMARK 922        TOTAL FREE ENERGY PREDICTED BY IDOCK:   -3.19 KCAL/MOL
REMARK 923 INTER-LIGAND FREE ENERGY PREDICTED BY IDOCK:   -2.90 KCAL/MOL
REMARK 924 INTRA-LIGAND FREE ENERGY PREDICTED BY IDOCK:   -0.30 KCAL/MOL
REMARK 927      BINDING AFFINITY PREDICTED BY RF-SCORE:    0.00 PKD
ROOT
HETATM    1  O   UNL     1      -8.079  13.742  69.112  1.00  0.00    -0.337 OA 
HETATM    2  C   UNL     1      -8.693  13.380  67.875  1.00  0.00    -0.187 C  
HETATM    3  H   UNL     1      -7.141  13.809  68.981  1.00  0.00     0.000 HD 
ENDROOT
BRANCH   2   4
HETATM    4  C   UNL     1     -10.214  13.273  68.087  1.00  0.00    -0.243 C  
BRANCH   4   5
HETATM    5  N   UNL     1     -11.063  14.243  67.341  1.00  0.00    -0.295 NA 
BRANCH   5   6
HETATM    6  C   UNL     1     -11.589  15.274  68.284  1.00  0.00    -0.341 C  
BRANCH   6   7
HETATM    7  C   UNL     1     -11.496  14.917  69.781  1.00  0.00    -0.295 C  
HETATM    8  H   UNL     1     -10.902  15.787  71.444  1.00  0.00     0.000 HD 
HETATM    9  O   UNL     1     -10.959  16.007  70.521  1.00  0.00    -0.335 OA 
ENDBRANCH   6   7
ENDBRANCH   5   6
BRANCH   5  10
HETATM   10  C   UNL     1     -10.250  14.899  66.275  1.00  0.00    -0.294 C  
BRANCH  10  11
HETATM   11  C   UNL     1      -9.962  16.395  66.500  1.00  0.00    -0.282 C  
HETATM   12  O   UNL     1      -8.574  16.662  66.324  1.00  0.00    -0.287 OA 
HETATM   13  H   UNL     1      -8.397  17.585  66.463  1.00  0.00     0.000 HD 
ENDBRANCH  10  11
ENDBRANCH   5  10
ENDBRANCH   4   5
ENDBRANCH   2   4
TORSDOF 6
ENDMDL
MODEL      199
REMARK 921   NORMALIZED FREE ENERGY PREDICTED BY IDOCK:   -2.00 KCAL/MOL
REMARK 922        TOTAL FREE ENERGY PREDICTED BY IDOCK:   -3.18 KCAL/MOL
REMARK 923 INTER-LIGAND FREE ENERGY PREDICTED BY IDOCK:   -2.71 KCAL/MOL
REMARK 924 INTRA-LIGAND FREE ENERGY PREDICTED BY IDOCK:   -0.46 KCAL/MOL
REMARK 927      BINDING AFFINITY PREDICTED BY RF-SCORE:    0.00 PKD
ROOT
HETATM    1  O   UNL     1      -9.834   2.503  74.090  1.00  0.00    -0.092 OA 
HETATM    2  C   UNL     1     -10.789   3.330  73.424  1.00  0.00    -0.208 C  
HETATM    3  H   UNL     1     -10.245   2.113  74.852  1.00  0.00     0.000 HD 
ENDROOT
BRANCH   2   4
HETATM    4  C   UNL     1     -10.124   3.961  72.188  1.00  0.00    -0.155 C  
BRANCH   4   5
HETATM    5  N   UNL     1     -10.530   5.353  71.847  1.00  0.00    -0.219 NA 
BRANCH   5   6
HETATM    6  C   UNL     1      -9.708   6.320  72.634  1.00  0.00    -0.158 C  
BRANCH   6   7
HETATM    7  C   UNL     1     -10.497   7.255  73.571  1.00  0.00    -0.374 C  
HETATM    8  H   UNL     1     -11.971   8.551  73.420  1.00  0.00     0.000 HD 
HETATM    9  O   UNL     1     -11.484   7.975  72.842  1.00  0.00    -0.411 OA 
ENDBRANCH   6   7
ENDBRANCH   5   6
BRANCH   5  10
HETATM   10  C   UNL     1     -10.327   5.586  70.386  1.00  0.00    -0.276 C  
BRANCH  10  11
HETATM   11  C   UNL     1     -11.493   6.291  69.670  1.00  0.00    -0.355 C  
HETATM   12  O   UNL     1     -11.442   7.694  69.908  1.00  0.00    -0.468 OA 
HETATM   13  H   UNL     1     -12.162   8.129  69.466  1.00  0.00     0.000 HD 
ENDBRANCH  10  11
ENDBRANCH   5  10
ENDBRANCH   4   5
ENDBRANCH   2   4
TORSDOF 6
ENDMDL
MODEL      200
REMARK 921   NORMALIZED FREE ENERGY PREDICTED BY IDOCK:   -1.98 KCAL/MOL
REMARK 922        TOTAL FREE ENERGY PREDICTED BY IDOCK:   -3.15 KCAL/MOL
REMARK 923 INTER-LIGAND FREE ENERGY PREDICTED BY IDOCK:   -2.94 KCAL/MOL
REMARK 924 INTRA-LIGAND FREE ENERGY PREDICTED BY IDOCK:   -0.21 KCAL/MOL
REMARK 927      BINDING AFFINITY PREDICTED BY RF-SCORE:    0.00 PKD
ROOT
HETATM    1  O   UNL     1     -11.745  12.464  70.255  1.00  0.00    -0.516 OA 
HETATM    2  C   UNL     1     -11.775  11.391  69.314  1.00  0.00    -0.337 C  
HETATM    3  H   UNL     1     -12.623  12.815  70.349  1.00  0.00     0.000 HD 
ENDROOT
BRANCH   2   4
HETATM    4  C   UNL     1     -10.353  10.823  69.161  1.00  0.00    -0.217 C  
BRANCH   4   5
HETATM    5  N   UNL     1      -9.624  11.170  67.909  1.00  0.00    -0.171 NA 
BRANCH   5   6
HETATM    6  C   UNL     1     -10.595  11.273  66.779  1.00  0.00    -0.260 C  
BRANCH   6   7
HETATM    7  C   UNL     1     -10.093  10.746  65.421  1.00  0.00    -0.285 C  
HETATM    8  H   UNL     1     -10.368  11.160  63.516  1.00  0.00     0.000 HD 
HETATM    9  O   UNL     1     -10.677  11.484  64.353  1.00  0.00    -0.306 OA 
ENDBRANCH   6   7
ENDBRANCH   5   6
BRANCH   5  10
HETATM   10  C   UNL     1      -8.916  12.471  68.091  1.00  0.00    -0.199 C  
BRANCH  10  11
HETATM   11  C   UNL     1      -9.529  13.659  67.326  1.00  0.00    -0.230 C  
HETATM   12  O   UNL     1      -8.517  14.355  66.604  1.00  0.00    -0.417 OA 
HETATM   13  H   UNL     1      -8.895  15.088  66.132  1.00  0.00     0.000 HD 
ENDBRANCH  10  11
ENDBRANCH   5  10
ENDBRANCH   4   5
ENDBRANCH   2   4
TORSDOF 6
ENDMDL
MODEL      201
REMARK 921   NORMALIZED FREE ENERGY PREDICTED BY IDOCK:   -1.97 KCAL/MOL
REMARK 922        TOTAL FREE ENERGY PREDICTED BY IDOCK:   -3.15 KCAL/MOL
REMARK 923 INTER-LIGAND FREE ENERGY PREDICTED BY IDOCK:   -2.99 KCAL/MOL
REMARK 924 INTRA-LIGAND FREE ENERGY PREDICTED BY IDOCK:   -0.15 KCAL/MOL
REMARK 927      BINDING AFFINITY PREDICTED BY RF-SCORE:    0.00 PKD
ROOT
HETATM    1  O   UNL     1      -8.057  11.687  69.144  1.00  0.00    -0.355 OA 
HETATM    2  C   UNL     1      -8.202  11.982  67.755  1.00  0.00    -0.151 C  
HETATM    3  H   UNL     1      -7.135  11.567  69.338  1.00  0.00     0.000 HD 
ENDROOT
BRANCH   2   4
HETATM    4  C   UNL     1      -9.695  12.178  67.440  1.00  0.00    -0.179 C  
BRANCH   4   5
HETATM    5  N   UNL     1     -10.089  12.131  66.005  1.00  0.00    -0.230 NA 
BRANCH   5   6
HETATM    6  C   UNL     1      -9.872  10.753  65.472  1.00  0.00    -0.255 C  
BRANCH   6   7
HETATM    7  C   UNL     1      -9.052  10.663  64.170  1.00  0.00    -0.222 C  
HETATM    8  H   UNL     1      -7.238  10.118  63.635  1.00  0.00     0.000 HD 
HETATM    9  O   UNL     1      -7.744  10.173  64.438  1.00  0.00    -0.143 OA 
ENDBRANCH   6   7
ENDBRANCH   5   6
BRANCH   5  10
HETATM   10  C   UNL     1     -11.528  12.506  65.871  1.00  0.00    -0.373 C  
BRANCH  10  11
HETATM   11  C   UNL     1     -11.797  13.775  65.042  1.00  0.00    -0.366 C  
HETATM   12  O   UNL     1     -13.195  14.043  64.990  1.00  0.00    -0.720 OA 
HETATM   13  H   UNL     1     -13.361  14.826  64.479  1.00  0.00     0.000 HD 
ENDBRANCH  10  11
ENDBRANCH   5  10
ENDBRANCH   4   5
ENDBRANCH   2   4
TORSDOF 6
ENDMDL
MODEL      202
REMARK 921   NORMALIZED FREE ENERGY PREDICTED BY IDOCK:   -1.94 KCAL/MOL
REMARK 922        TOTAL FREE ENERGY PREDICTED BY IDOCK:   -3.11 KCAL/MOL
REMARK 923 INTER-LIGAND FREE ENERGY PREDICTED BY IDOCK:   -2.89 KCAL/MOL
REMARK 924 INTRA-LIGAND FREE ENERGY PREDICTED BY IDOCK:   -0.22 KCAL/MOL
REMARK 927      BINDING AFFINITY PREDICTED BY RF-SCORE:    0.00 PKD
ROOT
HETATM    1  O   UNL     1      -5.462  18.098  70.471  1.00  0.00    -0.244 OA 
HETATM    2  C   UNL     1      -5.632  19.025  69.399  1.00  0.00    -0.209 C  
HETATM    3  H   UNL     1      -4.927  18.502  71.144  1.00  0.00     0.000 HD 
ENDROOT
BRANCH   2   4
HETATM    4  C   UNL     1      -6.499  18.371  68.308  1.00  0.00    -0.204 C  
BRANCH   4   5
HETATM    5  N   UNL     1      -7.886  17.991  68.694  1.00  0.00    -0.300 NA 
BRANCH   5   6
HETATM    6  C   UNL     1      -8.860  18.880  67.995  1.00  0.00    -0.306 C  
BRANCH   6   7
HETATM    7  C   UNL     1      -8.610  19.086  66.488  1.00  0.00    -0.311 C  
HETATM    8  H   UNL     1      -9.506  18.632  64.795  1.00  0.00     0.000 HD 
HETATM    9  O   UNL     1      -9.660  18.504  65.724  1.00  0.00    -0.448 OA 
ENDBRANCH   6   7
ENDBRANCH   5   6
BRANCH   5  10
HETATM   10  C   UNL     1      -8.135  16.568  68.316  1.00  0.00    -0.179 C  
BRANCH  10  11
HETATM   11  C   UNL     1      -9.526  16.027  68.693  1.00  0.00    -0.224 C  
HETATM   12  O   UNL     1      -9.438  15.207  69.855  1.00  0.00    -0.462 OA 
HETATM   13  H   UNL     1     -10.296  14.874  70.088  1.00  0.00     0.000 HD 
ENDBRANCH  10  11
ENDBRANCH   5  10
ENDBRANCH   4   5
ENDBRANCH   2   4
TORSDOF 6
ENDMDL
MODEL      203
REMARK 921   NORMALIZED FREE ENERGY PREDICTED BY IDOCK:   -1.94 KCAL/MOL
REMARK 922        TOTAL FREE ENERGY PREDICTED BY IDOCK:   -3.10 KCAL/MOL
REMARK 923 INTER-LIGAND FREE ENERGY PREDICTED BY IDOCK:   -2.97 KCAL/MOL
REMARK 924 INTRA-LIGAND FREE ENERGY PREDICTED BY IDOCK:   -0.13 KCAL/MOL
REMARK 927      BINDING AFFINITY PREDICTED BY RF-SCORE:    0.00 PKD
ROOT
HETATM    1  O   UNL     1      -9.987  14.256  64.867  1.00  0.00    -0.550 OA 
HETATM    2  C   UNL     1     -10.935  13.920  65.880  1.00  0.00    -0.284 C  
HETATM    3  H   UNL     1     -10.424  14.253  64.024  1.00  0.00     0.000 HD 
ENDROOT
BRANCH   2   4
HETATM    4  C   UNL     1     -10.226  13.925  67.246  1.00  0.00    -0.249 C  
BRANCH   4   5
HETATM    5  N   UNL     1     -10.393  12.710  68.091  1.00  0.00    -0.227 NA 
BRANCH   5   6
HETATM    6  C   UNL     1     -11.585  12.876  68.975  1.00  0.00    -0.322 C  
BRANCH   6   7
HETATM    7  C   UNL     1     -11.969  14.331  69.309  1.00  0.00    -0.335 C  
HETATM    8  H   UNL     1     -12.075  15.471  70.910  1.00  0.00     0.000 HD 
HETATM    9  O   UNL     1     -11.839  14.574  70.704  1.00  0.00    -0.285 OA 
ENDBRANCH   6   7
ENDBRANCH   5   6
BRANCH   5  10
HETATM   10  C   UNL     1     -10.575  11.515  67.214  1.00  0.00    -0.228 C  
BRANCH  10  11
HETATM   11  C   UNL     1     -10.410  10.157  67.920  1.00  0.00    -0.194 C  
HETATM   12  O   UNL     1     -11.071   9.134  67.181  1.00  0.00    -0.297 OA 
HETATM   13  H   UNL     1     -10.968   8.295  67.616  1.00  0.00     0.000 HD 
ENDBRANCH  10  11
ENDBRANCH   5  10
ENDBRANCH   4   5
ENDBRANCH   2   4
TORSDOF 6
ENDMDL
MODEL      204
REMARK 921   NORMALIZED FREE ENERGY PREDICTED BY IDOCK:   -1.93 KCAL/MOL
REMARK 922        TOTAL FREE ENERGY PREDICTED BY IDOCK:   -3.10 KCAL/MOL
REMARK 923 INTER-LIGAND FREE ENERGY PREDICTED BY IDOCK:   -2.89 KCAL/MOL
REMARK 924 INTRA-LIGAND FREE ENERGY PREDICTED BY IDOCK:   -0.21 KCAL/MOL
REMARK 927      BINDING AFFINITY PREDICTED BY RF-SCORE:    0.00 PKD
ROOT
HETATM    1  O   UNL     1     -12.524  14.229  66.532  1.00  0.00    -0.529 OA 
HETATM    2  C   UNL     1     -12.131  13.415  67.637  1.00  0.00    -0.269 C  
HETATM    3  H   UNL     1     -12.908  15.032  66.863  1.00  0.00     0.000 HD 
ENDROOT
BRANCH   2   4
HETATM    4  C   UNL     1     -11.508  12.114  67.101  1.00  0.00    -0.346 C  
BRANCH   4   5
HETATM    5  N   UNL     1     -10.026  12.092  66.957  1.00  0.00    -0.203 NA 
BRANCH   5   6
HETATM    6  C   UNL     1      -9.663  12.207  65.513  1.00  0.00    -0.181 C  
BRANCH   6   7
HETATM    7  C   UNL     1     -10.820  12.001  64.517  1.00  0.00    -0.314 C  
HETATM    8  H   UNL     1     -11.296  10.729  63.092  1.00  0.00     0.000 HD 
HETATM    9  O   UNL     1     -10.582  10.856  63.706  1.00  0.00    -0.341 OA 
ENDBRANCH   6   7
ENDBRANCH   5   6
BRANCH   5  10
HETATM   10  C   UNL     1      -9.434  13.229  67.721  1.00  0.00    -0.208 C  
BRANCH  10  11
HETATM   11  C   UNL     1      -7.985  13.013  68.195  1.00  0.00    -0.154 C  
HETATM   12  O   UNL     1      -7.923  11.924  69.111  1.00  0.00    -0.347 OA 
HETATM   13  H   UNL     1      -7.029  11.791  69.403  1.00  0.00     0.000 HD 
ENDBRANCH  10  11
ENDBRANCH   5  10
ENDBRANCH   4   5
ENDBRANCH   2   4
TORSDOF 6
ENDMDL
MODEL      205
REMARK 921   NORMALIZED FREE ENERGY PREDICTED BY IDOCK:   -1.93 KCAL/MOL
REMARK 922        TOTAL FREE ENERGY PREDICTED BY IDOCK:   -3.09 KCAL/MOL
REMARK 923 INTER-LIGAND FREE ENERGY PREDICTED BY IDOCK:   -2.96 KCAL/MOL
REMARK 924 INTRA-LIGAND FREE ENERGY PREDICTED BY IDOCK:   -0.14 KCAL/MOL
REMARK 927      BINDING AFFINITY PREDICTED BY RF-SCORE:    0.00 PKD
ROOT
HETATM    1  O   UNL     1     -10.534  19.797  69.315  1.00  0.00    -0.599 OA 
HETATM    2  C   UNL     1     -10.103  20.286  68.045  1.00  0.00    -0.311 C  
HETATM    3  H   UNL     1     -10.780  20.535  69.860  1.00  0.00     0.000 HD 
ENDROOT
BRANCH   2   4
HETATM    4  C   UNL     1      -9.705  19.092  67.160  1.00  0.00    -0.320 C  
BRANCH   4   5
HETATM    5  N   UNL     1      -8.247  18.882  66.935  1.00  0.00    -0.260 NA 
BRANCH   5   6
HETATM    6  C   UNL     1      -7.728  19.935  66.012  1.00  0.00    -0.325 C  
BRANCH   6   7
HETATM    7  C   UNL     1      -6.496  20.712  66.515  1.00  0.00    -0.252 C  
HETATM    8  H   UNL     1      -4.559  20.739  66.167  1.00  0.00     0.000 HD 
HETATM    9  O   UNL     1      -5.318  20.260  65.857  1.00  0.00    -0.168 OA 
ENDBRANCH   6   7
ENDBRANCH   5   6
BRANCH   5  10
HETATM   10  C   UNL     1      -7.527  18.952  68.241  1.00  0.00    -0.286 C  
BRANCH  10  11
HETATM   11  C   UNL     1      -6.698  17.704  68.596  1.00  0.00    -0.217 C  
HETATM   12  O   UNL     1      -7.556  16.593  68.836  1.00  0.00    -0.219 OA 
HETATM   13  H   UNL     1      -7.044  15.823  69.054  1.00  0.00     0.000 HD 
ENDBRANCH  10  11
ENDBRANCH   5  10
ENDBRANCH   4   5
ENDBRANCH   2   4
TORSDOF 6
ENDMDL
MODEL      206
REMARK 921   NORMALIZED FREE ENERGY PREDICTED BY IDOCK:   -1.93 KCAL/MOL
REMARK 922        TOTAL FREE ENERGY PREDICTED BY IDOCK:   -3.09 KCAL/MOL
REMARK 923 INTER-LIGAND FREE ENERGY PREDICTED BY IDOCK:   -2.64 KCAL/MOL
REMARK 924 INTRA-LIGAND FREE ENERGY PREDICTED BY IDOCK:   -0.44 KCAL/MOL
REMARK 927      BINDING AFFINITY PREDICTED BY RF-SCORE:    0.00 PKD
ROOT
HETATM    1  O   UNL     1     -11.062   8.763  68.405  1.00  0.00    -0.445 OA 
HETATM    2  C   UNL     1     -10.418  10.037  68.424  1.00  0.00    -0.205 C  
HETATM    3  H   UNL     1     -10.825   8.288  69.193  1.00  0.00     0.000 HD 
ENDROOT
BRANCH   2   4
HETATM    4  C   UNL     1     -10.801  10.807  67.147  1.00  0.00    -0.277 C  
BRANCH   4   5
HETATM    5  N   UNL     1      -9.763  10.900  66.084  1.00  0.00    -0.202 NA 
BRANCH   5   6
HETATM    6  C   UNL     1      -8.616  10.007  66.427  1.00  0.00    -0.129 C  
BRANCH   6   7
HETATM    7  C   UNL     1      -7.214  10.610  66.210  1.00  0.00    -0.137 C  
HETATM    8  H   UNL     1      -5.974  10.891  64.707  1.00  0.00     0.000 HD 
HETATM    9  O   UNL     1      -6.839  10.519  64.841  1.00  0.00    -0.080 OA 
ENDBRANCH   6   7
ENDBRANCH   5   6
BRANCH   5  10
HETATM   10  C   UNL     1     -10.353  10.489  64.776  1.00  0.00    -0.230 C  
BRANCH  10  11
HETATM   11  C   UNL     1     -10.317  11.567  63.677  1.00  0.00    -0.417 C  
HETATM   12  O   UNL     1      -9.006  11.666  63.127  1.00  0.00    -0.522 OA 
HETATM   13  H   UNL     1      -8.985  12.331  62.448  1.00  0.00     0.000 HD 
ENDBRANCH  10  11
ENDBRANCH   5  10
ENDBRANCH   4   5
ENDBRANCH   2   4
TORSDOF 6
ENDMDL
MODEL      207
REMARK 921   NORMALIZED FREE ENERGY PREDICTED BY IDOCK:   -1.93 KCAL/MOL
REMARK 922        TOTAL FREE ENERGY PREDICTED BY IDOCK:   -3.09 KCAL/MOL
REMARK 923 INTER-LIGAND FREE ENERGY PREDICTED BY IDOCK:   -2.68 KCAL/MOL
REMARK 924 INTRA-LIGAND FREE ENERGY PREDICTED BY IDOCK:   -0.40 KCAL/MOL
REMARK 927      BINDING AFFINITY PREDICTED BY RF-SCORE:    0.00 PKD
ROOT
HETATM    1  O   UNL     1     -10.438   7.387  68.608  1.00  0.00    -0.196 OA 
HETATM    2  C   UNL     1      -9.600   8.452  68.159  1.00  0.00    -0.143 C  
HETATM    3  H   UNL     1      -9.928   6.807  69.161  1.00  0.00     0.000 HD 
ENDROOT
BRANCH   2   4
HETATM    4  C   UNL     1     -10.426   9.392  67.264  1.00  0.00    -0.264 C  
BRANCH   4   5
HETATM    5  N   UNL     1     -11.235  10.434  67.954  1.00  0.00    -0.304 NA 
BRANCH   5   6
HETATM    6  C   UNL     1     -10.623  10.745  69.280  1.00  0.00    -0.229 C  
BRANCH   6   7
HETATM    7  C   UNL     1     -11.564  10.614  70.494  1.00  0.00    -0.350 C  
HETATM    8  H   UNL     1     -12.195   9.184  71.691  1.00  0.00     0.000 HD 
HETATM    9  O   UNL     1     -11.615   9.264  70.942  1.00  0.00    -0.274 OA 
ENDBRANCH   6   7
ENDBRANCH   5   6
BRANCH   5  10
HETATM   10  C   UNL     1     -11.279  11.668  67.114  1.00  0.00    -0.309 C  
BRANCH  10  11
HETATM   11  C   UNL     1     -10.042  12.578  67.228  1.00  0.00    -0.213 C  
HETATM   12  O   UNL     1      -9.408  12.710  65.960  1.00  0.00    -0.401 OA 
HETATM   13  H   UNL     1      -8.645  13.272  66.030  1.00  0.00     0.000 HD 
ENDBRANCH  10  11
ENDBRANCH   5  10
ENDBRANCH   4   5
ENDBRANCH   2   4
TORSDOF 6
ENDMDL
MODEL      208
REMARK 921   NORMALIZED FREE ENERGY PREDICTED BY IDOCK:   -1.93 KCAL/MOL
REMARK 922        TOTAL FREE ENERGY PREDICTED BY IDOCK:   -3.08 KCAL/MOL
REMARK 923 INTER-LIGAND FREE ENERGY PREDICTED BY IDOCK:   -2.93 KCAL/MOL
REMARK 924 INTRA-LIGAND FREE ENERGY PREDICTED BY IDOCK:   -0.16 KCAL/MOL
REMARK 927      BINDING AFFINITY PREDICTED BY RF-SCORE:    0.00 PKD
ROOT
HETATM    1  O   UNL     1     -10.812   4.074  73.348  1.00  0.00    -0.198 OA 
HETATM    2  C   UNL     1     -11.398   5.355  73.115  1.00  0.00    -0.263 C  
HETATM    3  H   UNL     1     -11.450   3.519  73.779  1.00  0.00     0.000 HD 
ENDROOT
BRANCH   2   4
HETATM    4  C   UNL     1     -10.364   6.255  72.416  1.00  0.00    -0.191 C  
BRANCH   4   5
HETATM    5  N   UNL     1     -10.886   7.212  71.401  1.00  0.00    -0.230 NA 
BRANCH   5   6
HETATM    6  C   UNL     1     -11.755   6.483  70.429  1.00  0.00    -0.375 C  
BRANCH   6   7
HETATM    7  C   UNL     1     -11.097   6.132  69.081  1.00  0.00    -0.378 C  
HETATM    8  H   UNL     1      -9.641   4.974  68.436  1.00  0.00     0.000 HD 
HETATM    9  O   UNL     1     -10.047   5.191  69.268  1.00  0.00    -0.193 OA 
ENDBRANCH   6   7
ENDBRANCH   5   6
BRANCH   5  10
HETATM   10  C   UNL     1     -11.674   8.280  72.084  1.00  0.00    -0.365 C  
BRANCH  10  11
HETATM   11  C   UNL     1     -11.665   9.649  71.378  1.00  0.00    -0.404 C  
HETATM   12  O   UNL     1     -10.405   9.873  70.752  1.00  0.00    -0.332 OA 
HETATM   13  H   UNL     1     -10.400  10.717  70.317  1.00  0.00     0.000 HD 
ENDBRANCH  10  11
ENDBRANCH   5  10
ENDBRANCH   4   5
ENDBRANCH   2   4
TORSDOF 6
ENDMDL
MODEL      209
REMARK 921   NORMALIZED FREE ENERGY PREDICTED BY IDOCK:   -1.92 KCAL/MOL
REMARK 922        TOTAL FREE ENERGY PREDICTED BY IDOCK:   -3.08 KCAL/MOL
REMARK 923 INTER-LIGAND FREE ENERGY PREDICTED BY IDOCK:   -2.80 KCAL/MOL
REMARK 924 INTRA-LIGAND FREE ENERGY PREDICTED BY IDOCK:   -0.27 KCAL/MOL
REMARK 927      BINDING AFFINITY PREDICTED BY RF-SCORE:    0.00 PKD
ROOT
HETATM    1  O   UNL     1      -7.753   6.319  70.565  1.00  0.00    -0.097 OA 
HETATM    2  C   UNL     1      -8.873   5.721  71.218  1.00  0.00    -0.136 C  
HETATM    3  H   UNL     1      -7.172   6.682  71.224  1.00  0.00     0.000 HD 
ENDROOT
BRANCH   2   4
HETATM    4  C   UNL     1      -9.814   5.133  70.152  1.00  0.00    -0.230 C  
BRANCH   4   5
HETATM    5  N   UNL     1     -11.093   5.859  69.914  1.00  0.00    -0.375 NA 
BRANCH   5   6
HETATM    6  C   UNL     1     -11.224   6.974  70.898  1.00  0.00    -0.282 C  
BRANCH   6   7
HETATM    7  C   UNL     1     -12.382   6.839  71.907  1.00  0.00    -0.326 C  
HETATM    8  H   UNL     1     -14.309   7.236  71.964  1.00  0.00     0.000 HD 
HETATM    9  O   UNL     1     -13.595   7.320  71.341  1.00  0.00    -0.388 OA 
ENDBRANCH   6   7
ENDBRANCH   5   6
BRANCH   5  10
HETATM   10  C   UNL     1     -11.104   6.404  68.524  1.00  0.00    -0.300 C  
BRANCH  10  11
HETATM   11  C   UNL     1     -10.315   7.713  68.331  1.00  0.00    -0.194 C  
HETATM   12  O   UNL     1     -11.094   8.654  67.598  1.00  0.00    -0.474 OA 
HETATM   13  H   UNL     1     -10.607   9.461  67.479  1.00  0.00     0.000 HD 
ENDBRANCH  10  11
ENDBRANCH   5  10
ENDBRANCH   4   5
ENDBRANCH   2   4
TORSDOF 6
ENDMDL
MODEL      210
REMARK 921   NORMALIZED FREE ENERGY PREDICTED BY IDOCK:   -1.92 KCAL/MOL
REMARK 922        TOTAL FREE ENERGY PREDICTED BY IDOCK:   -3.07 KCAL/MOL
REMARK 923 INTER-LIGAND FREE ENERGY PREDICTED BY IDOCK:   -2.83 KCAL/MOL
REMARK 924 INTRA-LIGAND FREE ENERGY PREDICTED BY IDOCK:   -0.24 KCAL/MOL
REMARK 927      BINDING AFFINITY PREDICTED BY RF-SCORE:    0.00 PKD
ROOT
HETATM    1  O   UNL     1     -11.284   5.706  66.201  1.00  0.00    -0.763 OA 
HETATM    2  C   UNL     1     -10.940   6.438  67.377  1.00  0.00    -0.376 C  
HETATM    3  H   UNL     1     -11.600   4.847  66.455  1.00  0.00     0.000 HD 
ENDROOT
BRANCH   2   4
HETATM    4  C   UNL     1     -10.428   7.830  66.964  1.00  0.00    -0.349 C  
BRANCH   4   5
HETATM    5  N   UNL     1      -9.771   8.643  68.025  1.00  0.00    -0.153 NA 
BRANCH   5   6
HETATM    6  C   UNL     1     -10.475   8.431  69.325  1.00  0.00    -0.215 C  
BRANCH   6   7
HETATM    7  C   UNL     1     -10.908   9.713  70.063  1.00  0.00    -0.264 C  
HETATM    8  H   UNL     1     -11.214  10.280  71.923  1.00  0.00     0.000 HD 
HETATM    9  O   UNL     1     -10.947   9.490  71.468  1.00  0.00    -0.364 OA 
ENDBRANCH   6   7
ENDBRANCH   5   6
BRANCH   5  10
HETATM   10  C   UNL     1      -8.340   8.233  68.151  1.00  0.00    -0.129 C  
BRANCH  10  11
HETATM   11  C   UNL     1      -7.991   7.473  69.444  1.00  0.00    -0.123 C  
HETATM   12  O   UNL     1      -7.824   6.085  69.169  1.00  0.00    -0.096 OA 
HETATM   13  H   UNL     1      -7.608   5.616  69.967  1.00  0.00     0.000 HD 
ENDBRANCH  10  11
ENDBRANCH   5  10
ENDBRANCH   4   5
ENDBRANCH   2   4
TORSDOF 6
ENDMDL
MODEL      211
REMARK 921   NORMALIZED FREE ENERGY PREDICTED BY IDOCK:   -1.90 KCAL/MOL
REMARK 922        TOTAL FREE ENERGY PREDICTED BY IDOCK:   -3.05 KCAL/MOL
REMARK 923 INTER-LIGAND FREE ENERGY PREDICTED BY IDOCK:   -2.82 KCAL/MOL
REMARK 924 INTRA-LIGAND FREE ENERGY PREDICTED BY IDOCK:   -0.23 KCAL/MOL
REMARK 927      BINDING AFFINITY PREDICTED BY RF-SCORE:    0.00 PKD
ROOT
HETATM    1  O   UNL     1     -11.243  14.424  68.852  1.00  0.00    -0.238 OA 
HETATM    2  C   UNL     1     -11.459  14.316  67.445  1.00  0.00    -0.347 C  
HETATM    3  H   UNL     1     -12.074  14.317  69.299  1.00  0.00     0.000 HD 
ENDROOT
BRANCH   2   4
HETATM    4  C   UNL     1     -10.112  14.489  66.720  1.00  0.00    -0.264 C  
BRANCH   4   5
HETATM    5  N   UNL     1      -9.464  13.251  66.205  1.00  0.00    -0.228 NA 
BRANCH   5   6
HETATM    6  C   UNL     1      -8.607  12.655  67.273  1.00  0.00    -0.196 C  
BRANCH   6   7
HETATM    7  C   UNL     1      -7.489  11.715  66.781  1.00  0.00    -0.091 C  
HETATM    8  H   UNL     1      -5.532  11.775  66.575  1.00  0.00     0.000 HD 
HETATM    9  O   UNL     1      -6.222  12.354  66.878  1.00  0.00    -0.210 OA 
ENDBRANCH   6   7
ENDBRANCH   5   6
BRANCH   5  10
HETATM   10  C   UNL     1     -10.516  12.274  65.794  1.00  0.00    -0.255 C  
BRANCH  10  11
HETATM   11  C   UNL     1     -10.425  11.794  64.334  1.00  0.00    -0.311 C  
HETATM   12  O   UNL     1      -9.814  12.793  63.524  1.00  0.00    -0.682 OA 
HETATM   13  H   UNL     1      -9.757  12.496  62.623  1.00  0.00     0.000 HD 
ENDBRANCH  10  11
ENDBRANCH   5  10
ENDBRANCH   4   5
ENDBRANCH   2   4
TORSDOF 6
ENDMDL
MODEL      212
REMARK 921   NORMALIZED FREE ENERGY PREDICTED BY IDOCK:   -1.90 KCAL/MOL
REMARK 922        TOTAL FREE ENERGY PREDICTED BY IDOCK:   -3.04 KCAL/MOL
REMARK 923 INTER-LIGAND FREE ENERGY PREDICTED BY IDOCK:   -2.89 KCAL/MOL
REMARK 924 INTRA-LIGAND FREE ENERGY PREDICTED BY IDOCK:   -0.15 KCAL/MOL
REMARK 927      BINDING AFFINITY PREDICTED BY RF-SCORE:    0.00 PKD
ROOT
HETATM    1  O   UNL     1      -9.294  10.578  66.957  1.00  0.00    -0.153 OA 
HETATM    2  C   UNL     1     -10.595  11.009  67.357  1.00  0.00    -0.237 C  
HETATM    3  H   UNL     1      -9.320   9.645  66.785  1.00  0.00     0.000 HD 
ENDROOT
BRANCH   2   4
HETATM    4  C   UNL     1     -10.554  12.522  67.637  1.00  0.00    -0.217 C  
BRANCH   4   5
HETATM    5  N   UNL     1     -11.794  13.135  68.187  1.00  0.00    -0.352 NA 
BRANCH   5   6
HETATM    6  C   UNL     1     -11.681  13.243  69.672  1.00  0.00    -0.303 C  
BRANCH   6   7
HETATM    7  C   UNL     1     -12.616  14.271  70.339  1.00  0.00    -0.343 C  
HETATM    8  H   UNL     1     -12.778  15.163  72.086  1.00  0.00     0.000 HD 
HETATM    9  O   UNL     1     -12.202  14.529  71.675  1.00  0.00    -0.335 OA 
ENDBRANCH   6   7
ENDBRANCH   5   6
BRANCH   5  10
HETATM   10  C   UNL     1     -11.984  14.492  67.593  1.00  0.00    -0.320 C  
BRANCH  10  11
HETATM   11  C   UNL     1     -10.688  15.202  67.162  1.00  0.00    -0.310 C  
HETATM   12  O   UNL     1     -10.755  15.555  65.783  1.00  0.00    -0.326 OA 
HETATM   13  H   UNL     1      -9.955  15.993  65.517  1.00  0.00     0.000 HD 
ENDBRANCH  10  11
ENDBRANCH   5  10
ENDBRANCH   4   5
ENDBRANCH   2   4
TORSDOF 6
ENDMDL
MODEL      213
REMARK 921   NORMALIZED FREE ENERGY PREDICTED BY IDOCK:   -1.89 KCAL/MOL
REMARK 922        TOTAL FREE ENERGY PREDICTED BY IDOCK:   -3.03 KCAL/MOL
REMARK 923 INTER-LIGAND FREE ENERGY PREDICTED BY IDOCK:   -2.68 KCAL/MOL
REMARK 924 INTRA-LIGAND FREE ENERGY PREDICTED BY IDOCK:   -0.35 KCAL/MOL
REMARK 927      BINDING AFFINITY PREDICTED BY RF-SCORE:    0.00 PKD
ROOT
HETATM    1  O   UNL     1     -12.127   6.765  70.057  1.00  0.00    -0.650 OA 
HETATM    2  C   UNL     1     -12.828   7.192  71.225  1.00  0.00    -0.349 C  
HETATM    3  H   UNL     1     -12.749   6.382  69.449  1.00  0.00     0.000 HD 
ENDROOT
BRANCH   2   4
HETATM    4  C   UNL     1     -11.821   7.814  72.209  1.00  0.00    -0.329 C  
BRANCH   4   5
HETATM    5  N   UNL     1     -10.575   7.041  72.470  1.00  0.00    -0.214 NA 
BRANCH   5   6
HETATM    6  C   UNL     1      -9.651   7.854  73.315  1.00  0.00    -0.285 C  
BRANCH   6   7
HETATM    7  C   UNL     1      -8.196   7.944  72.814  1.00  0.00    -0.144 C  
HETATM    8  H   UNL     1      -7.245   7.821  71.095  1.00  0.00     0.000 HD 
HETATM    9  O   UNL     1      -8.142   7.765  71.403  1.00  0.00    -0.094 OA 
ENDBRANCH   6   7
ENDBRANCH   5   6
BRANCH   5  10
HETATM   10  C   UNL     1     -10.917   5.768  73.171  1.00  0.00    -0.271 C  
BRANCH  10  11
HETATM   11  C   UNL     1     -10.060   4.553  72.772  1.00  0.00    -0.166 C  
HETATM   12  O   UNL     1      -9.911   4.498  71.356  1.00  0.00    -0.184 OA 
HETATM   13  H   UNL     1      -9.382   3.748  71.110  1.00  0.00     0.000 HD 
ENDBRANCH  10  11
ENDBRANCH   5  10
ENDBRANCH   4   5
ENDBRANCH   2   4
TORSDOF 6
ENDMDL
MODEL      214
REMARK 921   NORMALIZED FREE ENERGY PREDICTED BY IDOCK:   -1.87 KCAL/MOL
REMARK 922        TOTAL FREE ENERGY PREDICTED BY IDOCK:   -3.01 KCAL/MOL
REMARK 923 INTER-LIGAND FREE ENERGY PREDICTED BY IDOCK:   -2.81 KCAL/MOL
REMARK 924 INTRA-LIGAND FREE ENERGY PREDICTED BY IDOCK:   -0.20 KCAL/MOL
REMARK 927      BINDING AFFINITY PREDICTED BY RF-SCORE:    0.00 PKD
ROOT
HETATM    1  O   UNL     1      -6.065  20.222  68.736  1.00  0.00    -0.272 OA 
HETATM    2  C   UNL     1      -7.395  19.702  68.739  1.00  0.00    -0.336 C  
HETATM    3  H   UNL     1      -6.106  21.169  68.785  1.00  0.00     0.000 HD 
ENDROOT
BRANCH   2   4
HETATM    4  C   UNL     1      -7.329  18.166  68.660  1.00  0.00    -0.286 C  
BRANCH   4   5
HETATM    5  N   UNL     1      -8.104  17.519  67.565  1.00  0.00    -0.203 NA 
BRANCH   5   6
HETATM    6  C   UNL     1      -9.061  16.531  68.148  1.00  0.00    -0.207 C  
BRANCH   6   7
HETATM    7  C   UNL     1      -8.806  15.058  67.774  1.00  0.00    -0.171 C  
HETATM    8  H   UNL     1      -9.413  13.785  66.400  1.00  0.00     0.000 HD 
HETATM    9  O   UNL     1      -9.571  14.694  66.631  1.00  0.00    -0.252 OA 
ENDBRANCH   6   7
ENDBRANCH   5   6
BRANCH   5  10
HETATM   10  C   UNL     1      -8.852  18.561  66.802  1.00  0.00    -0.282 C  
BRANCH  10  11
HETATM   11  C   UNL     1     -10.365  18.616  67.084  1.00  0.00    -0.401 C  
HETATM   12  O   UNL     1     -10.771  19.958  67.336  1.00  0.00    -0.400 OA 
HETATM   13  H   UNL     1     -11.705  19.991  67.509  1.00  0.00     0.000 HD 
ENDBRANCH  10  11
ENDBRANCH   5  10
ENDBRANCH   4   5
ENDBRANCH   2   4
TORSDOF 6
ENDMDL
MODEL      215
REMARK 921   NORMALIZED FREE ENERGY PREDICTED BY IDOCK:   -1.87 KCAL/MOL
REMARK 922        TOTAL FREE ENERGY PREDICTED BY IDOCK:   -3.01 KCAL/MOL
REMARK 923 INTER-LIGAND FREE ENERGY PREDICTED BY IDOCK:   -2.85 KCAL/MOL
REMARK 924 INTRA-LIGAND FREE ENERGY PREDICTED BY IDOCK:   -0.16 KCAL/MOL
REMARK 927      BINDING AFFINITY PREDICTED BY RF-SCORE:    0.00 PKD
ROOT
HETATM    1  O   UNL     1      -8.391   8.668  73.025  1.00  0.00    -0.404 OA 
HETATM    2  C   UNL     1      -9.092   7.710  73.817  1.00  0.00    -0.277 C  
HETATM    3  H   UNL     1      -7.575   8.887  73.459  1.00  0.00     0.000 HD 
ENDROOT
BRANCH   2   4
HETATM    4  C   UNL     1     -10.414   7.355  73.114  1.00  0.00    -0.356 C  
BRANCH   4   5
HETATM    5  N   UNL     1     -10.426   6.105  72.303  1.00  0.00    -0.193 NA 
BRANCH   5   6
HETATM    6  C   UNL     1     -11.043   5.001  73.098  1.00  0.00    -0.326 C  
BRANCH   6   7
HETATM    7  C   UNL     1     -10.185   3.731  73.251  1.00  0.00    -0.150 C  
HETATM    8  H   UNL     1      -9.755   2.134  72.183  1.00  0.00     0.000 HD 
HETATM    9  O   UNL     1     -10.285   2.917  72.088  1.00  0.00    -0.158 OA 
ENDBRANCH   6   7
ENDBRANCH   5   6
BRANCH   5  10
HETATM   10  C   UNL     1     -11.211   6.331  71.054  1.00  0.00    -0.312 C  
BRANCH  10  11
HETATM   11  C   UNL     1     -10.523   7.222  70.003  1.00  0.00    -0.224 C  
HETATM   12  O   UNL     1     -11.284   7.243  68.799  1.00  0.00    -0.450 OA 
HETATM   13  H   UNL     1     -10.860   7.793  68.152  1.00  0.00     0.000 HD 
ENDBRANCH  10  11
ENDBRANCH   5  10
ENDBRANCH   4   5
ENDBRANCH   2   4
TORSDOF 6
ENDMDL
MODEL      216
REMARK 921   NORMALIZED FREE ENERGY PREDICTED BY IDOCK:   -1.87 KCAL/MOL
REMARK 922        TOTAL FREE ENERGY PREDICTED BY IDOCK:   -3.01 KCAL/MOL
REMARK 923 INTER-LIGAND FREE ENERGY PREDICTED BY IDOCK:   -2.53 KCAL/MOL
REMARK 924 INTRA-LIGAND FREE ENERGY PREDICTED BY IDOCK:   -0.48 KCAL/MOL
REMARK 927      BINDING AFFINITY PREDICTED BY RF-SCORE:    0.00 PKD
ROOT
HETATM    1  O   UNL     1      -8.992   5.986  69.449  1.00  0.00    -0.125 OA 
HETATM    2  C   UNL     1     -10.290   5.426  69.250  1.00  0.00    -0.251 C  
HETATM    3  H   UNL     1      -8.347   5.416  69.046  1.00  0.00     0.000 HD 
ENDROOT
BRANCH   2   4
HETATM    4  C   UNL     1     -11.335   6.348  69.903  1.00  0.00    -0.434 C  
BRANCH   4   5
HETATM    5  N   UNL     1     -10.835   7.307  70.927  1.00  0.00    -0.239 NA 
BRANCH   5   6
HETATM    6  C   UNL     1     -11.017   8.705  70.433  1.00  0.00    -0.235 C  
BRANCH   6   7
HETATM    7  C   UNL     1      -9.722   9.518  70.243  1.00  0.00    -0.263 C  
HETATM    8  H   UNL     1      -8.106   9.429  69.122  1.00  0.00     0.000 HD 
HETATM    9  O   UNL     1      -8.905   8.928  69.239  1.00  0.00    -0.136 OA 
ENDBRANCH   6   7
ENDBRANCH   5   6
BRANCH   5  10
HETATM   10  C   UNL     1     -11.593   7.116  72.199  1.00  0.00    -0.279 C  
BRANCH  10  11
HETATM   11  C   UNL     1     -11.778   5.651  72.634  1.00  0.00    -0.197 C  
HETATM   12  O   UNL     1     -10.993   5.378  73.792  1.00  0.00    -0.369 OA 
HETATM   13  H   UNL     1     -11.108   4.474  74.060  1.00  0.00     0.000 HD 
ENDBRANCH  10  11
ENDBRANCH   5  10
ENDBRANCH   4   5
ENDBRANCH   2   4
TORSDOF 6
ENDMDL
MODEL      217
REMARK 921   NORMALIZED FREE ENERGY PREDICTED BY IDOCK:   -1.85 KCAL/MOL
REMARK 922        TOTAL FREE ENERGY PREDICTED BY IDOCK:   -2.98 KCAL/MOL
REMARK 923 INTER-LIGAND FREE ENERGY PREDICTED BY IDOCK:   -2.80 KCAL/MOL
REMARK 924 INTRA-LIGAND FREE ENERGY PREDICTED BY IDOCK:   -0.18 KCAL/MOL
REMARK 927      BINDING AFFINITY PREDICTED BY RF-SCORE:    0.00 PKD
ROOT
HETATM    1  O   UNL     1     -11.496   5.637  73.321  1.00  0.00    -0.493 OA 
HETATM    2  C   UNL     1     -11.764   6.178  72.027  1.00  0.00    -0.299 C  
HETATM    3  H   UNL     1     -12.185   5.024  73.546  1.00  0.00     0.000 HD 
ENDROOT
BRANCH   2   4
HETATM    4  C   UNL     1     -10.647   7.172  71.662  1.00  0.00    -0.207 C  
BRANCH   4   5
HETATM    5  N   UNL     1      -9.865   6.876  70.430  1.00  0.00    -0.179 NA 
BRANCH   5   6
HETATM    6  C   UNL     1     -10.791   6.770  69.263  1.00  0.00    -0.264 C  
BRANCH   6   7
HETATM    7  C   UNL     1     -10.169   7.083  67.889  1.00  0.00    -0.183 C  
HETATM    8  H   UNL     1     -10.601   6.760  65.995  1.00  0.00     0.000 HD 
HETATM    9  O   UNL     1     -10.984   6.567  66.843  1.00  0.00    -0.373 OA 
ENDBRANCH   6   7
ENDBRANCH   5   6
BRANCH   5  10
HETATM   10  C   UNL     1      -8.876   7.970  70.195  1.00  0.00    -0.143 C  
BRANCH  10  11
HETATM   11  C   UNL     1      -9.245   9.328  70.818  1.00  0.00    -0.253 C  
HETATM   12  O   UNL     1      -9.185  10.355  69.833  1.00  0.00    -0.410 OA 
HETATM   13  H   UNL     1      -9.414  11.193  70.217  1.00  0.00     0.000 HD 
ENDBRANCH  10  11
ENDBRANCH   5  10
ENDBRANCH   4   5
ENDBRANCH   2   4
TORSDOF 6
ENDMDL
MODEL      218
REMARK 921   NORMALIZED FREE ENERGY PREDICTED BY IDOCK:   -1.84 KCAL/MOL
REMARK 922        TOTAL FREE ENERGY PREDICTED BY IDOCK:   -2.97 KCAL/MOL
REMARK 923 INTER-LIGAND FREE ENERGY PREDICTED BY IDOCK:   -2.74 KCAL/MOL
REMARK 924 INTRA-LIGAND FREE ENERGY PREDICTED BY IDOCK:   -0.23 KCAL/MOL
REMARK 927      BINDING AFFINITY PREDICTED BY RF-SCORE:    0.00 PKD
ROOT
HETATM    1  O   UNL     1      -5.258  18.013  68.235  1.00  0.00    -0.156 OA 
HETATM    2  C   UNL     1      -6.497  18.394  67.637  1.00  0.00    -0.199 C  
HETATM    3  H   UNL     1      -4.559  18.150  67.606  1.00  0.00     0.000 HD 
ENDROOT
BRANCH   2   4
HETATM    4  C   UNL     1      -7.630  18.173  68.654  1.00  0.00    -0.295 C  
BRANCH   4   5
HETATM    5  N   UNL     1      -8.840  17.457  68.164  1.00  0.00    -0.246 NA 
BRANCH   5   6
HETATM    6  C   UNL     1     -10.022  18.366  68.239  1.00  0.00    -0.369 C  
BRANCH   6   7
HETATM    7  C   UNL     1      -9.702  19.873  68.282  1.00  0.00    -0.368 C  
HETATM    8  H   UNL     1      -9.915  21.434  67.101  1.00  0.00     0.000 HD 
HETATM    9  O   UNL     1     -10.112  20.505  67.075  1.00  0.00    -0.429 OA 
ENDBRANCH   6   7
ENDBRANCH   5   6
BRANCH   5  10
HETATM   10  C   UNL     1      -8.623  17.023  66.752  1.00  0.00    -0.237 C  
BRANCH  10  11
HETATM   11  C   UNL     1      -8.615  15.499  66.533  1.00  0.00    -0.285 C  
HETATM   12  O   UNL     1      -7.829  14.861  67.536  1.00  0.00    -0.154 OA 
HETATM   13  H   UNL     1      -7.825  13.920  67.400  1.00  0.00     0.000 HD 
ENDBRANCH  10  11
ENDBRANCH   5  10
ENDBRANCH   4   5
ENDBRANCH   2   4
TORSDOF 6
ENDMDL
MODEL      219
REMARK 921   NORMALIZED FREE ENERGY PREDICTED BY IDOCK:   -1.83 KCAL/MOL
REMARK 922        TOTAL FREE ENERGY PREDICTED BY IDOCK:   -2.96 KCAL/MOL
REMARK 923 INTER-LIGAND FREE ENERGY PREDICTED BY IDOCK:   -2.78 KCAL/MOL
REMARK 924 INTRA-LIGAND FREE ENERGY PREDICTED BY IDOCK:   -0.18 KCAL/MOL
REMARK 927      BINDING AFFINITY PREDICTED BY RF-SCORE:    0.00 PKD
ROOT
HETATM    1  O   UNL     1     -10.114  18.219  66.729  1.00  0.00    -0.325 OA 
HETATM    2  C   UNL     1      -8.983  17.428  67.092  1.00  0.00    -0.240 C  
HETATM    3  H   UNL     1     -10.173  18.960  67.321  1.00  0.00     0.000 HD 
ENDROOT
BRANCH   2   4
HETATM    4  C   UNL     1      -8.887  16.227  66.134  1.00  0.00    -0.327 C  
BRANCH   4   5
HETATM    5  N   UNL     1      -9.062  14.876  66.735  1.00  0.00    -0.254 NA 
BRANCH   5   6
HETATM    6  C   UNL     1      -7.814  14.484  67.454  1.00  0.00    -0.199 C  
BRANCH   6   7
HETATM    7  C   UNL     1      -7.794  13.051  68.022  1.00  0.00    -0.146 C  
HETATM    8  H   UNL     1      -7.986  11.217  67.334  1.00  0.00     0.000 HD 
HETATM    9  O   UNL     1      -7.998  12.100  66.984  1.00  0.00    -0.168 OA 
ENDBRANCH   6   7
ENDBRANCH   5   6
BRANCH   5  10
HETATM   10  C   UNL     1     -10.211  14.900  67.688  1.00  0.00    -0.236 C  
BRANCH  10  11
HETATM   11  C   UNL     1     -11.445  14.095  67.243  1.00  0.00    -0.350 C  
HETATM   12  O   UNL     1     -12.475  14.189  68.223  1.00  0.00    -0.538 OA 
HETATM   13  H   UNL     1     -13.237  13.693  67.947  1.00  0.00     0.000 HD 
ENDBRANCH  10  11
ENDBRANCH   5  10
ENDBRANCH   4   5
ENDBRANCH   2   4
TORSDOF 6
ENDMDL
MODEL      220
REMARK 921   NORMALIZED FREE ENERGY PREDICTED BY IDOCK:   -1.80 KCAL/MOL
REMARK 922        TOTAL FREE ENERGY PREDICTED BY IDOCK:   -2.92 KCAL/MOL
REMARK 923 INTER-LIGAND FREE ENERGY PREDICTED BY IDOCK:   -2.74 KCAL/MOL
REMARK 924 INTRA-LIGAND FREE ENERGY PREDICTED BY IDOCK:   -0.18 KCAL/MOL
REMARK 927      BINDING AFFINITY PREDICTED BY RF-SCORE:    0.00 PKD
ROOT
HETATM    1  O   UNL     1      -8.144  10.271  70.435  1.00  0.00    -0.410 OA 
HETATM    2  C   UNL     1      -8.879   9.073  70.683  1.00  0.00    -0.219 C  
HETATM    3  H   UNL     1      -7.956  10.693  71.265  1.00  0.00     0.000 HD 
ENDROOT
BRANCH   2   4
HETATM    4  C   UNL     1      -9.184   8.388  69.339  1.00  0.00    -0.154 C  
BRANCH   4   5
HETATM    5  N   UNL     1     -10.213   7.312  69.353  1.00  0.00    -0.187 NA 
BRANCH   5   6
HETATM    6  C   UNL     1      -9.627   6.054  68.801  1.00  0.00    -0.129 C  
BRANCH   6   7
HETATM    7  C   UNL     1     -10.099   5.665  67.387  1.00  0.00    -0.173 C  
HETATM    8  H   UNL     1     -11.315   6.384  66.016  1.00  0.00     0.000 HD 
HETATM    9  O   UNL     1     -11.024   6.625  66.888  1.00  0.00    -0.376 OA 
ENDBRANCH   6   7
ENDBRANCH   5   6
BRANCH   5  10
HETATM   10  C   UNL     1     -10.675   7.085  70.755  1.00  0.00    -0.228 C  
BRANCH  10  11
HETATM   11  C   UNL     1     -12.143   6.641  70.894  1.00  0.00    -0.320 C  
HETATM   12  O   UNL     1     -12.998   7.779  70.952  1.00  0.00    -0.540 OA 
HETATM   13  H   UNL     1     -13.904   7.505  71.037  1.00  0.00     0.000 HD 
ENDBRANCH  10  11
ENDBRANCH   5  10
ENDBRANCH   4   5
ENDBRANCH   2   4
TORSDOF 6
ENDMDL
MODEL      221
REMARK 921   NORMALIZED FREE ENERGY PREDICTED BY IDOCK:   -1.78 KCAL/MOL
REMARK 922        TOTAL FREE ENERGY PREDICTED BY IDOCK:   -2.89 KCAL/MOL
REMARK 923 INTER-LIGAND FREE ENERGY PREDICTED BY IDOCK:   -2.66 KCAL/MOL
REMARK 924 INTRA-LIGAND FREE ENERGY PREDICTED BY IDOCK:   -0.23 KCAL/MOL
REMARK 927      BINDING AFFINITY PREDICTED BY RF-SCORE:    0.00 PKD
ROOT
HETATM    1  O   UNL     1      -8.058  10.591  70.298  1.00  0.00    -0.373 OA 
HETATM    2  C   UNL     1      -8.590   9.285  70.515  1.00  0.00    -0.233 C  
HETATM    3  H   UNL     1      -8.255  11.132  71.053  1.00  0.00     0.000 HD 
ENDROOT
BRANCH   2   4
HETATM    4  C   UNL     1      -8.271   8.407  69.292  1.00  0.00    -0.116 C  
BRANCH   4   5
HETATM    5  N   UNL     1      -9.226   7.305  68.991  1.00  0.00    -0.140 NA 
BRANCH   5   6
HETATM    6  C   UNL     1     -10.547   7.603  69.619  1.00  0.00    -0.243 C  
BRANCH   6   7
HETATM    7  C   UNL     1     -11.384   6.374  70.025  1.00  0.00    -0.430 C  
HETATM    8  H   UNL     1     -11.129   4.731  71.078  1.00  0.00     0.000 HD 
HETATM    9  O   UNL     1     -10.612   5.488  70.828  1.00  0.00    -0.256 OA 
ENDBRANCH   6   7
ENDBRANCH   5   6
BRANCH   5  10
HETATM   10  C   UNL     1      -9.385   7.175  67.512  1.00  0.00    -0.124 C  
BRANCH  10  11
HETATM   11  C   UNL     1     -10.379   8.162  66.874  1.00  0.00    -0.331 C  
HETATM   12  O   UNL     1      -9.746   8.892  65.827  1.00  0.00    -0.414 OA 
HETATM   13  H   UNL     1     -10.360   9.500  65.433  1.00  0.00     0.000 HD 
ENDBRANCH  10  11
ENDBRANCH   5  10
ENDBRANCH   4   5
ENDBRANCH   2   4
TORSDOF 6
ENDMDL
MODEL      222
REMARK 921   NORMALIZED FREE ENERGY PREDICTED BY IDOCK:   -1.78 KCAL/MOL
REMARK 922        TOTAL FREE ENERGY PREDICTED BY IDOCK:   -2.89 KCAL/MOL
REMARK 923 INTER-LIGAND FREE ENERGY PREDICTED BY IDOCK:   -2.70 KCAL/MOL
REMARK 924 INTRA-LIGAND FREE ENERGY PREDICTED BY IDOCK:   -0.19 KCAL/MOL
REMARK 927      BINDING AFFINITY PREDICTED BY RF-SCORE:    0.00 PKD
ROOT
HETATM    1  O   UNL     1     -10.050  19.213  68.056  1.00  0.00    -0.354 OA 
HETATM    2  C   UNL     1     -10.631  18.033  67.502  1.00  0.00    -0.388 C  
HETATM    3  H   UNL     1     -10.518  19.970  67.725  1.00  0.00     0.000 HD 
ENDROOT
BRANCH   2   4
HETATM    4  C   UNL     1      -9.872  16.806  68.039  1.00  0.00    -0.265 C  
BRANCH   4   5
HETATM    5  N   UNL     1      -8.385  16.863  67.986  1.00  0.00    -0.199 NA 
BRANCH   5   6
HETATM    6  C   UNL     1      -7.816  15.647  68.641  1.00  0.00    -0.152 C  
BRANCH   6   7
HETATM    7  C   UNL     1      -8.133  14.308  67.948  1.00  0.00    -0.151 C  
HETATM    8  H   UNL     1      -7.130  12.830  67.121  1.00  0.00     0.000 HD 
HETATM    9  O   UNL     1      -6.934  13.656  67.548  1.00  0.00    -0.165 OA 
ENDBRANCH   6   7
ENDBRANCH   5   6
BRANCH   5  10
HETATM   10  C   UNL     1      -7.940  16.928  66.563  1.00  0.00    -0.294 C  
BRANCH  10  11
HETATM   11  C   UNL     1      -6.697  17.802  66.307  1.00  0.00    -0.268 C  
HETATM   12  O   UNL     1      -7.025  18.882  65.438  1.00  0.00    -0.464 OA 
HETATM   13  H   UNL     1      -6.258  19.421  65.281  1.00  0.00     0.000 HD 
ENDBRANCH  10  11
ENDBRANCH   5  10
ENDBRANCH   4   5
ENDBRANCH   2   4
TORSDOF 6
ENDMDL
MODEL      223
REMARK 921   NORMALIZED FREE ENERGY PREDICTED BY IDOCK:   -1.77 KCAL/MOL
REMARK 922        TOTAL FREE ENERGY PREDICTED BY IDOCK:   -2.87 KCAL/MOL
REMARK 923 INTER-LIGAND FREE ENERGY PREDICTED BY IDOCK:   -2.54 KCAL/MOL
REMARK 924 INTRA-LIGAND FREE ENERGY PREDICTED BY IDOCK:   -0.33 KCAL/MOL
REMARK 927      BINDING AFFINITY PREDICTED BY RF-SCORE:    0.00 PKD
ROOT
HETATM    1  O   UNL     1     -11.493   9.526  69.626  1.00  0.00    -0.429 OA 
HETATM    2  C   UNL     1     -10.091   9.430  69.876  1.00  0.00    -0.218 C  
HETATM    3  H   UNL     1     -11.651  10.253  69.036  1.00  0.00     0.000 HD 
ENDROOT
BRANCH   2   4
HETATM    4  C   UNL     1      -9.835   8.251  70.831  1.00  0.00    -0.182 C  
BRANCH   4   5
HETATM    5  N   UNL     1     -10.329   6.916  70.395  1.00  0.00    -0.199 NA 
BRANCH   5   6
HETATM    6  C   UNL     1      -9.167   6.010  70.148  1.00  0.00    -0.154 C  
BRANCH   6   7
HETATM    7  C   UNL     1      -8.564   6.072  68.731  1.00  0.00    -0.112 C  
HETATM    8  H   UNL     1      -6.831   5.699  67.876  1.00  0.00     0.000 HD 
HETATM    9  O   UNL     1      -7.203   5.661  68.749  1.00  0.00    -0.076 OA 
ENDBRANCH   6   7
ENDBRANCH   5   6
BRANCH   5  10
HETATM   10  C   UNL     1     -11.205   6.339  71.457  1.00  0.00    -0.290 C  
BRANCH  10  11
HETATM   11  C   UNL     1     -12.470   7.157  71.775  1.00  0.00    -0.350 C  
HETATM   12  O   UNL     1     -13.371   7.119  70.673  1.00  0.00    -0.532 OA 
HETATM   13  H   UNL     1     -14.152   7.624  70.869  1.00  0.00     0.000 HD 
ENDBRANCH  10  11
ENDBRANCH   5  10
ENDBRANCH   4   5
ENDBRANCH   2   4
TORSDOF 6
ENDMDL
MODEL      224
REMARK 921   NORMALIZED FREE ENERGY PREDICTED BY IDOCK:   -1.76 KCAL/MOL
REMARK 922        TOTAL FREE ENERGY PREDICTED BY IDOCK:   -2.87 KCAL/MOL
REMARK 923 INTER-LIGAND FREE ENERGY PREDICTED BY IDOCK:   -2.68 KCAL/MOL
REMARK 924 INTRA-LIGAND FREE ENERGY PREDICTED BY IDOCK:   -0.19 KCAL/MOL
REMARK 927      BINDING AFFINITY PREDICTED BY RF-SCORE:    0.00 PKD
ROOT
HETATM    1  O   UNL     1     -12.607   6.465  72.320  1.00  0.00    -0.547 OA 
HETATM    2  C   UNL     1     -11.427   5.716  72.608  1.00  0.00    -0.285 C  
HETATM    3  H   UNL     1     -13.251   6.295  72.997  1.00  0.00     0.000 HD 
ENDROOT
BRANCH   2   4
HETATM    4  C   UNL     1     -10.383   5.991  71.511  1.00  0.00    -0.214 C  
BRANCH   4   5
HETATM    5  N   UNL     1     -10.015   7.415  71.278  1.00  0.00    -0.187 NA 
BRANCH   5   6
HETATM    6  C   UNL     1      -8.561   7.607  71.558  1.00  0.00    -0.116 C  
BRANCH   6   7
HETATM    7  C   UNL     1      -8.015   9.025  71.300  1.00  0.00    -0.091 C  
HETATM    8  H   UNL     1      -6.452  10.095  71.835  1.00  0.00     0.000 HD 
HETATM    9  O   UNL     1      -6.788   9.221  71.994  1.00  0.00    -0.309 OA 
ENDBRANCH   6   7
ENDBRANCH   5   6
BRANCH   5  10
HETATM   10  C   UNL     1     -10.312   7.779  69.861  1.00  0.00    -0.223 C  
BRANCH  10  11
HETATM   11  C   UNL     1     -10.424   6.589  68.891  1.00  0.00    -0.215 C  
HETATM   12  O   UNL     1     -11.715   6.562  68.290  1.00  0.00    -0.488 OA 
HETATM   13  H   UNL     1     -11.784   5.827  67.692  1.00  0.00     0.000 HD 
ENDBRANCH  10  11
ENDBRANCH   5  10
ENDBRANCH   4   5
ENDBRANCH   2   4
TORSDOF 6
ENDMDL
MODEL      225
REMARK 921   NORMALIZED FREE ENERGY PREDICTED BY IDOCK:   -1.75 KCAL/MOL
REMARK 922        TOTAL FREE ENERGY PREDICTED BY IDOCK:   -2.85 KCAL/MOL
REMARK 923 INTER-LIGAND FREE ENERGY PREDICTED BY IDOCK:   -2.64 KCAL/MOL
REMARK 924 INTRA-LIGAND FREE ENERGY PREDICTED BY IDOCK:   -0.21 KCAL/MOL
REMARK 927      BINDING AFFINITY PREDICTED BY RF-SCORE:    0.00 PKD
ROOT
HETATM    1  O   UNL     1     -13.940   8.455  71.154  1.00  0.00    -0.590 OA 
HETATM    2  C   UNL     1     -12.805   8.251  71.994  1.00  0.00    -0.340 C  
HETATM    3  H   UNL     1     -14.729   8.294  71.658  1.00  0.00     0.000 HD 
ENDROOT
BRANCH   2   4
HETATM    4  C   UNL     1     -11.527   8.512  71.176  1.00  0.00    -0.276 C  
BRANCH   4   5
HETATM    5  N   UNL     1     -10.755   7.315  70.741  1.00  0.00    -0.228 NA 
BRANCH   5   6
HETATM    6  C   UNL     1     -10.809   7.201  69.253  1.00  0.00    -0.183 C  
BRANCH   6   7
HETATM    7  C   UNL     1      -9.468   7.406  68.521  1.00  0.00    -0.144 C  
HETATM    8  H   UNL     1      -8.677   8.722  67.289  1.00  0.00     0.000 HD 
HETATM    9  O   UNL     1      -9.504   8.595  67.740  1.00  0.00    -0.139 OA 
ENDBRANCH   6   7
ENDBRANCH   5   6
BRANCH   5  10
HETATM   10  C   UNL     1      -9.337   7.449  71.189  1.00  0.00    -0.155 C  
BRANCH  10  11
HETATM   11  C   UNL     1      -9.152   7.743  72.689  1.00  0.00    -0.173 C  
HETATM   12  O   UNL     1      -8.252   8.832  72.870  1.00  0.00    -0.410 OA 
HETATM   13  H   UNL     1      -8.138   9.014  73.796  1.00  0.00     0.000 HD 
ENDBRANCH  10  11
ENDBRANCH   5  10
ENDBRANCH   4   5
ENDBRANCH   2   4
TORSDOF 6
ENDMDL
MODEL      226
REMARK 921   NORMALIZED FREE ENERGY PREDICTED BY IDOCK:   -1.75 KCAL/MOL
REMARK 922        TOTAL FREE ENERGY PREDICTED BY IDOCK:   -2.85 KCAL/MOL
REMARK 923 INTER-LIGAND FREE ENERGY PREDICTED BY IDOCK:   -2.81 KCAL/MOL
REMARK 924 INTRA-LIGAND FREE ENERGY PREDICTED BY IDOCK:   -0.04 KCAL/MOL
REMARK 927      BINDING AFFINITY PREDICTED BY RF-SCORE:    0.00 PKD
ROOT
HETATM    1  O   UNL     1      -9.803   5.632  67.191  1.00  0.00    -0.128 OA 
HETATM    2  C   UNL     1     -11.033   6.269  67.538  1.00  0.00    -0.350 C  
HETATM    3  H   UNL     1      -9.902   5.216  66.343  1.00  0.00     0.000 HD 
ENDROOT
BRANCH   2   4
HETATM    4  C   UNL     1     -10.874   6.943  68.913  1.00  0.00    -0.207 C  
BRANCH   4   5
HETATM    5  N   UNL     1     -11.318   6.158  70.098  1.00  0.00    -0.393 NA 
BRANCH   5   6
HETATM    6  C   UNL     1     -10.124   5.622  70.817  1.00  0.00    -0.209 C  
BRANCH   6   7
HETATM    7  C   UNL     1      -8.763   6.177  70.355  1.00  0.00    -0.142 C  
HETATM    8  H   UNL     1      -6.862   5.714  70.567  1.00  0.00     0.000 HD 
HETATM    9  O   UNL     1      -7.701   5.372  70.852  1.00  0.00    -0.086 OA 
ENDBRANCH   6   7
ENDBRANCH   5   6
BRANCH   5  10
HETATM   10  C   UNL     1     -12.106   7.040  71.010  1.00  0.00    -0.368 C  
BRANCH  10  11
HETATM   11  C   UNL     1     -11.267   7.986  71.888  1.00  0.00    -0.280 C  
HETATM   12  O   UNL     1     -11.616   7.826  73.260  1.00  0.00    -0.644 OA 
HETATM   13  H   UNL     1     -11.098   8.410  73.801  1.00  0.00     0.000 HD 
ENDBRANCH  10  11
ENDBRANCH   5  10
ENDBRANCH   4   5
ENDBRANCH   2   4
TORSDOF 6
ENDMDL
MODEL      227
REMARK 921   NORMALIZED FREE ENERGY PREDICTED BY IDOCK:   -1.75 KCAL/MOL
REMARK 922        TOTAL FREE ENERGY PREDICTED BY IDOCK:   -2.84 KCAL/MOL
REMARK 923 INTER-LIGAND FREE ENERGY PREDICTED BY IDOCK:   -2.63 KCAL/MOL
REMARK 924 INTRA-LIGAND FREE ENERGY PREDICTED BY IDOCK:   -0.21 KCAL/MOL
REMARK 927      BINDING AFFINITY PREDICTED BY RF-SCORE:    0.00 PKD
ROOT
HETATM    1  O   UNL     1     -11.584  12.257  70.302  1.00  0.00    -0.525 OA 
HETATM    2  C   UNL     1     -11.781  10.965  69.728  1.00  0.00    -0.338 C  
HETATM    3  H   UNL     1     -12.240  12.850  69.955  1.00  0.00     0.000 HD 
ENDROOT
BRANCH   2   4
HETATM    4  C   UNL     1     -10.719  10.004  70.290  1.00  0.00    -0.309 C  
BRANCH   4   5
HETATM    5  N   UNL     1      -9.799   9.371  69.304  1.00  0.00    -0.168 NA 
BRANCH   5   6
HETATM    6  C   UNL     1     -10.556   9.030  68.063  1.00  0.00    -0.186 C  
BRANCH   6   7
HETATM    7  C   UNL     1      -9.700   8.805  66.802  1.00  0.00    -0.221 C  
HETATM    8  H   UNL     1      -9.626   9.494  64.959  1.00  0.00     0.000 HD 
HETATM    9  O   UNL     1     -10.154   9.633  65.737  1.00  0.00    -0.290 OA 
ENDBRANCH   6   7
ENDBRANCH   5   6
BRANCH   5  10
HETATM   10  C   UNL     1      -8.691  10.317  68.979  1.00  0.00    -0.163 C  
BRANCH  10  11
HETATM   11  C   UNL     1      -7.296   9.876  69.457  1.00  0.00    -0.102 C  
HETATM   12  O   UNL     1      -7.189  10.022  70.870  1.00  0.00    -0.328 OA 
HETATM   13  H   UNL     1      -6.328   9.749  71.164  1.00  0.00     0.000 HD 
ENDBRANCH  10  11
ENDBRANCH   5  10
ENDBRANCH   4   5
ENDBRANCH   2   4
TORSDOF 6
ENDMDL
MODEL      228
REMARK 921   NORMALIZED FREE ENERGY PREDICTED BY IDOCK:   -1.75 KCAL/MOL
REMARK 922        TOTAL FREE ENERGY PREDICTED BY IDOCK:   -2.84 KCAL/MOL
REMARK 923 INTER-LIGAND FREE ENERGY PREDICTED BY IDOCK:   -2.56 KCAL/MOL
REMARK 924 INTRA-LIGAND FREE ENERGY PREDICTED BY IDOCK:   -0.28 KCAL/MOL
REMARK 927      BINDING AFFINITY PREDICTED BY RF-SCORE:    0.00 PKD
ROOT
HETATM    1  O   UNL     1     -12.714   5.728  72.716  1.00  0.00    -0.445 OA 
HETATM    2  C   UNL     1     -11.329   5.463  72.939  1.00  0.00    -0.303 C  
HETATM    3  H   UNL     1     -13.219   5.328  73.413  1.00  0.00     0.000 HD 
ENDROOT
BRANCH   2   4
HETATM    4  C   UNL     1     -10.510   6.111  71.809  1.00  0.00    -0.216 C  
BRANCH   4   5
HETATM    5  N   UNL     1     -11.165   6.204  70.474  1.00  0.00    -0.336 NA 
BRANCH   5   6
HETATM    6  C   UNL     1     -11.154   7.623  70.010  1.00  0.00    -0.191 C  
BRANCH   6   7
HETATM    7  C   UNL     1     -11.530   8.674  71.072  1.00  0.00    -0.278 C  
HETATM    8  H   UNL     1     -10.743  10.309  71.835  1.00  0.00     0.000 HD 
HETATM    9  O   UNL     1     -10.511   9.661  71.180  1.00  0.00    -0.307 OA 
ENDBRANCH   6   7
ENDBRANCH   5   6
BRANCH   5  10
HETATM   10  C   UNL     1     -10.431   5.344  69.499  1.00  0.00    -0.273 C  
BRANCH  10  11
HETATM   11  C   UNL     1      -8.900   5.327  69.669  1.00  0.00    -0.107 C  
HETATM   12  O   UNL     1      -8.278   6.040  68.604  1.00  0.00    -0.106 OA 
HETATM   13  H   UNL     1      -7.334   6.030  68.709  1.00  0.00     0.000 HD 
ENDBRANCH  10  11
ENDBRANCH   5  10
ENDBRANCH   4   5
ENDBRANCH   2   4
TORSDOF 6
ENDMDL
MODEL      229
REMARK 921   NORMALIZED FREE ENERGY PREDICTED BY IDOCK:   -1.74 KCAL/MOL
REMARK 922        TOTAL FREE ENERGY PREDICTED BY IDOCK:   -2.84 KCAL/MOL
REMARK 923 INTER-LIGAND FREE ENERGY PREDICTED BY IDOCK:   -2.69 KCAL/MOL
REMARK 924 INTRA-LIGAND FREE ENERGY PREDICTED BY IDOCK:   -0.15 KCAL/MOL
REMARK 927      BINDING AFFINITY PREDICTED BY RF-SCORE:    0.00 PKD
ROOT
HETATM    1  O   UNL     1      -9.663   7.925  65.862  1.00  0.00    -0.443 OA 
HETATM    2  C   UNL     1     -10.526   7.879  66.998  1.00  0.00    -0.349 C  
HETATM    3  H   UNL     1      -9.990   8.577  65.254  1.00  0.00     0.000 HD 
ENDROOT
BRANCH   2   4
HETATM    4  C   UNL     1      -9.995   6.822  67.983  1.00  0.00    -0.144 C  
BRANCH   4   5
HETATM    5  N   UNL     1     -10.096   7.149  69.433  1.00  0.00    -0.172 NA 
BRANCH   5   6
HETATM    6  C   UNL     1     -10.739   8.486  69.600  1.00  0.00    -0.197 C  
BRANCH   6   7
HETATM    7  C   UNL     1     -11.628   8.646  70.849  1.00  0.00    -0.269 C  
HETATM    8  H   UNL     1     -12.242  10.109  72.013  1.00  0.00     0.000 HD 
HETATM    9  O   UNL     1     -11.693  10.011  71.244  1.00  0.00    -0.361 OA 
ENDBRANCH   6   7
ENDBRANCH   5   6
BRANCH   5  10
HETATM   10  C   UNL     1     -10.910   6.104  70.122  1.00  0.00    -0.329 C  
BRANCH  10  11
HETATM   11  C   UNL     1     -10.108   4.916  70.683  1.00  0.00    -0.236 C  
HETATM   12  O   UNL     1     -10.363   4.762  72.076  1.00  0.00    -0.193 OA 
HETATM   13  H   UNL     1      -9.868   4.028  72.421  1.00  0.00     0.000 HD 
ENDBRANCH  10  11
ENDBRANCH   5  10
ENDBRANCH   4   5
ENDBRANCH   2   4
TORSDOF 6
ENDMDL
MODEL      230
REMARK 921   NORMALIZED FREE ENERGY PREDICTED BY IDOCK:   -1.74 KCAL/MOL
REMARK 922        TOTAL FREE ENERGY PREDICTED BY IDOCK:   -2.83 KCAL/MOL
REMARK 923 INTER-LIGAND FREE ENERGY PREDICTED BY IDOCK:   -2.54 KCAL/MOL
REMARK 924 INTRA-LIGAND FREE ENERGY PREDICTED BY IDOCK:   -0.29 KCAL/MOL
REMARK 927      BINDING AFFINITY PREDICTED BY RF-SCORE:    0.00 PKD
ROOT
HETATM    1  O   UNL     1      -8.820   8.992  69.289  1.00  0.00    -0.135 OA 
HETATM    2  C   UNL     1      -9.490   9.448  70.464  1.00  0.00    -0.269 C  
HETATM    3  H   UNL     1      -9.209   9.412  68.531  1.00  0.00     0.000 HD 
ENDROOT
BRANCH   2   4
HETATM    4  C   UNL     1      -8.860   8.768  71.692  1.00  0.00    -0.208 C  
BRANCH   4   5
HETATM    5  N   UNL     1      -9.623   7.642  72.299  1.00  0.00    -0.157 NA 
BRANCH   5   6
HETATM    6  C   UNL     1      -9.352   7.590  73.767  1.00  0.00    -0.279 C  
BRANCH   6   7
HETATM    7  C   UNL     1      -9.385   6.185  74.400  1.00  0.00    -0.173 C  
HETATM    8  H   UNL     1      -8.989   4.337  73.848  1.00  0.00     0.000 HD 
HETATM    9  O   UNL     1      -8.969   5.204  73.457  1.00  0.00    -0.118 OA 
ENDBRANCH   6   7
ENDBRANCH   5   6
BRANCH   5  10
HETATM   10  C   UNL     1     -11.083   7.845  72.060  1.00  0.00    -0.278 C  
BRANCH  10  11
HETATM   11  C   UNL     1     -11.800   6.669  71.372  1.00  0.00    -0.337 C  
HETATM   12  O   UNL     1     -11.910   6.910  69.972  1.00  0.00    -0.589 OA 
HETATM   13  H   UNL     1     -12.352   6.184  69.547  1.00  0.00     0.000 HD 
ENDBRANCH  10  11
ENDBRANCH   5  10
ENDBRANCH   4   5
ENDBRANCH   2   4
TORSDOF 6
ENDMDL
MODEL      231
REMARK 921   NORMALIZED FREE ENERGY PREDICTED BY IDOCK:   -1.74 KCAL/MOL
REMARK 922        TOTAL FREE ENERGY PREDICTED BY IDOCK:   -2.83 KCAL/MOL
REMARK 923 INTER-LIGAND FREE ENERGY PREDICTED BY IDOCK:   -2.36 KCAL/MOL
REMARK 924 INTRA-LIGAND FREE ENERGY PREDICTED BY IDOCK:   -0.48 KCAL/MOL
REMARK 927      BINDING AFFINITY PREDICTED BY RF-SCORE:    0.00 PKD
ROOT
HETATM    1  O   UNL     1     -11.048   7.787  69.535  1.00  0.00    -0.427 OA 
HETATM    2  C   UNL     1     -11.230   6.444  69.089  1.00  0.00    -0.354 C  
HETATM    3  H   UNL     1     -11.277   8.379  68.828  1.00  0.00     0.000 HD 
ENDROOT
BRANCH   2   4
HETATM    4  C   UNL     1     -10.858   5.485  70.234  1.00  0.00    -0.215 C  
BRANCH   4   5
HETATM    5  N   UNL     1      -9.973   6.028  71.302  1.00  0.00    -0.181 NA 
BRANCH   5   6
HETATM    6  C   UNL     1     -10.748   6.164  72.571  1.00  0.00    -0.224 C  
BRANCH   6   7
HETATM    7  C   UNL     1     -10.826   7.589  73.153  1.00  0.00    -0.395 C  
HETATM    8  H   UNL     1     -10.631   9.435  72.498  1.00  0.00     0.000 HD 
HETATM    9  O   UNL     1     -10.583   8.556  72.139  1.00  0.00    -0.304 OA 
ENDBRANCH   6   7
ENDBRANCH   5   6
BRANCH   5  10
HETATM   10  C   UNL     1      -8.819   5.104  71.508  1.00  0.00    -0.133 C  
BRANCH  10  11
HETATM   11  C   UNL     1      -7.805   5.058  70.351  1.00  0.00    -0.073 C  
HETATM   12  O   UNL     1      -7.586   3.712  69.940  1.00  0.00    -0.048 OA 
HETATM   13  H   UNL     1      -6.961   3.684  69.225  1.00  0.00     0.000 HD 
ENDBRANCH  10  11
ENDBRANCH   5  10
ENDBRANCH   4   5
ENDBRANCH   2   4
TORSDOF 6
ENDMDL
MODEL      232
REMARK 921   NORMALIZED FREE ENERGY PREDICTED BY IDOCK:   -1.73 KCAL/MOL
REMARK 922        TOTAL FREE ENERGY PREDICTED BY IDOCK:   -2.83 KCAL/MOL
REMARK 923 INTER-LIGAND FREE ENERGY PREDICTED BY IDOCK:   -2.70 KCAL/MOL
REMARK 924 INTRA-LIGAND FREE ENERGY PREDICTED BY IDOCK:   -0.12 KCAL/MOL
REMARK 927      BINDING AFFINITY PREDICTED BY RF-SCORE:    0.00 PKD
ROOT
HETATM    1  O   UNL     1     -12.455  14.551  69.107  1.00  0.00    -0.567 OA 
HETATM    2  C   UNL     1     -11.983  13.517  68.243  1.00  0.00    -0.342 C  
HETATM    3  H   UNL     1     -13.379  14.692  68.939  1.00  0.00     0.000 HD 
ENDROOT
BRANCH   2   4
HETATM    4  C   UNL     1     -10.485  13.286  68.515  1.00  0.00    -0.250 C  
BRANCH   4   5
HETATM    5  N   UNL     1      -9.533  13.794  67.488  1.00  0.00    -0.214 NA 
BRANCH   5   6
HETATM    6  C   UNL     1      -8.928  15.075  67.959  1.00  0.00    -0.173 C  
BRANCH   6   7
HETATM    7  C   UNL     1      -7.987  15.774  66.958  1.00  0.00    -0.237 C  
HETATM    8  H   UNL     1      -7.668  17.603  66.303  1.00  0.00     0.000 HD 
HETATM    9  O   UNL     1      -8.249  17.172  66.919  1.00  0.00    -0.195 OA 
ENDBRANCH   6   7
ENDBRANCH   5   6
BRANCH   5  10
HETATM   10  C   UNL     1      -8.461  12.780  67.261  1.00  0.00    -0.194 C  
BRANCH  10  11
HETATM   11  C   UNL     1      -8.916  11.502  66.532  1.00  0.00    -0.189 C  
HETATM   12  O   UNL     1      -7.908  11.069  65.622  1.00  0.00    -0.341 OA 
HETATM   13  H   UNL     1      -8.189  10.280  65.173  1.00  0.00     0.000 HD 
ENDBRANCH  10  11
ENDBRANCH   5  10
ENDBRANCH   4   5
ENDBRANCH   2   4
TORSDOF 6
ENDMDL
MODEL      233
REMARK 921   NORMALIZED FREE ENERGY PREDICTED BY IDOCK:   -1.73 KCAL/MOL
REMARK 922        TOTAL FREE ENERGY PREDICTED BY IDOCK:   -2.82 KCAL/MOL
REMARK 923 INTER-LIGAND FREE ENERGY PREDICTED BY IDOCK:   -2.35 KCAL/MOL
REMARK 924 INTRA-LIGAND FREE ENERGY PREDICTED BY IDOCK:   -0.47 KCAL/MOL
REMARK 927      BINDING AFFINITY PREDICTED BY RF-SCORE:    0.00 PKD
ROOT
HETATM    1  O   UNL     1      -7.499  10.426  67.927  1.00  0.00    -0.086 OA 
HETATM    2  C   UNL     1      -8.314   9.907  66.876  1.00  0.00    -0.124 C  
HETATM    3  H   UNL     1      -6.598  10.163  67.775  1.00  0.00     0.000 HD 
ENDROOT
BRANCH   2   4
HETATM    4  C   UNL     1      -9.772  10.333  67.121  1.00  0.00    -0.173 C  
BRANCH   4   5
HETATM    5  N   UNL     1     -10.001  11.368  68.167  1.00  0.00    -0.182 NA 
BRANCH   5   6
HETATM    6  C   UNL     1     -10.709  12.537  67.566  1.00  0.00    -0.225 C  
BRANCH   6   7
HETATM    7  C   UNL     1     -11.587  12.224  66.338  1.00  0.00    -0.383 C  
HETATM    8  H   UNL     1     -12.559  13.234  64.957  1.00  0.00     0.000 HD 
HETATM    9  O   UNL     1     -12.018  13.427  65.714  1.00  0.00    -0.364 OA 
ENDBRANCH   6   7
ENDBRANCH   5   6
BRANCH   5  10
HETATM   10  C   UNL     1     -10.824  10.788  69.269  1.00  0.00    -0.242 C  
BRANCH  10  11
HETATM   11  C   UNL     1     -10.190   9.585  69.993  1.00  0.00    -0.244 C  
HETATM   12  O   UNL     1      -8.927   9.950  70.542  1.00  0.00    -0.326 OA 
HETATM   13  H   UNL     1      -8.537   9.208  70.989  1.00  0.00     0.000 HD 
ENDBRANCH  10  11
ENDBRANCH   5  10
ENDBRANCH   4   5
ENDBRANCH   2   4
TORSDOF 6
ENDMDL
MODEL      234
REMARK 921   NORMALIZED FREE ENERGY PREDICTED BY IDOCK:   -1.71 KCAL/MOL
REMARK 922        TOTAL FREE ENERGY PREDICTED BY IDOCK:   -2.80 KCAL/MOL
REMARK 923 INTER-LIGAND FREE ENERGY PREDICTED BY IDOCK:   -2.60 KCAL/MOL
REMARK 924 INTRA-LIGAND FREE ENERGY PREDICTED BY IDOCK:   -0.20 KCAL/MOL
REMARK 927      BINDING AFFINITY PREDICTED BY RF-SCORE:    0.00 PKD
ROOT
HETATM    1  O   UNL     1     -12.144  11.927  67.329  1.00  0.00    -0.582 OA 
HETATM    2  C   UNL     1     -11.443  10.734  67.679  1.00  0.00    -0.151 C  
HETATM    3  H   UNL     1     -12.899  11.696  66.801  1.00  0.00     0.000 HD 
ENDROOT
BRANCH   2   4
HETATM    4  C   UNL     1     -10.220  11.108  68.535  1.00  0.00    -0.198 C  
BRANCH   4   5
HETATM    5  N   UNL     1      -9.919  10.224  69.695  1.00  0.00    -0.227 NA 
BRANCH   5   6
HETATM    6  C   UNL     1     -11.182   9.596  70.184  1.00  0.00    -0.256 C  
BRANCH   6   7
HETATM    7  C   UNL     1     -11.003   8.380  71.115  1.00  0.00    -0.244 C  
HETATM    8  H   UNL     1     -12.158   7.086  72.046  1.00  0.00     0.000 HD 
HETATM    9  O   UNL     1     -12.268   7.835  71.472  1.00  0.00    -0.299 OA 
ENDBRANCH   6   7
ENDBRANCH   5   6
BRANCH   5  10
HETATM   10  C   UNL     1      -8.954   9.165  69.276  1.00  0.00    -0.145 C  
BRANCH  10  11
HETATM   11  C   UNL     1      -7.475   9.479  69.566  1.00  0.00    -0.092 C  
HETATM   12  O   UNL     1      -7.348  10.137  70.823  1.00  0.00    -0.401 OA 
HETATM   13  H   UNL     1      -6.435  10.330  71.002  1.00  0.00     0.000 HD 
ENDBRANCH  10  11
ENDBRANCH   5  10
ENDBRANCH   4   5
ENDBRANCH   2   4
TORSDOF 6
ENDMDL
MODEL      235
REMARK 921   NORMALIZED FREE ENERGY PREDICTED BY IDOCK:   -1.71 KCAL/MOL
REMARK 922        TOTAL FREE ENERGY PREDICTED BY IDOCK:   -2.79 KCAL/MOL
REMARK 923 INTER-LIGAND FREE ENERGY PREDICTED BY IDOCK:   -2.41 KCAL/MOL
REMARK 924 INTRA-LIGAND FREE ENERGY PREDICTED BY IDOCK:   -0.38 KCAL/MOL
REMARK 927      BINDING AFFINITY PREDICTED BY RF-SCORE:    0.00 PKD
ROOT
HETATM    1  O   UNL     1     -10.028   3.621  66.586  1.00  0.00    -0.397 OA 
HETATM    2  C   UNL     1     -10.582   4.875  66.192  1.00  0.00    -0.271 C  
HETATM    3  H   UNL     1     -10.670   2.938  66.429  1.00  0.00     0.000 HD 
ENDROOT
BRANCH   2   4
HETATM    4  C   UNL     1      -9.542   5.981  66.446  1.00  0.00    -0.137 C  
BRANCH   4   5
HETATM    5  N   UNL     1      -9.816   6.911  67.576  1.00  0.00    -0.132 NA 
BRANCH   5   6
HETATM    6  C   UNL     1     -10.195   8.252  67.039  1.00  0.00    -0.310 C  
BRANCH   6   7
HETATM    7  C   UNL     1      -9.311   8.785  65.894  1.00  0.00    -0.218 C  
HETATM    8  H   UNL     1      -7.804  10.035  65.689  1.00  0.00     0.000 HD 
HETATM    9  O   UNL     1      -8.349   9.707  66.395  1.00  0.00    -0.118 OA 
ENDBRANCH   6   7
ENDBRANCH   5   6
BRANCH   5  10
HETATM   10  C   UNL     1     -10.928   6.366  68.410  1.00  0.00    -0.309 C  
BRANCH  10  11
HETATM   11  C   UNL     1     -10.497   5.775  69.765  1.00  0.00    -0.292 C  
HETATM   12  O   UNL     1      -9.974   4.462  69.586  1.00  0.00    -0.222 OA 
HETATM   13  H   UNL     1      -9.708   4.098  70.422  1.00  0.00     0.000 HD 
ENDBRANCH  10  11
ENDBRANCH   5  10
ENDBRANCH   4   5
ENDBRANCH   2   4
TORSDOF 6
ENDMDL
MODEL      236
REMARK 921   NORMALIZED FREE ENERGY PREDICTED BY IDOCK:   -1.70 KCAL/MOL
REMARK 922        TOTAL FREE ENERGY PREDICTED BY IDOCK:   -2.79 KCAL/MOL
REMARK 923 INTER-LIGAND FREE ENERGY PREDICTED BY IDOCK:   -2.57 KCAL/MOL
REMARK 924 INTRA-LIGAND FREE ENERGY PREDICTED BY IDOCK:   -0.21 KCAL/MOL
REMARK 927      BINDING AFFINITY PREDICTED BY RF-SCORE:    0.00 PKD
ROOT
HETATM    1  O   UNL     1     -11.532   6.823  68.655  1.00  0.00    -0.557 OA 
HETATM    2  C   UNL     1     -10.899   5.674  69.218  1.00  0.00    -0.239 C  
HETATM    3  H   UNL     1     -12.000   6.562  67.871  1.00  0.00     0.000 HD 
ENDROOT
BRANCH   2   4
HETATM    4  C   UNL     1     -10.140   6.097  70.488  1.00  0.00    -0.189 C  
BRANCH   4   5
HETATM    5  N   UNL     1     -10.725   5.673  71.790  1.00  0.00    -0.241 NA 
BRANCH   5   6
HETATM    6  C   UNL     1      -9.690   4.957  72.594  1.00  0.00    -0.150 C  
BRANCH   6   7
HETATM    7  C   UNL     1     -10.041   3.510  72.993  1.00  0.00    -0.149 C  
HETATM    8  H   UNL     1     -11.597   2.542  73.710  1.00  0.00     0.000 HD 
HETATM    9  O   UNL     1     -11.381   3.434  73.464  1.00  0.00    -0.230 OA 
ENDBRANCH   6   7
ENDBRANCH   5   6
BRANCH   5  10
HETATM   10  C   UNL     1     -11.203   6.876  72.535  1.00  0.00    -0.267 C  
BRANCH  10  11
HETATM   11  C   UNL     1     -10.562   8.208  72.103  1.00  0.00    -0.290 C  
HETATM   12  O   UNL     1      -9.380   8.454  72.858  1.00  0.00    -0.260 OA 
HETATM   13  H   UNL     1      -8.985   9.276  72.591  1.00  0.00     0.000 HD 
ENDBRANCH  10  11
ENDBRANCH   5  10
ENDBRANCH   4   5
ENDBRANCH   2   4
TORSDOF 6
ENDMDL
MODEL      237
REMARK 921   NORMALIZED FREE ENERGY PREDICTED BY IDOCK:   -1.70 KCAL/MOL
REMARK 922        TOTAL FREE ENERGY PREDICTED BY IDOCK:   -2.79 KCAL/MOL
REMARK 923 INTER-LIGAND FREE ENERGY PREDICTED BY IDOCK:   -2.54 KCAL/MOL
REMARK 924 INTRA-LIGAND FREE ENERGY PREDICTED BY IDOCK:   -0.24 KCAL/MOL
REMARK 927      BINDING AFFINITY PREDICTED BY RF-SCORE:    0.00 PKD
ROOT
HETATM    1  O   UNL     1      -6.670  18.625  67.481  1.00  0.00    -0.197 OA 
HETATM    2  C   UNL     1      -7.377  18.529  66.245  1.00  0.00    -0.258 C  
HETATM    3  H   UNL     1      -6.135  19.410  67.469  1.00  0.00     0.000 HD 
ENDROOT
BRANCH   2   4
HETATM    4  C   UNL     1      -8.245  17.258  66.265  1.00  0.00    -0.267 C  
BRANCH   4   5
HETATM    5  N   UNL     1      -8.798  16.846  67.585  1.00  0.00    -0.212 NA 
BRANCH   5   6
HETATM    6  C   UNL     1     -10.287  16.941  67.554  1.00  0.00    -0.318 C  
BRANCH   6   7
HETATM    7  C   UNL     1     -11.007  16.551  68.860  1.00  0.00    -0.325 C  
HETATM    8  H   UNL     1     -12.454  15.335  69.410  1.00  0.00     0.000 HD 
HETATM    9  O   UNL     1     -12.011  15.576  68.605  1.00  0.00    -0.335 OA 
ENDBRANCH   6   7
ENDBRANCH   5   6
BRANCH   5  10
HETATM   10  C   UNL     1      -8.385  15.441  67.879  1.00  0.00    -0.144 C  
BRANCH  10  11
HETATM   11  C   UNL     1      -7.298  15.294  68.959  1.00  0.00    -0.157 C  
HETATM   12  O   UNL     1      -7.826  14.629  70.103  1.00  0.00    -0.330 OA 
HETATM   13  H   UNL     1      -7.155  14.538  70.769  1.00  0.00     0.000 HD 
ENDBRANCH  10  11
ENDBRANCH   5  10
ENDBRANCH   4   5
ENDBRANCH   2   4
TORSDOF 6
ENDMDL
MODEL      238
REMARK 921   NORMALIZED FREE ENERGY PREDICTED BY IDOCK:   -1.70 KCAL/MOL
REMARK 922        TOTAL FREE ENERGY PREDICTED BY IDOCK:   -2.78 KCAL/MOL
REMARK 923 INTER-LIGAND FREE ENERGY PREDICTED BY IDOCK:   -2.56 KCAL/MOL
REMARK 924 INTRA-LIGAND FREE ENERGY PREDICTED BY IDOCK:   -0.22 KCAL/MOL
REMARK 927      BINDING AFFINITY PREDICTED BY RF-SCORE:    0.00 PKD
ROOT
HETATM    1  O   UNL     1     -12.213   7.945  70.512  1.00  0.00    -0.487 OA 
HETATM    2  C   UNL     1     -10.903   7.461  70.806  1.00  0.00    -0.241 C  
HETATM    3  H   UNL     1     -12.821   7.593  71.152  1.00  0.00     0.000 HD 
ENDROOT
BRANCH   2   4
HETATM    4  C   UNL     1      -9.918   8.032  69.771  1.00  0.00    -0.191 C  
BRANCH   4   5
HETATM    5  N   UNL     1     -10.462   8.314  68.413  1.00  0.00    -0.193 NA 
BRANCH   5   6
HETATM    6  C   UNL     1     -10.253   9.755  68.082  1.00  0.00    -0.186 C  
BRANCH   6   7
HETATM    7  C   UNL     1     -10.948  10.761  69.020  1.00  0.00    -0.240 C  
HETATM    8  H   UNL     1     -12.701  11.646  69.154  1.00  0.00     0.000 HD 
HETATM    9  O   UNL     1     -12.273  11.025  68.575  1.00  0.00    -0.582 OA 
ENDBRANCH   6   7
ENDBRANCH   5   6
BRANCH   5  10
HETATM   10  C   UNL     1      -9.765   7.456  67.410  1.00  0.00    -0.153 C  
BRANCH  10  11
HETATM   11  C   UNL     1      -8.871   8.215  66.412  1.00  0.00    -0.155 C  
HETATM   12  O   UNL     1      -8.273   7.304  65.494  1.00  0.00    -0.129 OA 
HETATM   13  H   UNL     1      -7.722   7.773  64.878  1.00  0.00     0.000 HD 
ENDBRANCH  10  11
ENDBRANCH   5  10
ENDBRANCH   4   5
ENDBRANCH   2   4
TORSDOF 6
ENDMDL
MODEL      239
REMARK 921   NORMALIZED FREE ENERGY PREDICTED BY IDOCK:   -1.69 KCAL/MOL
REMARK 922        TOTAL FREE ENERGY PREDICTED BY IDOCK:   -2.76 KCAL/MOL
REMARK 923 INTER-LIGAND FREE ENERGY PREDICTED BY IDOCK:   -2.56 KCAL/MOL
REMARK 924 INTRA-LIGAND FREE ENERGY PREDICTED BY IDOCK:   -0.20 KCAL/MOL
REMARK 927      BINDING AFFINITY PREDICTED BY RF-SCORE:    0.00 PKD
ROOT
HETATM    1  O   UNL     1     -12.528  13.778  71.296  1.00  0.00    -0.349 OA 
HETATM    2  C   UNL     1     -11.537  14.683  70.809  1.00  0.00    -0.236 C  
HETATM    3  H   UNL     1     -12.426  13.688  72.236  1.00  0.00     0.000 HD 
ENDROOT
BRANCH   2   4
HETATM    4  C   UNL     1     -11.703  14.829  69.286  1.00  0.00    -0.316 C  
BRANCH   4   5
HETATM    5  N   UNL     1     -10.526  14.468  68.447  1.00  0.00    -0.240 NA 
BRANCH   5   6
HETATM    6  C   UNL     1      -9.269  14.751  69.201  1.00  0.00    -0.089 C  
BRANCH   6   7
HETATM    7  C   UNL     1      -8.554  16.066  68.834  1.00  0.00    -0.229 C  
HETATM    8  H   UNL     1      -6.767  16.858  69.068  1.00  0.00     0.000 HD 
HETATM    9  O   UNL     1      -7.208  16.047  69.295  1.00  0.00    -0.205 OA 
ENDBRANCH   6   7
ENDBRANCH   5   6
BRANCH   5  10
HETATM   10  C   UNL     1     -10.592  13.018  68.096  1.00  0.00    -0.245 C  
BRANCH  10  11
HETATM   11  C   UNL     1      -9.401  12.490  67.276  1.00  0.00    -0.190 C  
HETATM   12  O   UNL     1      -9.305  13.192  66.040  1.00  0.00    -0.458 OA 
HETATM   13  H   UNL     1      -8.570  12.866  65.534  1.00  0.00     0.000 HD 
ENDBRANCH  10  11
ENDBRANCH   5  10
ENDBRANCH   4   5
ENDBRANCH   2   4
TORSDOF 6
ENDMDL
MODEL      240
REMARK 921   NORMALIZED FREE ENERGY PREDICTED BY IDOCK:   -1.69 KCAL/MOL
REMARK 922        TOTAL FREE ENERGY PREDICTED BY IDOCK:   -2.76 KCAL/MOL
REMARK 923 INTER-LIGAND FREE ENERGY PREDICTED BY IDOCK:   -2.49 KCAL/MOL
REMARK 924 INTRA-LIGAND FREE ENERGY PREDICTED BY IDOCK:   -0.27 KCAL/MOL
REMARK 927      BINDING AFFINITY PREDICTED BY RF-SCORE:    0.00 PKD
ROOT
HETATM    1  O   UNL     1     -12.506   8.072  72.699  1.00  0.00    -0.575 OA 
HETATM    2  C   UNL     1     -12.468   7.010  71.747  1.00  0.00    -0.356 C  
HETATM    3  H   UNL     1     -13.293   7.986  73.224  1.00  0.00     0.000 HD 
ENDROOT
BRANCH   2   4
HETATM    4  C   UNL     1     -11.192   7.149  70.897  1.00  0.00    -0.276 C  
BRANCH   4   5
HETATM    5  N   UNL     1     -11.221   6.535  69.540  1.00  0.00    -0.366 NA 
BRANCH   5   6
HETATM    6  C   UNL     1     -10.561   7.451  68.563  1.00  0.00    -0.153 C  
BRANCH   6   7
HETATM    7  C   UNL     1      -9.853   8.677  69.173  1.00  0.00    -0.185 C  
HETATM    8  H   UNL     1      -8.037   9.435  69.202  1.00  0.00     0.000 HD 
HETATM    9  O   UNL     1      -8.473   8.679  68.826  1.00  0.00    -0.127 OA 
ENDBRANCH   6   7
ENDBRANCH   5   6
BRANCH   5  10
HETATM   10  C   UNL     1     -10.504   5.226  69.572  1.00  0.00    -0.234 C  
BRANCH  10  11
HETATM   11  C   UNL     1      -9.227   5.202  70.433  1.00  0.00    -0.148 C  
HETATM   12  O   UNL     1      -8.101   4.852  69.634  1.00  0.00    -0.072 OA 
HETATM   13  H   UNL     1      -7.313   4.838  70.165  1.00  0.00     0.000 HD 
ENDBRANCH  10  11
ENDBRANCH   5  10
ENDBRANCH   4   5
ENDBRANCH   2   4
TORSDOF 6
ENDMDL
MODEL      241
REMARK 921   NORMALIZED FREE ENERGY PREDICTED BY IDOCK:   -1.69 KCAL/MOL
REMARK 922        TOTAL FREE ENERGY PREDICTED BY IDOCK:   -2.76 KCAL/MOL
REMARK 923 INTER-LIGAND FREE ENERGY PREDICTED BY IDOCK:   -2.51 KCAL/MOL
REMARK 924 INTRA-LIGAND FREE ENERGY PREDICTED BY IDOCK:   -0.25 KCAL/MOL
REMARK 927      BINDING AFFINITY PREDICTED BY RF-SCORE:    0.00 PKD
ROOT
HETATM    1  O   UNL     1     -11.789   8.042  71.791  1.00  0.00    -0.270 OA 
HETATM    2  C   UNL     1     -12.387   6.993  71.030  1.00  0.00    -0.356 C  
HETATM    3  H   UNL     1     -12.416   8.352  72.433  1.00  0.00     0.000 HD 
ENDROOT
BRANCH   2   4
HETATM    4  C   UNL     1     -11.371   6.490  69.989  1.00  0.00    -0.410 C  
BRANCH   4   5
HETATM    5  N   UNL     1     -10.190   7.361  69.733  1.00  0.00    -0.204 NA 
BRANCH   5   6
HETATM    6  C   UNL     1      -8.967   6.515  69.596  1.00  0.00    -0.141 C  
BRANCH   6   7
HETATM    7  C   UNL     1      -8.636   5.622  70.808  1.00  0.00    -0.128 C  
HETATM    8  H   UNL     1      -8.277   3.716  71.148  1.00  0.00     0.000 HD 
HETATM    9  O   UNL     1      -8.481   4.267  70.401  1.00  0.00    -0.071 OA 
ENDBRANCH   6   7
ENDBRANCH   5   6
BRANCH   5  10
HETATM   10  C   UNL     1     -10.410   8.141  68.479  1.00  0.00    -0.198 C  
BRANCH  10  11
HETATM   11  C   UNL     1     -10.814   7.303  67.252  1.00  0.00    -0.284 C  
HETATM   12  O   UNL     1      -9.953   7.588  66.154  1.00  0.00    -0.451 OA 
HETATM   13  H   UNL     1     -10.202   7.071  65.398  1.00  0.00     0.000 HD 
ENDBRANCH  10  11
ENDBRANCH   5  10
ENDBRANCH   4   5
ENDBRANCH   2   4
TORSDOF 6
ENDMDL
MODEL      242
REMARK 921   NORMALIZED FREE ENERGY PREDICTED BY IDOCK:   -1.68 KCAL/MOL
REMARK 922        TOTAL FREE ENERGY PREDICTED BY IDOCK:   -2.76 KCAL/MOL
REMARK 923 INTER-LIGAND FREE ENERGY PREDICTED BY IDOCK:   -2.55 KCAL/MOL
REMARK 924 INTRA-LIGAND FREE ENERGY PREDICTED BY IDOCK:   -0.21 KCAL/MOL
REMARK 927      BINDING AFFINITY PREDICTED BY RF-SCORE:    0.00 PKD
ROOT
HETATM    1  O   UNL     1      -7.916   5.744  71.698  1.00  0.00    -0.113 OA 
HETATM    2  C   UNL     1      -8.740   4.662  72.132  1.00  0.00    -0.119 C  
HETATM    3  H   UNL     1      -7.085   5.699  72.156  1.00  0.00     0.000 HD 
ENDROOT
BRANCH   2   4
HETATM    4  C   UNL     1     -10.087   4.734  71.390  1.00  0.00    -0.189 C  
BRANCH   4   5
HETATM    5  N   UNL     1     -10.578   6.091  71.024  1.00  0.00    -0.235 NA 
BRANCH   5   6
HETATM    6  C   UNL     1     -10.912   6.125  69.569  1.00  0.00    -0.393 C  
BRANCH   6   7
HETATM    7  C   UNL     1      -9.858   5.508  68.629  1.00  0.00    -0.148 C  
HETATM    8  H   UNL     1      -8.804   6.071  67.065  1.00  0.00     0.000 HD 
HETATM    9  O   UNL     1      -9.454   6.452  67.644  1.00  0.00    -0.120 OA 
ENDBRANCH   6   7
ENDBRANCH   5   6
BRANCH   5  10
HETATM   10  C   UNL     1     -11.791   6.415  71.831  1.00  0.00    -0.329 C  
BRANCH  10  11
HETATM   11  C   UNL     1     -11.650   7.633  72.762  1.00  0.00    -0.281 C  
HETATM   12  O   UNL     1     -12.861   8.383  72.781  1.00  0.00    -0.626 OA 
HETATM   13  H   UNL     1     -12.773   9.135  73.356  1.00  0.00     0.000 HD 
ENDBRANCH  10  11
ENDBRANCH   5  10
ENDBRANCH   4   5
ENDBRANCH   2   4
TORSDOF 6
ENDMDL
MODEL      243
REMARK 921   NORMALIZED FREE ENERGY PREDICTED BY IDOCK:   -1.68 KCAL/MOL
REMARK 922        TOTAL FREE ENERGY PREDICTED BY IDOCK:   -2.76 KCAL/MOL
REMARK 923 INTER-LIGAND FREE ENERGY PREDICTED BY IDOCK:   -2.38 KCAL/MOL
REMARK 924 INTRA-LIGAND FREE ENERGY PREDICTED BY IDOCK:   -0.37 KCAL/MOL
REMARK 927      BINDING AFFINITY PREDICTED BY RF-SCORE:    0.00 PKD
ROOT
HETATM    1  O   UNL     1     -11.287   7.641  69.107  1.00  0.00    -0.411 OA 
HETATM    2  C   UNL     1     -11.130   6.222  69.093  1.00  0.00    -0.390 C  
HETATM    3  H   UNL     1     -11.359   7.951  68.212  1.00  0.00     0.000 HD 
ENDROOT
BRANCH   2   4
HETATM    4  C   UNL     1     -11.013   5.720  70.543  1.00  0.00    -0.249 C  
BRANCH   4   5
HETATM    5  N   UNL     1      -9.639   5.618  71.107  1.00  0.00    -0.165 NA 
BRANCH   5   6
HETATM    6  C   UNL     1      -9.136   6.982  71.446  1.00  0.00    -0.147 C  
BRANCH   6   7
HETATM    7  C   UNL     1      -7.945   7.480  70.604  1.00  0.00    -0.100 C  
HETATM    8  H   UNL     1      -7.659   8.644  69.042  1.00  0.00     0.000 HD 
HETATM    9  O   UNL     1      -8.394   8.337  69.561  1.00  0.00    -0.118 OA 
ENDBRANCH   6   7
ENDBRANCH   5   6
BRANCH   5  10
HETATM   10  C   UNL     1      -9.668   4.769  72.335  1.00  0.00    -0.155 C  
BRANCH  10  11
HETATM   11  C   UNL     1     -11.047   4.638  73.005  1.00  0.00    -0.245 C  
HETATM   12  O   UNL     1     -11.156   5.554  74.091  1.00  0.00    -0.403 OA 
HETATM   13  H   UNL     1     -12.008   5.473  74.504  1.00  0.00     0.000 HD 
ENDBRANCH  10  11
ENDBRANCH   5  10
ENDBRANCH   4   5
ENDBRANCH   2   4
TORSDOF 6
ENDMDL
MODEL      244
REMARK 921   NORMALIZED FREE ENERGY PREDICTED BY IDOCK:   -1.66 KCAL/MOL
REMARK 922        TOTAL FREE ENERGY PREDICTED BY IDOCK:   -2.73 KCAL/MOL
REMARK 923 INTER-LIGAND FREE ENERGY PREDICTED BY IDOCK:   -2.56 KCAL/MOL
REMARK 924 INTRA-LIGAND FREE ENERGY PREDICTED BY IDOCK:   -0.17 KCAL/MOL
REMARK 927      BINDING AFFINITY PREDICTED BY RF-SCORE:    0.00 PKD
ROOT
HETATM    1  O   UNL     1      -8.532  11.214  67.293  1.00  0.00    -0.132 OA 
HETATM    2  C   UNL     1      -9.327  11.438  66.129  1.00  0.00    -0.215 C  
HETATM    3  H   UNL     1      -8.026  10.420  67.170  1.00  0.00     0.000 HD 
ENDROOT
BRANCH   2   4
HETATM    4  C   UNL     1     -10.148  12.725  66.326  1.00  0.00    -0.259 C  
BRANCH   4   5
HETATM    5  N   UNL     1     -10.123  13.333  67.686  1.00  0.00    -0.225 NA 
BRANCH   5   6
HETATM    6  C   UNL     1      -9.237  14.535  67.678  1.00  0.00    -0.195 C  
BRANCH   6   7
HETATM    7  C   UNL     1      -8.012  14.465  68.612  1.00  0.00    -0.145 C  
HETATM    8  H   UNL     1      -6.983  15.701  69.747  1.00  0.00     0.000 HD 
HETATM    9  O   UNL     1      -7.738  15.744  69.171  1.00  0.00    -0.189 OA 
ENDBRANCH   6   7
ENDBRANCH   5   6
BRANCH   5  10
HETATM   10  C   UNL     1     -11.508  13.726  68.080  1.00  0.00    -0.310 C  
BRANCH  10  11
HETATM   11  C   UNL     1     -11.636  14.341  69.486  1.00  0.00    -0.301 C  
HETATM   12  O   UNL     1     -12.862  15.057  69.601  1.00  0.00    -0.585 OA 
HETATM   13  H   UNL     1     -12.941  15.435  70.469  1.00  0.00     0.000 HD 
ENDBRANCH  10  11
ENDBRANCH   5  10
ENDBRANCH   4   5
ENDBRANCH   2   4
TORSDOF 6
ENDMDL
MODEL      245
REMARK 921   NORMALIZED FREE ENERGY PREDICTED BY IDOCK:   -1.66 KCAL/MOL
REMARK 922        TOTAL FREE ENERGY PREDICTED BY IDOCK:   -2.72 KCAL/MOL
REMARK 923 INTER-LIGAND FREE ENERGY PREDICTED BY IDOCK:   -2.22 KCAL/MOL
REMARK 924 INTRA-LIGAND FREE ENERGY PREDICTED BY IDOCK:   -0.50 KCAL/MOL
REMARK 927      BINDING AFFINITY PREDICTED BY RF-SCORE:    0.00 PKD
ROOT
HETATM    1  O   UNL     1      -9.851   6.566  68.409  1.00  0.00    -0.134 OA 
HETATM    2  C   UNL     1     -10.615   7.752  68.193  1.00  0.00    -0.124 C  
HETATM    3  H   UNL     1      -9.938   6.002  67.650  1.00  0.00     0.000 HD 
ENDROOT
BRANCH   2   4
HETATM    4  C   UNL     1     -10.473   8.666  69.423  1.00  0.00    -0.218 C  
BRANCH   4   5
HETATM    5  N   UNL     1     -10.311   7.994  70.742  1.00  0.00    -0.198 NA 
BRANCH   5   6
HETATM    6  C   UNL     1      -8.990   8.363  71.332  1.00  0.00    -0.186 C  
BRANCH   6   7
HETATM    7  C   UNL     1      -7.955   7.224  71.411  1.00  0.00    -0.097 C  
HETATM    8  H   UNL     1      -7.930   5.269  71.178  1.00  0.00     0.000 HD 
HETATM    9  O   UNL     1      -8.569   5.971  71.129  1.00  0.00    -0.127 OA 
ENDBRANCH   6   7
ENDBRANCH   5   6
BRANCH   5  10
HETATM   10  C   UNL     1     -11.412   8.421  71.656  1.00  0.00    -0.287 C  
BRANCH  10  11
HETATM   11  C   UNL     1     -12.783   7.781  71.369  1.00  0.00    -0.308 C  
HETATM   12  O   UNL     1     -13.788   8.788  71.280  1.00  0.00    -0.546 OA 
HETATM   13  H   UNL     1     -14.633   8.393  71.102  1.00  0.00     0.000 HD 
ENDBRANCH  10  11
ENDBRANCH   5  10
ENDBRANCH   4   5
ENDBRANCH   2   4
TORSDOF 6
ENDMDL
MODEL      246
REMARK 921   NORMALIZED FREE ENERGY PREDICTED BY IDOCK:   -1.65 KCAL/MOL
REMARK 922        TOTAL FREE ENERGY PREDICTED BY IDOCK:   -2.71 KCAL/MOL
REMARK 923 INTER-LIGAND FREE ENERGY PREDICTED BY IDOCK:   -2.53 KCAL/MOL
REMARK 924 INTRA-LIGAND FREE ENERGY PREDICTED BY IDOCK:   -0.18 KCAL/MOL
REMARK 927      BINDING AFFINITY PREDICTED BY RF-SCORE:    0.00 PKD
ROOT
HETATM    1  O   UNL     1     -12.468  10.171  70.948  1.00  0.00    -0.317 OA 
HETATM    2  C   UNL     1     -12.110   9.053  71.759  1.00  0.00    -0.368 C  
HETATM    3  H   UNL     1     -13.237  10.587  71.320  1.00  0.00     0.000 HD 
ENDROOT
BRANCH   2   4
HETATM    4  C   UNL     1     -10.864   8.379  71.157  1.00  0.00    -0.237 C  
BRANCH   4   5
HETATM    5  N   UNL     1     -11.056   7.635  69.881  1.00  0.00    -0.202 NA 
BRANCH   5   6
HETATM    6  C   UNL     1     -10.050   8.095  68.879  1.00  0.00    -0.202 C  
BRANCH   6   7
HETATM    7  C   UNL     1     -10.535   8.131  67.416  1.00  0.00    -0.285 C  
HETATM    8  H   UNL     1      -9.976   7.378  65.685  1.00  0.00     0.000 HD 
HETATM    9  O   UNL     1      -9.676   7.357  66.587  1.00  0.00    -0.197 OA 
ENDBRANCH   6   7
ENDBRANCH   5   6
BRANCH   5  10
HETATM   10  C   UNL     1     -10.893   6.172  70.130  1.00  0.00    -0.329 C  
BRANCH  10  11
HETATM   11  C   UNL     1      -9.941   5.809  71.284  1.00  0.00    -0.191 C  
HETATM   12  O   UNL     1     -10.526   4.806  72.109  1.00  0.00    -0.205 OA 
HETATM   13  H   UNL     1      -9.938   4.581  72.821  1.00  0.00     0.000 HD 
ENDBRANCH  10  11
ENDBRANCH   5  10
ENDBRANCH   4   5
ENDBRANCH   2   4
TORSDOF 6
ENDMDL
MODEL      247
REMARK 921   NORMALIZED FREE ENERGY PREDICTED BY IDOCK:   -1.65 KCAL/MOL
REMARK 922        TOTAL FREE ENERGY PREDICTED BY IDOCK:   -2.71 KCAL/MOL
REMARK 923 INTER-LIGAND FREE ENERGY PREDICTED BY IDOCK:   -2.57 KCAL/MOL
REMARK 924 INTRA-LIGAND FREE ENERGY PREDICTED BY IDOCK:   -0.14 KCAL/MOL
REMARK 927      BINDING AFFINITY PREDICTED BY RF-SCORE:    0.00 PKD
ROOT
HETATM    1  O   UNL     1     -12.234   6.084  72.675  1.00  0.00    -0.540 OA 
HETATM    2  C   UNL     1     -11.169   5.187  72.988  1.00  0.00    -0.322 C  
HETATM    3  H   UNL     1     -12.910   6.001  73.338  1.00  0.00     0.000 HD 
ENDROOT
BRANCH   2   4
HETATM    4  C   UNL     1     -10.073   5.322  71.916  1.00  0.00    -0.197 C  
BRANCH   4   5
HETATM    5  N   UNL     1      -9.451   6.666  71.759  1.00  0.00    -0.152 NA 
BRANCH   5   6
HETATM    6  C   UNL     1      -7.966   6.526  71.703  1.00  0.00    -0.104 C  
BRANCH   6   7
HETATM    7  C   UNL     1      -7.396   5.232  72.316  1.00  0.00    -0.093 C  
HETATM    8  H   UNL     1      -7.043   4.514  74.114  1.00  0.00     0.000 HD 
HETATM    9  O   UNL     1      -7.394   5.311  73.736  1.00  0.00    -0.085 OA 
ENDBRANCH   6   7
ENDBRANCH   5   6
BRANCH   5  10
HETATM   10  C   UNL     1      -9.949   7.301  70.503  1.00  0.00    -0.190 C  
BRANCH  10  11
HETATM   11  C   UNL     1     -10.640   6.342  69.517  1.00  0.00    -0.271 C  
HETATM   12  O   UNL     1     -12.004   6.713  69.342  1.00  0.00    -0.611 OA 
HETATM   13  H   UNL     1     -12.430   6.121  68.733  1.00  0.00     0.000 HD 
ENDBRANCH  10  11
ENDBRANCH   5  10
ENDBRANCH   4   5
ENDBRANCH   2   4
TORSDOF 6
ENDMDL
MODEL      248
REMARK 921   NORMALIZED FREE ENERGY PREDICTED BY IDOCK:   -1.63 KCAL/MOL
REMARK 922        TOTAL FREE ENERGY PREDICTED BY IDOCK:   -2.69 KCAL/MOL
REMARK 923 INTER-LIGAND FREE ENERGY PREDICTED BY IDOCK:   -2.50 KCAL/MOL
REMARK 924 INTRA-LIGAND FREE ENERGY PREDICTED BY IDOCK:   -0.18 KCAL/MOL
REMARK 927      BINDING AFFINITY PREDICTED BY RF-SCORE:    0.00 PKD
ROOT
HETATM    1  O   UNL     1      -7.375  10.603  70.128  1.00  0.00    -0.378 OA 
HETATM    2  C   UNL     1      -8.209   9.470  70.368  1.00  0.00    -0.190 C  
HETATM    3  H   UNL     1      -7.034  10.915  70.958  1.00  0.00     0.000 HD 
ENDROOT
BRANCH   2   4
HETATM    4  C   UNL     1      -8.761   8.965  69.023  1.00  0.00    -0.136 C  
BRANCH   4   5
HETATM    5  N   UNL     1     -10.240   8.831  68.914  1.00  0.00    -0.203 NA 
BRANCH   5   6
HETATM    6  C   UNL     1     -10.895  10.026  69.525  1.00  0.00    -0.253 C  
BRANCH   6   7
HETATM    7  C   UNL     1     -11.837   9.735  70.710  1.00  0.00    -0.319 C  
HETATM    8  H   UNL     1     -13.083  10.744  71.852  1.00  0.00     0.000 HD 
HETATM    9  O   UNL     1     -12.503  10.923  71.121  1.00  0.00    -0.360 OA 
ENDBRANCH   6   7
ENDBRANCH   5   6
BRANCH   5  10
HETATM   10  C   UNL     1     -10.624   8.722  67.475  1.00  0.00    -0.228 C  
BRANCH  10  11
HETATM   11  C   UNL     1      -9.582   9.262  66.479  1.00  0.00    -0.224 C  
HETATM   12  O   UNL     1      -9.920  10.588  66.082  1.00  0.00    -0.210 OA 
HETATM   13  H   UNL     1      -9.277  10.921  65.468  1.00  0.00     0.000 HD 
ENDBRANCH  10  11
ENDBRANCH   5  10
ENDBRANCH   4   5
ENDBRANCH   2   4
TORSDOF 6
ENDMDL
MODEL      249
REMARK 921   NORMALIZED FREE ENERGY PREDICTED BY IDOCK:   -1.62 KCAL/MOL
REMARK 922        TOTAL FREE ENERGY PREDICTED BY IDOCK:   -2.68 KCAL/MOL
REMARK 923 INTER-LIGAND FREE ENERGY PREDICTED BY IDOCK:   -2.55 KCAL/MOL
REMARK 924 INTRA-LIGAND FREE ENERGY PREDICTED BY IDOCK:   -0.13 KCAL/MOL
REMARK 927      BINDING AFFINITY PREDICTED BY RF-SCORE:    0.00 PKD
ROOT
HETATM    1  O   UNL     1     -10.756   8.727  68.454  1.00  0.00    -0.387 OA 
HETATM    2  C   UNL     1     -10.192  10.024  68.648  1.00  0.00    -0.180 C  
HETATM    3  H   UNL     1     -10.719   8.250  69.275  1.00  0.00     0.000 HD 
ENDROOT
BRANCH   2   4
HETATM    4  C   UNL     1     -10.252  10.796  67.319  1.00  0.00    -0.205 C  
BRANCH   4   5
HETATM    5  N   UNL     1     -10.547  12.254  67.404  1.00  0.00    -0.219 NA 
BRANCH   5   6
HETATM    6  C   UNL     1     -11.029  12.586  68.777  1.00  0.00    -0.253 C  
BRANCH   6   7
HETATM    7  C   UNL     1     -12.285  13.477  68.845  1.00  0.00    -0.159 C  
HETATM    8  H   UNL     1     -12.807  15.290  68.284  1.00  0.00     0.000 HD 
HETATM    9  O   UNL     1     -12.033  14.741  68.242  1.00  0.00    -0.298 OA 
ENDBRANCH   6   7
ENDBRANCH   5   6
BRANCH   5  10
HETATM   10  C   UNL     1      -9.309  13.030  67.099  1.00  0.00    -0.230 C  
BRANCH  10  11
HETATM   11  C   UNL     1      -9.490  14.175  66.086  1.00  0.00    -0.203 C  
HETATM   12  O   UNL     1      -8.434  15.122  66.219  1.00  0.00    -0.416 OA 
HETATM   13  H   UNL     1      -8.546  15.829  65.593  1.00  0.00     0.000 HD 
ENDBRANCH  10  11
ENDBRANCH   5  10
ENDBRANCH   4   5
ENDBRANCH   2   4
TORSDOF 6
ENDMDL
MODEL      250
REMARK 921   NORMALIZED FREE ENERGY PREDICTED BY IDOCK:   -1.62 KCAL/MOL
REMARK 922        TOTAL FREE ENERGY PREDICTED BY IDOCK:   -2.67 KCAL/MOL
REMARK 923 INTER-LIGAND FREE ENERGY PREDICTED BY IDOCK:   -2.31 KCAL/MOL
REMARK 924 INTRA-LIGAND FREE ENERGY PREDICTED BY IDOCK:   -0.36 KCAL/MOL
REMARK 927      BINDING AFFINITY PREDICTED BY RF-SCORE:    0.00 PKD
ROOT
HETATM    1  O   UNL     1      -9.040   8.730  68.103  1.00  0.00    -0.140 OA 
HETATM    2  C   UNL     1      -9.253   7.333  68.305  1.00  0.00    -0.133 C  
HETATM    3  H   UNL     1      -9.406   8.978  67.262  1.00  0.00     0.000 HD 
ENDROOT
BRANCH   2   4
HETATM    4  C   UNL     1      -8.661   6.931  69.668  1.00  0.00    -0.134 C  
BRANCH   4   5
HETATM    5  N   UNL     1      -9.551   6.168  70.586  1.00  0.00    -0.171 NA 
BRANCH   5   6
HETATM    6  C   UNL     1      -9.307   6.602  71.994  1.00  0.00    -0.142 C  
BRANCH   6   7
HETATM    7  C   UNL     1      -8.175   7.631  72.186  1.00  0.00    -0.106 C  
HETATM    8  H   UNL     1      -7.911   9.334  73.137  1.00  0.00     0.000 HD 
HETATM    9  O   UNL     1      -8.609   8.700  73.018  1.00  0.00    -0.395 OA 
ENDBRANCH   6   7
ENDBRANCH   5   6
BRANCH   5  10
HETATM   10  C   UNL     1     -10.976   6.418  70.218  1.00  0.00    -0.318 C  
BRANCH  10  11
HETATM   11  C   UNL     1     -11.709   7.442  71.104  1.00  0.00    -0.294 C  
HETATM   12  O   UNL     1     -11.857   8.678  70.411  1.00  0.00    -0.475 OA 
HETATM   13  H   UNL     1     -12.310   9.309  70.958  1.00  0.00     0.000 HD 
ENDBRANCH  10  11
ENDBRANCH   5  10
ENDBRANCH   4   5
ENDBRANCH   2   4
TORSDOF 6
ENDMDL
MODEL      251
REMARK 921   NORMALIZED FREE ENERGY PREDICTED BY IDOCK:   -1.59 KCAL/MOL
REMARK 922        TOTAL FREE ENERGY PREDICTED BY IDOCK:   -2.63 KCAL/MOL
REMARK 923 INTER-LIGAND FREE ENERGY PREDICTED BY IDOCK:   -2.48 KCAL/MOL
REMARK 924 INTRA-LIGAND FREE ENERGY PREDICTED BY IDOCK:   -0.15 KCAL/MOL
REMARK 927      BINDING AFFINITY PREDICTED BY RF-SCORE:    0.00 PKD
ROOT
HETATM    1  O   UNL     1     -12.687   6.897  70.378  1.00  0.00    -0.565 OA 
HETATM    2  C   UNL     1     -12.673   7.525  71.660  1.00  0.00    -0.355 C  
HETATM    3  H   UNL     1     -13.399   6.269  70.352  1.00  0.00     0.000 HD 
ENDROOT
BRANCH   2   4
HETATM    4  C   UNL     1     -11.519   8.542  71.704  1.00  0.00    -0.298 C  
BRANCH   4   5
HETATM    5  N   UNL     1     -10.219   8.057  72.245  1.00  0.00    -0.236 NA 
BRANCH   5   6
HETATM    6  C   UNL     1     -10.468   7.135  73.393  1.00  0.00    -0.368 C  
BRANCH   6   7
HETATM    7  C   UNL     1      -9.980   5.686  73.202  1.00  0.00    -0.175 C  
HETATM    8  H   UNL     1      -8.615   4.503  73.984  1.00  0.00     0.000 HD 
HETATM    9  O   UNL     1      -8.916   5.396  74.102  1.00  0.00    -0.119 OA 
ENDBRANCH   6   7
ENDBRANCH   5   6
BRANCH   5  10
HETATM   10  C   UNL     1      -9.471   7.338  71.171  1.00  0.00    -0.156 C  
BRANCH  10  11
HETATM   11  C   UNL     1      -8.094   7.935  70.824  1.00  0.00    -0.101 C  
HETATM   12  O   UNL     1      -8.187   8.741  69.654  1.00  0.00    -0.107 OA 
HETATM   13  H   UNL     1      -7.338   9.109  69.440  1.00  0.00     0.000 HD 
ENDBRANCH  10  11
ENDBRANCH   5  10
ENDBRANCH   4   5
ENDBRANCH   2   4
TORSDOF 6
ENDMDL
MODEL      252
REMARK 921   NORMALIZED FREE ENERGY PREDICTED BY IDOCK:   -1.58 KCAL/MOL
REMARK 922        TOTAL FREE ENERGY PREDICTED BY IDOCK:   -2.62 KCAL/MOL
REMARK 923 INTER-LIGAND FREE ENERGY PREDICTED BY IDOCK:   -2.22 KCAL/MOL
REMARK 924 INTRA-LIGAND FREE ENERGY PREDICTED BY IDOCK:   -0.40 KCAL/MOL
REMARK 927      BINDING AFFINITY PREDICTED BY RF-SCORE:    0.00 PKD
ROOT
HETATM    1  O   UNL     1      -6.861   5.825  69.397  1.00  0.00    -0.057 OA 
HETATM    2  C   UNL     1      -8.279   5.695  69.499  1.00  0.00    -0.103 C  
HETATM    3  H   UNL     1      -6.489   5.821  70.271  1.00  0.00     0.000 HD 
ENDROOT
BRANCH   2   4
HETATM    4  C   UNL     1      -8.882   5.701  68.083  1.00  0.00    -0.108 C  
BRANCH   4   5
HETATM    5  N   UNL     1      -9.785   6.836  67.744  1.00  0.00    -0.123 NA 
BRANCH   5   6
HETATM    6  C   UNL     1      -8.973   7.994  67.265  1.00  0.00    -0.138 C  
BRANCH   6   7
HETATM    7  C   UNL     1      -7.697   7.633  66.479  1.00  0.00    -0.097 C  
HETATM    8  H   UNL     1      -5.753   7.851  66.693  1.00  0.00     0.000 HD 
HETATM    9  O   UNL     1      -6.539   8.074  67.178  1.00  0.00    -0.055 OA 
ENDBRANCH   6   7
ENDBRANCH   5   6
BRANCH   5  10
HETATM   10  C   UNL     1     -10.740   6.411  66.679  1.00  0.00    -0.200 C  
BRANCH  10  11
HETATM   11  C   UNL     1     -10.660   4.924  66.286  1.00  0.00    -0.255 C  
HETATM   12  O   UNL     1     -11.442   4.678  65.122  1.00  0.00    -1.082 OA 
HETATM   13  H   UNL     1     -11.392   3.761  64.880  1.00  0.00     0.000 HD 
ENDBRANCH  10  11
ENDBRANCH   5  10
ENDBRANCH   4   5
ENDBRANCH   2   4
TORSDOF 6
ENDMDL
MODEL      253
REMARK 921   NORMALIZED FREE ENERGY PREDICTED BY IDOCK:   -1.58 KCAL/MOL
REMARK 922        TOTAL FREE ENERGY PREDICTED BY IDOCK:   -2.62 KCAL/MOL
REMARK 923 INTER-LIGAND FREE ENERGY PREDICTED BY IDOCK:   -2.22 KCAL/MOL
REMARK 924 INTRA-LIGAND FREE ENERGY PREDICTED BY IDOCK:   -0.41 KCAL/MOL
REMARK 927      BINDING AFFINITY PREDICTED BY RF-SCORE:    0.00 PKD
ROOT
HETATM    1  O   UNL     1      -9.038   7.737  65.279  1.00  0.00    -0.384 OA 
HETATM    2  C   UNL     1      -9.460   7.274  66.561  1.00  0.00    -0.163 C  
HETATM    3  H   UNL     1      -8.322   7.192  64.976  1.00  0.00     0.000 HD 
ENDROOT
BRANCH   2   4
HETATM    4  C   UNL     1     -10.620   8.158  67.053  1.00  0.00    -0.275 C  
BRANCH   4   5
HETATM    5  N   UNL     1     -10.468   8.771  68.402  1.00  0.00    -0.200 NA 
BRANCH   5   6
HETATM    6  C   UNL     1      -9.036   8.714  68.819  1.00  0.00    -0.138 C  
BRANCH   6   7
HETATM    7  C   UNL     1      -8.646   9.635  69.991  1.00  0.00    -0.215 C  
HETATM    8  H   UNL     1      -7.514  11.221  70.273  1.00  0.00     0.000 HD 
HETATM    9  O   UNL     1      -7.755  10.653  69.551  1.00  0.00    -0.149 OA 
ENDBRANCH   6   7
ENDBRANCH   5   6
BRANCH   5  10
HETATM   10  C   UNL     1     -10.928  10.191  68.357  1.00  0.00    -0.244 C  
BRANCH  10  11
HETATM   11  C   UNL     1     -10.751  10.891  66.997  1.00  0.00    -0.271 C  
HETATM   12  O   UNL     1      -9.461  11.489  66.915  1.00  0.00    -0.177 OA 
HETATM   13  H   UNL     1      -9.352  11.920  66.075  1.00  0.00     0.000 HD 
ENDBRANCH  10  11
ENDBRANCH   5  10
ENDBRANCH   4   5
ENDBRANCH   2   4
TORSDOF 6
ENDMDL
MODEL      254
REMARK 921   NORMALIZED FREE ENERGY PREDICTED BY IDOCK:   -1.57 KCAL/MOL
REMARK 922        TOTAL FREE ENERGY PREDICTED BY IDOCK:   -2.61 KCAL/MOL
REMARK 923 INTER-LIGAND FREE ENERGY PREDICTED BY IDOCK:   -2.13 KCAL/MOL
REMARK 924 INTRA-LIGAND FREE ENERGY PREDICTED BY IDOCK:   -0.48 KCAL/MOL
REMARK 927      BINDING AFFINITY PREDICTED BY RF-SCORE:    0.00 PKD
ROOT
HETATM    1  O   UNL     1     -10.292   6.536  67.461  1.00  0.00    -0.154 OA 
HETATM    2  C   UNL     1     -10.597   7.903  67.188  1.00  0.00    -0.313 C  
HETATM    3  H   UNL     1     -10.939   5.986  67.035  1.00  0.00     0.000 HD 
ENDROOT
BRANCH   2   4
HETATM    4  C   UNL     1      -9.549   8.795  67.877  1.00  0.00    -0.145 C  
BRANCH   4   5
HETATM    5  N   UNL     1      -9.275   8.517  69.315  1.00  0.00    -0.153 NA 
BRANCH   5   6
HETATM    6  C   UNL     1      -7.836   8.158  69.488  1.00  0.00    -0.104 C  
BRANCH   6   7
HETATM    7  C   UNL     1      -7.554   6.680  69.822  1.00  0.00    -0.104 C  
HETATM    8  H   UNL     1      -8.596   5.075  70.287  1.00  0.00     0.000 HD 
HETATM    9  O   UNL     1      -8.769   5.987  70.080  1.00  0.00    -0.135 OA 
ENDBRANCH   6   7
ENDBRANCH   5   6
BRANCH   5  10
HETATM   10  C   UNL     1      -9.597   9.728  70.126  1.00  0.00    -0.237 C  
BRANCH  10  11
HETATM   11  C   UNL     1     -11.077  10.155  70.101  1.00  0.00    -0.315 C  
HETATM   12  O   UNL     1     -11.179  11.570  69.968  1.00  0.00    -0.469 OA 
HETATM   13  H   UNL     1     -12.092  11.833  69.953  1.00  0.00     0.000 HD 
ENDBRANCH  10  11
ENDBRANCH   5  10
ENDBRANCH   4   5
ENDBRANCH   2   4
TORSDOF 6
ENDMDL
MODEL      255
REMARK 921   NORMALIZED FREE ENERGY PREDICTED BY IDOCK:   -1.57 KCAL/MOL
REMARK 922        TOTAL FREE ENERGY PREDICTED BY IDOCK:   -2.60 KCAL/MOL
REMARK 923 INTER-LIGAND FREE ENERGY PREDICTED BY IDOCK:   -2.40 KCAL/MOL
REMARK 924 INTRA-LIGAND FREE ENERGY PREDICTED BY IDOCK:   -0.21 KCAL/MOL
REMARK 927      BINDING AFFINITY PREDICTED BY RF-SCORE:    0.00 PKD
ROOT
HETATM    1  O   UNL     1      -8.665   8.888  72.039  1.00  0.00    -0.365 OA 
HETATM    2  C   UNL     1      -9.207   9.400  70.822  1.00  0.00    -0.213 C  
HETATM    3  H   UNL     1      -8.620   9.592  72.675  1.00  0.00     0.000 HD 
ENDROOT
BRANCH   2   4
HETATM    4  C   UNL     1      -9.281   8.260  69.791  1.00  0.00    -0.154 C  
BRANCH   4   5
HETATM    5  N   UNL     1      -8.895   8.595  68.393  1.00  0.00    -0.142 NA 
BRANCH   5   6
HETATM    6  C   UNL     1      -9.395   7.534  67.469  1.00  0.00    -0.138 C  
BRANCH   6   7
HETATM    7  C   UNL     1      -8.329   6.876  66.571  1.00  0.00    -0.121 C  
HETATM    8  H   UNL     1      -8.271   5.517  65.148  1.00  0.00     0.000 HD 
HETATM    9  O   UNL     1      -8.929   5.922  65.702  1.00  0.00    -0.152 OA 
ENDBRANCH   6   7
ENDBRANCH   5   6
BRANCH   5  10
HETATM   10  C   UNL     1      -9.485   9.914  68.017  1.00  0.00    -0.134 C  
BRANCH  10  11
HETATM   11  C   UNL     1     -10.900   9.848  67.415  1.00  0.00    -0.227 C  
HETATM   12  O   UNL     1     -11.834  10.489  68.279  1.00  0.00    -0.751 OA 
HETATM   13  H   UNL     1     -12.707  10.449  67.907  1.00  0.00     0.000 HD 
ENDBRANCH  10  11
ENDBRANCH   5  10
ENDBRANCH   4   5
ENDBRANCH   2   4
TORSDOF 6
ENDMDL
MODEL      256
REMARK 921   NORMALIZED FREE ENERGY PREDICTED BY IDOCK:   -1.57 KCAL/MOL
REMARK 922        TOTAL FREE ENERGY PREDICTED BY IDOCK:   -2.60 KCAL/MOL
REMARK 923 INTER-LIGAND FREE ENERGY PREDICTED BY IDOCK:   -2.43 KCAL/MOL
REMARK 924 INTRA-LIGAND FREE ENERGY PREDICTED BY IDOCK:   -0.17 KCAL/MOL
REMARK 927      BINDING AFFINITY PREDICTED BY RF-SCORE:    0.00 PKD
ROOT
HETATM    1  O   UNL     1     -12.510   6.605  72.557  1.00  0.00    -0.509 OA 
HETATM    2  C   UNL     1     -11.410   5.740  72.836  1.00  0.00    -0.252 C  
HETATM    3  H   UNL     1     -13.173   6.484  73.226  1.00  0.00     0.000 HD 
ENDROOT
BRANCH   2   4
HETATM    4  C   UNL     1     -10.335   5.936  71.752  1.00  0.00    -0.216 C  
BRANCH   4   5
HETATM    5  N   UNL     1     -10.599   5.312  70.426  1.00  0.00    -0.249 NA 
BRANCH   5   6
HETATM    6  C   UNL     1     -10.539   6.357  69.362  1.00  0.00    -0.257 C  
BRANCH   6   7
HETATM    7  C   UNL     1     -10.722   5.849  67.918  1.00  0.00    -0.255 C  
HETATM    8  H   UNL     1     -11.164   6.612  66.158  1.00  0.00     0.000 HD 
HETATM    9  O   UNL     1     -11.051   6.926  67.048  1.00  0.00    -0.389 OA 
ENDBRANCH   6   7
ENDBRANCH   5   6
BRANCH   5  10
HETATM   10  C   UNL     1      -9.575   4.258  70.160  1.00  0.00    -0.198 C  
BRANCH  10  11
HETATM   11  C   UNL     1      -8.126   4.659  70.490  1.00  0.00    -0.068 C  
HETATM   12  O   UNL     1      -7.417   3.546  71.028  1.00  0.00    -0.037 OA 
HETATM   13  H   UNL     1      -6.522   3.793  71.231  1.00  0.00     0.000 HD 
ENDBRANCH  10  11
ENDBRANCH   5  10
ENDBRANCH   4   5
ENDBRANCH   2   4
TORSDOF 6
ENDMDL
MODEL      257
REMARK 921   NORMALIZED FREE ENERGY PREDICTED BY IDOCK:   -1.55 KCAL/MOL
REMARK 922        TOTAL FREE ENERGY PREDICTED BY IDOCK:   -2.57 KCAL/MOL
REMARK 923 INTER-LIGAND FREE ENERGY PREDICTED BY IDOCK:   -2.40 KCAL/MOL
REMARK 924 INTRA-LIGAND FREE ENERGY PREDICTED BY IDOCK:   -0.18 KCAL/MOL
REMARK 927      BINDING AFFINITY PREDICTED BY RF-SCORE:    0.00 PKD
ROOT
HETATM    1  O   UNL     1     -10.856   5.708  66.037  1.00  0.00    -0.598 OA 
HETATM    2  C   UNL     1     -11.272   6.202  67.311  1.00  0.00    -0.078 C  
HETATM    3  H   UNL     1     -11.233   4.847  65.904  1.00  0.00     0.000 HD 
ENDROOT
BRANCH   2   4
HETATM    4  C   UNL     1     -10.661   7.598  67.527  1.00  0.00    -0.252 C  
BRANCH   4   5
HETATM    5  N   UNL     1      -9.764   8.110  66.454  1.00  0.00    -0.226 NA 
BRANCH   5   6
HETATM    6  C   UNL     1     -10.061   9.551  66.200  1.00  0.00    -0.256 C  
BRANCH   6   7
HETATM    7  C   UNL     1     -10.744  10.304  67.358  1.00  0.00    -0.281 C  
HETATM    8  H   UNL     1     -11.861  11.909  67.584  1.00  0.00     0.000 HD 
HETATM    9  O   UNL     1     -11.439  11.445  66.870  1.00  0.00    -0.445 OA 
ENDBRANCH   6   7
ENDBRANCH   5   6
BRANCH   5  10
HETATM   10  C   UNL     1      -8.341   7.952  66.879  1.00  0.00    -0.116 C  
BRANCH  10  11
HETATM   11  C   UNL     1      -7.384   9.047  66.372  1.00  0.00    -0.088 C  
HETATM   12  O   UNL     1      -6.185   9.049  67.142  1.00  0.00    -0.057 OA 
HETATM   13  H   UNL     1      -5.595   9.724  66.829  1.00  0.00     0.000 HD 
ENDBRANCH  10  11
ENDBRANCH   5  10
ENDBRANCH   4   5
ENDBRANCH   2   4
TORSDOF 6
ENDMDL
MODEL      258
REMARK 921   NORMALIZED FREE ENERGY PREDICTED BY IDOCK:   -1.54 KCAL/MOL
REMARK 922        TOTAL FREE ENERGY PREDICTED BY IDOCK:   -2.56 KCAL/MOL
REMARK 923 INTER-LIGAND FREE ENERGY PREDICTED BY IDOCK:   -2.34 KCAL/MOL
REMARK 924 INTRA-LIGAND FREE ENERGY PREDICTED BY IDOCK:   -0.22 KCAL/MOL
REMARK 927      BINDING AFFINITY PREDICTED BY RF-SCORE:    0.00 PKD
ROOT
HETATM    1  O   UNL     1     -10.746  20.318  68.401  1.00  0.00    -0.234 OA 
HETATM    2  C   UNL     1      -9.837  19.395  67.802  1.00  0.00    -0.347 C  
HETATM    3  H   UNL     1     -10.807  21.090  67.851  1.00  0.00     0.000 HD 
ENDROOT
BRANCH   2   4
HETATM    4  C   UNL     1      -9.738  18.144  68.693  1.00  0.00    -0.357 C  
BRANCH   4   5
HETATM    5  N   UNL     1      -8.368  17.692  69.063  1.00  0.00    -0.113 NA 
BRANCH   5   6
HETATM    6  C   UNL     1      -8.309  16.201  69.031  1.00  0.00    -0.247 C  
BRANCH   6   7
HETATM    7  C   UNL     1      -9.187  15.522  67.961  1.00  0.00    -0.187 C  
HETATM    8  H   UNL     1      -8.974  14.859  66.120  1.00  0.00     0.000 HD 
HETATM    9  O   UNL     1      -8.433  15.278  66.780  1.00  0.00    -0.237 OA 
ENDBRANCH   6   7
ENDBRANCH   5   6
BRANCH   5  10
HETATM   10  C   UNL     1      -7.380  18.259  68.098  1.00  0.00    -0.260 C  
BRANCH  10  11
HETATM   11  C   UNL     1      -5.932  17.769  68.283  1.00  0.00    -0.166 C  
HETATM   12  O   UNL     1      -5.133  18.799  68.859  1.00  0.00    -0.188 OA 
HETATM   13  H   UNL     1      -4.240  18.496  68.974  1.00  0.00     0.000 HD 
ENDBRANCH  10  11
ENDBRANCH   5  10
ENDBRANCH   4   5
ENDBRANCH   2   4
TORSDOF 6
ENDMDL
MODEL      259
REMARK 921   NORMALIZED FREE ENERGY PREDICTED BY IDOCK:   -1.53 KCAL/MOL
REMARK 922        TOTAL FREE ENERGY PREDICTED BY IDOCK:   -2.55 KCAL/MOL
REMARK 923 INTER-LIGAND FREE ENERGY PREDICTED BY IDOCK:   -2.41 KCAL/MOL
REMARK 924 INTRA-LIGAND FREE ENERGY PREDICTED BY IDOCK:   -0.15 KCAL/MOL
REMARK 927      BINDING AFFINITY PREDICTED BY RF-SCORE:    0.00 PKD
ROOT
HETATM    1  O   UNL     1      -8.047   2.775  67.344  1.00  0.00    -0.075 OA 
HETATM    2  C   UNL     1      -9.370   3.306  67.423  1.00  0.00    -0.201 C  
HETATM    3  H   UNL     1      -8.097   1.827  67.347  1.00  0.00     0.000 HD 
ENDROOT
BRANCH   2   4
HETATM    4  C   UNL     1      -9.291   4.843  67.419  1.00  0.00    -0.132 C  
BRANCH   4   5
HETATM    5  N   UNL     1     -10.418   5.573  68.063  1.00  0.00    -0.195 NA 
BRANCH   5   6
HETATM    6  C   UNL     1      -9.926   6.268  69.290  1.00  0.00    -0.155 C  
BRANCH   6   7
HETATM    7  C   UNL     1     -10.827   6.139  70.534  1.00  0.00    -0.300 C  
HETATM    8  H   UNL     1     -10.658   6.398  72.478  1.00  0.00     0.000 HD 
HETATM    9  O   UNL     1     -10.103   6.477  71.711  1.00  0.00    -0.184 OA 
ENDBRANCH   6   7
ENDBRANCH   5   6
BRANCH   5  10
HETATM   10  C   UNL     1     -10.976   6.571  67.103  1.00  0.00    -0.408 C  
BRANCH  10  11
HETATM   11  C   UNL     1     -10.391   7.990  67.224  1.00  0.00    -0.301 C  
HETATM   12  O   UNL     1      -9.790   8.383  65.994  1.00  0.00    -0.456 OA 
HETATM   13  H   UNL     1      -9.430   9.259  66.068  1.00  0.00     0.000 HD 
ENDBRANCH  10  11
ENDBRANCH   5  10
ENDBRANCH   4   5
ENDBRANCH   2   4
TORSDOF 6
ENDMDL
MODEL      260
REMARK 921   NORMALIZED FREE ENERGY PREDICTED BY IDOCK:   -1.52 KCAL/MOL
REMARK 922        TOTAL FREE ENERGY PREDICTED BY IDOCK:   -2.54 KCAL/MOL
REMARK 923 INTER-LIGAND FREE ENERGY PREDICTED BY IDOCK:   -2.37 KCAL/MOL
REMARK 924 INTRA-LIGAND FREE ENERGY PREDICTED BY IDOCK:   -0.17 KCAL/MOL
REMARK 927      BINDING AFFINITY PREDICTED BY RF-SCORE:    0.00 PKD
ROOT
HETATM    1  O   UNL     1     -11.085   8.068  67.890  1.00  0.00    -0.470 OA 
HETATM    2  C   UNL     1     -10.187   7.198  68.577  1.00  0.00    -0.175 C  
HETATM    3  H   UNL     1     -11.310   7.678  67.053  1.00  0.00     0.000 HD 
ENDROOT
BRANCH   2   4
HETATM    4  C   UNL     1      -9.823   7.828  69.933  1.00  0.00    -0.177 C  
BRANCH   4   5
HETATM    5  N   UNL     1     -10.224   7.073  71.152  1.00  0.00    -0.195 NA 
BRANCH   5   6
HETATM    6  C   UNL     1     -11.570   6.462  70.941  1.00  0.00    -0.331 C  
BRANCH   6   7
HETATM    7  C   UNL     1     -12.732   7.132  71.699  1.00  0.00    -0.379 C  
HETATM    8  H   UNL     1     -13.052   8.819  72.662  1.00  0.00     0.000 HD 
HETATM    9  O   UNL     1     -12.335   8.406  72.194  1.00  0.00    -0.330 OA 
ENDBRANCH   6   7
ENDBRANCH   5   6
BRANCH   5  10
HETATM   10  C   UNL     1      -9.218   6.004  71.428  1.00  0.00    -0.143 C  
BRANCH  10  11
HETATM   11  C   UNL     1      -7.994   6.455  72.245  1.00  0.00    -0.103 C  
HETATM   12  O   UNL     1      -6.795   6.192  71.522  1.00  0.00    -0.064 OA 
HETATM   13  H   UNL     1      -6.039   6.471  72.026  1.00  0.00     0.000 HD 
ENDBRANCH  10  11
ENDBRANCH   5  10
ENDBRANCH   4   5
ENDBRANCH   2   4
TORSDOF 6
ENDMDL
MODEL      261
REMARK 921   NORMALIZED FREE ENERGY PREDICTED BY IDOCK:   -1.51 KCAL/MOL
REMARK 922        TOTAL FREE ENERGY PREDICTED BY IDOCK:   -2.53 KCAL/MOL
REMARK 923 INTER-LIGAND FREE ENERGY PREDICTED BY IDOCK:   -2.19 KCAL/MOL
REMARK 924 INTRA-LIGAND FREE ENERGY PREDICTED BY IDOCK:   -0.34 KCAL/MOL
REMARK 927      BINDING AFFINITY PREDICTED BY RF-SCORE:    0.00 PKD
ROOT
HETATM    1  O   UNL     1      -6.721   6.540  72.444  1.00  0.00    -0.062 OA 
HETATM    2  C   UNL     1      -7.475   5.388  72.070  1.00  0.00    -0.098 C  
HETATM    3  H   UNL     1      -5.848   6.468  72.077  1.00  0.00     0.000 HD 
ENDROOT
BRANCH   2   4
HETATM    4  C   UNL     1      -8.890   5.505  72.663  1.00  0.00    -0.123 C  
BRANCH   4   5
HETATM    5  N   UNL     1      -9.957   6.010  71.755  1.00  0.00    -0.169 NA 
BRANCH   5   6
HETATM    6  C   UNL     1     -10.037   7.498  71.857  1.00  0.00    -0.172 C  
BRANCH   6   7
HETATM    7  C   UNL     1      -9.764   8.084  73.256  1.00  0.00    -0.238 C  
HETATM    8  H   UNL     1      -8.285   8.995  74.183  1.00  0.00     0.000 HD 
HETATM    9  O   UNL     1      -8.453   8.633  73.320  1.00  0.00    -0.395 OA 
ENDBRANCH   6   7
ENDBRANCH   5   6
BRANCH   5  10
HETATM   10  C   UNL     1      -9.643   5.614  70.350  1.00  0.00    -0.170 C  
BRANCH  10  11
HETATM   11  C   UNL     1     -10.159   6.581  69.269  1.00  0.00    -0.168 C  
HETATM   12  O   UNL     1     -11.552   6.380  69.050  1.00  0.00    -0.597 OA 
HETATM   13  H   UNL     1     -11.869   6.977  68.384  1.00  0.00     0.000 HD 
ENDBRANCH  10  11
ENDBRANCH   5  10
ENDBRANCH   4   5
ENDBRANCH   2   4
TORSDOF 6
ENDMDL
MODEL      262
REMARK 921   NORMALIZED FREE ENERGY PREDICTED BY IDOCK:   -1.50 KCAL/MOL
REMARK 922        TOTAL FREE ENERGY PREDICTED BY IDOCK:   -2.52 KCAL/MOL
REMARK 923 INTER-LIGAND FREE ENERGY PREDICTED BY IDOCK:   -2.25 KCAL/MOL
REMARK 924 INTRA-LIGAND FREE ENERGY PREDICTED BY IDOCK:   -0.27 KCAL/MOL
REMARK 927      BINDING AFFINITY PREDICTED BY RF-SCORE:    0.00 PKD
ROOT
HETATM    1  O   UNL     1     -12.191  12.132  66.925  1.00  0.00    -0.537 OA 
HETATM    2  C   UNL     1     -11.268  12.614  67.901  1.00  0.00    -0.266 C  
HETATM    3  H   UNL     1     -13.075  12.296  67.231  1.00  0.00     0.000 HD 
ENDROOT
BRANCH   2   4
HETATM    4  C   UNL     1      -9.835  12.350  67.404  1.00  0.00    -0.199 C  
BRANCH   4   5
HETATM    5  N   UNL     1      -8.848  11.892  68.421  1.00  0.00    -0.177 NA 
BRANCH   5   6
HETATM    6  C   UNL     1      -9.179  10.499  68.847  1.00  0.00    -0.183 C  
BRANCH   6   7
HETATM    7  C   UNL     1      -9.270   9.460  67.712  1.00  0.00    -0.128 C  
HETATM    8  H   UNL     1     -10.594   8.174  67.028  1.00  0.00     0.000 HD 
HETATM    9  O   UNL     1     -10.538   8.815  67.728  1.00  0.00    -0.239 OA 
ENDBRANCH   6   7
ENDBRANCH   5   6
BRANCH   5  10
HETATM   10  C   UNL     1      -7.476  11.931  67.834  1.00  0.00    -0.114 C  
BRANCH  10  11
HETATM   11  C   UNL     1      -6.414  12.631  68.703  1.00  0.00    -0.079 C  
HETATM   12  O   UNL     1      -7.039  13.533  69.612  1.00  0.00    -0.326 OA 
HETATM   13  H   UNL     1      -6.384  13.964  70.148  1.00  0.00     0.000 HD 
ENDBRANCH  10  11
ENDBRANCH   5  10
ENDBRANCH   4   5
ENDBRANCH   2   4
TORSDOF 6
ENDMDL
MODEL      263
REMARK 921   NORMALIZED FREE ENERGY PREDICTED BY IDOCK:   -1.49 KCAL/MOL
REMARK 922        TOTAL FREE ENERGY PREDICTED BY IDOCK:   -2.50 KCAL/MOL
REMARK 923 INTER-LIGAND FREE ENERGY PREDICTED BY IDOCK:   -2.29 KCAL/MOL
REMARK 924 INTRA-LIGAND FREE ENERGY PREDICTED BY IDOCK:   -0.21 KCAL/MOL
REMARK 927      BINDING AFFINITY PREDICTED BY RF-SCORE:    0.00 PKD
ROOT
HETATM    1  O   UNL     1     -11.212   7.348  68.702  1.00  0.00    -0.436 OA 
HETATM    2  C   UNL     1     -10.648   6.044  68.567  1.00  0.00    -0.265 C  
HETATM    3  H   UNL     1     -11.491   7.652  67.847  1.00  0.00     0.000 HD 
ENDROOT
BRANCH   2   4
HETATM    4  C   UNL     1     -10.197   5.550  69.953  1.00  0.00    -0.268 C  
BRANCH   4   5
HETATM    5  N   UNL     1      -9.919   6.594  70.978  1.00  0.00    -0.183 NA 
BRANCH   5   6
HETATM    6  C   UNL     1     -10.175   6.037  72.340  1.00  0.00    -0.189 C  
BRANCH   6   7
HETATM    7  C   UNL     1     -10.570   7.066  73.417  1.00  0.00    -0.364 C  
HETATM    8  H   UNL     1      -9.715   7.966  74.944  1.00  0.00     0.000 HD 
HETATM    9  O   UNL     1      -9.471   7.332  74.280  1.00  0.00    -0.240 OA 
ENDBRANCH   6   7
ENDBRANCH   5   6
BRANCH   5  10
HETATM   10  C   UNL     1      -8.496   7.032  70.868  1.00  0.00    -0.134 C  
BRANCH  10  11
HETATM   11  C   UNL     1      -8.293   8.452  70.308  1.00  0.00    -0.124 C  
HETATM   12  O   UNL     1      -7.196   9.086  70.959  1.00  0.00    -0.091 OA 
HETATM   13  H   UNL     1      -7.070   9.962  70.613  1.00  0.00     0.000 HD 
ENDBRANCH  10  11
ENDBRANCH   5  10
ENDBRANCH   4   5
ENDBRANCH   2   4
TORSDOF 6
ENDMDL
MODEL      264
REMARK 921   NORMALIZED FREE ENERGY PREDICTED BY IDOCK:   -1.49 KCAL/MOL
REMARK 922        TOTAL FREE ENERGY PREDICTED BY IDOCK:   -2.50 KCAL/MOL
REMARK 923 INTER-LIGAND FREE ENERGY PREDICTED BY IDOCK:   -2.29 KCAL/MOL
REMARK 924 INTRA-LIGAND FREE ENERGY PREDICTED BY IDOCK:   -0.20 KCAL/MOL
REMARK 927      BINDING AFFINITY PREDICTED BY RF-SCORE:    0.00 PKD
ROOT
HETATM    1  O   UNL     1     -11.687  12.446  70.399  1.00  0.00    -0.534 OA 
HETATM    2  C   UNL     1     -12.113  11.682  69.271  1.00  0.00    -0.259 C  
HETATM    3  H   UNL     1     -12.286  12.289  71.120  1.00  0.00     0.000 HD 
ENDROOT
BRANCH   2   4
HETATM    4  C   UNL     1     -11.143  11.935  68.103  1.00  0.00    -0.242 C  
BRANCH   4   5
HETATM    5  N   UNL     1      -9.707  12.114  68.453  1.00  0.00    -0.210 NA 
BRANCH   5   6
HETATM    6  C   UNL     1      -8.872  11.206  67.611  1.00  0.00    -0.136 C  
BRANCH   6   7
HETATM    7  C   UNL     1      -8.187  10.047  68.361  1.00  0.00    -0.106 C  
HETATM    8  H   UNL     1      -8.023   9.419  70.219  1.00  0.00     0.000 HD 
HETATM    9  O   UNL     1      -8.445  10.134  69.757  1.00  0.00    -0.177 OA 
ENDBRANCH   6   7
ENDBRANCH   5   6
BRANCH   5  10
HETATM   10  C   UNL     1      -9.311  13.534  68.215  1.00  0.00    -0.205 C  
BRANCH  10  11
HETATM   11  C   UNL     1      -8.584  13.794  66.882  1.00  0.00    -0.109 C  
HETATM   12  O   UNL     1      -7.281  14.316  67.125  1.00  0.00    -0.314 OA 
HETATM   13  H   UNL     1      -6.833  14.476  66.303  1.00  0.00     0.000 HD 
ENDBRANCH  10  11
ENDBRANCH   5  10
ENDBRANCH   4   5
ENDBRANCH   2   4
TORSDOF 6
ENDMDL
MODEL      265
REMARK 921   NORMALIZED FREE ENERGY PREDICTED BY IDOCK:   -1.47 KCAL/MOL
REMARK 922        TOTAL FREE ENERGY PREDICTED BY IDOCK:   -2.47 KCAL/MOL
REMARK 923 INTER-LIGAND FREE ENERGY PREDICTED BY IDOCK:   -2.31 KCAL/MOL
REMARK 924 INTRA-LIGAND FREE ENERGY PREDICTED BY IDOCK:   -0.16 KCAL/MOL
REMARK 927      BINDING AFFINITY PREDICTED BY RF-SCORE:    0.00 PKD
ROOT
HETATM    1  O   UNL     1     -12.208   7.403  70.696  1.00  0.00    -0.515 OA 
HETATM    2  C   UNL     1     -11.097   6.571  71.028  1.00  0.00    -0.288 C  
HETATM    3  H   UNL     1     -12.877   7.302  71.363  1.00  0.00     0.000 HD 
ENDROOT
BRANCH   2   4
HETATM    4  C   UNL     1     -10.013   6.734  69.948  1.00  0.00    -0.172 C  
BRANCH   4   5
HETATM    5  N   UNL     1     -10.456   7.267  68.630  1.00  0.00    -0.197 NA 
BRANCH   5   6
HETATM    6  C   UNL     1      -9.328   8.003  67.984  1.00  0.00    -0.138 C  
BRANCH   6   7
HETATM    7  C   UNL     1      -8.671   9.101  68.843  1.00  0.00    -0.132 C  
HETATM    8  H   UNL     1      -8.858  11.043  69.104  1.00  0.00     0.000 HD 
HETATM    9  O   UNL     1      -9.264  10.366  68.574  1.00  0.00    -0.134 OA 
ENDBRANCH   6   7
ENDBRANCH   5   6
BRANCH   5  10
HETATM   10  C   UNL     1     -10.891   6.137  67.757  1.00  0.00    -0.325 C  
BRANCH  10  11
HETATM   11  C   UNL     1      -9.882   5.729  66.668  1.00  0.00    -0.165 C  
HETATM   12  O   UNL     1     -10.269   4.492  66.076  1.00  0.00    -0.246 OA 
HETATM   13  H   UNL     1      -9.646   4.240  65.404  1.00  0.00     0.000 HD 
ENDBRANCH  10  11
ENDBRANCH   5  10
ENDBRANCH   4   5
ENDBRANCH   2   4
TORSDOF 6
ENDMDL
MODEL      266
REMARK 921   NORMALIZED FREE ENERGY PREDICTED BY IDOCK:   -1.46 KCAL/MOL
REMARK 922        TOTAL FREE ENERGY PREDICTED BY IDOCK:   -2.46 KCAL/MOL
REMARK 923 INTER-LIGAND FREE ENERGY PREDICTED BY IDOCK:   -2.59 KCAL/MOL
REMARK 924 INTRA-LIGAND FREE ENERGY PREDICTED BY IDOCK:    0.13 KCAL/MOL
REMARK 927      BINDING AFFINITY PREDICTED BY RF-SCORE:    0.00 PKD
ROOT
HETATM    1  O   UNL     1     -12.413  12.599  70.759  1.00  0.00    -0.348 OA 
HETATM    2  C   UNL     1     -12.002  11.445  70.026  1.00  0.00    -0.363 C  
HETATM    3  H   UNL     1     -12.490  12.368  71.677  1.00  0.00     0.000 HD 
ENDROOT
BRANCH   2   4
HETATM    4  C   UNL     1     -11.877  11.819  68.538  1.00  0.00    -0.303 C  
BRANCH   4   5
HETATM    5  N   UNL     1     -10.818  12.803  68.182  1.00  0.00    -0.219 NA 
BRANCH   5   6
HETATM    6  C   UNL     1      -9.661  12.090  67.562  1.00  0.00    -0.187 C  
BRANCH   6   7
HETATM    7  C   UNL     1      -8.803  12.927  66.594  1.00  0.00    -0.091 C  
HETATM    8  H   UNL     1      -6.903  13.390  66.371  1.00  0.00     0.000 HD 
HETATM    9  O   UNL     1      -7.432  12.874  66.969  1.00  0.00    -0.058 OA 
ENDBRANCH   6   7
ENDBRANCH   5   6
BRANCH   5  10
HETATM   10  C   UNL     1     -11.371  13.802  67.220  1.00  0.00    -0.321 C  
BRANCH  10  11
HETATM   11  C   UNL     1     -12.376  13.238  66.199  1.00  0.00    -0.358 C  
HETATM   12  O   UNL     1     -11.691  12.508  65.185  1.00  0.00    -0.344 OA 
HETATM   13  H   UNL     1     -12.311  12.160  64.556  1.00  0.00     0.000 HD 
ENDBRANCH  10  11
ENDBRANCH   5  10
ENDBRANCH   4   5
ENDBRANCH   2   4
TORSDOF 6
ENDMDL
MODEL      267
REMARK 921   NORMALIZED FREE ENERGY PREDICTED BY IDOCK:   -1.46 KCAL/MOL
REMARK 922        TOTAL FREE ENERGY PREDICTED BY IDOCK:   -2.46 KCAL/MOL
REMARK 923 INTER-LIGAND FREE ENERGY PREDICTED BY IDOCK:   -2.10 KCAL/MOL
REMARK 924 INTRA-LIGAND FREE ENERGY PREDICTED BY IDOCK:   -0.36 KCAL/MOL
REMARK 927      BINDING AFFINITY PREDICTED BY RF-SCORE:    0.00 PKD
ROOT
HETATM    1  O   UNL     1     -12.084   6.467  69.773  1.00  0.00    -0.579 OA 
HETATM    2  C   UNL     1     -12.176   7.206  70.990  1.00  0.00    -0.343 C  
HETATM    3  H   UNL     1     -12.960   6.321  69.436  1.00  0.00     0.000 HD 
ENDROOT
BRANCH   2   4
HETATM    4  C   UNL     1     -10.757   7.444  71.536  1.00  0.00    -0.222 C  
BRANCH   4   5
HETATM    5  N   UNL     1      -9.703   6.484  71.104  1.00  0.00    -0.174 NA 
BRANCH   5   6
HETATM    6  C   UNL     1      -8.574   7.232  70.476  1.00  0.00    -0.143 C  
BRANCH   6   7
HETATM    7  C   UNL     1      -8.254   6.852  69.017  1.00  0.00    -0.125 C  
HETATM    8  H   UNL     1      -7.375   5.370  68.065  1.00  0.00     0.000 HD 
HETATM    9  O   UNL     1      -7.572   5.604  68.964  1.00  0.00    -0.084 OA 
ENDBRANCH   6   7
ENDBRANCH   5   6
BRANCH   5  10
HETATM   10  C   UNL     1      -9.210   5.721  72.288  1.00  0.00    -0.145 C  
BRANCH  10  11
HETATM   11  C   UNL     1      -9.045   4.206  72.066  1.00  0.00    -0.121 C  
HETATM   12  O   UNL     1      -9.940   3.756  71.053  1.00  0.00    -0.167 OA 
HETATM   13  H   UNL     1      -9.838   2.822  70.916  1.00  0.00     0.000 HD 
ENDBRANCH  10  11
ENDBRANCH   5  10
ENDBRANCH   4   5
ENDBRANCH   2   4
TORSDOF 6
ENDMDL
MODEL      268
REMARK 921   NORMALIZED FREE ENERGY PREDICTED BY IDOCK:   -1.45 KCAL/MOL
REMARK 922        TOTAL FREE ENERGY PREDICTED BY IDOCK:   -2.44 KCAL/MOL
REMARK 923 INTER-LIGAND FREE ENERGY PREDICTED BY IDOCK:   -2.25 KCAL/MOL
REMARK 924 INTRA-LIGAND FREE ENERGY PREDICTED BY IDOCK:   -0.19 KCAL/MOL
REMARK 927      BINDING AFFINITY PREDICTED BY RF-SCORE:    0.00 PKD
ROOT
HETATM    1  O   UNL     1     -10.811   2.708  74.057  1.00  0.00    -0.173 OA 
HETATM    2  C   UNL     1     -11.204   3.992  73.573  1.00  0.00    -0.232 C  
HETATM    3  H   UNL     1     -11.590   2.216  74.288  1.00  0.00     0.000 HD 
ENDROOT
BRANCH   2   4
HETATM    4  C   UNL     1      -9.942   4.790  73.198  1.00  0.00    -0.149 C  
BRANCH   4   5
HETATM    5  N   UNL     1     -10.147   6.029  72.398  1.00  0.00    -0.174 NA 
BRANCH   5   6
HETATM    6  C   UNL     1      -9.575   5.841  71.031  1.00  0.00    -0.167 C  
BRANCH   6   7
HETATM    7  C   UNL     1      -8.422   6.791  70.656  1.00  0.00    -0.137 C  
HETATM    8  H   UNL     1      -6.606   7.192  71.301  1.00  0.00     0.000 HD 
HETATM    9  O   UNL     1      -7.317   6.606  71.533  1.00  0.00    -0.084 OA 
ENDBRANCH   6   7
ENDBRANCH   5   6
BRANCH   5  10
HETATM   10  C   UNL     1     -11.608   6.322  72.300  1.00  0.00    -0.309 C  
BRANCH  10  11
HETATM   11  C   UNL     1     -11.959   7.785  71.972  1.00  0.00    -0.308 C  
HETATM   12  O   UNL     1     -12.607   7.864  70.705  1.00  0.00    -0.515 OA 
HETATM   13  H   UNL     1     -12.824   8.766  70.503  1.00  0.00     0.000 HD 
ENDBRANCH  10  11
ENDBRANCH   5  10
ENDBRANCH   4   5
ENDBRANCH   2   4
TORSDOF 6
ENDMDL
MODEL      269
REMARK 921   NORMALIZED FREE ENERGY PREDICTED BY IDOCK:   -1.42 KCAL/MOL
REMARK 922        TOTAL FREE ENERGY PREDICTED BY IDOCK:   -2.40 KCAL/MOL
REMARK 923 INTER-LIGAND FREE ENERGY PREDICTED BY IDOCK:   -2.16 KCAL/MOL
REMARK 924 INTRA-LIGAND FREE ENERGY PREDICTED BY IDOCK:   -0.24 KCAL/MOL
REMARK 927      BINDING AFFINITY PREDICTED BY RF-SCORE:    0.00 PKD
ROOT
HETATM    1  O   UNL     1     -11.480   6.801  68.321  1.00  0.00    -0.554 OA 
HETATM    2  C   UNL     1     -10.952   6.566  67.016  1.00  0.00    -0.396 C  
HETATM    3  H   UNL     1     -12.173   6.174  68.489  1.00  0.00     0.000 HD 
ENDROOT
BRANCH   2   4
HETATM    4  C   UNL     1      -9.828   7.581  66.743  1.00  0.00    -0.225 C  
BRANCH   4   5
HETATM    5  N   UNL     1      -9.157   8.173  67.933  1.00  0.00    -0.133 NA 
BRANCH   5   6
HETATM    6  C   UNL     1      -7.875   7.452  68.193  1.00  0.00    -0.122 C  
BRANCH   6   7
HETATM    7  C   UNL     1      -6.837   7.508  67.054  1.00  0.00    -0.071 C  
HETATM    8  H   UNL     1      -5.731   6.236  66.038  1.00  0.00     0.000 HD 
HETATM    9  O   UNL     1      -6.371   6.202  66.740  1.00  0.00    -0.041 OA 
ENDBRANCH   6   7
ENDBRANCH   5   6
BRANCH   5  10
HETATM   10  C   UNL     1      -8.884   9.619  67.683  1.00  0.00    -0.125 C  
BRANCH  10  11
HETATM   11  C   UNL     1      -9.882  10.317  66.741  1.00  0.00    -0.197 C  
HETATM   12  O   UNL     1     -11.059  10.686  67.455  1.00  0.00    -0.299 OA 
HETATM   13  H   UNL     1     -11.674  11.117  66.874  1.00  0.00     0.000 HD 
ENDBRANCH  10  11
ENDBRANCH   5  10
ENDBRANCH   4   5
ENDBRANCH   2   4
TORSDOF 6
ENDMDL
MODEL      270
REMARK 921   NORMALIZED FREE ENERGY PREDICTED BY IDOCK:   -1.40 KCAL/MOL
REMARK 922        TOTAL FREE ENERGY PREDICTED BY IDOCK:   -2.37 KCAL/MOL
REMARK 923 INTER-LIGAND FREE ENERGY PREDICTED BY IDOCK:   -2.22 KCAL/MOL
REMARK 924 INTRA-LIGAND FREE ENERGY PREDICTED BY IDOCK:   -0.15 KCAL/MOL
REMARK 927      BINDING AFFINITY PREDICTED BY RF-SCORE:    0.00 PKD
ROOT
HETATM    1  O   UNL     1      -6.362  10.392  67.439  1.00  0.00    -0.057 OA 
HETATM    2  C   UNL     1      -6.553   8.981  67.532  1.00  0.00    -0.065 C  
HETATM    3  H   UNL     1      -5.464  10.564  67.182  1.00  0.00     0.000 HD 
ENDROOT
BRANCH   2   4
HETATM    4  C   UNL     1      -8.008   8.702  67.948  1.00  0.00    -0.107 C  
BRANCH   4   5
HETATM    5  N   UNL     1      -8.268   7.417  68.656  1.00  0.00    -0.124 NA 
BRANCH   5   6
HETATM    6  C   UNL     1      -8.053   7.603  70.122  1.00  0.00    -0.118 C  
BRANCH   6   7
HETATM    7  C   UNL     1      -8.665   8.881  70.728  1.00  0.00    -0.206 C  
HETATM    8  H   UNL     1      -8.603   9.845  72.443  1.00  0.00     0.000 HD 
HETATM    9  O   UNL     1      -8.225   9.057  72.069  1.00  0.00    -0.360 OA 
ENDBRANCH   6   7
ENDBRANCH   5   6
BRANCH   5  10
HETATM   10  C   UNL     1      -9.673   6.984  68.399  1.00  0.00    -0.139 C  
BRANCH  10  11
HETATM   11  C   UNL     1     -10.168   7.195  66.956  1.00  0.00    -0.269 C  
HETATM   12  O   UNL     1     -11.462   6.623  66.791  1.00  0.00    -0.776 OA 
HETATM   13  H   UNL     1     -11.767   6.754  65.900  1.00  0.00     0.000 HD 
ENDBRANCH  10  11
ENDBRANCH   5  10
ENDBRANCH   4   5
ENDBRANCH   2   4
TORSDOF 6
ENDMDL
MODEL      271
REMARK 921   NORMALIZED FREE ENERGY PREDICTED BY IDOCK:   -1.39 KCAL/MOL
REMARK 922        TOTAL FREE ENERGY PREDICTED BY IDOCK:   -2.36 KCAL/MOL
REMARK 923 INTER-LIGAND FREE ENERGY PREDICTED BY IDOCK:   -2.17 KCAL/MOL
REMARK 924 INTRA-LIGAND FREE ENERGY PREDICTED BY IDOCK:   -0.19 KCAL/MOL
REMARK 927      BINDING AFFINITY PREDICTED BY RF-SCORE:    0.00 PKD
ROOT
HETATM    1  O   UNL     1     -12.456  10.133  70.915  1.00  0.00    -0.317 OA 
HETATM    2  C   UNL     1     -12.134   9.033  71.766  1.00  0.00    -0.368 C  
HETATM    3  H   UNL     1     -13.183  10.612  71.294  1.00  0.00     0.000 HD 
ENDROOT
BRANCH   2   4
HETATM    4  C   UNL     1     -10.956   8.256  71.152  1.00  0.00    -0.245 C  
BRANCH   4   5
HETATM    5  N   UNL     1     -10.082   9.003  70.205  1.00  0.00    -0.183 NA 
BRANCH   5   6
HETATM    6  C   UNL     1      -8.665   8.929  70.670  1.00  0.00    -0.197 C  
BRANCH   6   7
HETATM    7  C   UNL     1      -7.795  10.161  70.351  1.00  0.00     0.234 C  
HETATM    8  H   UNL     1      -6.096  10.534  69.430  1.00  0.00     0.000 HD 
HETATM    9  O   UNL     1      -6.632   9.775  69.627  1.00  0.00    -0.044 OA 
ENDBRANCH   6   7
ENDBRANCH   5   6
BRANCH   5  10
HETATM   10  C   UNL     1     -10.200   8.405  68.842  1.00  0.00    -0.210 C  
BRANCH  10  11
HETATM   11  C   UNL     1     -10.465   6.889  68.816  1.00  0.00    -0.205 C  
HETATM   12  O   UNL     1     -11.462   6.579  67.846  1.00  0.00    -0.635 OA 
HETATM   13  H   UNL     1     -11.625   5.643  67.830  1.00  0.00     0.000 HD 
ENDBRANCH  10  11
ENDBRANCH   5  10
ENDBRANCH   4   5
ENDBRANCH   2   4
TORSDOF 6
ENDMDL
MODEL      272
REMARK 921   NORMALIZED FREE ENERGY PREDICTED BY IDOCK:   -1.38 KCAL/MOL
REMARK 922        TOTAL FREE ENERGY PREDICTED BY IDOCK:   -2.35 KCAL/MOL
REMARK 923 INTER-LIGAND FREE ENERGY PREDICTED BY IDOCK:   -1.97 KCAL/MOL
REMARK 924 INTRA-LIGAND FREE ENERGY PREDICTED BY IDOCK:   -0.38 KCAL/MOL
REMARK 927      BINDING AFFINITY PREDICTED BY RF-SCORE:    0.00 PKD
ROOT
HETATM    1  O   UNL     1     -10.817   5.736  71.780  1.00  0.00    -0.241 OA 
HETATM    2  C   UNL     1     -11.540   6.397  70.742  1.00  0.00    -0.338 C  
HETATM    3  H   UNL     1     -11.155   4.853  71.875  1.00  0.00     0.000 HD 
ENDROOT
BRANCH   2   4
HETATM    4  C   UNL     1     -10.993   7.827  70.587  1.00  0.00    -0.249 C  
BRANCH   4   5
HETATM    5  N   UNL     1     -10.353   8.161  69.284  1.00  0.00    -0.216 NA 
BRANCH   5   6
HETATM    6  C   UNL     1     -10.016   9.616  69.252  1.00  0.00    -0.191 C  
BRANCH   6   7
HETATM    7  C   UNL     1      -9.438  10.136  67.921  1.00  0.00    -0.141 C  
HETATM    8  H   UNL     1     -10.130  10.831  66.215  1.00  0.00     0.000 HD 
HETATM    9  O   UNL     1     -10.487  10.510  67.035  1.00  0.00    -0.225 OA 
ENDBRANCH   6   7
ENDBRANCH   5   6
BRANCH   5  10
HETATM   10  C   UNL     1      -9.112   7.349  69.116  1.00  0.00    -0.134 C  
BRANCH  10  11
HETATM   11  C   UNL     1      -8.141   7.387  70.310  1.00  0.00    -0.116 C  
HETATM   12  O   UNL     1      -8.058   6.102  70.919  1.00  0.00    -0.116 OA 
HETATM   13  H   UNL     1      -7.458   6.126  71.656  1.00  0.00     0.000 HD 
ENDBRANCH  10  11
ENDBRANCH   5  10
ENDBRANCH   4   5
ENDBRANCH   2   4
TORSDOF 6
ENDMDL
MODEL      273
REMARK 921   NORMALIZED FREE ENERGY PREDICTED BY IDOCK:   -1.37 KCAL/MOL
REMARK 922        TOTAL FREE ENERGY PREDICTED BY IDOCK:   -2.33 KCAL/MOL
REMARK 923 INTER-LIGAND FREE ENERGY PREDICTED BY IDOCK:   -2.33 KCAL/MOL
REMARK 924 INTRA-LIGAND FREE ENERGY PREDICTED BY IDOCK:    0.00 KCAL/MOL
REMARK 927      BINDING AFFINITY PREDICTED BY RF-SCORE:    0.00 PKD
ROOT
HETATM    1  O   UNL     1     -11.302   6.724  68.682  1.00  0.00    -0.535 OA 
HETATM    2  C   UNL     1     -10.316   5.739  68.994  1.00  0.00    -0.245 C  
HETATM    3  H   UNL     1     -11.877   6.379  68.010  1.00  0.00     0.000 HD 
ENDROOT
BRANCH   2   4
HETATM    4  C   UNL     1      -9.383   6.297  70.083  1.00  0.00    -0.156 C  
BRANCH   4   5
HETATM    5  N   UNL     1      -9.786   6.056  71.497  1.00  0.00    -0.163 NA 
BRANCH   5   6
HETATM    6  C   UNL     1     -10.648   7.181  71.968  1.00  0.00    -0.210 C  
BRANCH   6   7
HETATM    7  C   UNL     1     -10.499   7.555  73.456  1.00  0.00    -0.306 C  
HETATM    8  H   UNL     1     -10.096   6.635  75.149  1.00  0.00     0.000 HD 
HETATM    9  O   UNL     1     -10.188   6.404  74.232  1.00  0.00    -0.321 OA 
ENDBRANCH   6   7
ENDBRANCH   5   6
BRANCH   5  10
HETATM   10  C   UNL     1     -10.536   4.769  71.588  1.00  0.00    -0.093 C  
BRANCH  10  11
HETATM   11  C   UNL     1      -9.688   3.547  71.989  1.00  0.00    -0.162 C  
HETATM   12  O   UNL     1     -10.299   2.859  73.077  1.00  0.00    -0.137 OA 
HETATM   13  H   UNL     1      -9.776   2.105  73.323  1.00  0.00     0.000 HD 
ENDBRANCH  10  11
ENDBRANCH   5  10
ENDBRANCH   4   5
ENDBRANCH   2   4
TORSDOF 6
ENDMDL
MODEL      274
REMARK 921   NORMALIZED FREE ENERGY PREDICTED BY IDOCK:   -1.37 KCAL/MOL
REMARK 922        TOTAL FREE ENERGY PREDICTED BY IDOCK:   -2.33 KCAL/MOL
REMARK 923 INTER-LIGAND FREE ENERGY PREDICTED BY IDOCK:   -2.14 KCAL/MOL
REMARK 924 INTRA-LIGAND FREE ENERGY PREDICTED BY IDOCK:   -0.19 KCAL/MOL
REMARK 927      BINDING AFFINITY PREDICTED BY RF-SCORE:    0.00 PKD
ROOT
HETATM    1  O   UNL     1      -9.670   6.814  67.045  1.00  0.00    -0.142 OA 
HETATM    2  C   UNL     1     -10.533   7.936  66.863  1.00  0.00    -0.318 C  
HETATM    3  H   UNL     1      -9.893   6.148  66.406  1.00  0.00     0.000 HD 
ENDROOT
BRANCH   2   4
HETATM    4  C   UNL     1     -10.172   9.016  67.898  1.00  0.00    -0.221 C  
BRANCH   4   5
HETATM    5  N   UNL     1      -9.742  10.338  67.364  1.00  0.00    -0.157 NA 
BRANCH   5   6
HETATM    6  C   UNL     1     -10.146  11.416  68.314  1.00  0.00    -0.196 C  
BRANCH   6   7
HETATM    7  C   UNL     1      -9.572  12.815  68.017  1.00  0.00    -0.217 C  
HETATM    8  H   UNL     1     -10.154  14.455  67.097  1.00  0.00     0.000 HD 
HETATM    9  O   UNL     1     -10.508  13.592  67.280  1.00  0.00    -0.257 OA 
ENDBRANCH   6   7
ENDBRANCH   5   6
BRANCH   5  10
HETATM   10  C   UNL     1      -8.259  10.345  67.190  1.00  0.00    -0.122 C  
BRANCH  10  11
HETATM   11  C   UNL     1      -7.773  10.276  65.730  1.00  0.00    -0.143 C  
HETATM   12  O   UNL     1      -6.699  11.189  65.524  1.00  0.00    -0.367 OA 
HETATM   13  H   UNL     1      -6.399  11.146  64.624  1.00  0.00     0.000 HD 
ENDBRANCH  10  11
ENDBRANCH   5  10
ENDBRANCH   4   5
ENDBRANCH   2   4
TORSDOF 6
ENDMDL
MODEL      275
REMARK 921   NORMALIZED FREE ENERGY PREDICTED BY IDOCK:   -1.33 KCAL/MOL
REMARK 922        TOTAL FREE ENERGY PREDICTED BY IDOCK:   -2.28 KCAL/MOL
REMARK 923 INTER-LIGAND FREE ENERGY PREDICTED BY IDOCK:   -2.15 KCAL/MOL
REMARK 924 INTRA-LIGAND FREE ENERGY PREDICTED BY IDOCK:   -0.13 KCAL/MOL
REMARK 927      BINDING AFFINITY PREDICTED BY RF-SCORE:    0.00 PKD
ROOT
HETATM    1  O   UNL     1      -9.602   6.873  67.034  1.00  0.00    -0.144 OA 
HETATM    2  C   UNL     1     -10.428   8.026  66.872  1.00  0.00    -0.317 C  
HETATM    3  H   UNL     1      -9.873   6.212  66.408  1.00  0.00     0.000 HD 
ENDROOT
BRANCH   2   4
HETATM    4  C   UNL     1      -9.990   9.099  67.885  1.00  0.00    -0.186 C  
BRANCH   4   5
HETATM    5  N   UNL     1      -9.672  10.446  67.338  1.00  0.00    -0.161 NA 
BRANCH   5   6
HETATM    6  C   UNL     1     -10.852  10.973  66.590  1.00  0.00    -0.225 C  
BRANCH   6   7
HETATM    7  C   UNL     1     -10.760  12.448  66.154  1.00  0.00    -0.260 C  
HETATM    8  H   UNL     1     -10.381  13.450  64.502  1.00  0.00     0.000 HD 
HETATM    9  O   UNL     1     -10.438  12.540  64.771  1.00  0.00    -0.289 OA 
ENDBRANCH   6   7
ENDBRANCH   5   6
BRANCH   5  10
HETATM   10  C   UNL     1      -9.328  11.370  68.459  1.00  0.00    -0.180 C  
BRANCH  10  11
HETATM   11  C   UNL     1      -7.849  11.793  68.526  1.00  0.00    -0.144 C  
HETATM   12  O   UNL     1      -7.747  13.197  68.744  1.00  0.00    -0.247 OA 
HETATM   13  H   UNL     1      -6.834  13.457  68.785  1.00  0.00     0.000 HD 
ENDBRANCH  10  11
ENDBRANCH   5  10
ENDBRANCH   4   5
ENDBRANCH   2   4
TORSDOF 6
ENDMDL
MODEL      276
REMARK 921   NORMALIZED FREE ENERGY PREDICTED BY IDOCK:   -1.32 KCAL/MOL
REMARK 922        TOTAL FREE ENERGY PREDICTED BY IDOCK:   -2.27 KCAL/MOL
REMARK 923 INTER-LIGAND FREE ENERGY PREDICTED BY IDOCK:   -2.01 KCAL/MOL
REMARK 924 INTRA-LIGAND FREE ENERGY PREDICTED BY IDOCK:   -0.26 KCAL/MOL
REMARK 927      BINDING AFFINITY PREDICTED BY RF-SCORE:    0.00 PKD
ROOT
HETATM    1  O   UNL     1      -8.201   6.495  69.080  1.00  0.00    -0.114 OA 
HETATM    2  C   UNL     1      -9.237   6.004  69.931  1.00  0.00    -0.148 C  
HETATM    3  H   UNL     1      -8.236   6.028  68.254  1.00  0.00     0.000 HD 
ENDROOT
BRANCH   2   4
HETATM    4  C   UNL     1      -9.181   6.760  71.270  1.00  0.00    -0.154 C  
BRANCH   4   5
HETATM    5  N   UNL     1      -9.494   5.975  72.496  1.00  0.00    -0.148 NA 
BRANCH   5   6
HETATM    6  C   UNL     1      -8.358   6.078  73.459  1.00  0.00    -0.116 C  
BRANCH   6   7
HETATM    7  C   UNL     1      -7.213   7.022  73.039  1.00  0.00    -0.073 C  
HETATM    8  H   UNL     1      -6.470   8.748  73.624  1.00  0.00     0.000 HD 
HETATM    9  O   UNL     1      -7.176   8.167  73.882  1.00  0.00    -0.134 OA 
ENDBRANCH   6   7
ENDBRANCH   5   6
BRANCH   5  10
HETATM   10  C   UNL     1     -10.740   6.507  73.123  1.00  0.00    -0.269 C  
BRANCH  10  11
HETATM   11  C   UNL     1     -11.028   7.994  72.842  1.00  0.00    -0.330 C  
HETATM   12  O   UNL     1     -12.412   8.185  72.566  1.00  0.00    -0.529 OA 
HETATM   13  H   UNL     1     -12.589   9.102  72.394  1.00  0.00     0.000 HD 
ENDBRANCH  10  11
ENDBRANCH   5  10
ENDBRANCH   4   5
ENDBRANCH   2   4
TORSDOF 6
ENDMDL
MODEL      277
REMARK 921   NORMALIZED FREE ENERGY PREDICTED BY IDOCK:   -1.30 KCAL/MOL
REMARK 922        TOTAL FREE ENERGY PREDICTED BY IDOCK:   -2.24 KCAL/MOL
REMARK 923 INTER-LIGAND FREE ENERGY PREDICTED BY IDOCK:   -2.03 KCAL/MOL
REMARK 924 INTRA-LIGAND FREE ENERGY PREDICTED BY IDOCK:   -0.21 KCAL/MOL
REMARK 927      BINDING AFFINITY PREDICTED BY RF-SCORE:    0.00 PKD
ROOT
HETATM    1  O   UNL     1      -7.949   4.062  74.520  1.00  0.00    -0.084 OA 
HETATM    2  C   UNL     1      -7.828   4.212  73.105  1.00  0.00    -0.085 C  
HETATM    3  H   UNL     1      -7.743   3.165  74.752  1.00  0.00     0.000 HD 
ENDROOT
BRANCH   2   4
HETATM    4  C   UNL     1      -8.162   5.666  72.728  1.00  0.00    -0.112 C  
BRANCH   4   5
HETATM    5  N   UNL     1      -8.989   6.436  73.697  1.00  0.00    -0.124 NA 
BRANCH   5   6
HETATM    6  C   UNL     1      -8.139   7.457  74.379  1.00  0.00    -0.180 C  
BRANCH   6   7
HETATM    7  C   UNL     1      -6.814   7.800  73.671  1.00  0.00    -0.093 C  
HETATM    8  H   UNL     1      -6.174   9.115  72.353  1.00  0.00     0.000 HD 
HETATM    9  O   UNL     1      -6.991   8.903  72.790  1.00  0.00    -0.325 OA 
ENDBRANCH   6   7
ENDBRANCH   5   6
BRANCH   5  10
HETATM   10  C   UNL     1     -10.106   7.110  72.972  1.00  0.00    -0.228 C  
BRANCH  10  11
HETATM   11  C   UNL     1     -10.993   6.176  72.128  1.00  0.00    -0.262 C  
HETATM   12  O   UNL     1     -12.168   5.824  72.852  1.00  0.00    -0.536 OA 
HETATM   13  H   UNL     1     -12.715   5.248  72.331  1.00  0.00     0.000 HD 
ENDBRANCH  10  11
ENDBRANCH   5  10
ENDBRANCH   4   5
ENDBRANCH   2   4
TORSDOF 6
ENDMDL
MODEL      278
REMARK 921   NORMALIZED FREE ENERGY PREDICTED BY IDOCK:   -1.27 KCAL/MOL
REMARK 922        TOTAL FREE ENERGY PREDICTED BY IDOCK:   -2.20 KCAL/MOL
REMARK 923 INTER-LIGAND FREE ENERGY PREDICTED BY IDOCK:   -1.96 KCAL/MOL
REMARK 924 INTRA-LIGAND FREE ENERGY PREDICTED BY IDOCK:   -0.24 KCAL/MOL
REMARK 927      BINDING AFFINITY PREDICTED BY RF-SCORE:    0.00 PKD
ROOT
HETATM    1  O   UNL     1      -6.440   6.059  70.071  1.00  0.00    -0.036 OA 
HETATM    2  C   UNL     1      -7.712   5.613  70.542  1.00  0.00    -0.094 C  
HETATM    3  H   UNL     1      -5.813   6.003  70.782  1.00  0.00     0.000 HD 
ENDROOT
BRANCH   2   4
HETATM    4  C   UNL     1      -8.728   5.703  69.390  1.00  0.00    -0.109 C  
BRANCH   4   5
HETATM    5  N   UNL     1     -10.066   6.269  69.720  1.00  0.00    -0.170 NA 
BRANCH   5   6
HETATM    6  C   UNL     1      -9.952   7.747  69.899  1.00  0.00    -0.191 C  
BRANCH   6   7
HETATM    7  C   UNL     1      -8.958   8.457  68.959  1.00  0.00    -0.147 C  
HETATM    8  H   UNL     1      -7.289   9.487  69.126  1.00  0.00     0.000 HD 
HETATM    9  O   UNL     1      -7.902   9.049  69.706  1.00  0.00    -0.077 OA 
ENDBRANCH   6   7
ENDBRANCH   5   6
BRANCH   5  10
HETATM   10  C   UNL     1     -11.021   5.964  68.614  1.00  0.00    -0.215 C  
BRANCH  10  11
HETATM   11  C   UNL     1     -10.398   5.279  67.384  1.00  0.00    -0.180 C  
HETATM   12  O   UNL     1     -11.070   5.691  66.197  1.00  0.00    -0.743 OA 
HETATM   13  H   UNL     1     -10.684   5.269  65.438  1.00  0.00     0.000 HD 
ENDBRANCH  10  11
ENDBRANCH   5  10
ENDBRANCH   4   5
ENDBRANCH   2   4
TORSDOF 6
ENDMDL
MODEL      279
REMARK 921   NORMALIZED FREE ENERGY PREDICTED BY IDOCK:   -1.26 KCAL/MOL
REMARK 922        TOTAL FREE ENERGY PREDICTED BY IDOCK:   -2.19 KCAL/MOL
REMARK 923 INTER-LIGAND FREE ENERGY PREDICTED BY IDOCK:   -1.83 KCAL/MOL
REMARK 924 INTRA-LIGAND FREE ENERGY PREDICTED BY IDOCK:   -0.35 KCAL/MOL
REMARK 927      BINDING AFFINITY PREDICTED BY RF-SCORE:    0.00 PKD
ROOT
HETATM    1  O   UNL     1      -5.128   5.891  67.701  1.00  0.00    -0.004 OA 
HETATM    2  C   UNL     1      -6.550   5.995  67.770  1.00  0.00    -0.056 C  
HETATM    3  H   UNL     1      -4.746   6.460  68.359  1.00  0.00     0.000 HD 
ENDROOT
BRANCH   2   4
HETATM    4  C   UNL     1      -7.168   5.073  66.704  1.00  0.00    -0.081 C  
BRANCH   4   5
HETATM    5  N   UNL     1      -8.438   5.533  66.077  1.00  0.00    -0.121 NA 
BRANCH   5   6
HETATM    6  C   UNL     1      -8.224   5.745  64.614  1.00  0.00    -0.126 C  
BRANCH   6   7
HETATM    7  C   UNL     1      -8.377   4.491  63.731  1.00  0.00    -0.113 C  
HETATM    8  H   UNL     1      -9.546   3.884  62.268  1.00  0.00     0.000 HD 
HETATM    9  O   UNL     1      -9.451   4.656  62.813  1.00  0.00    -0.114 OA 
ENDBRANCH   6   7
ENDBRANCH   5   6
BRANCH   5  10
HETATM   10  C   UNL     1      -9.499   4.505  66.291  1.00  0.00    -0.172 C  
BRANCH  10  11
HETATM   11  C   UNL     1     -10.944   5.026  66.182  1.00  0.00     0.054 C  
HETATM   12  O   UNL     1     -11.565   4.516  65.006  1.00  0.00    -1.101 OA 
HETATM   13  H   UNL     1     -12.457   4.837  64.940  1.00  0.00     0.000 HD 
ENDBRANCH  10  11
ENDBRANCH   5  10
ENDBRANCH   4   5
ENDBRANCH   2   4
TORSDOF 6
ENDMDL
MODEL      280
REMARK 921   NORMALIZED FREE ENERGY PREDICTED BY IDOCK:   -1.26 KCAL/MOL
REMARK 922        TOTAL FREE ENERGY PREDICTED BY IDOCK:   -2.18 KCAL/MOL
REMARK 923 INTER-LIGAND FREE ENERGY PREDICTED BY IDOCK:   -2.01 KCAL/MOL
REMARK 924 INTRA-LIGAND FREE ENERGY PREDICTED BY IDOCK:   -0.17 KCAL/MOL
REMARK 927      BINDING AFFINITY PREDICTED BY RF-SCORE:    0.00 PKD
ROOT
HETATM    1  O   UNL     1     -12.140  12.686  67.025  1.00  0.00    -0.480 OA 
HETATM    2  C   UNL     1     -11.170  12.706  68.072  1.00  0.00    -0.265 C  
HETATM    3  H   UNL     1     -12.899  13.186  67.301  1.00  0.00     0.000 HD 
ENDROOT
BRANCH   2   4
HETATM    4  C   UNL     1      -9.940  11.896  67.626  1.00  0.00    -0.189 C  
BRANCH   4   5
HETATM    5  N   UNL     1      -9.185  11.182  68.693  1.00  0.00    -0.178 NA 
BRANCH   5   6
HETATM    6  C   UNL     1     -10.070  10.166  69.336  1.00  0.00    -0.231 C  
BRANCH   6   7
HETATM    7  C   UNL     1      -9.374   8.867  69.788  1.00  0.00    -0.166 C  
HETATM    8  H   UNL     1      -9.503   6.943  69.395  1.00  0.00     0.000 HD 
HETATM    9  O   UNL     1      -9.932   7.744  69.117  1.00  0.00    -0.174 OA 
ENDBRANCH   6   7
ENDBRANCH   5   6
BRANCH   5  10
HETATM   10  C   UNL     1      -7.993  10.511  68.094  1.00  0.00    -0.111 C  
BRANCH  10  11
HETATM   11  C   UNL     1      -7.966  10.481  66.555  1.00  0.00    -0.132 C  
HETATM   12  O   UNL     1      -6.852   9.720  66.096  1.00  0.00    -0.084 OA 
HETATM   13  H   UNL     1      -6.836   9.702  65.147  1.00  0.00     0.000 HD 
ENDBRANCH  10  11
ENDBRANCH   5  10
ENDBRANCH   4   5
ENDBRANCH   2   4
TORSDOF 6
ENDMDL
MODEL      281
REMARK 921   NORMALIZED FREE ENERGY PREDICTED BY IDOCK:   -1.26 KCAL/MOL
REMARK 922        TOTAL FREE ENERGY PREDICTED BY IDOCK:   -2.18 KCAL/MOL
REMARK 923 INTER-LIGAND FREE ENERGY PREDICTED BY IDOCK:   -2.04 KCAL/MOL
REMARK 924 INTRA-LIGAND FREE ENERGY PREDICTED BY IDOCK:   -0.14 KCAL/MOL
REMARK 927      BINDING AFFINITY PREDICTED BY RF-SCORE:    0.00 PKD
ROOT
HETATM    1  O   UNL     1     -10.547   5.995  66.324  1.00  0.00    -0.468 OA 
HETATM    2  C   UNL     1     -10.885   6.173  67.700  1.00  0.00    -0.332 C  
HETATM    3  H   UNL     1     -11.347   5.909  65.820  1.00  0.00     0.000 HD 
ENDROOT
BRANCH   2   4
HETATM    4  C   UNL     1      -9.589   6.313  68.517  1.00  0.00    -0.126 C  
BRANCH   4   5
HETATM    5  N   UNL     1      -9.508   7.471  69.451  1.00  0.00    -0.155 NA 
BRANCH   5   6
HETATM    6  C   UNL     1      -9.234   6.979  70.834  1.00  0.00    -0.156 C  
BRANCH   6   7
HETATM    7  C   UNL     1      -9.870   5.622  71.196  1.00  0.00    -0.177 C  
HETATM    8  H   UNL     1     -11.562   4.974  71.965  1.00  0.00     0.000 HD 
HETATM    9  O   UNL     1     -11.170   5.811  71.742  1.00  0.00    -0.264 OA 
ENDBRANCH   6   7
ENDBRANCH   5   6
BRANCH   5  10
HETATM   10  C   UNL     1      -8.415   8.388  69.012  1.00  0.00    -0.123 C  
BRANCH  10  11
HETATM   11  C   UNL     1      -8.311   8.598  67.490  1.00  0.00    -0.120 C  
HETATM   12  O   UNL     1      -8.297   9.989  67.185  1.00  0.00    -0.121 OA 
HETATM   13  H   UNL     1      -8.232  10.119  66.246  1.00  0.00     0.000 HD 
ENDBRANCH  10  11
ENDBRANCH   5  10
ENDBRANCH   4   5
ENDBRANCH   2   4
TORSDOF 6
ENDMDL
MODEL      282
REMARK 921   NORMALIZED FREE ENERGY PREDICTED BY IDOCK:   -1.25 KCAL/MOL
REMARK 922        TOTAL FREE ENERGY PREDICTED BY IDOCK:   -2.17 KCAL/MOL
REMARK 923 INTER-LIGAND FREE ENERGY PREDICTED BY IDOCK:   -2.08 KCAL/MOL
REMARK 924 INTRA-LIGAND FREE ENERGY PREDICTED BY IDOCK:   -0.10 KCAL/MOL
REMARK 927      BINDING AFFINITY PREDICTED BY RF-SCORE:    0.00 PKD
ROOT
HETATM    1  O   UNL     1      -8.450   9.116  71.495  1.00  0.00    -0.333 OA 
HETATM    2  C   UNL     1      -9.213   9.425  70.329  1.00  0.00    -0.245 C  
HETATM    3  H   UNL     1      -8.377   9.897  72.030  1.00  0.00     0.000 HD 
ENDROOT
BRANCH   2   4
HETATM    4  C   UNL     1      -9.331   8.160  69.461  1.00  0.00    -0.155 C  
BRANCH   4   5
HETATM    5  N   UNL     1      -9.794   8.351  68.058  1.00  0.00    -0.163 NA 
BRANCH   5   6
HETATM    6  C   UNL     1      -8.612   8.436  67.150  1.00  0.00    -0.123 C  
BRANCH   6   7
HETATM    7  C   UNL     1      -8.027   9.847  66.949  1.00  0.00    -0.109 C  
HETATM    8  H   UNL     1      -6.803  10.744  65.695  1.00  0.00     0.000 HD 
HETATM    9  O   UNL     1      -7.163   9.873  65.819  1.00  0.00    -0.099 OA 
ENDBRANCH   6   7
ENDBRANCH   5   6
BRANCH   5  10
HETATM   10  C   UNL     1     -10.659   7.201  67.660  1.00  0.00    -0.248 C  
BRANCH  10  11
HETATM   11  C   UNL     1      -9.903   5.970  67.126  1.00  0.00    -0.142 C  
HETATM   12  O   UNL     1     -10.569   5.440  65.984  1.00  0.00    -0.458 OA 
HETATM   13  H   UNL     1     -10.102   4.681  65.655  1.00  0.00     0.000 HD 
ENDBRANCH  10  11
ENDBRANCH   5  10
ENDBRANCH   4   5
ENDBRANCH   2   4
TORSDOF 6
ENDMDL
MODEL      283
REMARK 921   NORMALIZED FREE ENERGY PREDICTED BY IDOCK:   -1.25 KCAL/MOL
REMARK 922        TOTAL FREE ENERGY PREDICTED BY IDOCK:   -2.17 KCAL/MOL
REMARK 923 INTER-LIGAND FREE ENERGY PREDICTED BY IDOCK:   -2.05 KCAL/MOL
REMARK 924 INTRA-LIGAND FREE ENERGY PREDICTED BY IDOCK:   -0.12 KCAL/MOL
REMARK 927      BINDING AFFINITY PREDICTED BY RF-SCORE:    0.00 PKD
ROOT
HETATM    1  O   UNL     1      -5.985   2.291  66.624  1.00  0.00    -0.022 OA 
HETATM    2  C   UNL     1      -7.394   2.517  66.665  1.00  0.00    -0.069 C  
HETATM    3  H   UNL     1      -5.826   1.376  66.422  1.00  0.00     0.000 HD 
ENDROOT
BRANCH   2   4
HETATM    4  C   UNL     1      -7.651   3.998  66.992  1.00  0.00    -0.084 C  
BRANCH   4   5
HETATM    5  N   UNL     1      -9.025   4.356  67.440  1.00  0.00    -0.112 NA 
BRANCH   5   6
HETATM    6  C   UNL     1      -8.944   5.239  68.642  1.00  0.00    -0.107 C  
BRANCH   6   7
HETATM    7  C   UNL     1      -9.538   4.656  69.939  1.00  0.00    -0.191 C  
HETATM    8  H   UNL     1      -9.186   3.134  71.136  1.00  0.00     0.000 HD 
HETATM    9  O   UNL     1      -8.820   3.493  70.337  1.00  0.00    -0.070 OA 
ENDBRANCH   6   7
ENDBRANCH   5   6
BRANCH   5  10
HETATM   10  C   UNL     1      -9.740   5.064  66.337  1.00  0.00    -0.182 C  
BRANCH  10  11
HETATM   11  C   UNL     1     -10.352   4.147  65.262  1.00  0.00    -0.168 C  
HETATM   12  O   UNL     1     -11.703   4.520  65.007  1.00  0.00    -1.044 OA 
HETATM   13  H   UNL     1     -12.080   3.955  64.343  1.00  0.00     0.000 HD 
ENDBRANCH  10  11
ENDBRANCH   5  10
ENDBRANCH   4   5
ENDBRANCH   2   4
TORSDOF 6
ENDMDL
MODEL      284
REMARK 921   NORMALIZED FREE ENERGY PREDICTED BY IDOCK:   -1.24 KCAL/MOL
REMARK 922        TOTAL FREE ENERGY PREDICTED BY IDOCK:   -2.15 KCAL/MOL
REMARK 923 INTER-LIGAND FREE ENERGY PREDICTED BY IDOCK:   -1.90 KCAL/MOL
REMARK 924 INTRA-LIGAND FREE ENERGY PREDICTED BY IDOCK:   -0.25 KCAL/MOL
REMARK 927      BINDING AFFINITY PREDICTED BY RF-SCORE:    0.00 PKD
ROOT
HETATM    1  O   UNL     1      -9.794   4.266  73.661  1.00  0.00    -0.118 OA 
HETATM    2  C   UNL     1     -10.058   4.666  72.316  1.00  0.00    -0.189 C  
HETATM    3  H   UNL     1     -10.356   3.532  73.879  1.00  0.00     0.000 HD 
ENDROOT
BRANCH   2   4
HETATM    4  C   UNL     1      -9.147   5.855  71.962  1.00  0.00    -0.144 C  
BRANCH   4   5
HETATM    5  N   UNL     1      -9.823   7.135  71.613  1.00  0.00    -0.163 NA 
BRANCH   5   6
HETATM    6  C   UNL     1      -9.841   8.032  72.806  1.00  0.00    -0.282 C  
BRANCH   6   7
HETATM    7  C   UNL     1      -8.688   7.829  73.809  1.00  0.00    -0.262 C  
HETATM    8  H   UNL     1      -6.889   8.565  74.117  1.00  0.00     0.000 HD 
HETATM    9  O   UNL     1      -7.599   8.690  73.499  1.00  0.00    -0.376 OA 
ENDBRANCH   6   7
ENDBRANCH   5   6
BRANCH   5  10
HETATM   10  C   UNL     1      -9.088   7.795  70.493  1.00  0.00    -0.154 C  
BRANCH  10  11
HETATM   11  C   UNL     1      -8.469   6.834  69.462  1.00  0.00    -0.133 C  
HETATM   12  O   UNL     1      -7.172   7.284  69.084  1.00  0.00    -0.080 OA 
HETATM   13  H   UNL     1      -6.790   6.691  68.449  1.00  0.00     0.000 HD 
ENDBRANCH  10  11
ENDBRANCH   5  10
ENDBRANCH   4   5
ENDBRANCH   2   4
TORSDOF 6
ENDMDL
MODEL      285
REMARK 921   NORMALIZED FREE ENERGY PREDICTED BY IDOCK:   -1.22 KCAL/MOL
REMARK 922        TOTAL FREE ENERGY PREDICTED BY IDOCK:   -2.14 KCAL/MOL
REMARK 923 INTER-LIGAND FREE ENERGY PREDICTED BY IDOCK:   -1.91 KCAL/MOL
REMARK 924 INTRA-LIGAND FREE ENERGY PREDICTED BY IDOCK:   -0.23 KCAL/MOL
REMARK 927      BINDING AFFINITY PREDICTED BY RF-SCORE:    0.00 PKD
ROOT
HETATM    1  O   UNL     1     -10.463   5.788  65.924  1.00  0.00    -0.433 OA 
HETATM    2  C   UNL     1     -11.020   6.473  67.046  1.00  0.00    -0.396 C  
HETATM    3  H   UNL     1     -10.979   5.009  65.753  1.00  0.00     0.000 HD 
ENDROOT
BRANCH   2   4
HETATM    4  C   UNL     1     -10.186   7.736  67.323  1.00  0.00    -0.273 C  
BRANCH   4   5
HETATM    5  N   UNL     1      -8.714   7.550  67.455  1.00  0.00    -0.125 NA 
BRANCH   5   6
HETATM    6  C   UNL     1      -8.013   8.373  66.425  1.00  0.00    -0.099 C  
BRANCH   6   7
HETATM    7  C   UNL     1      -8.888   9.406  65.689  1.00  0.00    -0.174 C  
HETATM    8  H   UNL     1      -9.390   9.819  63.831  1.00  0.00     0.000 HD 
HETATM    9  O   UNL     1      -8.850   9.182  64.285  1.00  0.00    -0.186 OA 
ENDBRANCH   6   7
ENDBRANCH   5   6
BRANCH   5  10
HETATM   10  C   UNL     1      -8.281   7.970  68.821  1.00  0.00    -0.126 C  
BRANCH  10  11
HETATM   11  C   UNL     1      -6.863   8.566  68.901  1.00  0.00    -0.061 C  
HETATM   12  O   UNL     1      -6.185   8.072  70.052  1.00  0.00    -0.032 OA 
HETATM   13  H   UNL     1      -5.311   8.440  70.101  1.00  0.00     0.000 HD 
ENDBRANCH  10  11
ENDBRANCH   5  10
ENDBRANCH   4   5
ENDBRANCH   2   4
TORSDOF 6
ENDMDL
MODEL      286
REMARK 921   NORMALIZED FREE ENERGY PREDICTED BY IDOCK:   -1.20 KCAL/MOL
REMARK 922        TOTAL FREE ENERGY PREDICTED BY IDOCK:   -2.10 KCAL/MOL
REMARK 923 INTER-LIGAND FREE ENERGY PREDICTED BY IDOCK:   -1.93 KCAL/MOL
REMARK 924 INTRA-LIGAND FREE ENERGY PREDICTED BY IDOCK:   -0.17 KCAL/MOL
REMARK 927      BINDING AFFINITY PREDICTED BY RF-SCORE:    0.00 PKD
ROOT
HETATM    1  O   UNL     1      -6.651  10.241  67.985  1.00  0.00    -0.060 OA 
HETATM    2  C   UNL     1      -7.070   8.877  67.953  1.00  0.00    -0.079 C  
HETATM    3  H   UNL     1      -5.740  10.289  67.719  1.00  0.00     0.000 HD 
ENDROOT
BRANCH   2   4
HETATM    4  C   UNL     1      -8.545   8.799  68.383  1.00  0.00    -0.134 C  
BRANCH   4   5
HETATM    5  N   UNL     1      -9.562   9.170  67.360  1.00  0.00    -0.146 NA 
BRANCH   5   6
HETATM    6  C   UNL     1      -9.906   7.970  66.541  1.00  0.00    -0.219 C  
BRANCH   6   7
HETATM    7  C   UNL     1     -10.756   6.899  67.253  1.00  0.00    -0.351 C  
HETATM    8  H   UNL     1     -11.374   5.065  66.895  1.00  0.00     0.000 HD 
HETATM    9  O   UNL     1     -10.850   5.725  66.456  1.00  0.00    -0.276 OA 
ENDBRANCH   6   7
ENDBRANCH   5   6
BRANCH   5  10
HETATM   10  C   UNL     1     -10.785   9.689  68.040  1.00  0.00    -0.232 C  
BRANCH  10  11
HETATM   11  C   UNL     1     -10.533  10.792  69.084  1.00  0.00    -0.218 C  
HETATM   12  O   UNL     1     -10.526  12.071  68.457  1.00  0.00    -0.218 OA 
HETATM   13  H   UNL     1     -10.371  12.752  69.101  1.00  0.00     0.000 HD 
ENDBRANCH  10  11
ENDBRANCH   5  10
ENDBRANCH   4   5
ENDBRANCH   2   4
TORSDOF 6
ENDMDL
MODEL      287
REMARK 921   NORMALIZED FREE ENERGY PREDICTED BY IDOCK:   -1.17 KCAL/MOL
REMARK 922        TOTAL FREE ENERGY PREDICTED BY IDOCK:   -2.06 KCAL/MOL
REMARK 923 INTER-LIGAND FREE ENERGY PREDICTED BY IDOCK:   -1.80 KCAL/MOL
REMARK 924 INTRA-LIGAND FREE ENERGY PREDICTED BY IDOCK:   -0.26 KCAL/MOL
REMARK 927      BINDING AFFINITY PREDICTED BY RF-SCORE:    0.00 PKD
ROOT
HETATM    1  O   UNL     1     -10.860   8.112  67.147  1.00  0.00    -0.464 OA 
HETATM    2  C   UNL     1     -10.176   8.986  68.043  1.00  0.00    -0.212 C  
HETATM    3  H   UNL     1     -11.304   8.633  66.488  1.00  0.00     0.000 HD 
ENDROOT
BRANCH   2   4
HETATM    4  C   UNL     1      -9.456   8.142  69.110  1.00  0.00    -0.155 C  
BRANCH   4   5
HETATM    5  N   UNL     1      -7.968   8.192  69.112  1.00  0.00    -0.111 NA 
BRANCH   5   6
HETATM    6  C   UNL     1      -7.512   9.507  68.571  1.00  0.00    -0.080 C  
BRANCH   6   7
HETATM    7  C   UNL     1      -7.182  10.583  69.625  1.00  0.00    -0.148 C  
HETATM    8  H   UNL     1      -5.653  11.728  70.096  1.00  0.00     0.000 HD 
HETATM    9  O   UNL     1      -5.856  11.065  69.447  1.00  0.00    -0.042 OA 
ENDBRANCH   6   7
ENDBRANCH   5   6
BRANCH   5  10
HETATM   10  C   UNL     1      -7.466   8.016  70.507  1.00  0.00    -0.071 C  
BRANCH  10  11
HETATM   11  C   UNL     1      -8.553   7.729  71.560  1.00  0.00    -0.117 C  
HETATM   12  O   UNL     1      -8.632   8.803  72.492  1.00  0.00    -0.403 OA 
HETATM   13  H   UNL     1      -9.303   8.626  73.141  1.00  0.00     0.000 HD 
ENDBRANCH  10  11
ENDBRANCH   5  10
ENDBRANCH   4   5
ENDBRANCH   2   4
TORSDOF 6
ENDMDL
MODEL      288
REMARK 921   NORMALIZED FREE ENERGY PREDICTED BY IDOCK:   -1.14 KCAL/MOL
REMARK 922        TOTAL FREE ENERGY PREDICTED BY IDOCK:   -2.03 KCAL/MOL
REMARK 923 INTER-LIGAND FREE ENERGY PREDICTED BY IDOCK:   -1.88 KCAL/MOL
REMARK 924 INTRA-LIGAND FREE ENERGY PREDICTED BY IDOCK:   -0.15 KCAL/MOL
REMARK 927      BINDING AFFINITY PREDICTED BY RF-SCORE:    0.00 PKD
ROOT
HETATM    1  O   UNL     1     -11.163   5.528  65.986  1.00  0.00    -0.771 OA 
HETATM    2  C   UNL     1     -11.036   6.194  67.243  1.00  0.00    -0.236 C  
HETATM    3  H   UNL     1     -12.001   5.082  65.959  1.00  0.00     0.000 HD 
ENDROOT
BRANCH   2   4
HETATM    4  C   UNL     1      -9.679   6.917  67.288  1.00  0.00    -0.146 C  
BRANCH   4   5
HETATM    5  N   UNL     1      -9.155   7.441  65.996  1.00  0.00    -0.130 NA 
BRANCH   5   6
HETATM    6  C   UNL     1      -8.745   8.866  66.164  1.00  0.00    -0.153 C  
BRANCH   6   7
HETATM    7  C   UNL     1      -8.509   9.324  67.617  1.00  0.00    -0.116 C  
HETATM    8  H   UNL     1      -8.522  11.015  68.624  1.00  0.00     0.000 HD 
HETATM    9  O   UNL     1      -8.668  10.733  67.729  1.00  0.00    -0.128 OA 
ENDBRANCH   6   7
ENDBRANCH   5   6
BRANCH   5  10
HETATM   10  C   UNL     1      -7.983   6.622  65.565  1.00  0.00    -0.118 C  
BRANCH  10  11
HETATM   11  C   UNL     1      -6.930   7.378  64.735  1.00  0.00    -0.051 C  
HETATM   12  O   UNL     1      -5.696   6.666  64.739  1.00  0.00    -0.029 OA 
HETATM   13  H   UNL     1      -5.046   7.132  64.226  1.00  0.00     0.000 HD 
ENDBRANCH  10  11
ENDBRANCH   5  10
ENDBRANCH   4   5
ENDBRANCH   2   4
TORSDOF 6
ENDMDL
MODEL      289
REMARK 921   NORMALIZED FREE ENERGY PREDICTED BY IDOCK:   -1.13 KCAL/MOL
REMARK 922        TOTAL FREE ENERGY PREDICTED BY IDOCK:   -2.01 KCAL/MOL
REMARK 923 INTER-LIGAND FREE ENERGY PREDICTED BY IDOCK:   -1.88 KCAL/MOL
REMARK 924 INTRA-LIGAND FREE ENERGY PREDICTED BY IDOCK:   -0.13 KCAL/MOL
REMARK 927      BINDING AFFINITY PREDICTED BY RF-SCORE:    0.00 PKD
ROOT
HETATM    1  O   UNL     1      -6.192   2.284  66.799  1.00  0.00    -0.023 OA 
HETATM    2  C   UNL     1      -7.519   2.012  66.348  1.00  0.00    -0.062 C  
HETATM    3  H   UNL     1      -5.737   1.461  66.928  1.00  0.00     0.000 HD 
ENDROOT
BRANCH   2   4
HETATM    4  C   UNL     1      -8.257   3.346  66.138  1.00  0.00    -0.097 C  
BRANCH   4   5
HETATM    5  N   UNL     1      -9.580   3.280  65.457  1.00  0.00    -0.104 NA 
BRANCH   5   6
HETATM    6  C   UNL     1     -10.320   4.558  65.678  1.00  0.00    -0.247 C  
BRANCH   6   7
HETATM    7  C   UNL     1      -9.986   5.303  66.985  1.00  0.00    -0.189 C  
HETATM    8  H   UNL     1     -10.755   6.764  68.057  1.00  0.00     0.000 HD 
HETATM    9  O   UNL     1     -10.961   6.305  67.251  1.00  0.00    -0.338 OA 
ENDBRANCH   6   7
ENDBRANCH   5   6
BRANCH   5  10
HETATM   10  C   UNL     1      -9.376   3.057  63.995  1.00  0.00    -0.120 C  
BRANCH  10  11
HETATM   11  C   UNL     1     -10.611   3.327  63.116  1.00  0.00    -0.231 C  
HETATM   12  O   UNL     1     -11.533   2.246  63.217  1.00  0.00    -0.469 OA 
HETATM   13  H   UNL     1     -12.296   2.413  62.675  1.00  0.00     0.000 HD 
ENDBRANCH  10  11
ENDBRANCH   5  10
ENDBRANCH   4   5
ENDBRANCH   2   4
TORSDOF 6
ENDMDL
MODEL      290
REMARK 921   NORMALIZED FREE ENERGY PREDICTED BY IDOCK:   -1.12 KCAL/MOL
REMARK 922        TOTAL FREE ENERGY PREDICTED BY IDOCK:   -2.00 KCAL/MOL
REMARK 923 INTER-LIGAND FREE ENERGY PREDICTED BY IDOCK:   -1.82 KCAL/MOL
REMARK 924 INTRA-LIGAND FREE ENERGY PREDICTED BY IDOCK:   -0.18 KCAL/MOL
REMARK 927      BINDING AFFINITY PREDICTED BY RF-SCORE:    0.00 PKD
ROOT
HETATM    1  O   UNL     1      -8.506   8.470  73.384  1.00  0.00    -0.367 OA 
HETATM    2  C   UNL     1      -8.973   8.639  72.046  1.00  0.00    -0.216 C  
HETATM    3  H   UNL     1      -9.079   8.948  73.972  1.00  0.00     0.000 HD 
ENDROOT
BRANCH   2   4
HETATM    4  C   UNL     1      -8.045   7.865  71.094  1.00  0.00    -0.092 C  
BRANCH   4   5
HETATM    5  N   UNL     1      -8.601   7.510  69.758  1.00  0.00    -0.139 NA 
BRANCH   5   6
HETATM    6  C   UNL     1      -9.491   6.318  69.889  1.00  0.00    -0.149 C  
BRANCH   6   7
HETATM    7  C   UNL     1      -8.816   5.039  70.424  1.00  0.00    -0.112 C  
HETATM    8  H   UNL     1      -9.181   3.105  70.437  1.00  0.00     0.000 HD 
HETATM    9  O   UNL     1      -9.597   3.893  70.107  1.00  0.00    -0.178 OA 
ENDBRANCH   6   7
ENDBRANCH   5   6
BRANCH   5  10
HETATM   10  C   UNL     1      -9.378   8.666  69.220  1.00  0.00    -0.153 C  
BRANCH  10  11
HETATM   11  C   UNL     1     -10.740   8.305  68.600  1.00  0.00    -0.027 C  
HETATM   12  O   UNL     1     -10.765   8.663  67.222  1.00  0.00    -0.392 OA 
HETATM   13  H   UNL     1     -11.605   8.439  66.840  1.00  0.00     0.000 HD 
ENDBRANCH  10  11
ENDBRANCH   5  10
ENDBRANCH   4   5
ENDBRANCH   2   4
TORSDOF 6
ENDMDL
MODEL      291
REMARK 921   NORMALIZED FREE ENERGY PREDICTED BY IDOCK:   -1.12 KCAL/MOL
REMARK 922        TOTAL FREE ENERGY PREDICTED BY IDOCK:   -2.00 KCAL/MOL
REMARK 923 INTER-LIGAND FREE ENERGY PREDICTED BY IDOCK:   -1.80 KCAL/MOL
REMARK 924 INTRA-LIGAND FREE ENERGY PREDICTED BY IDOCK:   -0.20 KCAL/MOL
REMARK 927      BINDING AFFINITY PREDICTED BY RF-SCORE:    0.00 PKD
ROOT
HETATM    1  O   UNL     1      -6.536   6.373  69.817  1.00  0.00    -0.045 OA 
HETATM    2  C   UNL     1      -7.863   6.012  70.200  1.00  0.00    -0.101 C  
HETATM    3  H   UNL     1      -6.017   6.508  70.601  1.00  0.00     0.000 HD 
ENDROOT
BRANCH   2   4
HETATM    4  C   UNL     1      -8.705   5.792  68.930  1.00  0.00    -0.111 C  
BRANCH   4   5
HETATM    5  N   UNL     1      -8.098   4.952  67.861  1.00  0.00    -0.093 NA 
BRANCH   5   6
HETATM    6  C   UNL     1      -8.071   3.526  68.303  1.00  0.00    -0.074 C  
BRANCH   6   7
HETATM    7  C   UNL     1      -9.379   2.995  68.921  1.00  0.00    -0.160 C  
HETATM    8  H   UNL     1      -9.933   2.070  70.568  1.00  0.00     0.000 HD 
HETATM    9  O   UNL     1      -9.126   2.397  70.187  1.00  0.00    -0.088 OA 
ENDBRANCH   6   7
ENDBRANCH   5   6
BRANCH   5  10
HETATM   10  C   UNL     1      -8.903   5.081  66.610  1.00  0.00    -0.111 C  
BRANCH  10  11
HETATM   11  C   UNL     1     -10.269   5.769  66.782  1.00  0.00    -0.221 C  
HETATM   12  O   UNL     1     -11.232   5.175  65.917  1.00  0.00    -0.794 OA 
HETATM   13  H   UNL     1     -12.076   5.600  66.023  1.00  0.00     0.000 HD 
ENDBRANCH  10  11
ENDBRANCH   5  10
ENDBRANCH   4   5
ENDBRANCH   2   4
TORSDOF 6
ENDMDL
MODEL      292
REMARK 921   NORMALIZED FREE ENERGY PREDICTED BY IDOCK:   -1.10 KCAL/MOL
REMARK 922        TOTAL FREE ENERGY PREDICTED BY IDOCK:   -1.97 KCAL/MOL
REMARK 923 INTER-LIGAND FREE ENERGY PREDICTED BY IDOCK:   -1.82 KCAL/MOL
REMARK 924 INTRA-LIGAND FREE ENERGY PREDICTED BY IDOCK:   -0.15 KCAL/MOL
REMARK 927      BINDING AFFINITY PREDICTED BY RF-SCORE:    0.00 PKD
ROOT
HETATM    1  O   UNL     1      -8.973   8.823  72.229  1.00  0.00    -0.360 OA 
HETATM    2  C   UNL     1      -9.478   9.283  70.975  1.00  0.00    -0.243 C  
HETATM    3  H   UNL     1      -9.119   9.496  72.883  1.00  0.00     0.000 HD 
ENDROOT
BRANCH   2   4
HETATM    4  C   UNL     1      -9.242   8.194  69.914  1.00  0.00    -0.151 C  
BRANCH   4   5
HETATM    5  N   UNL     1      -8.210   8.479  68.879  1.00  0.00    -0.116 NA 
BRANCH   5   6
HETATM    6  C   UNL     1      -8.870   8.648  67.550  1.00  0.00    -0.135 C  
BRANCH   6   7
HETATM    7  C   UNL     1      -8.262   7.827  66.396  1.00  0.00    -0.116 C  
HETATM    8  H   UNL     1      -8.346   7.810  64.429  1.00  0.00     0.000 HD 
HETATM    9  O   UNL     1      -8.721   8.316  65.141  1.00  0.00    -0.149 OA 
ENDBRANCH   6   7
ENDBRANCH   5   6
BRANCH   5  10
HETATM   10  C   UNL     1      -7.473   9.726  69.242  1.00  0.00    -0.090 C  
BRANCH  10  11
HETATM   11  C   UNL     1      -7.740  10.932  68.323  1.00  0.00    -0.111 C  
HETATM   12  O   UNL     1      -8.154  12.057  69.093  1.00  0.00    -0.349 OA 
HETATM   13  H   UNL     1      -8.317  12.801  68.526  1.00  0.00     0.000 HD 
ENDBRANCH  10  11
ENDBRANCH   5  10
ENDBRANCH   4   5
ENDBRANCH   2   4
TORSDOF 6
ENDMDL
MODEL      293
REMARK 921   NORMALIZED FREE ENERGY PREDICTED BY IDOCK:   -1.08 KCAL/MOL
REMARK 922        TOTAL FREE ENERGY PREDICTED BY IDOCK:   -1.94 KCAL/MOL
REMARK 923 INTER-LIGAND FREE ENERGY PREDICTED BY IDOCK:   -1.72 KCAL/MOL
REMARK 924 INTRA-LIGAND FREE ENERGY PREDICTED BY IDOCK:   -0.22 KCAL/MOL
REMARK 927      BINDING AFFINITY PREDICTED BY RF-SCORE:    0.00 PKD
ROOT
HETATM    1  O   UNL     1     -10.469   4.969  70.187  1.00  0.00    -0.267 OA 
HETATM    2  C   UNL     1      -9.990   6.259  69.809  1.00  0.00    -0.168 C  
HETATM    3  H   UNL     1     -11.268   4.785  69.708  1.00  0.00     0.000 HD 
ENDROOT
BRANCH   2   4
HETATM    4  C   UNL     1      -8.694   6.556  70.584  1.00  0.00    -0.144 C  
BRANCH   4   5
HETATM    5  N   UNL     1      -8.631   7.856  71.309  1.00  0.00    -0.121 NA 
BRANCH   5   6
HETATM    6  C   UNL     1      -7.392   8.589  70.912  1.00  0.00    -0.068 C  
BRANCH   6   7
HETATM    7  C   UNL     1      -6.378   7.780  70.079  1.00  0.00    -0.033 C  
HETATM    8  H   UNL     1      -5.203   8.088  68.530  1.00  0.00     0.000 HD 
HETATM    9  O   UNL     1      -5.828   8.586  69.044  1.00  0.00    -0.038 OA 
ENDBRANCH   6   7
ENDBRANCH   5   6
BRANCH   5  10
HETATM   10  C   UNL     1      -9.834   8.672  70.971  1.00  0.00    -0.210 C  
BRANCH  10  11
HETATM   11  C   UNL     1      -9.562   9.897  70.079  1.00  0.00    -0.214 C  
HETATM   12  O   UNL     1     -10.678  10.782  70.102  1.00  0.00    -0.457 OA 
HETATM   13  H   UNL     1     -10.509  11.538  69.552  1.00  0.00     0.000 HD 
ENDBRANCH  10  11
ENDBRANCH   5  10
ENDBRANCH   4   5
ENDBRANCH   2   4
TORSDOF 6
ENDMDL
MODEL      294
REMARK 921   NORMALIZED FREE ENERGY PREDICTED BY IDOCK:   -1.08 KCAL/MOL
REMARK 922        TOTAL FREE ENERGY PREDICTED BY IDOCK:   -1.94 KCAL/MOL
REMARK 923 INTER-LIGAND FREE ENERGY PREDICTED BY IDOCK:   -1.65 KCAL/MOL
REMARK 924 INTRA-LIGAND FREE ENERGY PREDICTED BY IDOCK:   -0.29 KCAL/MOL
REMARK 927      BINDING AFFINITY PREDICTED BY RF-SCORE:    0.00 PKD
ROOT
HETATM    1  O   UNL     1      -6.509   3.590  67.380  1.00  0.00    -0.036 OA 
HETATM    2  C   UNL     1      -7.828   3.244  67.802  1.00  0.00    -0.075 C  
HETATM    3  H   UNL     1      -5.883   3.204  67.981  1.00  0.00     0.000 HD 
ENDROOT
BRANCH   2   4
HETATM    4  C   UNL     1      -8.842   3.869  66.828  1.00  0.00    -0.126 C  
BRANCH   4   5
HETATM    5  N   UNL     1      -8.290   4.746  65.758  1.00  0.00    -0.115 NA 
BRANCH   5   6
HETATM    6  C   UNL     1      -8.534   4.120  64.425  1.00  0.00    -0.108 C  
BRANCH   6   7
HETATM    7  C   UNL     1      -9.648   3.055  64.383  1.00  0.00    -0.150 C  
HETATM    8  H   UNL     1     -11.507   2.927  63.749  1.00  0.00     0.000 HD 
HETATM    9  O   UNL     1     -10.821   3.584  63.775  1.00  0.00    -0.270 OA 
ENDBRANCH   6   7
ENDBRANCH   5   6
BRANCH   5  10
HETATM   10  C   UNL     1      -8.952   6.083  65.820  1.00  0.00    -0.104 C  
BRANCH  10  11
HETATM   11  C   UNL     1      -9.801   6.332  67.080  1.00  0.00    -0.149 C  
HETATM   12  O   UNL     1     -11.032   6.958  66.729  1.00  0.00    -0.513 OA 
HETATM   13  H   UNL     1     -11.556   7.112  67.506  1.00  0.00     0.000 HD 
ENDBRANCH  10  11
ENDBRANCH   5  10
ENDBRANCH   4   5
ENDBRANCH   2   4
TORSDOF 6
ENDMDL
MODEL      295
REMARK 921   NORMALIZED FREE ENERGY PREDICTED BY IDOCK:   -1.05 KCAL/MOL
REMARK 922        TOTAL FREE ENERGY PREDICTED BY IDOCK:   -1.91 KCAL/MOL
REMARK 923 INTER-LIGAND FREE ENERGY PREDICTED BY IDOCK:   -1.67 KCAL/MOL
REMARK 924 INTRA-LIGAND FREE ENERGY PREDICTED BY IDOCK:   -0.24 KCAL/MOL
REMARK 927      BINDING AFFINITY PREDICTED BY RF-SCORE:    0.00 PKD
ROOT
HETATM    1  O   UNL     1     -10.463   2.906  73.109  1.00  0.00    -0.141 OA 
HETATM    2  C   UNL     1     -10.685   4.107  72.371  1.00  0.00     0.023 C  
HETATM    3  H   UNL     1     -11.299   2.573  73.413  1.00  0.00     0.000 HD 
ENDROOT
BRANCH   2   4
HETATM    4  C   UNL     1      -9.331   4.647  71.878  1.00  0.00    -0.140 C  
BRANCH   4   5
HETATM    5  N   UNL     1      -9.339   5.992  71.239  1.00  0.00    -0.156 NA 
BRANCH   5   6
HETATM    6  C   UNL     1     -10.740   6.504  71.170  1.00  0.00    -0.240 C  
BRANCH   6   7
HETATM    7  C   UNL     1     -11.215   6.955  69.775  1.00  0.00    -0.267 C  
HETATM    8  H   UNL     1     -10.803   8.398  68.500  1.00  0.00     0.000 HD 
HETATM    9  O   UNL     1     -10.510   8.119  69.360  1.00  0.00    -0.220 OA 
ENDBRANCH   6   7
ENDBRANCH   5   6
BRANCH   5  10
HETATM   10  C   UNL     1      -8.495   6.928  72.040  1.00  0.00    -0.110 C  
BRANCH  10  11
HETATM   11  C   UNL     1      -7.590   7.860  71.214  1.00  0.00    -0.081 C  
HETATM   12  O   UNL     1      -7.986   9.217  71.393  1.00  0.00    -0.335 OA 
HETATM   13  H   UNL     1      -7.427   9.792  70.883  1.00  0.00     0.000 HD 
ENDBRANCH  10  11
ENDBRANCH   5  10
ENDBRANCH   4   5
ENDBRANCH   2   4
TORSDOF 6
ENDMDL
MODEL      296
REMARK 921   NORMALIZED FREE ENERGY PREDICTED BY IDOCK:   -1.04 KCAL/MOL
REMARK 922        TOTAL FREE ENERGY PREDICTED BY IDOCK:   -1.90 KCAL/MOL
REMARK 923 INTER-LIGAND FREE ENERGY PREDICTED BY IDOCK:   -1.77 KCAL/MOL
REMARK 924 INTRA-LIGAND FREE ENERGY PREDICTED BY IDOCK:   -0.12 KCAL/MOL
REMARK 927      BINDING AFFINITY PREDICTED BY RF-SCORE:    0.00 PKD
ROOT
HETATM    1  O   UNL     1     -11.783   9.590  70.880  1.00  0.00    -0.281 OA 
HETATM    2  C   UNL     1     -11.048   8.733  71.754  1.00  0.00    -0.347 C  
HETATM    3  H   UNL     1     -12.698   9.578  71.137  1.00  0.00     0.000 HD 
ENDROOT
BRANCH   2   4
HETATM    4  C   UNL     1      -9.566   8.752  71.338  1.00  0.00    -0.267 C  
BRANCH   4   5
HETATM    5  N   UNL     1      -9.187   7.905  70.173  1.00  0.00    -0.153 NA 
BRANCH   5   6
HETATM    6  C   UNL     1      -9.021   8.765  68.964  1.00  0.00    -0.137 C  
BRANCH   6   7
HETATM    7  C   UNL     1      -9.107   8.033  67.610  1.00  0.00    -0.137 C  
HETATM    8  H   UNL     1     -10.381   7.896  66.116  1.00  0.00     0.000 HD 
HETATM    9  O   UNL     1     -10.328   8.347  66.950  1.00  0.00    -0.292 OA 
ENDBRANCH   6   7
ENDBRANCH   5   6
BRANCH   5  10
HETATM   10  C   UNL     1      -7.907   7.195  70.470  1.00  0.00    -0.100 C  
BRANCH  10  11
HETATM   11  C   UNL     1      -6.630   8.012  70.200  1.00  0.00    -0.037 C  
HETATM   12  O   UNL     1      -5.802   7.335  69.259  1.00  0.00    -0.025 OA 
HETATM   13  H   UNL     1      -5.015   7.840  69.092  1.00  0.00     0.000 HD 
ENDBRANCH  10  11
ENDBRANCH   5  10
ENDBRANCH   4   5
ENDBRANCH   2   4
TORSDOF 6
ENDMDL
MODEL      297
REMARK 921   NORMALIZED FREE ENERGY PREDICTED BY IDOCK:   -0.98 KCAL/MOL
REMARK 922        TOTAL FREE ENERGY PREDICTED BY IDOCK:   -1.81 KCAL/MOL
REMARK 923 INTER-LIGAND FREE ENERGY PREDICTED BY IDOCK:   -1.53 KCAL/MOL
REMARK 924 INTRA-LIGAND FREE ENERGY PREDICTED BY IDOCK:   -0.28 KCAL/MOL
REMARK 927      BINDING AFFINITY PREDICTED BY RF-SCORE:    0.00 PKD
ROOT
HETATM    1  O   UNL     1      -8.821   8.747  67.968  1.00  0.00    -0.139 OA 
HETATM    2  C   UNL     1      -8.686   7.345  67.736  1.00  0.00    -0.126 C  
HETATM    3  H   UNL     1      -9.311   9.131  67.251  1.00  0.00     0.000 HD 
ENDROOT
BRANCH   2   4
HETATM    4  C   UNL     1      -7.892   6.722  68.898  1.00  0.00    -0.111 C  
BRANCH   4   5
HETATM    5  N   UNL     1      -8.642   5.817  69.812  1.00  0.00    -0.125 NA 
BRANCH   5   6
HETATM    6  C   UNL     1     -10.104   5.917  69.525  1.00  0.00    -0.203 C  
BRANCH   6   7
HETATM    7  C   UNL     1     -10.969   6.493  70.663  1.00  0.00    -0.287 C  
HETATM    8  H   UNL     1     -10.853   6.678  72.619  1.00  0.00     0.000 HD 
HETATM    9  O   UNL     1     -10.320   6.323  71.918  1.00  0.00    -0.199 OA 
ENDBRANCH   6   7
ENDBRANCH   5   6
BRANCH   5  10
HETATM   10  C   UNL     1      -8.180   4.412  69.611  1.00  0.00    -0.059 C  
BRANCH  10  11
HETATM   11  C   UNL     1      -9.252   3.442  69.081  1.00  0.00    -0.160 C  
HETATM   12  O   UNL     1      -9.014   3.146  67.708  1.00  0.00    -0.121 OA 
HETATM   13  H   UNL     1      -9.676   2.547  67.382  1.00  0.00     0.000 HD 
ENDBRANCH  10  11
ENDBRANCH   5  10
ENDBRANCH   4   5
ENDBRANCH   2   4
TORSDOF 6
ENDMDL
MODEL      298
REMARK 921   NORMALIZED FREE ENERGY PREDICTED BY IDOCK:   -0.98 KCAL/MOL
REMARK 922        TOTAL FREE ENERGY PREDICTED BY IDOCK:   -1.80 KCAL/MOL
REMARK 923 INTER-LIGAND FREE ENERGY PREDICTED BY IDOCK:   -1.61 KCAL/MOL
REMARK 924 INTRA-LIGAND FREE ENERGY PREDICTED BY IDOCK:   -0.19 KCAL/MOL
REMARK 927      BINDING AFFINITY PREDICTED BY RF-SCORE:    0.00 PKD
ROOT
HETATM    1  O   UNL     1      -9.326   4.600  69.331  1.00  0.00    -0.115 OA 
HETATM    2  C   UNL     1      -9.498   5.736  68.484  1.00  0.00    -0.123 C  
HETATM    3  H   UNL     1      -9.979   3.948  69.105  1.00  0.00     0.000 HD 
ENDROOT
BRANCH   2   4
HETATM    4  C   UNL     1      -8.440   6.793  68.849  1.00  0.00    -0.120 C  
BRANCH   4   5
HETATM    5  N   UNL     1      -8.810   8.217  68.622  1.00  0.00    -0.134 NA 
BRANCH   5   6
HETATM    6  C   UNL     1      -8.482   8.600  67.217  1.00  0.00    -0.115 C  
BRANCH   6   7
HETATM    7  C   UNL     1      -7.119   8.106  66.693  1.00  0.00    -0.077 C  
HETATM    8  H   UNL     1      -5.337   8.867  66.345  1.00  0.00     0.000 HD 
HETATM    9  O   UNL     1      -6.177   9.172  66.668  1.00  0.00    -0.063 OA 
ENDBRANCH   6   7
ENDBRANCH   5   6
BRANCH   5  10
HETATM   10  C   UNL     1     -10.272   8.396  68.868  1.00  0.00    -0.210 C  
BRANCH  10  11
HETATM   11  C   UNL     1     -10.626   9.269  70.086  1.00  0.00    -0.231 C  
HETATM   12  O   UNL     1     -10.032  10.558  69.958  1.00  0.00    -0.423 OA 
HETATM   13  H   UNL     1     -10.251  11.097  70.710  1.00  0.00     0.000 HD 
ENDBRANCH  10  11
ENDBRANCH   5  10
ENDBRANCH   4   5
ENDBRANCH   2   4
TORSDOF 6
ENDMDL
MODEL      299
REMARK 921   NORMALIZED FREE ENERGY PREDICTED BY IDOCK:   -0.97 KCAL/MOL
REMARK 922        TOTAL FREE ENERGY PREDICTED BY IDOCK:   -1.80 KCAL/MOL
REMARK 923 INTER-LIGAND FREE ENERGY PREDICTED BY IDOCK:   -1.63 KCAL/MOL
REMARK 924 INTRA-LIGAND FREE ENERGY PREDICTED BY IDOCK:   -0.17 KCAL/MOL
REMARK 927      BINDING AFFINITY PREDICTED BY RF-SCORE:    0.00 PKD
ROOT
HETATM    1  O   UNL     1     -10.571   4.915  66.397  1.00  0.00    -0.297 OA 
HETATM    2  C   UNL     1     -10.698   5.699  67.583  1.00  0.00    -0.176 C  
HETATM    3  H   UNL     1     -11.426   4.575  66.161  1.00  0.00     0.000 HD 
ENDROOT
BRANCH   2   4
HETATM    4  C   UNL     1      -9.314   6.252  67.965  1.00  0.00    -0.114 C  
BRANCH   4   5
HETATM    5  N   UNL     1      -9.217   7.722  68.185  1.00  0.00    -0.139 NA 
BRANCH   5   6
HETATM    6  C   UNL     1      -8.845   7.990  69.606  1.00  0.00    -0.141 C  
BRANCH   6   7
HETATM    7  C   UNL     1     -10.025   8.132  70.588  1.00  0.00    -0.189 C  
HETATM    8  H   UNL     1     -11.192   9.571  71.252  1.00  0.00     0.000 HD 
HETATM    9  O   UNL     1     -10.465   9.483  70.647  1.00  0.00    -0.264 OA 
ENDBRANCH   6   7
ENDBRANCH   5   6
BRANCH   5  10
HETATM   10  C   UNL     1      -8.183   8.294  67.273  1.00  0.00    -0.120 C  
BRANCH  10  11
HETATM   11  C   UNL     1      -8.228   7.770  65.826  1.00  0.00    -0.132 C  
HETATM   12  O   UNL     1      -6.957   7.931  65.203  1.00  0.00    -0.057 OA 
HETATM   13  H   UNL     1      -6.985   7.607  64.311  1.00  0.00     0.000 HD 
ENDBRANCH  10  11
ENDBRANCH   5  10
ENDBRANCH   4   5
ENDBRANCH   2   4
TORSDOF 6
ENDMDL
MODEL      300
REMARK 921   NORMALIZED FREE ENERGY PREDICTED BY IDOCK:   -0.95 KCAL/MOL
REMARK 922        TOTAL FREE ENERGY PREDICTED BY IDOCK:   -1.77 KCAL/MOL
REMARK 923 INTER-LIGAND FREE ENERGY PREDICTED BY IDOCK:   -1.63 KCAL/MOL
REMARK 924 INTRA-LIGAND FREE ENERGY PREDICTED BY IDOCK:   -0.13 KCAL/MOL
REMARK 927      BINDING AFFINITY PREDICTED BY RF-SCORE:    0.00 PKD
ROOT
HETATM    1  O   UNL     1      -9.440   3.758  69.568  1.00  0.00    -0.166 OA 
HETATM    2  C   UNL     1      -9.897   4.269  68.316  1.00  0.00    -0.037 C  
HETATM    3  H   UNL     1     -10.188   3.626  70.138  1.00  0.00     0.000 HD 
ENDROOT
BRANCH   2   4
HETATM    4  C   UNL     1      -8.684   4.482  67.393  1.00  0.00    -0.104 C  
BRANCH   4   5
HETATM    5  N   UNL     1      -8.927   5.238  66.133  1.00  0.00    -0.134 NA 
BRANCH   5   6
HETATM    6  C   UNL     1      -9.829   4.449  65.242  1.00  0.00    -0.199 C  
BRANCH   6   7
HETATM    7  C   UNL     1      -9.339   3.032  64.886  1.00  0.00    -0.147 C  
HETATM    8  H   UNL     1      -7.904   2.223  63.808  1.00  0.00     0.000 HD 
HETATM    9  O   UNL     1      -8.206   3.097  64.027  1.00  0.00    -0.085 OA 
ENDBRANCH   6   7
ENDBRANCH   5   6
BRANCH   5  10
HETATM   10  C   UNL     1      -9.556   6.553  66.456  1.00  0.00    -0.140 C  
BRANCH  10  11
HETATM   11  C   UNL     1      -8.770   7.787  65.977  1.00  0.00    -0.161 C  
HETATM   12  O   UNL     1      -9.666   8.789  65.505  1.00  0.00    -0.459 OA 
HETATM   13  H   UNL     1      -9.181   9.551  65.210  1.00  0.00     0.000 HD 
ENDBRANCH  10  11
ENDBRANCH   5  10
ENDBRANCH   4   5
ENDBRANCH   2   4
TORSDOF 6
ENDMDL
MODEL      301
REMARK 921   NORMALIZED FREE ENERGY PREDICTED BY IDOCK:   -0.94 KCAL/MOL
REMARK 922        TOTAL FREE ENERGY PREDICTED BY IDOCK:   -1.75 KCAL/MOL
REMARK 923 INTER-LIGAND FREE ENERGY PREDICTED BY IDOCK:   -1.69 KCAL/MOL
REMARK 924 INTRA-LIGAND FREE ENERGY PREDICTED BY IDOCK:   -0.07 KCAL/MOL
REMARK 927      BINDING AFFINITY PREDICTED BY RF-SCORE:    0.00 PKD
ROOT
HETATM    1  O   UNL     1      -5.391   5.882  66.756  1.00  0.00    -0.008 OA 
HETATM    2  C   UNL     1      -6.802   5.722  66.608  1.00  0.00    -0.059 C  
HETATM    3  H   UNL     1      -5.225   6.542  67.419  1.00  0.00     0.000 HD 
ENDROOT
BRANCH   2   4
HETATM    4  C   UNL     1      -7.071   4.653  65.534  1.00  0.00    -0.064 C  
BRANCH   4   5
HETATM    5  N   UNL     1      -8.267   4.858  64.670  1.00  0.00    -0.118 NA 
BRANCH   5   6
HETATM    6  C   UNL     1      -7.831   5.289  63.309  1.00  0.00    -0.089 C  
BRANCH   6   7
HETATM    7  C   UNL     1      -6.497   6.058  63.250  1.00  0.00    -0.029 C  
HETATM    8  H   UNL     1      -5.906   7.936  63.236  1.00  0.00     0.000 HD 
HETATM    9  O   UNL     1      -6.729   7.462  63.272  1.00  0.00    -0.052 OA 
ENDBRANCH   6   7
ENDBRANCH   5   6
BRANCH   5  10
HETATM   10  C   UNL     1      -9.036   3.582  64.576  1.00  0.00    -0.130 C  
BRANCH  10  11
HETATM   11  C   UNL     1     -10.487   3.730  64.084  1.00  0.00    -0.257 C  
HETATM   12  O   UNL     1     -11.241   4.518  65.001  1.00  0.00    -0.881 OA 
HETATM   13  H   UNL     1     -12.136   4.610  64.696  1.00  0.00     0.000 HD 
ENDBRANCH  10  11
ENDBRANCH   5  10
ENDBRANCH   4   5
ENDBRANCH   2   4
TORSDOF 6
ENDMDL
MODEL      302
REMARK 921   NORMALIZED FREE ENERGY PREDICTED BY IDOCK:   -0.94 KCAL/MOL
REMARK 922        TOTAL FREE ENERGY PREDICTED BY IDOCK:   -1.75 KCAL/MOL
REMARK 923 INTER-LIGAND FREE ENERGY PREDICTED BY IDOCK:   -1.55 KCAL/MOL
REMARK 924 INTRA-LIGAND FREE ENERGY PREDICTED BY IDOCK:   -0.20 KCAL/MOL
REMARK 927      BINDING AFFINITY PREDICTED BY RF-SCORE:    0.00 PKD
ROOT
HETATM    1  O   UNL     1      -8.905   8.774  72.283  1.00  0.00    -0.367 OA 
HETATM    2  C   UNL     1      -8.847   8.720  70.858  1.00  0.00    -0.200 C  
HETATM    3  H   UNL     1      -9.527   9.445  72.540  1.00  0.00     0.000 HD 
ENDROOT
BRANCH   2   4
HETATM    4  C   UNL     1      -7.840   7.633  70.442  1.00  0.00    -0.092 C  
BRANCH   4   5
HETATM    5  N   UNL     1      -7.825   7.249  69.003  1.00  0.00    -0.115 NA 
BRANCH   5   6
HETATM    6  C   UNL     1      -9.037   7.800  68.327  1.00  0.00    -0.130 C  
BRANCH   6   7
HETATM    7  C   UNL     1      -9.963   6.758  67.669  1.00  0.00    -0.137 C  
HETATM    8  H   UNL     1     -11.534   6.760  66.483  1.00  0.00     0.000 HD 
HETATM    9  O   UNL     1     -10.963   7.402  66.889  1.00  0.00    -0.324 OA 
ENDBRANCH   6   7
ENDBRANCH   5   6
BRANCH   5  10
HETATM   10  C   UNL     1      -6.593   7.792  68.357  1.00  0.00    -0.054 C  
BRANCH  10  11
HETATM   11  C   UNL     1      -6.834   8.928  67.346  1.00  0.00    -0.070 C  
HETATM   12  O   UNL     1      -6.067  10.075  67.701  1.00  0.00    -0.056 OA 
HETATM   13  H   UNL     1      -6.215  10.775  67.077  1.00  0.00     0.000 HD 
ENDBRANCH  10  11
ENDBRANCH   5  10
ENDBRANCH   4   5
ENDBRANCH   2   4
TORSDOF 6
ENDMDL
MODEL      303
REMARK 921   NORMALIZED FREE ENERGY PREDICTED BY IDOCK:   -0.93 KCAL/MOL
REMARK 922        TOTAL FREE ENERGY PREDICTED BY IDOCK:   -1.74 KCAL/MOL
REMARK 923 INTER-LIGAND FREE ENERGY PREDICTED BY IDOCK:   -1.53 KCAL/MOL
REMARK 924 INTRA-LIGAND FREE ENERGY PREDICTED BY IDOCK:   -0.20 KCAL/MOL
REMARK 927      BINDING AFFINITY PREDICTED BY RF-SCORE:    0.00 PKD
ROOT
HETATM    1  O   UNL     1      -8.839   8.769  67.959  1.00  0.00    -0.139 OA 
HETATM    2  C   UNL     1      -8.755   7.358  67.764  1.00  0.00    -0.126 C  
HETATM    3  H   UNL     1      -9.298   9.154  67.222  1.00  0.00     0.000 HD 
ENDROOT
BRANCH   2   4
HETATM    4  C   UNL     1      -8.011   6.734  68.959  1.00  0.00    -0.116 C  
BRANCH   4   5
HETATM    5  N   UNL     1      -8.813   5.874  69.872  1.00  0.00    -0.128 NA 
BRANCH   5   6
HETATM    6  C   UNL     1      -8.238   5.935  71.249  1.00  0.00    -0.123 C  
BRANCH   6   7
HETATM    7  C   UNL     1      -7.682   4.606  71.798  1.00  0.00    -0.096 C  
HETATM    8  H   UNL     1      -7.948   2.682  71.478  1.00  0.00     0.000 HD 
HETATM    9  O   UNL     1      -8.290   3.501  71.139  1.00  0.00    -0.065 OA 
ENDBRANCH   6   7
ENDBRANCH   5   6
BRANCH   5  10
HETATM   10  C   UNL     1     -10.227   6.352  69.891  1.00  0.00    -0.183 C  
BRANCH  10  11
HETATM   11  C   UNL     1     -10.709   6.909  71.243  1.00  0.00    -0.223 C  
HETATM   12  O   UNL     1     -12.064   6.535  71.475  1.00  0.00    -0.336 OA 
HETATM   13  H   UNL     1     -12.361   6.879  72.310  1.00  0.00     0.000 HD 
ENDBRANCH  10  11
ENDBRANCH   5  10
ENDBRANCH   4   5
ENDBRANCH   2   4
TORSDOF 6
ENDMDL
MODEL      304
REMARK 921   NORMALIZED FREE ENERGY PREDICTED BY IDOCK:   -0.91 KCAL/MOL
REMARK 922        TOTAL FREE ENERGY PREDICTED BY IDOCK:   -1.71 KCAL/MOL
REMARK 923 INTER-LIGAND FREE ENERGY PREDICTED BY IDOCK:   -1.54 KCAL/MOL
REMARK 924 INTRA-LIGAND FREE ENERGY PREDICTED BY IDOCK:   -0.16 KCAL/MOL
REMARK 927      BINDING AFFINITY PREDICTED BY RF-SCORE:    0.00 PKD
ROOT
HETATM    1  O   UNL     1      -5.982   6.861  68.300  1.00  0.00    -0.026 OA 
HETATM    2  C   UNL     1      -7.247   6.203  68.361  1.00  0.00    -0.084 C  
HETATM    3  H   UNL     1      -5.813   7.279  69.136  1.00  0.00     0.000 HD 
ENDROOT
BRANCH   2   4
HETATM    4  C   UNL     1      -7.522   5.526  67.007  1.00  0.00    -0.088 C  
BRANCH   4   5
HETATM    5  N   UNL     1      -8.791   4.755  66.889  1.00  0.00    -0.110 NA 
BRANCH   5   6
HETATM    6  C   UNL     1      -9.501   5.151  65.637  1.00  0.00    -0.115 C  
BRANCH   6   7
HETATM    7  C   UNL     1      -9.655   4.040  64.579  1.00  0.00    -0.173 C  
HETATM    8  H   UNL     1     -11.097   3.280  63.476  1.00  0.00     0.000 HD 
HETATM    9  O   UNL     1     -11.002   3.964  64.128  1.00  0.00    -0.288 OA 
ENDBRANCH   6   7
ENDBRANCH   5   6
BRANCH   5  10
HETATM   10  C   UNL     1      -8.485   3.294  66.859  1.00  0.00    -0.102 C  
BRANCH  10  11
HETATM   11  C   UNL     1      -8.918   2.511  68.112  1.00  0.00    -0.152 C  
HETATM   12  O   UNL     1      -9.909   1.546  67.771  1.00  0.00    -0.407 OA 
HETATM   13  H   UNL     1     -10.176   1.062  68.544  1.00  0.00     0.000 HD 
ENDBRANCH  10  11
ENDBRANCH   5  10
ENDBRANCH   4   5
ENDBRANCH   2   4
TORSDOF 6
ENDMDL
MODEL      305
REMARK 921   NORMALIZED FREE ENERGY PREDICTED BY IDOCK:   -0.84 KCAL/MOL
REMARK 922        TOTAL FREE ENERGY PREDICTED BY IDOCK:   -1.62 KCAL/MOL
REMARK 923 INTER-LIGAND FREE ENERGY PREDICTED BY IDOCK:   -1.32 KCAL/MOL
REMARK 924 INTRA-LIGAND FREE ENERGY PREDICTED BY IDOCK:   -0.30 KCAL/MOL
REMARK 927      BINDING AFFINITY PREDICTED BY RF-SCORE:    0.00 PKD
ROOT
HETATM    1  O   UNL     1      -9.585   4.266  69.358  1.00  0.00    -0.172 OA 
HETATM    2  C   UNL     1      -9.352   5.597  68.897  1.00  0.00    -0.120 C  
HETATM    3  H   UNL     1     -10.391   3.945  68.972  1.00  0.00     0.000 HD 
ENDROOT
BRANCH   2   4
HETATM    4  C   UNL     1      -8.045   6.118  69.520  1.00  0.00    -0.112 C  
BRANCH   4   5
HETATM    5  N   UNL     1      -8.155   7.313  70.403  1.00  0.00    -0.115 NA 
BRANCH   5   6
HETATM    6  C   UNL     1      -8.028   6.892  71.831  1.00  0.00    -0.099 C  
BRANCH   6   7
HETATM    7  C   UNL     1      -7.652   5.414  72.058  1.00  0.00    -0.099 C  
HETATM    8  H   UNL     1      -8.565   3.751  72.583  1.00  0.00     0.000 HD 
HETATM    9  O   UNL     1      -8.797   4.662  72.443  1.00  0.00    -0.117 OA 
ENDBRANCH   6   7
ENDBRANCH   5   6
BRANCH   5  10
HETATM   10  C   UNL     1      -7.073   8.284  70.063  1.00  0.00    -0.043 C  
BRANCH  10  11
HETATM   11  C   UNL     1      -7.558   9.618  69.467  1.00  0.00    -0.104 C  
HETATM   12  O   UNL     1      -8.535  10.211  70.318  1.00  0.00    -0.335 OA 
HETATM   13  H   UNL     1      -8.834  11.035  69.950  1.00  0.00     0.000 HD 
ENDBRANCH  10  11
ENDBRANCH   5  10
ENDBRANCH   4   5
ENDBRANCH   2   4
TORSDOF 6
ENDMDL
MODEL      306
REMARK 921   NORMALIZED FREE ENERGY PREDICTED BY IDOCK:   -0.81 KCAL/MOL
REMARK 922        TOTAL FREE ENERGY PREDICTED BY IDOCK:   -1.58 KCAL/MOL
REMARK 923 INTER-LIGAND FREE ENERGY PREDICTED BY IDOCK:   -1.32 KCAL/MOL
REMARK 924 INTRA-LIGAND FREE ENERGY PREDICTED BY IDOCK:   -0.26 KCAL/MOL
REMARK 927      BINDING AFFINITY PREDICTED BY RF-SCORE:    0.00 PKD
ROOT
HETATM    1  O   UNL     1      -9.441   3.867  69.594  1.00  0.00    -0.165 OA 
HETATM    2  C   UNL     1      -9.587   4.566  68.358  1.00  0.00    -0.145 C  
HETATM    3  H   UNL     1     -10.286   3.521  69.852  1.00  0.00     0.000 HD 
ENDROOT
BRANCH   2   4
HETATM    4  C   UNL     1      -8.216   5.128  67.939  1.00  0.00    -0.098 C  
BRANCH   4   5
HETATM    5  N   UNL     1      -8.188   6.540  67.467  1.00  0.00    -0.120 NA 
BRANCH   5   6
HETATM    6  C   UNL     1      -8.722   6.613  66.075  1.00  0.00    -0.147 C  
BRANCH   6   7
HETATM    7  C   UNL     1      -8.007   7.606  65.138  1.00  0.00    -0.130 C  
HETATM    8  H   UNL     1      -8.332   9.408  64.415  1.00  0.00     0.000 HD 
HETATM    9  O   UNL     1      -8.774   8.795  64.993  1.00  0.00    -0.187 OA 
ENDBRANCH   6   7
ENDBRANCH   5   6
BRANCH   5  10
HETATM   10  C   UNL     1      -9.020   7.384  68.375  1.00  0.00    -0.134 C  
BRANCH  10  11
HETATM   11  C   UNL     1      -8.264   8.528  69.077  1.00  0.00    -0.116 C  
HETATM   12  O   UNL     1      -7.339   9.132  68.177  1.00  0.00    -0.078 OA 
HETATM   13  H   UNL     1      -6.874   9.838  68.610  1.00  0.00     0.000 HD 
ENDBRANCH  10  11
ENDBRANCH   5  10
ENDBRANCH   4   5
ENDBRANCH   2   4
TORSDOF 6
ENDMDL
MODEL      307
REMARK 921   NORMALIZED FREE ENERGY PREDICTED BY IDOCK:   -0.77 KCAL/MOL
REMARK 922        TOTAL FREE ENERGY PREDICTED BY IDOCK:   -1.53 KCAL/MOL
REMARK 923 INTER-LIGAND FREE ENERGY PREDICTED BY IDOCK:   -1.13 KCAL/MOL
REMARK 924 INTRA-LIGAND FREE ENERGY PREDICTED BY IDOCK:   -0.39 KCAL/MOL
REMARK 927      BINDING AFFINITY PREDICTED BY RF-SCORE:    0.00 PKD
ROOT
HETATM    1  O   UNL     1      -6.617   6.319  67.363  1.00  0.00    -0.048 OA 
HETATM    2  C   UNL     1      -7.826   6.038  66.660  1.00  0.00    -0.101 C  
HETATM    3  H   UNL     1      -6.832   6.734  68.190  1.00  0.00     0.000 HD 
ENDROOT
BRANCH   2   4
HETATM    4  C   UNL     1      -7.479   5.365  65.320  1.00  0.00    -0.077 C  
BRANCH   4   5
HETATM    5  N   UNL     1      -8.606   5.132  64.375  1.00  0.00    -0.138 NA 
BRANCH   5   6
HETATM    6  C   UNL     1      -8.065   4.743  63.039  1.00  0.00    -0.090 C  
BRANCH   6   7
HETATM    7  C   UNL     1      -7.009   3.621  63.049  1.00  0.00    -0.039 C  
HETATM    8  H   UNL     1      -6.908   1.722  62.541  1.00  0.00     0.000 HD 
HETATM    9  O   UNL     1      -7.559   2.414  62.534  1.00  0.00    -0.046 OA 
ENDBRANCH   6   7
ENDBRANCH   5   6
BRANCH   5  10
HETATM   10  C   UNL     1      -9.482   4.045  64.904  1.00  0.00    -0.171 C  
BRANCH  10  11
HETATM   11  C   UNL     1     -10.656   3.650  63.989  1.00  0.00    -0.263 C  
HETATM   12  O   UNL     1     -10.420   2.371  63.408  1.00  0.00    -0.161 OA 
HETATM   13  H   UNL     1     -11.144   2.128  62.844  1.00  0.00     0.000 HD 
ENDBRANCH  10  11
ENDBRANCH   5  10
ENDBRANCH   4   5
ENDBRANCH   2   4
TORSDOF 6
ENDMDL
MODEL      308
REMARK 921   NORMALIZED FREE ENERGY PREDICTED BY IDOCK:   -0.66 KCAL/MOL
REMARK 922        TOTAL FREE ENERGY PREDICTED BY IDOCK:   -1.38 KCAL/MOL
REMARK 923 INTER-LIGAND FREE ENERGY PREDICTED BY IDOCK:   -1.20 KCAL/MOL
REMARK 924 INTRA-LIGAND FREE ENERGY PREDICTED BY IDOCK:   -0.17 KCAL/MOL
REMARK 927      BINDING AFFINITY PREDICTED BY RF-SCORE:    0.00 PKD
ROOT
HETATM    1  O   UNL     1      -8.933   3.250  74.415  1.00  0.00    -0.085 OA 
HETATM    2  C   UNL     1      -9.374   4.144  73.393  1.00  0.00    -0.111 C  
HETATM    3  H   UNL     1      -9.643   3.114  75.031  1.00  0.00     0.000 HD 
ENDROOT
BRANCH   2   4
HETATM    4  C   UNL     1      -8.224   4.365  72.395  1.00  0.00    -0.108 C  
BRANCH   4   5
HETATM    5  N   UNL     1      -8.297   5.589  71.550  1.00  0.00    -0.122 NA 
BRANCH   5   6
HETATM    6  C   UNL     1      -8.448   5.199  70.117  1.00  0.00    -0.100 C  
BRANCH   6   7
HETATM    7  C   UNL     1      -7.378   5.756  69.158  1.00  0.00    -0.083 C  
HETATM    8  H   UNL     1      -7.281   6.358  67.286  1.00  0.00     0.000 HD 
HETATM    9  O   UNL     1      -7.941   6.014  67.877  1.00  0.00    -0.104 OA 
ENDBRANCH   6   7
ENDBRANCH   5   6
BRANCH   5  10
HETATM   10  C   UNL     1      -9.462   6.419  71.976  1.00  0.00    -0.151 C  
BRANCH  10  11
HETATM   11  C   UNL     1      -9.119   7.860  72.396  1.00  0.00    -0.172 C  
HETATM   12  O   UNL     1      -8.980   8.689  71.246  1.00  0.00    -0.171 OA 
HETATM   13  H   UNL     1      -8.768   9.578  71.506  1.00  0.00     0.000 HD 
ENDBRANCH  10  11
ENDBRANCH   5  10
ENDBRANCH   4   5
ENDBRANCH   2   4
TORSDOF 6
ENDMDL
MODEL      309
REMARK 921   NORMALIZED FREE ENERGY PREDICTED BY IDOCK:   -0.47 KCAL/MOL
REMARK 922        TOTAL FREE ENERGY PREDICTED BY IDOCK:   -1.11 KCAL/MOL
REMARK 923 INTER-LIGAND FREE ENERGY PREDICTED BY IDOCK:   -0.76 KCAL/MOL
REMARK 924 INTRA-LIGAND FREE ENERGY PREDICTED BY IDOCK:   -0.35 KCAL/MOL
REMARK 927      BINDING AFFINITY PREDICTED BY RF-SCORE:    0.00 PKD
ROOT
HETATM    1  O   UNL     1     -10.295   2.760  73.154  1.00  0.00    -0.130 OA 
HETATM    2  C   UNL     1      -9.837   3.502  72.023  1.00  0.00    -0.168 C  
HETATM    3  H   UNL     1     -11.222   2.924  73.273  1.00  0.00     0.000 HD 
ENDROOT
BRANCH   2   4
HETATM    4  C   UNL     1      -8.334   3.236  71.829  1.00  0.00    -0.065 C  
BRANCH   4   5
HETATM    5  N   UNL     1      -7.764   3.557  70.490  1.00  0.00    -0.044 NA 
BRANCH   5   6
HETATM    6  C   UNL     1      -8.852   4.041  69.589  1.00  0.00    -0.086 C  
BRANCH   6   7
HETATM    7  C   UNL     1      -8.987   3.294  68.248  1.00  0.00    -0.140 C  
HETATM    8  H   UNL     1      -7.791   2.639  66.827  1.00  0.00     0.000 HD 
HETATM    9  O   UNL     1      -7.708   3.100  67.654  1.00  0.00    -0.067 OA 
ENDBRANCH   6   7
ENDBRANCH   5   6
BRANCH   5  10
HETATM   10  C   UNL     1      -6.718   4.612  70.636  1.00  0.00    -0.036 C  
BRANCH  10  11
HETATM   11  C   UNL     1      -5.518   4.477  69.680  1.00  0.00    -0.008 C  
HETATM   12  O   UNL     1      -5.806   5.109  68.436  1.00  0.00    -0.016 OA 
HETATM   13  H   UNL     1      -5.065   5.026  67.846  1.00  0.00     0.000 HD 
ENDBRANCH  10  11
ENDBRANCH   5  10
ENDBRANCH   4   5
ENDBRANCH   2   4
TORSDOF 6
ENDMDL
