MODEL        1
REMARK 921   NORMALIZED FREE ENERGY PREDICTED BY IDOCK:   -6.24 KCAL/MOL
REMARK 922        TOTAL FREE ENERGY PREDICTED BY IDOCK:   -8.26 KCAL/MOL
REMARK 923 INTER-LIGAND FREE ENERGY PREDICTED BY IDOCK:   -8.42 KCAL/MOL
REMARK 924 INTRA-LIGAND FREE ENERGY PREDICTED BY IDOCK:    0.16 KCAL/MOL
REMARK 927      BINDING AFFINITY PREDICTED BY RF-SCORE:    0.00 PKD
ROOT
HETATM    1  C   UNL     1      -9.616  10.471  63.287  1.00  0.00    -0.331 C  
HETATM    2  N   UNL     1     -10.723  11.098  64.016  1.00  0.00    -0.375 NA 
HETATM    3  C   UNL     1     -10.477  11.006  65.457  1.00  0.00    -0.238 C  
ENDROOT
BRANCH   2   4
HETATM    4  C   UNL     1     -10.881  12.494  63.565  1.00  0.00    -0.397 C  
BRANCH   4   5
HETATM    5  C   UNL     1     -12.339  12.960  63.423  1.00  0.00    -0.410 C  
BRANCH   5   6
HETATM    6  O   UNL     1     -12.414  14.360  63.714  1.00  0.00    -0.814 OA 
BRANCH   6   7
HETATM    7  C   UNL     1     -11.991  14.628  65.048  1.00  0.00    -0.364 C  
BRANCH   7   8
HETATM    8  C   UNL     1     -11.284  15.976  65.136  1.00  0.00    -0.189 C  
HETATM    9  N   UNL     1     -10.737  16.234  66.380  1.00  0.00    -0.238 N  
HETATM   10  O   UNL     1     -11.183  16.718  64.165  1.00  0.00    -1.155 OA 
HETATM   11  H   UNL     1     -10.842  15.522  67.103  1.00  0.00     0.000 HD 
BRANCH   9  12
HETATM   12  C   UNL     1     -10.017  17.461  66.728  1.00  0.00    -0.307 C  
HETATM   13  C   UNL     1     -10.589  18.691  65.982  1.00  0.00    -0.410 C  
HETATM   14  C   UNL     1      -9.830  19.968  66.383  1.00  0.00    -0.578 C  
HETATM   15  C   UNL     1      -9.986  20.198  67.894  1.00  0.00    -0.537 C  
HETATM   16  C   UNL     1      -9.418  18.998  68.671  1.00  0.00    -0.457 C  
HETATM   17  C   UNL     1      -7.927  18.840  68.332  1.00  0.00    -0.365 C  
HETATM   18  C   UNL     1     -10.171  17.721  68.252  1.00  0.00    -0.382 C  
HETATM   19  C   UNL     1      -7.753  18.605  66.824  1.00  0.00    -0.255 C  
HETATM   20  C   UNL     1      -8.505  17.327  66.422  1.00  0.00    -0.304 C  
HETATM   21  C   UNL     1      -8.339  19.798  66.046  1.00  0.00    -0.314 C  
ENDBRANCH   9  12
ENDBRANCH   7   8
ENDBRANCH   6   7
ENDBRANCH   5   6
ENDBRANCH   4   5
ENDBRANCH   2   4
TORSDOF 6
ENDMDL
MODEL        2
REMARK 921   NORMALIZED FREE ENERGY PREDICTED BY IDOCK:   -6.20 KCAL/MOL
REMARK 922        TOTAL FREE ENERGY PREDICTED BY IDOCK:   -8.22 KCAL/MOL
REMARK 923 INTER-LIGAND FREE ENERGY PREDICTED BY IDOCK:   -8.44 KCAL/MOL
REMARK 924 INTRA-LIGAND FREE ENERGY PREDICTED BY IDOCK:    0.22 KCAL/MOL
REMARK 927      BINDING AFFINITY PREDICTED BY RF-SCORE:    0.00 PKD
ROOT
HETATM    1  C   UNL     1     -10.571  10.915  67.485  1.00  0.00    -0.230 C  
HETATM    2  N   UNL     1     -11.705  11.841  67.393  1.00  0.00    -0.588 NA 
HETATM    3  C   UNL     1     -11.580  12.875  68.423  1.00  0.00    -0.333 C  
ENDROOT
BRANCH   2   4
HETATM    4  C   UNL     1     -11.764  12.413  66.033  1.00  0.00    -0.410 C  
BRANCH   4   5
HETATM    5  C   UNL     1     -10.408  12.501  65.316  1.00  0.00    -0.287 C  
BRANCH   5   6
HETATM    6  O   UNL     1     -10.433  13.601  64.399  1.00  0.00    -0.432 OA 
BRANCH   6   7
HETATM    7  C   UNL     1     -11.548  14.451  64.652  1.00  0.00    -0.409 C  
BRANCH   7   8
HETATM    8  C   UNL     1     -11.092  15.873  64.958  1.00  0.00    -0.360 C  
HETATM    9  N   UNL     1     -10.529  16.016  66.214  1.00  0.00    -0.315 N  
HETATM   10  O   UNL     1     -11.184  16.774  64.131  1.00  0.00    -1.155 OA 
HETATM   11  H   UNL     1     -10.462  15.185  66.802  1.00  0.00     0.000 HD 
BRANCH   9  12
HETATM   12  C   UNL     1     -10.024  17.279  66.754  1.00  0.00    -0.301 C  
HETATM   13  C   UNL     1     -10.296  17.401  68.275  1.00  0.00    -0.374 C  
HETATM   14  C   UNL     1      -9.735  18.726  68.820  1.00  0.00    -0.432 C  
HETATM   15  C   UNL     1      -8.217  18.768  68.591  1.00  0.00    -0.363 C  
HETATM   16  C   UNL     1      -7.907  18.660  67.088  1.00  0.00    -0.241 C  
HETATM   17  C   UNL     1      -8.565  19.839  66.354  1.00  0.00    -0.398 C  
HETATM   18  C   UNL     1      -8.486  17.339  66.545  1.00  0.00    -0.306 C  
HETATM   19  C   UNL     1     -10.085  19.810  66.569  1.00  0.00    -0.589 C  
HETATM   20  C   UNL     1     -10.649  18.491  66.019  1.00  0.00    -0.368 C  
HETATM   21  C   UNL     1     -10.394  19.899  68.074  1.00  0.00    -0.547 C  
ENDBRANCH   9  12
ENDBRANCH   7   8
ENDBRANCH   6   7
ENDBRANCH   5   6
ENDBRANCH   4   5
ENDBRANCH   2   4
TORSDOF 6
ENDMDL
MODEL        3
REMARK 921   NORMALIZED FREE ENERGY PREDICTED BY IDOCK:   -6.13 KCAL/MOL
REMARK 922        TOTAL FREE ENERGY PREDICTED BY IDOCK:   -8.12 KCAL/MOL
REMARK 923 INTER-LIGAND FREE ENERGY PREDICTED BY IDOCK:   -8.42 KCAL/MOL
REMARK 924 INTRA-LIGAND FREE ENERGY PREDICTED BY IDOCK:    0.30 KCAL/MOL
REMARK 927      BINDING AFFINITY PREDICTED BY RF-SCORE:    0.00 PKD
ROOT
HETATM    1  C   UNL     1      -9.599  10.361  63.905  1.00  0.00    -0.312 C  
HETATM    2  N   UNL     1     -10.683  11.162  64.483  1.00  0.00    -0.326 NA 
HETATM    3  C   UNL     1     -10.531  11.217  65.939  1.00  0.00    -0.253 C  
ENDROOT
BRANCH   2   4
HETATM    4  C   UNL     1     -10.682  12.506  63.871  1.00  0.00    -0.437 C  
BRANCH   4   5
HETATM    5  C   UNL     1     -12.026  12.932  63.261  1.00  0.00    -0.440 C  
BRANCH   5   6
HETATM    6  O   UNL     1     -12.320  14.274  63.665  1.00  0.00    -0.741 OA 
BRANCH   6   7
HETATM    7  C   UNL     1     -11.895  14.509  65.004  1.00  0.00    -0.399 C  
BRANCH   7   8
HETATM    8  C   UNL     1     -11.281  15.897  65.147  1.00  0.00    -0.224 C  
HETATM    9  N   UNL     1     -10.729  16.132  66.393  1.00  0.00    -0.261 N  
HETATM   10  O   UNL     1     -11.249  16.689  64.211  1.00  0.00    -1.098 OA 
HETATM   11  H   UNL     1     -10.771  15.381  67.082  1.00  0.00     0.000 HD 
BRANCH   9  12
HETATM   12  C   UNL     1     -10.088  17.388  66.790  1.00  0.00    -0.313 C  
HETATM   13  C   UNL     1     -10.262  17.665  68.304  1.00  0.00    -0.374 C  
HETATM   14  C   UNL     1      -9.561  18.977  68.696  1.00  0.00    -0.458 C  
HETATM   15  C   UNL     1      -8.060  18.863  68.391  1.00  0.00    -0.376 C  
HETATM   16  C   UNL     1      -7.847  18.597  66.891  1.00  0.00    -0.246 C  
HETATM   17  C   UNL     1      -8.442  19.761  66.085  1.00  0.00    -0.367 C  
HETATM   18  C   UNL     1      -8.565  17.291  66.501  1.00  0.00    -0.298 C  
HETATM   19  C   UNL     1      -9.945  19.888  66.375  1.00  0.00    -0.593 C  
HETATM   20  C   UNL     1     -10.648  18.582  65.978  1.00  0.00    -0.368 C  
HETATM   21  C   UNL     1     -10.159  20.136  67.880  1.00  0.00    -0.533 C  
ENDBRANCH   9  12
ENDBRANCH   7   8
ENDBRANCH   6   7
ENDBRANCH   5   6
ENDBRANCH   4   5
ENDBRANCH   2   4
TORSDOF 6
ENDMDL
MODEL        4
REMARK 921   NORMALIZED FREE ENERGY PREDICTED BY IDOCK:   -6.12 KCAL/MOL
REMARK 922        TOTAL FREE ENERGY PREDICTED BY IDOCK:   -8.11 KCAL/MOL
REMARK 923 INTER-LIGAND FREE ENERGY PREDICTED BY IDOCK:   -8.31 KCAL/MOL
REMARK 924 INTRA-LIGAND FREE ENERGY PREDICTED BY IDOCK:    0.20 KCAL/MOL
REMARK 927      BINDING AFFINITY PREDICTED BY RF-SCORE:    0.00 PKD
ROOT
HETATM    1  C   UNL     1      -9.948  11.482  63.385  1.00  0.00    -0.417 C  
HETATM    2  N   UNL     1     -10.626  11.377  64.681  1.00  0.00    -0.305 NA 
HETATM    3  C   UNL     1      -9.711  11.787  65.749  1.00  0.00    -0.237 C  
ENDROOT
BRANCH   2   4
HETATM    4  C   UNL     1     -11.858  12.190  64.660  1.00  0.00    -0.328 C  
BRANCH   4   5
HETATM    5  C   UNL     1     -12.099  12.953  63.349  1.00  0.00    -0.530 C  
BRANCH   5   6
HETATM    6  O   UNL     1     -12.298  14.341  63.643  1.00  0.00    -0.741 OA 
BRANCH   6   7
HETATM    7  C   UNL     1     -11.980  14.625  65.002  1.00  0.00    -0.364 C  
BRANCH   7   8
HETATM    8  C   UNL     1     -11.267  15.967  65.126  1.00  0.00    -0.189 C  
HETATM    9  N   UNL     1     -10.692  16.175  66.367  1.00  0.00    -0.261 N  
HETATM   10  O   UNL     1     -11.186  16.746  64.183  1.00  0.00    -1.155 OA 
HETATM   11  H   UNL     1     -10.782  15.436  67.063  1.00  0.00     0.000 HD 
BRANCH   9  12
HETATM   12  C   UNL     1      -9.961  17.386  66.747  1.00  0.00    -0.307 C  
HETATM   13  C   UNL     1      -8.471  17.311  66.327  1.00  0.00    -0.278 C  
HETATM   14  C   UNL     1      -7.734  18.604  66.717  1.00  0.00    -0.255 C  
HETATM   15  C   UNL     1      -8.384  19.796  65.999  1.00  0.00    -0.314 C  
HETATM   16  C   UNL     1      -9.865  19.910  66.401  1.00  0.00    -0.572 C  
HETATM   17  C   UNL     1      -9.959  20.118  67.920  1.00  0.00    -0.537 C  
HETATM   18  C   UNL     1     -10.593  18.606  66.022  1.00  0.00    -0.410 C  
HETATM   19  C   UNL     1      -9.317  18.932  68.654  1.00  0.00    -0.415 C  
HETATM   20  C   UNL     1     -10.055  17.641  68.271  1.00  0.00    -0.362 C  
HETATM   21  C   UNL     1      -7.840  18.807  68.238  1.00  0.00    -0.333 C  
ENDBRANCH   9  12
ENDBRANCH   7   8
ENDBRANCH   6   7
ENDBRANCH   5   6
ENDBRANCH   4   5
ENDBRANCH   2   4
TORSDOF 6
ENDMDL
MODEL        5
REMARK 921   NORMALIZED FREE ENERGY PREDICTED BY IDOCK:   -6.08 KCAL/MOL
REMARK 922        TOTAL FREE ENERGY PREDICTED BY IDOCK:   -8.05 KCAL/MOL
REMARK 923 INTER-LIGAND FREE ENERGY PREDICTED BY IDOCK:   -8.30 KCAL/MOL
REMARK 924 INTRA-LIGAND FREE ENERGY PREDICTED BY IDOCK:    0.25 KCAL/MOL
REMARK 927      BINDING AFFINITY PREDICTED BY RF-SCORE:    0.00 PKD
ROOT
HETATM    1  C   UNL     1     -10.754  10.880  67.070  1.00  0.00    -0.271 C  
HETATM    2  N   UNL     1     -11.908  11.785  67.105  1.00  0.00    -0.620 NA 
HETATM    3  C   UNL     1     -11.709  12.794  68.148  1.00  0.00    -0.345 C  
ENDROOT
BRANCH   2   4
HETATM    4  C   UNL     1     -12.099  12.391  65.772  1.00  0.00    -0.311 C  
BRANCH   4   5
HETATM    5  C   UNL     1     -10.826  12.469  64.916  1.00  0.00    -0.293 C  
BRANCH   5   6
HETATM    6  O   UNL     1     -10.824  13.703  64.190  1.00  0.00    -0.340 OA 
BRANCH   6   7
HETATM    7  C   UNL     1     -11.820  14.590  64.689  1.00  0.00    -0.453 C  
BRANCH   7   8
HETATM    8  C   UNL     1     -11.230  15.967  64.979  1.00  0.00    -0.290 C  
HETATM    9  N   UNL     1     -10.655  16.070  66.232  1.00  0.00    -0.304 N  
HETATM   10  O   UNL     1     -11.237  16.862  64.141  1.00  0.00    -1.176 OA 
HETATM   11  H   UNL     1     -10.666  15.244  66.831  1.00  0.00     0.000 HD 
BRANCH   9  12
HETATM   12  C   UNL     1     -10.031  17.286  66.758  1.00  0.00    -0.301 C  
HETATM   13  C   UNL     1      -8.501  17.293  66.518  1.00  0.00    -0.306 C  
HETATM   14  C   UNL     1      -7.875  18.590  67.059  1.00  0.00    -0.236 C  
HETATM   15  C   UNL     1      -8.489  19.794  66.328  1.00  0.00    -0.390 C  
HETATM   16  C   UNL     1     -10.010  19.827  66.553  1.00  0.00    -0.570 C  
HETATM   17  C   UNL     1     -10.294  19.947  68.058  1.00  0.00    -0.547 C  
HETATM   18  C   UNL     1     -10.628  18.518  66.024  1.00  0.00    -0.368 C  
HETATM   19  C   UNL     1      -9.690  18.749  68.805  1.00  0.00    -0.432 C  
HETATM   20  C   UNL     1     -10.318  17.452  68.271  1.00  0.00    -0.374 C  
HETATM   21  C   UNL     1      -8.170  18.706  68.565  1.00  0.00    -0.370 C  
ENDBRANCH   9  12
ENDBRANCH   7   8
ENDBRANCH   6   7
ENDBRANCH   5   6
ENDBRANCH   4   5
ENDBRANCH   2   4
TORSDOF 6
ENDMDL
MODEL        6
REMARK 921   NORMALIZED FREE ENERGY PREDICTED BY IDOCK:   -6.04 KCAL/MOL
REMARK 922        TOTAL FREE ENERGY PREDICTED BY IDOCK:   -7.99 KCAL/MOL
REMARK 923 INTER-LIGAND FREE ENERGY PREDICTED BY IDOCK:   -7.83 KCAL/MOL
REMARK 924 INTRA-LIGAND FREE ENERGY PREDICTED BY IDOCK:   -0.16 KCAL/MOL
REMARK 927      BINDING AFFINITY PREDICTED BY RF-SCORE:    0.00 PKD
ROOT
HETATM    1  C   UNL     1     -11.884  14.038  68.940  1.00  0.00    -0.355 C  
HETATM    2  N   UNL     1     -11.039  13.544  67.848  1.00  0.00    -0.256 NA 
HETATM    3  C   UNL     1      -9.706  13.223  68.365  1.00  0.00    -0.198 C  
ENDROOT
BRANCH   2   4
HETATM    4  C   UNL     1     -11.686  12.380  67.212  1.00  0.00    -0.349 C  
BRANCH   4   5
HETATM    5  C   UNL     1     -12.094  12.594  65.747  1.00  0.00    -0.423 C  
BRANCH   5   6
HETATM    6  O   UNL     1     -11.164  13.490  65.127  1.00  0.00    -0.298 OA 
BRANCH   6   7
HETATM    7  C   UNL     1     -11.843  14.493  64.378  1.00  0.00    -0.403 C  
BRANCH   7   8
HETATM    8  C   UNL     1     -11.335  15.884  64.743  1.00  0.00    -0.309 C  
HETATM    9  N   UNL     1     -10.633  15.922  65.935  1.00  0.00    -0.336 N  
HETATM   10  O   UNL     1     -11.506  16.849  64.006  1.00  0.00    -1.130 OA 
HETATM   11  H   UNL     1     -10.512  15.046  66.444  1.00  0.00     0.000 HD 
BRANCH   9  12
HETATM   12  C   UNL     1     -10.052  17.135  66.514  1.00  0.00    -0.310 C  
HETATM   13  C   UNL     1     -10.654  18.415  65.883  1.00  0.00    -0.313 C  
HETATM   14  C   UNL     1     -10.043  19.673  66.525  1.00  0.00    -0.568 C  
HETATM   15  C   UNL     1     -10.354  19.678  68.029  1.00  0.00    -0.579 C  
HETATM   16  C   UNL     1      -9.760  18.423  68.693  1.00  0.00    -0.387 C  
HETATM   17  C   UNL     1      -8.237  18.419  68.488  1.00  0.00    -0.338 C  
HETATM   18  C   UNL     1     -10.364  17.168  68.035  1.00  0.00    -0.353 C  
HETATM   19  C   UNL     1      -7.909  18.410  66.989  1.00  0.00    -0.238 C  
HETATM   20  C   UNL     1      -8.512  17.152  66.346  1.00  0.00    -0.307 C  
HETATM   21  C   UNL     1      -8.519  19.656  66.321  1.00  0.00    -0.383 C  
ENDBRANCH   9  12
ENDBRANCH   7   8
ENDBRANCH   6   7
ENDBRANCH   5   6
ENDBRANCH   4   5
ENDBRANCH   2   4
TORSDOF 6
ENDMDL
MODEL        7
REMARK 921   NORMALIZED FREE ENERGY PREDICTED BY IDOCK:   -5.92 KCAL/MOL
REMARK 922        TOTAL FREE ENERGY PREDICTED BY IDOCK:   -7.83 KCAL/MOL
REMARK 923 INTER-LIGAND FREE ENERGY PREDICTED BY IDOCK:   -8.18 KCAL/MOL
REMARK 924 INTRA-LIGAND FREE ENERGY PREDICTED BY IDOCK:    0.35 KCAL/MOL
REMARK 927      BINDING AFFINITY PREDICTED BY RF-SCORE:    0.00 PKD
ROOT
HETATM    1  C   UNL     1     -10.142  10.219  65.231  1.00  0.00    -0.289 C  
HETATM    2  N   UNL     1     -10.073  11.389  64.351  1.00  0.00    -0.270 NA 
HETATM    3  C   UNL     1      -9.721  10.964  62.994  1.00  0.00    -0.350 C  
ENDROOT
BRANCH   2   4
HETATM    4  C   UNL     1     -11.360  12.113  64.392  1.00  0.00    -0.344 C  
BRANCH   4   5
HETATM    5  C   UNL     1     -11.866  12.440  65.805  1.00  0.00    -0.406 C  
BRANCH   5   6
HETATM    6  O   UNL     1     -11.800  13.855  66.010  1.00  0.00    -0.356 OA 
BRANCH   6   7
HETATM    7  C   UNL     1     -11.674  14.546  64.771  1.00  0.00    -0.422 C  
BRANCH   7   8
HETATM    8  C   UNL     1     -11.130  15.954  64.984  1.00  0.00    -0.360 C  
HETATM    9  N   UNL     1     -10.507  16.128  66.207  1.00  0.00    -0.318 N  
HETATM   10  O   UNL     1     -11.208  16.816  64.115  1.00  0.00    -1.155 OA 
HETATM   11  H   UNL     1     -10.459  15.326  66.834  1.00  0.00     0.000 HD 
BRANCH   9  12
HETATM   12  C   UNL     1      -9.911  17.387  66.660  1.00  0.00    -0.297 C  
HETATM   13  C   UNL     1     -10.492  18.602  65.895  1.00  0.00    -0.395 C  
HETATM   14  C   UNL     1      -9.866  19.912  66.406  1.00  0.00    -0.572 C  
HETATM   15  C   UNL     1     -10.184  20.078  67.900  1.00  0.00    -0.545 C  
HETATM   16  C   UNL     1      -9.611  18.892  68.695  1.00  0.00    -0.443 C  
HETATM   17  C   UNL     1      -8.088  18.845  68.501  1.00  0.00    -0.383 C  
HETATM   18  C   UNL     1     -10.230  17.583  68.167  1.00  0.00    -0.359 C  
HETATM   19  C   UNL     1      -7.752  18.675  67.012  1.00  0.00    -0.237 C  
HETATM   20  C   UNL     1      -8.370  17.365  66.501  1.00  0.00    -0.308 C  
HETATM   21  C   UNL     1      -8.341  19.853  66.214  1.00  0.00    -0.371 C  
ENDBRANCH   9  12
ENDBRANCH   7   8
ENDBRANCH   6   7
ENDBRANCH   5   6
ENDBRANCH   4   5
ENDBRANCH   2   4
TORSDOF 6
ENDMDL
MODEL        8
REMARK 921   NORMALIZED FREE ENERGY PREDICTED BY IDOCK:   -5.67 KCAL/MOL
REMARK 922        TOTAL FREE ENERGY PREDICTED BY IDOCK:   -7.50 KCAL/MOL
REMARK 923 INTER-LIGAND FREE ENERGY PREDICTED BY IDOCK:   -7.26 KCAL/MOL
REMARK 924 INTRA-LIGAND FREE ENERGY PREDICTED BY IDOCK:   -0.24 KCAL/MOL
REMARK 927      BINDING AFFINITY PREDICTED BY RF-SCORE:    0.00 PKD
ROOT
HETATM    1  C   UNL     1     -14.039  15.133  71.409  1.00  0.00    -0.504 C  
HETATM    2  N   UNL     1     -12.746  15.045  70.723  1.00  0.00    -0.356 NA 
HETATM    3  C   UNL     1     -11.742  15.810  71.467  1.00  0.00    -0.453 C  
ENDROOT
BRANCH   2   4
HETATM    4  C   UNL     1     -12.365  13.627  70.569  1.00  0.00    -0.355 C  
BRANCH   4   5
HETATM    5  C   UNL     1     -11.909  13.237  69.155  1.00  0.00    -0.329 C  
BRANCH   5   6
HETATM    6  O   UNL     1     -12.270  14.278  68.241  1.00  0.00    -0.292 OA 
BRANCH   6   7
HETATM    7  C   UNL     1     -11.638  14.091  66.979  1.00  0.00    -0.371 C  
BRANCH   7   8
HETATM    8  C   UNL     1     -10.786  15.301  66.611  1.00  0.00    -0.309 C  
HETATM    9  N   UNL     1     -10.679  16.233  67.628  1.00  0.00    -0.318 N  
HETATM   10  O   UNL     1     -10.221  15.388  65.526  1.00  0.00    -0.331 OA 
HETATM   11  H   UNL     1     -11.155  16.033  68.508  1.00  0.00     0.000 HD 
BRANCH   9  12
HETATM   12  C   UNL     1      -9.928  17.486  67.525  1.00  0.00    -0.315 C  
HETATM   13  C   UNL     1     -10.456  18.376  66.372  1.00  0.00    -0.412 C  
HETATM   14  C   UNL     1      -9.664  19.694  66.303  1.00  0.00    -0.511 C  
HETATM   15  C   UNL     1      -9.832  20.458  67.625  1.00  0.00    -0.538 C  
HETATM   16  C   UNL     1      -9.308  19.608  68.794  1.00  0.00    -0.368 C  
HETATM   17  C   UNL     1      -7.819  19.304  68.567  1.00  0.00    -0.383 C  
HETATM   18  C   UNL     1     -10.093  18.283  68.848  1.00  0.00    -0.358 C  
HETATM   19  C   UNL     1      -7.633  18.536  67.251  1.00  0.00    -0.228 C  
HETATM   20  C   UNL     1      -8.417  17.216  67.321  1.00  0.00    -0.211 C  
HETATM   21  C   UNL     1      -8.175  19.379  66.082  1.00  0.00    -0.319 C  
ENDBRANCH   9  12
ENDBRANCH   7   8
ENDBRANCH   6   7
ENDBRANCH   5   6
ENDBRANCH   4   5
ENDBRANCH   2   4
TORSDOF 6
ENDMDL
MODEL        9
REMARK 921   NORMALIZED FREE ENERGY PREDICTED BY IDOCK:   -5.66 KCAL/MOL
REMARK 922        TOTAL FREE ENERGY PREDICTED BY IDOCK:   -7.49 KCAL/MOL
REMARK 923 INTER-LIGAND FREE ENERGY PREDICTED BY IDOCK:   -7.34 KCAL/MOL
REMARK 924 INTRA-LIGAND FREE ENERGY PREDICTED BY IDOCK:   -0.14 KCAL/MOL
REMARK 927      BINDING AFFINITY PREDICTED BY RF-SCORE:    0.00 PKD
ROOT
HETATM    1  C   UNL     1     -12.261  14.687  64.371  1.00  0.00    -0.452 C  
HETATM    2  N   UNL     1     -12.650  13.279  64.496  1.00  0.00    -0.646 NA 
HETATM    3  C   UNL     1     -12.115  12.519  63.364  1.00  0.00    -0.529 C  
ENDROOT
BRANCH   2   4
HETATM    4  C   UNL     1     -12.180  12.752  65.793  1.00  0.00    -0.408 C  
BRANCH   4   5
HETATM    5  C   UNL     1     -10.746  12.203  65.779  1.00  0.00    -0.267 C  
BRANCH   5   6
HETATM    6  O   UNL     1      -9.870  13.164  66.380  1.00  0.00    -0.267 OA 
BRANCH   6   7
HETATM    7  C   UNL     1     -10.399  13.632  67.617  1.00  0.00    -0.239 C  
BRANCH   7   8
HETATM    8  C   UNL     1      -9.805  14.988  67.986  1.00  0.00    -0.218 C  
HETATM    9  N   UNL     1     -10.171  16.005  67.123  1.00  0.00    -0.272 N  
HETATM   10  O   UNL     1      -9.113  15.139  68.987  1.00  0.00    -0.197 OA 
HETATM   11  H   UNL     1     -10.790  15.772  66.348  1.00  0.00     0.000 HD 
BRANCH   9  12
HETATM   12  C   UNL     1      -9.727  17.395  67.250  1.00  0.00    -0.267 C  
HETATM   13  C   UNL     1     -10.084  17.986  68.636  1.00  0.00    -0.401 C  
HETATM   14  C   UNL     1      -9.587  19.438  68.749  1.00  0.00    -0.495 C  
HETATM   15  C   UNL     1      -8.060  19.467  68.585  1.00  0.00    -0.402 C  
HETATM   16  C   UNL     1      -7.667  18.896  67.212  1.00  0.00    -0.247 C  
HETATM   17  C   UNL     1      -8.313  19.749  66.109  1.00  0.00    -0.368 C  
HETATM   18  C   UNL     1      -8.182  17.448  67.099  1.00  0.00    -0.229 C  
HETATM   19  C   UNL     1      -9.841  19.728  66.256  1.00  0.00    -0.557 C  
HETATM   20  C   UNL     1     -10.341  18.281  66.137  1.00  0.00    -0.414 C  
HETATM   21  C   UNL     1     -10.233  20.282  67.638  1.00  0.00    -0.469 C  
ENDBRANCH   9  12
ENDBRANCH   7   8
ENDBRANCH   6   7
ENDBRANCH   5   6
ENDBRANCH   4   5
ENDBRANCH   2   4
TORSDOF 6
ENDMDL
MODEL       10
REMARK 921   NORMALIZED FREE ENERGY PREDICTED BY IDOCK:   -5.64 KCAL/MOL
REMARK 922        TOTAL FREE ENERGY PREDICTED BY IDOCK:   -7.45 KCAL/MOL
REMARK 923 INTER-LIGAND FREE ENERGY PREDICTED BY IDOCK:   -7.46 KCAL/MOL
REMARK 924 INTRA-LIGAND FREE ENERGY PREDICTED BY IDOCK:    0.01 KCAL/MOL
REMARK 927      BINDING AFFINITY PREDICTED BY RF-SCORE:    0.00 PKD
ROOT
HETATM    1  C   UNL     1     -12.100  14.484  64.281  1.00  0.00    -0.425 C  
HETATM    2  N   UNL     1     -12.632  13.159  64.613  1.00  0.00    -0.648 NA 
HETATM    3  C   UNL     1     -12.256  12.203  63.569  1.00  0.00    -0.567 C  
ENDROOT
BRANCH   2   4
HETATM    4  C   UNL     1     -12.144  12.751  65.945  1.00  0.00    -0.426 C  
BRANCH   4   5
HETATM    5  C   UNL     1     -11.791  13.916  66.882  1.00  0.00    -0.423 C  
BRANCH   5   6
HETATM    6  O   UNL     1     -11.954  13.493  68.240  1.00  0.00    -0.356 OA 
BRANCH   6   7
HETATM    7  C   UNL     1     -10.863  12.678  68.655  1.00  0.00    -0.249 C  
BRANCH   7   8
HETATM    8  C   UNL     1     -11.353  11.330  69.173  1.00  0.00    -0.282 C  
HETATM    9  N   UNL     1     -10.450  10.695  70.006  1.00  0.00    -0.449 N  
HETATM   10  O   UNL     1     -12.468  10.899  68.898  1.00  0.00    -0.431 OA 
HETATM   11  H   UNL     1      -9.569  11.170  70.203  1.00  0.00     0.000 HD 
BRANCH   9  12
HETATM   12  C   UNL     1     -10.674   9.387  70.625  1.00  0.00    -0.290 C  
HETATM   13  C   UNL     1     -10.838   8.272  69.562  1.00  0.00    -0.124 C  
HETATM   14  C   UNL     1     -11.050   6.907  70.239  1.00  0.00    -0.342 C  
HETATM   15  C   UNL     1      -9.827   6.576  71.109  1.00  0.00    -0.198 C  
HETATM   16  C   UNL     1      -9.638   7.658  72.185  1.00  0.00    -0.207 C  
HETATM   17  C   UNL     1     -10.892   7.711  73.071  1.00  0.00    -0.457 C  
HETATM   18  C   UNL     1      -9.443   9.025  71.500  1.00  0.00    -0.316 C  
HETATM   19  C   UNL     1     -12.125   8.045  72.218  1.00  0.00    -0.392 C  
HETATM   20  C   UNL     1     -11.919   9.411  71.546  1.00  0.00    -0.456 C  
HETATM   21  C   UNL     1     -12.303   6.971  71.129  1.00  0.00    -0.423 C  
ENDBRANCH   9  12
ENDBRANCH   7   8
ENDBRANCH   6   7
ENDBRANCH   5   6
ENDBRANCH   4   5
ENDBRANCH   2   4
TORSDOF 6
ENDMDL
MODEL       11
REMARK 921   NORMALIZED FREE ENERGY PREDICTED BY IDOCK:   -5.61 KCAL/MOL
REMARK 922        TOTAL FREE ENERGY PREDICTED BY IDOCK:   -7.42 KCAL/MOL
REMARK 923 INTER-LIGAND FREE ENERGY PREDICTED BY IDOCK:   -7.28 KCAL/MOL
REMARK 924 INTRA-LIGAND FREE ENERGY PREDICTED BY IDOCK:   -0.14 KCAL/MOL
REMARK 927      BINDING AFFINITY PREDICTED BY RF-SCORE:    0.00 PKD
ROOT
HETATM    1  C   UNL     1     -12.352  14.556  64.408  1.00  0.00    -0.413 C  
HETATM    2  N   UNL     1     -12.672  13.137  64.594  1.00  0.00    -0.699 NA 
HETATM    3  C   UNL     1     -12.120  12.360  63.482  1.00  0.00    -0.558 C  
ENDROOT
BRANCH   2   4
HETATM    4  C   UNL     1     -12.157  12.684  65.901  1.00  0.00    -0.396 C  
BRANCH   4   5
HETATM    5  C   UNL     1     -10.740  12.091  65.860  1.00  0.00    -0.275 C  
BRANCH   5   6
HETATM    6  O   UNL     1      -9.897  12.829  66.752  1.00  0.00    -0.230 OA 
BRANCH   6   7
HETATM    7  C   UNL     1     -10.671  13.598  67.667  1.00  0.00    -0.245 C  
BRANCH   7   8
HETATM    8  C   UNL     1      -9.970  14.909  68.008  1.00  0.00    -0.220 C  
HETATM    9  N   UNL     1     -10.322  15.956  67.176  1.00  0.00    -0.294 N  
HETATM   10  O   UNL     1      -9.209  15.005  68.964  1.00  0.00    -0.201 OA 
HETATM   11  H   UNL     1     -11.002  15.771  66.439  1.00  0.00     0.000 HD 
BRANCH   9  12
HETATM   12  C   UNL     1      -9.784  17.314  67.284  1.00  0.00    -0.262 C  
HETATM   13  C   UNL     1     -10.370  18.250  66.197  1.00  0.00    -0.414 C  
HETATM   14  C   UNL     1      -9.805  19.673  66.348  1.00  0.00    -0.536 C  
HETATM   15  C   UNL     1     -10.187  20.229  67.728  1.00  0.00    -0.464 C  
HETATM   16  C   UNL     1      -9.612  19.329  68.835  1.00  0.00    -0.466 C  
HETATM   17  C   UNL     1      -8.081  19.292  68.708  1.00  0.00    -0.391 C  
HETATM   18  C   UNL     1     -10.169  17.902  68.669  1.00  0.00    -0.387 C  
HETATM   19  C   UNL     1      -7.681  18.735  67.334  1.00  0.00    -0.240 C  
HETATM   20  C   UNL     1      -8.238  17.311  67.184  1.00  0.00    -0.225 C  
HETATM   21  C   UNL     1      -8.272  19.625  66.226  1.00  0.00    -0.363 C  
ENDBRANCH   9  12
ENDBRANCH   7   8
ENDBRANCH   6   7
ENDBRANCH   5   6
ENDBRANCH   4   5
ENDBRANCH   2   4
TORSDOF 6
ENDMDL
MODEL       12
REMARK 921   NORMALIZED FREE ENERGY PREDICTED BY IDOCK:   -5.60 KCAL/MOL
REMARK 922        TOTAL FREE ENERGY PREDICTED BY IDOCK:   -7.41 KCAL/MOL
REMARK 923 INTER-LIGAND FREE ENERGY PREDICTED BY IDOCK:   -7.34 KCAL/MOL
REMARK 924 INTRA-LIGAND FREE ENERGY PREDICTED BY IDOCK:   -0.07 KCAL/MOL
REMARK 927      BINDING AFFINITY PREDICTED BY RF-SCORE:    0.00 PKD
ROOT
HETATM    1  C   UNL     1     -10.476  11.140  64.351  1.00  0.00    -0.353 C  
HETATM    2  N   UNL     1     -11.219  12.198  63.659  1.00  0.00    -0.433 NA 
HETATM    3  C   UNL     1     -12.588  11.746  63.399  1.00  0.00    -0.336 C  
ENDROOT
BRANCH   2   4
HETATM    4  C   UNL     1     -11.183  13.434  64.465  1.00  0.00    -0.372 C  
BRANCH   4   5
HETATM    5  C   UNL     1     -12.522  13.813  65.116  1.00  0.00    -0.450 C  
BRANCH   5   6
HETATM    6  O   UNL     1     -12.294  14.174  66.483  1.00  0.00    -0.460 OA 
BRANCH   6   7
HETATM    7  C   UNL     1     -10.965  13.852  66.880  1.00  0.00    -0.295 C  
BRANCH   7   8
HETATM    8  C   UNL     1     -10.256  15.075  67.454  1.00  0.00    -0.234 C  
HETATM    9  N   UNL     1     -10.447  16.225  66.710  1.00  0.00    -0.298 N  
HETATM   10  O   UNL     1      -9.625  15.022  68.504  1.00  0.00    -0.197 OA 
HETATM   11  H   UNL     1     -11.032  16.161  65.877  1.00  0.00     0.000 HD 
BRANCH   9  12
HETATM   12  C   UNL     1      -9.866  17.529  67.039  1.00  0.00    -0.295 C  
HETATM   13  C   UNL     1      -8.323  17.518  66.902  1.00  0.00    -0.255 C  
HETATM   14  C   UNL     1      -7.743  18.905  67.232  1.00  0.00    -0.247 C  
HETATM   15  C   UNL     1      -8.313  19.941  66.251  1.00  0.00    -0.371 C  
HETATM   16  C   UNL     1      -9.846  19.987  66.367  1.00  0.00    -0.578 C  
HETATM   17  C   UNL     1     -10.230  20.379  67.802  1.00  0.00    -0.392 C  
HETATM   18  C   UNL     1     -10.419  18.592  66.052  1.00  0.00    -0.456 C  
HETATM   19  C   UNL     1      -9.671  19.351  68.796  1.00  0.00    -0.516 C  
HETATM   20  C   UNL     1     -10.255  17.967  68.473  1.00  0.00    -0.392 C  
HETATM   21  C   UNL     1      -8.138  19.291  68.667  1.00  0.00    -0.405 C  
ENDBRANCH   9  12
ENDBRANCH   7   8
ENDBRANCH   6   7
ENDBRANCH   5   6
ENDBRANCH   4   5
ENDBRANCH   2   4
TORSDOF 6
ENDMDL
MODEL       13
REMARK 921   NORMALIZED FREE ENERGY PREDICTED BY IDOCK:   -5.59 KCAL/MOL
REMARK 922        TOTAL FREE ENERGY PREDICTED BY IDOCK:   -7.39 KCAL/MOL
REMARK 923 INTER-LIGAND FREE ENERGY PREDICTED BY IDOCK:   -7.46 KCAL/MOL
REMARK 924 INTRA-LIGAND FREE ENERGY PREDICTED BY IDOCK:    0.07 KCAL/MOL
REMARK 927      BINDING AFFINITY PREDICTED BY RF-SCORE:    0.00 PKD
ROOT
HETATM    1  C   UNL     1     -12.222  14.554  64.364  1.00  0.00    -0.458 C  
HETATM    2  N   UNL     1     -12.697  13.188  64.604  1.00  0.00    -0.699 NA 
HETATM    3  C   UNL     1     -12.240  12.313  63.521  1.00  0.00    -0.568 C  
ENDROOT
BRANCH   2   4
HETATM    4  C   UNL     1     -12.229  12.728  65.926  1.00  0.00    -0.359 C  
BRANCH   4   5
HETATM    5  C   UNL     1     -11.564  13.816  66.783  1.00  0.00    -0.370 C  
BRANCH   5   6
HETATM    6  O   UNL     1     -11.752  13.502  68.168  1.00  0.00    -0.320 OA 
BRANCH   6   7
HETATM    7  C   UNL     1     -10.697  12.676  68.652  1.00  0.00    -0.242 C  
BRANCH   7   8
HETATM    8  C   UNL     1     -11.241  11.357  69.190  1.00  0.00    -0.272 C  
HETATM    9  N   UNL     1     -10.356  10.691  70.018  1.00  0.00    -0.436 N  
HETATM   10  O   UNL     1     -12.377  10.973  68.933  1.00  0.00    -0.516 OA 
HETATM   11  H   UNL     1      -9.452  11.128  70.199  1.00  0.00     0.000 HD 
BRANCH   9  12
HETATM   12  C   UNL     1     -10.630   9.400  70.653  1.00  0.00    -0.290 C  
HETATM   13  C   UNL     1     -11.892   9.460  71.550  1.00  0.00    -0.456 C  
HETATM   14  C   UNL     1     -12.168   8.086  72.186  1.00  0.00    -0.377 C  
HETATM   15  C   UNL     1     -12.408   7.051  71.076  1.00  0.00    -0.402 C  
HETATM   16  C   UNL     1     -11.169   6.956  70.169  1.00  0.00    -0.361 C  
HETATM   17  C   UNL     1      -9.960   6.526  71.014  1.00  0.00    -0.203 C  
HETATM   18  C   UNL     1     -10.888   8.338  69.549  1.00  0.00    -0.124 C  
HETATM   19  C   UNL     1      -9.704   7.552  72.127  1.00  0.00    -0.204 C  
HETATM   20  C   UNL     1      -9.420   8.923  71.495  1.00  0.00    -0.347 C  
HETATM   21  C   UNL     1     -10.950   7.661  73.023  1.00  0.00    -0.457 C  
ENDBRANCH   9  12
ENDBRANCH   7   8
ENDBRANCH   6   7
ENDBRANCH   5   6
ENDBRANCH   4   5
ENDBRANCH   2   4
TORSDOF 6
ENDMDL
MODEL       14
REMARK 921   NORMALIZED FREE ENERGY PREDICTED BY IDOCK:   -5.57 KCAL/MOL
REMARK 922        TOTAL FREE ENERGY PREDICTED BY IDOCK:   -7.36 KCAL/MOL
REMARK 923 INTER-LIGAND FREE ENERGY PREDICTED BY IDOCK:   -7.19 KCAL/MOL
REMARK 924 INTRA-LIGAND FREE ENERGY PREDICTED BY IDOCK:   -0.17 KCAL/MOL
REMARK 927      BINDING AFFINITY PREDICTED BY RF-SCORE:    0.00 PKD
ROOT
HETATM    1  C   UNL     1      -7.444  17.644  68.047  1.00  0.00    -0.223 C  
HETATM    2  N   UNL     1      -7.941  18.864  68.691  1.00  0.00    -0.342 NA 
HETATM    3  C   UNL     1      -6.813  19.631  69.226  1.00  0.00    -0.355 C  
ENDROOT
BRANCH   2   4
HETATM    4  C   UNL     1      -8.735  19.644  67.722  1.00  0.00    -0.323 C  
BRANCH   4   5
HETATM    5  C   UNL     1     -10.210  19.834  68.108  1.00  0.00    -0.452 C  
BRANCH   5   6
HETATM    6  O   UNL     1     -11.020  18.966  67.308  1.00  0.00    -0.436 OA 
BRANCH   6   7
HETATM    7  C   UNL     1     -10.424  18.744  66.033  1.00  0.00    -0.432 C  
BRANCH   7   8
HETATM    8  C   UNL     1     -10.736  17.341  65.522  1.00  0.00    -0.100 C  
HETATM    9  N   UNL     1     -10.538  16.351  66.467  1.00  0.00    -0.276 N  
HETATM   10  O   UNL     1     -11.168  17.147  64.391  1.00  0.00    -1.143 OA 
HETATM   11  H   UNL     1     -10.221  16.634  67.394  1.00  0.00     0.000 HD 
BRANCH   9  12
HETATM   12  C   UNL     1     -10.755  14.922  66.226  1.00  0.00    -0.320 C  
HETATM   13  C   UNL     1     -10.166  14.477  64.864  1.00  0.00    -0.338 C  
HETATM   14  C   UNL     1     -10.387  12.970  64.647  1.00  0.00    -0.374 C  
HETATM   15  C   UNL     1      -9.681  12.186  65.763  1.00  0.00    -0.245 C  
HETATM   16  C   UNL     1     -10.248  12.595  67.134  1.00  0.00    -0.230 C  
HETATM   17  C   UNL     1     -11.753  12.285  67.168  1.00  0.00    -0.396 C  
HETATM   18  C   UNL     1     -10.038  14.108  67.337  1.00  0.00    -0.240 C  
HETATM   19  C   UNL     1     -12.476  13.064  66.059  1.00  0.00    -0.256 C  
HETATM   20  C   UNL     1     -12.262  14.569  66.278  1.00  0.00    -0.270 C  
HETATM   21  C   UNL     1     -11.895  12.668  64.690  1.00  0.00    -0.437 C  
ENDBRANCH   9  12
ENDBRANCH   7   8
ENDBRANCH   6   7
ENDBRANCH   5   6
ENDBRANCH   4   5
ENDBRANCH   2   4
TORSDOF 6
ENDMDL
MODEL       15
REMARK 921   NORMALIZED FREE ENERGY PREDICTED BY IDOCK:   -5.52 KCAL/MOL
REMARK 922        TOTAL FREE ENERGY PREDICTED BY IDOCK:   -7.30 KCAL/MOL
REMARK 923 INTER-LIGAND FREE ENERGY PREDICTED BY IDOCK:   -7.20 KCAL/MOL
REMARK 924 INTRA-LIGAND FREE ENERGY PREDICTED BY IDOCK:   -0.10 KCAL/MOL
REMARK 927      BINDING AFFINITY PREDICTED BY RF-SCORE:    0.00 PKD
ROOT
HETATM    1  C   UNL     1     -10.227  19.352  68.079  1.00  0.00    -0.423 C  
HETATM    2  N   UNL     1      -8.988  20.084  67.797  1.00  0.00    -0.325 NA 
HETATM    3  C   UNL     1      -7.909  19.569  68.643  1.00  0.00    -0.348 C  
ENDROOT
BRANCH   2   4
HETATM    4  C   UNL     1      -8.669  19.976  66.359  1.00  0.00    -0.302 C  
BRANCH   4   5
HETATM    5  C   UNL     1      -7.278  19.401  66.054  1.00  0.00    -0.284 C  
BRANCH   5   6
HETATM    6  O   UNL     1      -7.427  18.158  65.358  1.00  0.00    -0.499 OA 
BRANCH   6   7
HETATM    7  C   UNL     1      -7.529  17.071  66.271  1.00  0.00    -0.283 C  
BRANCH   7   8
HETATM    8  C   UNL     1      -8.795  16.260  66.016  1.00  0.00    -0.273 C  
HETATM    9  N   UNL     1      -8.702  14.944  66.430  1.00  0.00    -0.467 N  
HETATM   10  O   UNL     1      -9.801  16.768  65.533  1.00  0.00    -0.564 OA 
HETATM   11  H   UNL     1      -7.830  14.641  66.863  1.00  0.00     0.000 HD 
BRANCH   9  12
HETATM   12  C   UNL     1      -9.773  13.955  66.288  1.00  0.00    -0.289 C  
HETATM   13  C   UNL     1     -11.029  14.351  67.105  1.00  0.00    -0.305 C  
HETATM   14  C   UNL     1     -12.145  13.308  66.919  1.00  0.00    -0.389 C  
HETATM   15  C   UNL     1     -12.531  13.234  65.434  1.00  0.00    -0.543 C  
HETATM   16  C   UNL     1     -11.309  12.832  64.592  1.00  0.00    -0.362 C  
HETATM   17  C   UNL     1     -10.809  11.455  65.056  1.00  0.00    -0.311 C  
HETATM   18  C   UNL     1     -10.190  13.872  64.794  1.00  0.00    -0.353 C  
HETATM   19  C   UNL     1     -10.415  11.511  66.539  1.00  0.00    -0.284 C  
HETATM   20  C   UNL     1      -9.296  12.548  66.725  1.00  0.00    -0.230 C  
HETATM   21  C   UNL     1     -11.633  11.932  67.380  1.00  0.00    -0.367 C  
ENDBRANCH   9  12
ENDBRANCH   7   8
ENDBRANCH   6   7
ENDBRANCH   5   6
ENDBRANCH   4   5
ENDBRANCH   2   4
TORSDOF 6
ENDMDL
MODEL       16
REMARK 921   NORMALIZED FREE ENERGY PREDICTED BY IDOCK:   -5.51 KCAL/MOL
REMARK 922        TOTAL FREE ENERGY PREDICTED BY IDOCK:   -7.28 KCAL/MOL
REMARK 923 INTER-LIGAND FREE ENERGY PREDICTED BY IDOCK:   -7.13 KCAL/MOL
REMARK 924 INTRA-LIGAND FREE ENERGY PREDICTED BY IDOCK:   -0.15 KCAL/MOL
REMARK 927      BINDING AFFINITY PREDICTED BY RF-SCORE:    0.00 PKD
ROOT
HETATM    1  C   UNL     1      -9.521  19.038  68.806  1.00  0.00    -0.382 C  
HETATM    2  N   UNL     1      -8.434  19.937  68.404  1.00  0.00    -0.237 NA 
HETATM    3  C   UNL     1      -7.168  19.458  68.962  1.00  0.00    -0.362 C  
ENDROOT
BRANCH   2   4
HETATM    4  C   UNL     1      -8.394  20.031  66.931  1.00  0.00    -0.326 C  
BRANCH   4   5
HETATM    5  C   UNL     1      -7.110  19.484  66.289  1.00  0.00    -0.245 C  
BRANCH   5   6
HETATM    6  O   UNL     1      -7.436  18.342  65.489  1.00  0.00    -0.537 OA 
BRANCH   6   7
HETATM    7  C   UNL     1      -7.451  17.155  66.276  1.00  0.00    -0.309 C  
BRANCH   7   8
HETATM    8  C   UNL     1      -8.763  16.399  66.099  1.00  0.00    -0.312 C  
HETATM    9  N   UNL     1      -8.656  15.041  66.340  1.00  0.00    -0.453 N  
HETATM   10  O   UNL     1      -9.808  16.975  65.817  1.00  0.00    -0.525 OA 
HETATM   11  H   UNL     1      -7.743  14.676  66.614  1.00  0.00     0.000 HD 
BRANCH   9  12
HETATM   12  C   UNL     1      -9.765  14.091  66.227  1.00  0.00    -0.295 C  
HETATM   13  C   UNL     1      -9.296  12.633  66.462  1.00  0.00    -0.228 C  
HETATM   14  C   UNL     1     -10.485  11.661  66.361  1.00  0.00    -0.283 C  
HETATM   15  C   UNL     1     -11.526  12.017  67.432  1.00  0.00    -0.406 C  
HETATM   16  C   UNL     1     -12.024  13.458  67.224  1.00  0.00    -0.393 C  
HETATM   17  C   UNL     1     -12.666  13.572  65.833  1.00  0.00    -0.382 C  
HETATM   18  C   UNL     1     -10.827  14.424  67.311  1.00  0.00    -0.290 C  
HETATM   19  C   UNL     1     -11.637  13.222  64.748  1.00  0.00    -0.364 C  
HETATM   20  C   UNL     1     -10.452  14.196  64.843  1.00  0.00    -0.461 C  
HETATM   21  C   UNL     1     -11.125  11.787  64.968  1.00  0.00    -0.343 C  
ENDBRANCH   9  12
ENDBRANCH   7   8
ENDBRANCH   6   7
ENDBRANCH   5   6
ENDBRANCH   4   5
ENDBRANCH   2   4
TORSDOF 6
ENDMDL
MODEL       17
REMARK 921   NORMALIZED FREE ENERGY PREDICTED BY IDOCK:   -5.51 KCAL/MOL
REMARK 922        TOTAL FREE ENERGY PREDICTED BY IDOCK:   -7.27 KCAL/MOL
REMARK 923 INTER-LIGAND FREE ENERGY PREDICTED BY IDOCK:   -7.05 KCAL/MOL
REMARK 924 INTRA-LIGAND FREE ENERGY PREDICTED BY IDOCK:   -0.22 KCAL/MOL
REMARK 927      BINDING AFFINITY PREDICTED BY RF-SCORE:    0.00 PKD
ROOT
HETATM    1  C   UNL     1      -9.856  18.568  68.823  1.00  0.00    -0.376 C  
HETATM    2  N   UNL     1      -9.057  19.717  68.386  1.00  0.00    -0.311 NA 
HETATM    3  C   UNL     1      -7.754  19.692  69.054  1.00  0.00    -0.256 C  
ENDROOT
BRANCH   2   4
HETATM    4  C   UNL     1      -8.930  19.698  66.915  1.00  0.00    -0.331 C  
BRANCH   4   5
HETATM    5  C   UNL     1      -7.529  19.338  66.398  1.00  0.00    -0.259 C  
BRANCH   5   6
HETATM    6  O   UNL     1      -7.627  18.205  65.528  1.00  0.00    -0.527 OA 
BRANCH   6   7
HETATM    7  C   UNL     1      -7.643  16.991  66.272  1.00  0.00    -0.305 C  
BRANCH   7   8
HETATM    8  C   UNL     1      -8.913  16.195  65.989  1.00  0.00    -0.298 C  
HETATM    9  N   UNL     1      -8.810  14.855  66.316  1.00  0.00    -0.479 N  
HETATM   10  O   UNL     1      -9.930  16.730  65.560  1.00  0.00    -0.567 OA 
HETATM   11  H   UNL     1      -7.929  14.527  66.711  1.00  0.00     0.000 HD 
BRANCH   9  12
HETATM   12  C   UNL     1      -9.883  13.874  66.131  1.00  0.00    -0.302 C  
HETATM   13  C   UNL     1     -10.334  13.792  64.652  1.00  0.00    -0.393 C  
HETATM   14  C   UNL     1     -11.444  12.740  64.484  1.00  0.00    -0.389 C  
HETATM   15  C   UNL     1     -10.909  11.363  64.908  1.00  0.00    -0.323 C  
HETATM   16  C   UNL     1     -10.460  11.404  66.379  1.00  0.00    -0.299 C  
HETATM   17  C   UNL     1     -11.662  11.777  67.261  1.00  0.00    -0.293 C  
HETATM   18  C   UNL     1      -9.361  12.471  66.543  1.00  0.00    -0.233 C  
HETATM   19  C   UNL     1     -12.208  13.153  66.852  1.00  0.00    -0.284 C  
HETATM   20  C   UNL     1     -11.103  14.206  67.026  1.00  0.00    -0.314 C  
HETATM   21  C   UNL     1     -12.639  13.117  65.375  1.00  0.00    -0.512 C  
ENDBRANCH   9  12
ENDBRANCH   7   8
ENDBRANCH   6   7
ENDBRANCH   5   6
ENDBRANCH   4   5
ENDBRANCH   2   4
TORSDOF 6
ENDMDL
MODEL       18
REMARK 921   NORMALIZED FREE ENERGY PREDICTED BY IDOCK:   -5.49 KCAL/MOL
REMARK 922        TOTAL FREE ENERGY PREDICTED BY IDOCK:   -7.26 KCAL/MOL
REMARK 923 INTER-LIGAND FREE ENERGY PREDICTED BY IDOCK:   -7.32 KCAL/MOL
REMARK 924 INTRA-LIGAND FREE ENERGY PREDICTED BY IDOCK:    0.06 KCAL/MOL
REMARK 927      BINDING AFFINITY PREDICTED BY RF-SCORE:    0.00 PKD
ROOT
HETATM    1  C   UNL     1     -12.360  14.586  64.270  1.00  0.00    -0.369 C  
HETATM    2  N   UNL     1     -12.734  13.187  64.501  1.00  0.00    -0.686 NA 
HETATM    3  C   UNL     1     -12.308  12.370  63.362  1.00  0.00    -0.499 C  
ENDROOT
BRANCH   2   4
HETATM    4  C   UNL     1     -12.143  12.723  65.772  1.00  0.00    -0.448 C  
BRANCH   4   5
HETATM    5  C   UNL     1     -11.736  13.847  66.737  1.00  0.00    -0.399 C  
BRANCH   5   6
HETATM    6  O   UNL     1     -11.922  13.398  68.084  1.00  0.00    -0.349 OA 
BRANCH   6   7
HETATM    7  C   UNL     1     -10.800  12.642  68.530  1.00  0.00    -0.252 C  
BRANCH   7   8
HETATM    8  C   UNL     1     -11.238  11.287  69.075  1.00  0.00    -0.258 C  
HETATM    9  N   UNL     1     -10.267  10.657  69.833  1.00  0.00    -0.437 N  
HETATM   10  O   UNL     1     -12.366  10.846  68.884  1.00  0.00    -0.486 OA 
HETATM   11  H   UNL     1      -9.378  11.139  69.965  1.00  0.00     0.000 HD 
BRANCH   9  12
HETATM   12  C   UNL     1     -10.431   9.343  70.460  1.00  0.00    -0.274 C  
HETATM   13  C   UNL     1      -9.162   8.919  71.240  1.00  0.00    -0.328 C  
HETATM   14  C   UNL     1      -9.371   7.547  71.906  1.00  0.00    -0.171 C  
HETATM   15  C   UNL     1     -10.545   7.634  72.893  1.00  0.00    -0.411 C  
HETATM   16  C   UNL     1     -11.828   8.044  72.150  1.00  0.00    -0.401 C  
HETATM   17  C   UNL     1     -12.144   6.992  71.076  1.00  0.00    -0.413 C  
HETATM   18  C   UNL     1     -11.607   9.410  71.473  1.00  0.00    -0.467 C  
HETATM   19  C   UNL     1     -10.982   6.894  70.077  1.00  0.00    -0.320 C  
HETATM   20  C   UNL     1     -10.776   8.261  69.406  1.00  0.00    -0.160 C  
HETATM   21  C   UNL     1      -9.694   6.503  70.823  1.00  0.00    -0.194 C  
ENDBRANCH   9  12
ENDBRANCH   7   8
ENDBRANCH   6   7
ENDBRANCH   5   6
ENDBRANCH   4   5
ENDBRANCH   2   4
TORSDOF 6
ENDMDL
MODEL       19
REMARK 921   NORMALIZED FREE ENERGY PREDICTED BY IDOCK:   -5.48 KCAL/MOL
REMARK 922        TOTAL FREE ENERGY PREDICTED BY IDOCK:   -7.24 KCAL/MOL
REMARK 923 INTER-LIGAND FREE ENERGY PREDICTED BY IDOCK:   -7.20 KCAL/MOL
REMARK 924 INTRA-LIGAND FREE ENERGY PREDICTED BY IDOCK:   -0.05 KCAL/MOL
REMARK 927      BINDING AFFINITY PREDICTED BY RF-SCORE:    0.00 PKD
ROOT
HETATM    1  C   UNL     1     -14.156  15.083  71.478  1.00  0.00    -0.521 C  
HETATM    2  N   UNL     1     -12.888  15.007  70.747  1.00  0.00    -0.378 NA 
HETATM    3  C   UNL     1     -11.921  15.931  71.344  1.00  0.00    -0.457 C  
ENDROOT
BRANCH   2   4
HETATM    4  C   UNL     1     -12.401  13.613  70.748  1.00  0.00    -0.371 C  
BRANCH   4   5
HETATM    5  C   UNL     1     -11.734  13.166  69.439  1.00  0.00    -0.327 C  
BRANCH   5   6
HETATM    6  O   UNL     1     -12.226  13.972  68.363  1.00  0.00    -0.332 OA 
BRANCH   6   7
HETATM    7  C   UNL     1     -11.446  13.786  67.186  1.00  0.00    -0.340 C  
BRANCH   7   8
HETATM    8  C   UNL     1     -10.758  15.084  66.776  1.00  0.00    -0.308 C  
HETATM    9  N   UNL     1     -10.575  15.968  67.824  1.00  0.00    -0.301 N  
HETATM   10  O   UNL     1     -10.371  15.276  65.629  1.00  0.00    -0.311 OA 
HETATM   11  H   UNL     1     -10.896  15.683  68.749  1.00  0.00     0.000 HD 
BRANCH   9  12
HETATM   12  C   UNL     1      -9.951  17.287  67.694  1.00  0.00    -0.297 C  
HETATM   13  C   UNL     1      -8.418  17.177  67.501  1.00  0.00    -0.206 C  
HETATM   14  C   UNL     1      -7.792  18.574  67.344  1.00  0.00    -0.241 C  
HETATM   15  C   UNL     1      -8.392  19.264  66.109  1.00  0.00    -0.280 C  
HETATM   16  C   UNL     1      -9.915  19.400  66.270  1.00  0.00    -0.509 C  
HETATM   17  C   UNL     1     -10.216  20.243  67.519  1.00  0.00    -0.486 C  
HETATM   18  C   UNL     1     -10.533  17.999  66.443  1.00  0.00    -0.345 C  
HETATM   19  C   UNL     1      -9.626  19.565  68.764  1.00  0.00    -0.479 C  
HETATM   20  C   UNL     1     -10.255  18.173  68.927  1.00  0.00    -0.304 C  
HETATM   21  C   UNL     1      -8.104  19.412  68.596  1.00  0.00    -0.402 C  
ENDBRANCH   9  12
ENDBRANCH   7   8
ENDBRANCH   6   7
ENDBRANCH   5   6
ENDBRANCH   4   5
ENDBRANCH   2   4
TORSDOF 6
ENDMDL
MODEL       20
REMARK 921   NORMALIZED FREE ENERGY PREDICTED BY IDOCK:   -5.41 KCAL/MOL
REMARK 922        TOTAL FREE ENERGY PREDICTED BY IDOCK:   -7.14 KCAL/MOL
REMARK 923 INTER-LIGAND FREE ENERGY PREDICTED BY IDOCK:   -6.90 KCAL/MOL
REMARK 924 INTRA-LIGAND FREE ENERGY PREDICTED BY IDOCK:   -0.25 KCAL/MOL
REMARK 927      BINDING AFFINITY PREDICTED BY RF-SCORE:    0.00 PKD
ROOT
HETATM    1  C   UNL     1     -13.300  13.127  71.925  1.00  0.00    -0.455 C  
HETATM    2  N   UNL     1     -13.394  14.322  71.081  1.00  0.00    -0.330 NA 
HETATM    3  C   UNL     1     -14.048  15.400  71.827  1.00  0.00    -0.527 C  
ENDROOT
BRANCH   2   4
HETATM    4  C   UNL     1     -12.047  14.704  70.615  1.00  0.00    -0.317 C  
BRANCH   4   5
HETATM    5  C   UNL     1     -11.917  14.865  69.092  1.00  0.00    -0.278 C  
BRANCH   5   6
HETATM    6  O   UNL     1     -12.024  13.578  68.474  1.00  0.00    -0.351 OA 
BRANCH   6   7
HETATM    7  C   UNL     1     -10.916  12.753  68.820  1.00  0.00    -0.250 C  
BRANCH   7   8
HETATM    8  C   UNL     1     -11.385  11.385  69.304  1.00  0.00    -0.289 C  
HETATM    9  N   UNL     1     -10.440  10.710  70.056  1.00  0.00    -0.449 N  
HETATM   10  O   UNL     1     -12.516  10.971  69.075  1.00  0.00    -0.449 OA 
HETATM   11  H   UNL     1      -9.546  11.172  70.223  1.00  0.00     0.000 HD 
BRANCH   9  12
HETATM   12  C   UNL     1     -10.637   9.376  70.628  1.00  0.00    -0.290 C  
HETATM   13  C   UNL     1     -10.733   8.290  69.527  1.00  0.00    -0.179 C  
HETATM   14  C   UNL     1     -10.917   6.899  70.157  1.00  0.00    -0.322 C  
HETATM   15  C   UNL     1      -9.709   6.581  71.051  1.00  0.00    -0.189 C  
HETATM   16  C   UNL     1      -9.587   7.635  72.165  1.00  0.00    -0.207 C  
HETATM   17  C   UNL     1     -10.868   7.618  73.015  1.00  0.00    -0.457 C  
HETATM   18  C   UNL     1      -9.420   9.028  71.528  1.00  0.00    -0.316 C  
HETATM   19  C   UNL     1     -12.086   7.938  72.136  1.00  0.00    -0.371 C  
HETATM   20  C   UNL     1     -11.908   9.330  71.512  1.00  0.00    -0.444 C  
HETATM   21  C   UNL     1     -12.197   6.894  71.011  1.00  0.00    -0.427 C  
ENDBRANCH   9  12
ENDBRANCH   7   8
ENDBRANCH   6   7
ENDBRANCH   5   6
ENDBRANCH   4   5
ENDBRANCH   2   4
TORSDOF 6
ENDMDL
MODEL       21
REMARK 921   NORMALIZED FREE ENERGY PREDICTED BY IDOCK:   -5.40 KCAL/MOL
REMARK 922        TOTAL FREE ENERGY PREDICTED BY IDOCK:   -7.13 KCAL/MOL
REMARK 923 INTER-LIGAND FREE ENERGY PREDICTED BY IDOCK:   -7.03 KCAL/MOL
REMARK 924 INTRA-LIGAND FREE ENERGY PREDICTED BY IDOCK:   -0.11 KCAL/MOL
REMARK 927      BINDING AFFINITY PREDICTED BY RF-SCORE:    0.00 PKD
ROOT
HETATM    1  C   UNL     1      -7.385  16.962  68.264  1.00  0.00    -0.193 C  
HETATM    2  N   UNL     1      -7.709  18.290  68.794  1.00  0.00    -0.295 NA 
HETATM    3  C   UNL     1      -6.480  18.960  69.226  1.00  0.00    -0.285 C  
ENDROOT
BRANCH   2   4
HETATM    4  C   UNL     1      -8.434  19.066  67.768  1.00  0.00    -0.293 C  
BRANCH   4   5
HETATM    5  C   UNL     1      -9.845  19.512  68.182  1.00  0.00    -0.407 C  
BRANCH   5   6
HETATM    6  O   UNL     1     -10.808  18.845  67.359  1.00  0.00    -0.458 OA 
BRANCH   6   7
HETATM    7  C   UNL     1     -10.289  18.609  66.054  1.00  0.00    -0.399 C  
BRANCH   7   8
HETATM    8  C   UNL     1     -10.650  17.210  65.567  1.00  0.00    -0.150 C  
HETATM    9  N   UNL     1     -10.382  16.217  66.492  1.00  0.00    -0.301 N  
HETATM   10  O   UNL     1     -11.172  17.020  64.475  1.00  0.00    -1.091 OA 
HETATM   11  H   UNL     1      -9.988  16.496  67.390  1.00  0.00     0.000 HD 
BRANCH   9  12
HETATM   12  C   UNL     1     -10.625  14.790  66.267  1.00  0.00    -0.305 C  
HETATM   13  C   UNL     1     -12.139  14.460  66.278  1.00  0.00    -0.384 C  
HETATM   14  C   UNL     1     -12.366  12.960  66.017  1.00  0.00    -0.330 C  
HETATM   15  C   UNL     1     -11.796  12.592  64.638  1.00  0.00    -0.439 C  
HETATM   16  C   UNL     1     -10.289  12.897  64.593  1.00  0.00    -0.366 C  
HETATM   17  C   UNL     1      -9.577  12.072  65.675  1.00  0.00    -0.205 C  
HETATM   18  C   UNL     1     -10.068  14.396  64.871  1.00  0.00    -0.253 C  
HETATM   19  C   UNL     1     -10.132  12.430  67.061  1.00  0.00    -0.223 C  
HETATM   20  C   UNL     1      -9.900  13.925  67.327  1.00  0.00    -0.244 C  
HETATM   21  C   UNL     1     -11.643  12.142  67.100  1.00  0.00    -0.405 C  
ENDBRANCH   9  12
ENDBRANCH   7   8
ENDBRANCH   6   7
ENDBRANCH   5   6
ENDBRANCH   4   5
ENDBRANCH   2   4
TORSDOF 6
ENDMDL
MODEL       22
REMARK 921   NORMALIZED FREE ENERGY PREDICTED BY IDOCK:   -5.32 KCAL/MOL
REMARK 922        TOTAL FREE ENERGY PREDICTED BY IDOCK:   -7.02 KCAL/MOL
REMARK 923 INTER-LIGAND FREE ENERGY PREDICTED BY IDOCK:   -7.04 KCAL/MOL
REMARK 924 INTRA-LIGAND FREE ENERGY PREDICTED BY IDOCK:    0.02 KCAL/MOL
REMARK 927      BINDING AFFINITY PREDICTED BY RF-SCORE:    0.00 PKD
ROOT
HETATM    1  C   UNL     1     -14.390  15.275  71.499  1.00  0.00    -0.527 C  
HETATM    2  N   UNL     1     -13.009  15.647  71.824  1.00  0.00    -0.449 NA 
HETATM    3  C   UNL     1     -12.851  15.725  73.278  1.00  0.00    -0.542 C  
ENDROOT
BRANCH   2   4
HETATM    4  C   UNL     1     -12.080  14.676  71.213  1.00  0.00    -0.350 C  
BRANCH   4   5
HETATM    5  C   UNL     1     -11.809  14.903  69.718  1.00  0.00    -0.315 C  
BRANCH   5   6
HETATM    6  O   UNL     1     -12.237  13.751  68.984  1.00  0.00    -0.343 OA 
BRANCH   6   7
HETATM    7  C   UNL     1     -11.148  12.866  68.742  1.00  0.00    -0.263 C  
BRANCH   7   8
HETATM    8  C   UNL     1     -11.500  11.441  69.157  1.00  0.00    -0.299 C  
HETATM    9  N   UNL     1     -10.631  10.907  70.092  1.00  0.00    -0.402 N  
HETATM   10  O   UNL     1     -12.493  10.868  68.724  1.00  0.00    -0.431 OA 
HETATM   11  H   UNL     1      -9.863  11.493  70.418  1.00  0.00     0.000 HD 
BRANCH   9  12
HETATM   12  C   UNL     1     -10.741   9.555  70.644  1.00  0.00    -0.309 C  
HETATM   13  C   UNL     1      -9.530   9.205  71.545  1.00  0.00    -0.239 C  
HETATM   14  C   UNL     1      -9.683   7.790  72.129  1.00  0.00    -0.240 C  
HETATM   15  C   UNL     1     -10.959   7.726  72.982  1.00  0.00    -0.442 C  
HETATM   16  C   UNL     1     -12.187   8.059  72.116  1.00  0.00    -0.377 C  
HETATM   17  C   UNL     1     -12.287   7.037  70.973  1.00  0.00    -0.402 C  
HETATM   18  C   UNL     1     -12.020   9.470  71.522  1.00  0.00    -0.475 C  
HETATM   19  C   UNL     1     -11.020   7.089  70.108  1.00  0.00    -0.306 C  
HETATM   20  C   UNL     1     -10.869   8.500  69.518  1.00  0.00    -0.134 C  
HETATM   21  C   UNL     1      -9.790   6.775  70.978  1.00  0.00    -0.192 C  
ENDBRANCH   9  12
ENDBRANCH   7   8
ENDBRANCH   6   7
ENDBRANCH   5   6
ENDBRANCH   4   5
ENDBRANCH   2   4
TORSDOF 6
ENDMDL
MODEL       23
REMARK 921   NORMALIZED FREE ENERGY PREDICTED BY IDOCK:   -5.14 KCAL/MOL
REMARK 922        TOTAL FREE ENERGY PREDICTED BY IDOCK:   -6.77 KCAL/MOL
REMARK 923 INTER-LIGAND FREE ENERGY PREDICTED BY IDOCK:   -6.71 KCAL/MOL
REMARK 924 INTRA-LIGAND FREE ENERGY PREDICTED BY IDOCK:   -0.06 KCAL/MOL
REMARK 927      BINDING AFFINITY PREDICTED BY RF-SCORE:    0.00 PKD
ROOT
HETATM    1  C   UNL     1     -10.216  11.274  63.386  1.00  0.00    -0.403 C  
HETATM    2  N   UNL     1     -10.604  12.593  63.895  1.00  0.00    -0.426 NA 
HETATM    3  C   UNL     1     -11.915  12.961  63.355  1.00  0.00    -0.537 C  
ENDROOT
BRANCH   2   4
HETATM    4  C   UNL     1     -10.594  12.574  65.371  1.00  0.00    -0.281 C  
BRANCH   4   5
HETATM    5  C   UNL     1     -11.973  12.756  66.023  1.00  0.00    -0.432 C  
BRANCH   5   6
HETATM    6  O   UNL     1     -12.128  11.792  67.070  1.00  0.00    -0.575 OA 
BRANCH   6   7
HETATM    7  C   UNL     1     -11.026  10.891  67.101  1.00  0.00    -0.272 C  
BRANCH   7   8
HETATM    8  C   UNL     1     -10.768  10.392  68.519  1.00  0.00    -0.221 C  
HETATM    9  N   UNL     1     -10.989   9.036  68.676  1.00  0.00    -0.448 N  
HETATM   10  O   UNL     1     -10.357  11.137  69.402  1.00  0.00    -0.173 OA 
HETATM   11  H   UNL     1     -11.285   8.503  67.859  1.00  0.00     0.000 HD 
BRANCH   9  12
HETATM   12  C   UNL     1     -10.824   8.313  69.940  1.00  0.00    -0.213 C  
HETATM   13  C   UNL     1     -11.802   8.829  71.025  1.00  0.00    -0.315 C  
HETATM   14  C   UNL     1     -11.623   8.038  72.333  1.00  0.00    -0.450 C  
HETATM   15  C   UNL     1     -11.921   6.553  72.074  1.00  0.00    -0.372 C  
HETATM   16  C   UNL     1     -10.961   6.002  71.006  1.00  0.00    -0.350 C  
HETATM   17  C   UNL     1      -9.515   6.151  71.506  1.00  0.00    -0.161 C  
HETATM   18  C   UNL     1     -11.133   6.809  69.705  1.00  0.00    -0.368 C  
HETATM   19  C   UNL     1      -9.199   7.631  71.766  1.00  0.00    -0.167 C  
HETATM   20  C   UNL     1      -9.370   8.422  70.461  1.00  0.00    -0.177 C  
HETATM   21  C   UNL     1     -10.172   8.187  72.821  1.00  0.00    -0.372 C  
ENDBRANCH   9  12
ENDBRANCH   7   8
ENDBRANCH   6   7
ENDBRANCH   5   6
ENDBRANCH   4   5
ENDBRANCH   2   4
TORSDOF 6
ENDMDL
MODEL       24
REMARK 921   NORMALIZED FREE ENERGY PREDICTED BY IDOCK:   -5.08 KCAL/MOL
REMARK 922        TOTAL FREE ENERGY PREDICTED BY IDOCK:   -6.69 KCAL/MOL
REMARK 923 INTER-LIGAND FREE ENERGY PREDICTED BY IDOCK:   -6.81 KCAL/MOL
REMARK 924 INTRA-LIGAND FREE ENERGY PREDICTED BY IDOCK:    0.11 KCAL/MOL
REMARK 927      BINDING AFFINITY PREDICTED BY RF-SCORE:    0.00 PKD
ROOT
HETATM    1  C   UNL     1     -12.432  10.311  71.016  1.00  0.00    -0.384 C  
HETATM    2  N   UNL     1     -11.355  10.838  70.172  1.00  0.00    -0.308 NA 
HETATM    3  C   UNL     1     -10.460   9.748  69.779  1.00  0.00    -0.250 C  
ENDROOT
BRANCH   2   4
HETATM    4  C   UNL     1     -11.937  11.530  69.005  1.00  0.00    -0.311 C  
BRANCH   4   5
HETATM    5  C   UNL     1     -11.274  12.872  68.660  1.00  0.00    -0.281 C  
BRANCH   5   6
HETATM    6  O   UNL     1     -11.134  12.973  67.238  1.00  0.00    -0.258 OA 
BRANCH   6   7
HETATM    7  C   UNL     1     -11.819  14.117  66.738  1.00  0.00    -0.425 C  
BRANCH   7   8
HETATM    8  C   UNL     1     -10.849  15.267  66.484  1.00  0.00    -0.311 C  
HETATM    9  N   UNL     1     -10.858  16.228  67.479  1.00  0.00    -0.303 N  
HETATM   10  O   UNL     1     -10.110  15.284  65.506  1.00  0.00    -0.339 OA 
HETATM   11  H   UNL     1     -11.483  16.086  68.272  1.00  0.00     0.000 HD 
BRANCH   9  12
HETATM   12  C   UNL     1     -10.030  17.436  67.468  1.00  0.00    -0.298 C  
HETATM   13  C   UNL     1      -8.524  17.095  67.341  1.00  0.00    -0.202 C  
HETATM   14  C   UNL     1      -7.680  18.382  67.309  1.00  0.00    -0.228 C  
HETATM   15  C   UNL     1      -8.093  19.231  66.098  1.00  0.00    -0.294 C  
HETATM   16  C   UNL     1      -9.584  19.599  66.195  1.00  0.00    -0.464 C  
HETATM   17  C   UNL     1      -9.820  20.402  67.484  1.00  0.00    -0.564 C  
HETATM   18  C   UNL     1     -10.421  18.306  66.243  1.00  0.00    -0.397 C  
HETATM   19  C   UNL     1      -9.416  19.565  68.706  1.00  0.00    -0.447 C  
HETATM   20  C   UNL     1     -10.262  18.283  68.744  1.00  0.00    -0.342 C  
HETATM   21  C   UNL     1      -7.929  19.182  68.599  1.00  0.00    -0.398 C  
ENDBRANCH   9  12
ENDBRANCH   7   8
ENDBRANCH   6   7
ENDBRANCH   5   6
ENDBRANCH   4   5
ENDBRANCH   2   4
TORSDOF 6
ENDMDL
MODEL       25
REMARK 921   NORMALIZED FREE ENERGY PREDICTED BY IDOCK:   -5.04 KCAL/MOL
REMARK 922        TOTAL FREE ENERGY PREDICTED BY IDOCK:   -6.64 KCAL/MOL
REMARK 923 INTER-LIGAND FREE ENERGY PREDICTED BY IDOCK:   -6.65 KCAL/MOL
REMARK 924 INTRA-LIGAND FREE ENERGY PREDICTED BY IDOCK:    0.01 KCAL/MOL
REMARK 927      BINDING AFFINITY PREDICTED BY RF-SCORE:    0.00 PKD
ROOT
HETATM    1  C   UNL     1     -14.145   8.586  72.033  1.00  0.00    -0.444 C  
HETATM    2  N   UNL     1     -12.699   8.346  72.000  1.00  0.00    -0.343 NA 
HETATM    3  C   UNL     1     -12.409   7.210  71.122  1.00  0.00    -0.364 C  
ENDROOT
BRANCH   2   4
HETATM    4  C   UNL     1     -12.006   9.576  71.568  1.00  0.00    -0.399 C  
BRANCH   4   5
HETATM    5  C   UNL     1     -12.820  10.866  71.748  1.00  0.00    -0.404 C  
BRANCH   5   6
HETATM    6  O   UNL     1     -12.284  11.882  70.893  1.00  0.00    -0.357 OA 
BRANCH   6   7
HETATM    7  C   UNL     1     -11.910  11.341  69.630  1.00  0.00    -0.360 C  
BRANCH   7   8
HETATM    8  C   UNL     1     -11.564  12.449  68.642  1.00  0.00    -0.319 C  
HETATM    9  N   UNL     1     -10.680  13.386  69.148  1.00  0.00    -0.428 N  
HETATM   10  O   UNL     1     -12.004  12.456  67.497  1.00  0.00    -0.482 OA 
HETATM   11  H   UNL     1     -10.342  13.254  70.101  1.00  0.00     0.000 HD 
BRANCH   9  12
HETATM   12  C   UNL     1     -10.199  14.553  68.406  1.00  0.00    -0.239 C  
HETATM   13  C   UNL     1     -11.338  15.567  68.133  1.00  0.00    -0.348 C  
HETATM   14  C   UNL     1     -10.800  16.792  67.373  1.00  0.00    -0.176 C  
HETATM   15  C   UNL     1      -9.724  17.485  68.223  1.00  0.00    -0.311 C  
HETATM   16  C   UNL     1      -8.568  16.510  68.507  1.00  0.00    -0.223 C  
HETATM   17  C   UNL     1      -7.951  16.060  67.174  1.00  0.00    -0.234 C  
HETATM   18  C   UNL     1      -9.117  15.278  69.253  1.00  0.00    -0.240 C  
HETATM   19  C   UNL     1      -9.013  15.361  66.312  1.00  0.00    -0.341 C  
HETATM   20  C   UNL     1      -9.547  14.134  67.065  1.00  0.00    -0.264 C  
HETATM   21  C   UNL     1     -10.178  16.331  66.044  1.00  0.00    -0.376 C  
ENDBRANCH   9  12
ENDBRANCH   7   8
ENDBRANCH   6   7
ENDBRANCH   5   6
ENDBRANCH   4   5
ENDBRANCH   2   4
TORSDOF 6
ENDMDL
MODEL       26
REMARK 921   NORMALIZED FREE ENERGY PREDICTED BY IDOCK:   -5.03 KCAL/MOL
REMARK 922        TOTAL FREE ENERGY PREDICTED BY IDOCK:   -6.63 KCAL/MOL
REMARK 923 INTER-LIGAND FREE ENERGY PREDICTED BY IDOCK:   -6.44 KCAL/MOL
REMARK 924 INTRA-LIGAND FREE ENERGY PREDICTED BY IDOCK:   -0.19 KCAL/MOL
REMARK 927      BINDING AFFINITY PREDICTED BY RF-SCORE:    0.00 PKD
ROOT
HETATM    1  C   UNL     1      -9.084  19.443  66.249  1.00  0.00    -0.346 C  
HETATM    2  N   UNL     1      -9.670  19.401  67.592  1.00  0.00    -0.317 NA 
HETATM    3  C   UNL     1     -10.784  18.450  67.613  1.00  0.00    -0.357 C  
ENDROOT
BRANCH   2   4
HETATM    4  C   UNL     1      -8.624  19.055  68.575  1.00  0.00    -0.358 C  
BRANCH   4   5
HETATM    5  C   UNL     1      -7.294  18.594  67.960  1.00  0.00    -0.249 C  
BRANCH   5   6
HETATM    6  O   UNL     1      -6.951  17.310  68.493  1.00  0.00    -0.190 OA 
BRANCH   6   7
HETATM    7  C   UNL     1      -6.849  16.338  67.457  1.00  0.00    -0.161 C  
BRANCH   7   8
HETATM    8  C   UNL     1      -7.983  15.322  67.548  1.00  0.00    -0.176 C  
HETATM    9  N   UNL     1      -8.715  15.203  66.380  1.00  0.00    -0.446 N  
HETATM   10  O   UNL     1      -8.173  14.654  68.559  1.00  0.00    -0.139 OA 
HETATM   11  H   UNL     1      -8.437  15.777  65.584  1.00  0.00     0.000 HD 
BRANCH   9  12
HETATM   12  C   UNL     1      -9.861  14.307  66.210  1.00  0.00    -0.307 C  
HETATM   13  C   UNL     1      -9.451  12.820  66.353  1.00  0.00    -0.229 C  
HETATM   14  C   UNL     1     -10.676  11.904  66.193  1.00  0.00    -0.318 C  
HETATM   15  C   UNL     1     -11.705  12.234  67.286  1.00  0.00    -0.394 C  
HETATM   16  C   UNL     1     -12.144  13.704  67.168  1.00  0.00    -0.404 C  
HETATM   17  C   UNL     1     -12.779  13.929  65.788  1.00  0.00    -0.503 C  
HETATM   18  C   UNL     1     -10.910  14.614  67.313  1.00  0.00    -0.305 C  
HETATM   19  C   UNL     1     -11.764  13.608  64.682  1.00  0.00    -0.414 C  
HETATM   20  C   UNL     1     -10.542  14.526  64.836  1.00  0.00    -0.450 C  
HETATM   21  C   UNL     1     -11.309  12.142  64.811  1.00  0.00    -0.378 C  
ENDBRANCH   9  12
ENDBRANCH   7   8
ENDBRANCH   6   7
ENDBRANCH   5   6
ENDBRANCH   4   5
ENDBRANCH   2   4
TORSDOF 6
ENDMDL
MODEL       27
REMARK 921   NORMALIZED FREE ENERGY PREDICTED BY IDOCK:   -5.01 KCAL/MOL
REMARK 922        TOTAL FREE ENERGY PREDICTED BY IDOCK:   -6.61 KCAL/MOL
REMARK 923 INTER-LIGAND FREE ENERGY PREDICTED BY IDOCK:   -6.56 KCAL/MOL
REMARK 924 INTRA-LIGAND FREE ENERGY PREDICTED BY IDOCK:   -0.05 KCAL/MOL
REMARK 927      BINDING AFFINITY PREDICTED BY RF-SCORE:    0.00 PKD
ROOT
HETATM    1  C   UNL     1     -11.075   6.721  72.381  1.00  0.00    -0.257 C  
HETATM    2  N   UNL     1     -11.697   7.374  71.225  1.00  0.00    -0.279 NA 
HETATM    3  C   UNL     1     -11.569   6.514  70.047  1.00  0.00    -0.390 C  
ENDROOT
BRANCH   2   4
HETATM    4  C   UNL     1     -13.106   7.687  71.536  1.00  0.00    -0.338 C  
BRANCH   4   5
HETATM    5  C   UNL     1     -13.347   9.116  72.047  1.00  0.00    -0.445 C  
BRANCH   5   6
HETATM    6  O   UNL     1     -12.250   9.946  71.650  1.00  0.00    -0.382 OA 
BRANCH   6   7
HETATM    7  C   UNL     1     -12.704  11.239  71.261  1.00  0.00    -0.405 C  
BRANCH   7   8
HETATM    8  C   UNL     1     -12.124  11.636  69.907  1.00  0.00    -0.301 C  
HETATM    9  N   UNL     1     -11.498  12.870  69.914  1.00  0.00    -0.515 N  
HETATM   10  O   UNL     1     -12.180  10.890  68.936  1.00  0.00    -0.494 OA 
HETATM   11  H   UNL     1     -11.472  13.385  70.794  1.00  0.00     0.000 HD 
BRANCH   9  12
HETATM   12  C   UNL     1     -10.871  13.485  68.742  1.00  0.00    -0.253 C  
HETATM   13  C   UNL     1     -11.903  13.759  67.620  1.00  0.00    -0.413 C  
HETATM   14  C   UNL     1     -11.222  14.426  66.412  1.00  0.00    -0.345 C  
HETATM   15  C   UNL     1     -10.608  15.765  66.848  1.00  0.00    -0.317 C  
HETATM   16  C   UNL     1      -9.569  15.531  67.958  1.00  0.00    -0.203 C  
HETATM   17  C   UNL     1      -8.459  14.614  67.421  1.00  0.00    -0.219 C  
HETATM   18  C   UNL     1     -10.254  14.849  69.158  1.00  0.00    -0.243 C  
HETATM   19  C   UNL     1      -9.054  13.268  66.983  1.00  0.00    -0.232 C  
HETATM   20  C   UNL     1      -9.729  12.598  68.189  1.00  0.00    -0.219 C  
HETATM   21  C   UNL     1     -10.108  13.504  65.886  1.00  0.00    -0.311 C  
ENDBRANCH   9  12
ENDBRANCH   7   8
ENDBRANCH   6   7
ENDBRANCH   5   6
ENDBRANCH   4   5
ENDBRANCH   2   4
TORSDOF 6
ENDMDL
MODEL       28
REMARK 921   NORMALIZED FREE ENERGY PREDICTED BY IDOCK:   -5.00 KCAL/MOL
REMARK 922        TOTAL FREE ENERGY PREDICTED BY IDOCK:   -6.58 KCAL/MOL
REMARK 923 INTER-LIGAND FREE ENERGY PREDICTED BY IDOCK:   -6.50 KCAL/MOL
REMARK 924 INTRA-LIGAND FREE ENERGY PREDICTED BY IDOCK:   -0.08 KCAL/MOL
REMARK 927      BINDING AFFINITY PREDICTED BY RF-SCORE:    0.00 PKD
ROOT
HETATM    1  C   UNL     1     -10.158   5.233  71.175  1.00  0.00    -0.217 C  
HETATM    2  N   UNL     1     -10.716   6.484  70.651  1.00  0.00    -0.235 NA 
HETATM    3  C   UNL     1     -11.140   6.289  69.263  1.00  0.00    -0.393 C  
ENDROOT
BRANCH   2   4
HETATM    4  C   UNL     1     -11.826   6.929  71.516  1.00  0.00    -0.324 C  
BRANCH   4   5
HETATM    5  C   UNL     1     -11.447   8.012  72.538  1.00  0.00    -0.409 C  
BRANCH   5   6
HETATM    6  O   UNL     1     -10.786   9.086  71.859  1.00  0.00    -0.350 OA 
BRANCH   6   7
HETATM    7  C   UNL     1     -11.729  10.012  71.329  1.00  0.00    -0.369 C  
BRANCH   7   8
HETATM    8  C   UNL     1     -11.301  10.498  69.948  1.00  0.00    -0.309 C  
HETATM    9  N   UNL     1     -11.522  11.847  69.743  1.00  0.00    -0.462 N  
HETATM   10  O   UNL     1     -10.767   9.749  69.136  1.00  0.00    -0.212 OA 
HETATM   11  H   UNL     1     -11.931  12.384  70.508  1.00  0.00     0.000 HD 
BRANCH   9  12
HETATM   12  C   UNL     1     -11.210  12.557  68.500  1.00  0.00    -0.283 C  
HETATM   13  C   UNL     1      -9.682  12.691  68.287  1.00  0.00    -0.216 C  
HETATM   14  C   UNL     1      -9.383  13.419  66.964  1.00  0.00    -0.243 C  
HETATM   15  C   UNL     1      -9.970  12.613  65.796  1.00  0.00    -0.266 C  
HETATM   16  C   UNL     1     -11.492  12.468  65.968  1.00  0.00    -0.423 C  
HETATM   17  C   UNL     1     -12.130  13.865  65.994  1.00  0.00    -0.465 C  
HETATM   18  C   UNL     1     -11.784  11.753  67.302  1.00  0.00    -0.293 C  
HETATM   19  C   UNL     1     -11.557  14.684  67.159  1.00  0.00    -0.394 C  
HETATM   20  C   UNL     1     -11.860  13.963  68.481  1.00  0.00    -0.401 C  
HETATM   21  C   UNL     1     -10.032  14.813  66.996  1.00  0.00    -0.238 C  
ENDBRANCH   9  12
ENDBRANCH   7   8
ENDBRANCH   6   7
ENDBRANCH   5   6
ENDBRANCH   4   5
ENDBRANCH   2   4
TORSDOF 6
ENDMDL
MODEL       29
REMARK 921   NORMALIZED FREE ENERGY PREDICTED BY IDOCK:   -4.99 KCAL/MOL
REMARK 922        TOTAL FREE ENERGY PREDICTED BY IDOCK:   -6.58 KCAL/MOL
REMARK 923 INTER-LIGAND FREE ENERGY PREDICTED BY IDOCK:   -6.65 KCAL/MOL
REMARK 924 INTRA-LIGAND FREE ENERGY PREDICTED BY IDOCK:    0.08 KCAL/MOL
REMARK 927      BINDING AFFINITY PREDICTED BY RF-SCORE:    0.00 PKD
ROOT
HETATM    1  C   UNL     1     -10.657  17.561  67.709  1.00  0.00    -0.375 C  
HETATM    2  N   UNL     1     -10.625  16.164  68.151  1.00  0.00    -0.278 NA 
HETATM    3  C   UNL     1     -11.565  15.977  69.259  1.00  0.00    -0.331 C  
ENDROOT
BRANCH   2   4
HETATM    4  C   UNL     1     -10.928  15.279  67.008  1.00  0.00    -0.324 C  
BRANCH   4   5
HETATM    5  C   UNL     1     -11.898  14.131  67.326  1.00  0.00    -0.419 C  
BRANCH   5   6
HETATM    6  O   UNL     1     -11.190  12.888  67.265  1.00  0.00    -0.264 OA 
BRANCH   6   7
HETATM    7  C   UNL     1     -10.590  12.580  68.519  1.00  0.00    -0.243 C  
BRANCH   7   8
HETATM    8  C   UNL     1     -11.136  11.271  69.079  1.00  0.00    -0.244 C  
HETATM    9  N   UNL     1     -10.256  10.621  69.925  1.00  0.00    -0.437 N  
HETATM   10  O   UNL     1     -12.271  10.882  68.823  1.00  0.00    -0.518 OA 
HETATM   11  H   UNL     1      -9.354  11.062  70.103  1.00  0.00     0.000 HD 
BRANCH   9  12
HETATM   12  C   UNL     1     -10.534   9.342  70.584  1.00  0.00    -0.290 C  
HETATM   13  C   UNL     1     -11.769   9.435  71.515  1.00  0.00    -0.465 C  
HETATM   14  C   UNL     1     -12.051   8.074  72.174  1.00  0.00    -0.391 C  
HETATM   15  C   UNL     1     -12.339   7.030  71.084  1.00  0.00    -0.423 C  
HETATM   16  C   UNL     1     -11.128   6.903  70.144  1.00  0.00    -0.344 C  
HETATM   17  C   UNL     1      -9.903   6.462  70.960  1.00  0.00    -0.200 C  
HETATM   18  C   UNL     1     -10.841   8.273  69.500  1.00  0.00    -0.124 C  
HETATM   19  C   UNL     1      -9.598   7.496  72.053  1.00  0.00    -0.189 C  
HETATM   20  C   UNL     1      -9.309   8.855  71.396  1.00  0.00    -0.338 C  
HETATM   21  C   UNL     1     -10.817   7.637  72.982  1.00  0.00    -0.457 C  
ENDBRANCH   9  12
ENDBRANCH   7   8
ENDBRANCH   6   7
ENDBRANCH   5   6
ENDBRANCH   4   5
ENDBRANCH   2   4
TORSDOF 6
ENDMDL
MODEL       30
REMARK 921   NORMALIZED FREE ENERGY PREDICTED BY IDOCK:   -4.99 KCAL/MOL
REMARK 922        TOTAL FREE ENERGY PREDICTED BY IDOCK:   -6.57 KCAL/MOL
REMARK 923 INTER-LIGAND FREE ENERGY PREDICTED BY IDOCK:   -6.06 KCAL/MOL
REMARK 924 INTRA-LIGAND FREE ENERGY PREDICTED BY IDOCK:   -0.52 KCAL/MOL
REMARK 927      BINDING AFFINITY PREDICTED BY RF-SCORE:    0.00 PKD
ROOT
HETATM    1  C   UNL     1     -10.078   8.724  71.845  1.00  0.00    -0.339 C  
HETATM    2  N   UNL     1     -11.049   8.258  70.851  1.00  0.00    -0.256 NA 
HETATM    3  C   UNL     1     -10.439   7.222  70.015  1.00  0.00    -0.224 C  
ENDROOT
BRANCH   2   4
HETATM    4  C   UNL     1     -12.264   7.776  71.537  1.00  0.00    -0.318 C  
BRANCH   4   5
HETATM    5  C   UNL     1     -13.132   8.883  72.155  1.00  0.00    -0.421 C  
BRANCH   5   6
HETATM    6  O   UNL     1     -13.425   9.863  71.154  1.00  0.00    -0.367 OA 
BRANCH   6   7
HETATM    7  C   UNL     1     -12.920  11.142  71.527  1.00  0.00    -0.437 C  
BRANCH   7   8
HETATM    8  C   UNL     1     -12.205  11.809  70.357  1.00  0.00    -0.330 C  
HETATM    9  N   UNL     1     -11.827  10.925  69.363  1.00  0.00    -0.328 N  
HETATM   10  O   UNL     1     -12.039  13.023  70.309  1.00  0.00    -0.348 OA 
HETATM   11  H   UNL     1     -12.059   9.940  69.489  1.00  0.00     0.000 HD 
BRANCH   9  12
HETATM   12  C   UNL     1     -11.116  11.309  68.141  1.00  0.00    -0.259 C  
HETATM   13  C   UNL     1     -11.874  12.413  67.362  1.00  0.00    -0.360 C  
HETATM   14  C   UNL     1     -11.095  12.813  66.097  1.00  0.00    -0.322 C  
HETATM   15  C   UNL     1      -9.717  13.359  66.500  1.00  0.00    -0.284 C  
HETATM   16  C   UNL     1      -8.929  12.285  67.269  1.00  0.00    -0.187 C  
HETATM   17  C   UNL     1      -8.744  11.055  66.367  1.00  0.00    -0.174 C  
HETATM   18  C   UNL     1      -9.723  11.877  68.525  1.00  0.00    -0.173 C  
HETATM   19  C   UNL     1     -10.113  10.493  65.957  1.00  0.00    -0.317 C  
HETATM   20  C   UNL     1     -10.891  10.086  67.218  1.00  0.00    -0.284 C  
HETATM   21  C   UNL     1     -10.909  11.574  65.204  1.00  0.00    -0.326 C  
ENDBRANCH   9  12
ENDBRANCH   7   8
ENDBRANCH   6   7
ENDBRANCH   5   6
ENDBRANCH   4   5
ENDBRANCH   2   4
TORSDOF 6
ENDMDL
MODEL       31
REMARK 921   NORMALIZED FREE ENERGY PREDICTED BY IDOCK:   -4.99 KCAL/MOL
REMARK 922        TOTAL FREE ENERGY PREDICTED BY IDOCK:   -6.57 KCAL/MOL
REMARK 923 INTER-LIGAND FREE ENERGY PREDICTED BY IDOCK:   -6.62 KCAL/MOL
REMARK 924 INTRA-LIGAND FREE ENERGY PREDICTED BY IDOCK:    0.05 KCAL/MOL
REMARK 927      BINDING AFFINITY PREDICTED BY RF-SCORE:    0.00 PKD
ROOT
HETATM    1  C   UNL     1     -14.194  14.909  71.820  1.00  0.00    -0.544 C  
HETATM    2  N   UNL     1     -12.825  15.342  71.521  1.00  0.00    -0.363 NA 
HETATM    3  C   UNL     1     -12.320  16.167  72.620  1.00  0.00    -0.487 C  
ENDROOT
BRANCH   2   4
HETATM    4  C   UNL     1     -11.977  14.159  71.276  1.00  0.00    -0.185 C  
BRANCH   4   5
HETATM    5  C   UNL     1     -12.423  13.284  70.094  1.00  0.00    -0.140 C  
BRANCH   5   6
HETATM    6  O   UNL     1     -11.999  13.897  68.871  1.00  0.00    -0.336 OA 
BRANCH   6   7
HETATM    7  C   UNL     1     -10.591  13.770  68.699  1.00  0.00    -0.253 C  
BRANCH   7   8
HETATM    8  C   UNL     1      -9.906  15.131  68.783  1.00  0.00    -0.223 C  
HETATM    9  N   UNL     1     -10.305  16.012  67.794  1.00  0.00    -0.272 N  
HETATM   10  O   UNL     1      -9.119  15.403  69.682  1.00  0.00    -0.263 OA 
HETATM   11  H   UNL     1     -11.003  15.692  67.124  1.00  0.00     0.000 HD 
BRANCH   9  12
HETATM   12  C   UNL     1      -9.790  17.376  67.646  1.00  0.00    -0.282 C  
HETATM   13  C   UNL     1     -10.116  18.248  68.885  1.00  0.00    -0.358 C  
HETATM   14  C   UNL     1      -9.545  19.666  68.712  1.00  0.00    -0.444 C  
HETATM   15  C   UNL     1      -8.019  19.585  68.561  1.00  0.00    -0.383 C  
HETATM   16  C   UNL     1      -7.656  18.733  67.332  1.00  0.00    -0.239 C  
HETATM   17  C   UNL     1      -8.258  19.382  66.076  1.00  0.00    -0.245 C  
HETATM   18  C   UNL     1      -8.245  17.320  67.504  1.00  0.00    -0.204 C  
HETATM   19  C   UNL     1      -9.785  19.468  66.209  1.00  0.00    -0.481 C  
HETATM   20  C   UNL     1     -10.358  18.052  66.374  1.00  0.00    -0.382 C  
HETATM   21  C   UNL     1     -10.148  20.304  67.449  1.00  0.00    -0.534 C  
ENDBRANCH   9  12
ENDBRANCH   7   8
ENDBRANCH   6   7
ENDBRANCH   5   6
ENDBRANCH   4   5
ENDBRANCH   2   4
TORSDOF 6
ENDMDL
MODEL       32
REMARK 921   NORMALIZED FREE ENERGY PREDICTED BY IDOCK:   -4.98 KCAL/MOL
REMARK 922        TOTAL FREE ENERGY PREDICTED BY IDOCK:   -6.56 KCAL/MOL
REMARK 923 INTER-LIGAND FREE ENERGY PREDICTED BY IDOCK:   -6.56 KCAL/MOL
REMARK 924 INTRA-LIGAND FREE ENERGY PREDICTED BY IDOCK:   -0.00 KCAL/MOL
REMARK 927      BINDING AFFINITY PREDICTED BY RF-SCORE:    0.00 PKD
ROOT
HETATM    1  C   UNL     1     -10.321   5.194  70.728  1.00  0.00    -0.224 C  
HETATM    2  N   UNL     1     -10.782   6.456  70.138  1.00  0.00    -0.247 NA 
HETATM    3  C   UNL     1     -11.054   6.260  68.712  1.00  0.00    -0.346 C  
ENDROOT
BRANCH   2   4
HETATM    4  C   UNL     1     -11.969   6.938  70.872  1.00  0.00    -0.381 C  
BRANCH   4   5
HETATM    5  C   UNL     1     -11.659   7.904  72.026  1.00  0.00    -0.308 C  
BRANCH   5   6
HETATM    6  O   UNL     1     -11.994   9.236  71.624  1.00  0.00    -0.330 OA 
BRANCH   6   7
HETATM    7  C   UNL     1     -10.918   9.842  70.915  1.00  0.00    -0.341 C  
BRANCH   7   8
HETATM    8  C   UNL     1     -11.436  10.707  69.771  1.00  0.00    -0.302 C  
HETATM    9  N   UNL     1     -10.478  11.553  69.240  1.00  0.00    -0.421 N  
HETATM   10  O   UNL     1     -12.583  10.605  69.351  1.00  0.00    -0.279 OA 
HETATM   11  H   UNL     1      -9.540  11.520  69.638  1.00  0.00     0.000 HD 
BRANCH   9  12
HETATM   12  C   UNL     1     -10.722  12.492  68.143  1.00  0.00    -0.227 C  
HETATM   13  C   UNL     1     -11.666  13.643  68.575  1.00  0.00    -0.392 C  
HETATM   14  C   UNL     1     -11.886  14.625  67.411  1.00  0.00    -0.374 C  
HETATM   15  C   UNL     1     -10.537  15.231  66.995  1.00  0.00    -0.306 C  
HETATM   16  C   UNL     1      -9.575  14.116  66.549  1.00  0.00    -0.310 C  
HETATM   17  C   UNL     1     -10.189  13.371  65.353  1.00  0.00    -0.311 C  
HETATM   18  C   UNL     1      -9.372  13.127  67.712  1.00  0.00    -0.206 C  
HETATM   19  C   UNL     1     -11.538  12.756  65.754  1.00  0.00    -0.419 C  
HETATM   20  C   UNL     1     -11.319  11.769  66.910  1.00  0.00    -0.386 C  
HETATM   21  C   UNL     1     -12.494  13.869  66.218  1.00  0.00    -0.454 C  
ENDBRANCH   9  12
ENDBRANCH   7   8
ENDBRANCH   6   7
ENDBRANCH   5   6
ENDBRANCH   4   5
ENDBRANCH   2   4
TORSDOF 6
ENDMDL
MODEL       33
REMARK 921   NORMALIZED FREE ENERGY PREDICTED BY IDOCK:   -4.97 KCAL/MOL
REMARK 922        TOTAL FREE ENERGY PREDICTED BY IDOCK:   -6.55 KCAL/MOL
REMARK 923 INTER-LIGAND FREE ENERGY PREDICTED BY IDOCK:   -6.34 KCAL/MOL
REMARK 924 INTRA-LIGAND FREE ENERGY PREDICTED BY IDOCK:   -0.21 KCAL/MOL
REMARK 927      BINDING AFFINITY PREDICTED BY RF-SCORE:    0.00 PKD
ROOT
HETATM    1  C   UNL     1     -11.605   5.951  72.365  1.00  0.00    -0.288 C  
HETATM    2  N   UNL     1     -11.873   6.955  71.331  1.00  0.00    -0.310 NA 
HETATM    3  C   UNL     1     -11.489   6.425  70.020  1.00  0.00    -0.428 C  
ENDROOT
BRANCH   2   4
HETATM    4  C   UNL     1     -13.296   7.345  71.379  1.00  0.00    -0.334 C  
BRANCH   4   5
HETATM    5  C   UNL     1     -13.578   8.647  72.145  1.00  0.00    -0.406 C  
BRANCH   5   6
HETATM    6  O   UNL     1     -12.423   9.490  72.076  1.00  0.00    -0.371 OA 
BRANCH   6   7
HETATM    7  C   UNL     1     -12.666  10.621  71.245  1.00  0.00    -0.433 C  
BRANCH   7   8
HETATM    8  C   UNL     1     -11.605  10.736  70.155  1.00  0.00    -0.337 C  
HETATM    9  N   UNL     1     -12.010  11.487  69.066  1.00  0.00    -0.333 N  
HETATM   10  O   UNL     1     -10.491  10.241  70.283  1.00  0.00    -0.265 OA 
HETATM   11  H   UNL     1     -12.946  11.892  69.089  1.00  0.00     0.000 HD 
BRANCH   9  12
HETATM   12  C   UNL     1     -11.185  11.739  67.883  1.00  0.00    -0.267 C  
HETATM   13  C   UNL     1     -10.763  10.421  67.188  1.00  0.00    -0.316 C  
HETATM   14  C   UNL     1      -9.917  10.716  65.938  1.00  0.00    -0.312 C  
HETATM   15  C   UNL     1     -10.746  11.546  64.946  1.00  0.00    -0.357 C  
HETATM   16  C   UNL     1     -11.176  12.871  65.599  1.00  0.00    -0.325 C  
HETATM   17  C   UNL     1      -9.922  13.663  66.000  1.00  0.00    -0.313 C  
HETATM   18  C   UNL     1     -12.009  12.568  66.859  1.00  0.00    -0.306 C  
HETATM   19  C   UNL     1      -9.081  12.849  66.995  1.00  0.00    -0.228 C  
HETATM   20  C   UNL     1      -9.922  12.559  68.248  1.00  0.00    -0.229 C  
HETATM   21  C   UNL     1      -8.668  11.515  66.348  1.00  0.00    -0.179 C  
ENDBRANCH   9  12
ENDBRANCH   7   8
ENDBRANCH   6   7
ENDBRANCH   5   6
ENDBRANCH   4   5
ENDBRANCH   2   4
TORSDOF 6
ENDMDL
MODEL       34
REMARK 921   NORMALIZED FREE ENERGY PREDICTED BY IDOCK:   -4.94 KCAL/MOL
REMARK 922        TOTAL FREE ENERGY PREDICTED BY IDOCK:   -6.51 KCAL/MOL
REMARK 923 INTER-LIGAND FREE ENERGY PREDICTED BY IDOCK:   -6.52 KCAL/MOL
REMARK 924 INTRA-LIGAND FREE ENERGY PREDICTED BY IDOCK:    0.01 KCAL/MOL
REMARK 927      BINDING AFFINITY PREDICTED BY RF-SCORE:    0.00 PKD
ROOT
HETATM    1  C   UNL     1     -12.589  12.067  63.659  1.00  0.00    -0.490 C  
HETATM    2  N   UNL     1     -11.707  12.992  64.378  1.00  0.00    -0.352 NA 
HETATM    3  C   UNL     1     -12.152  14.370  64.154  1.00  0.00    -0.376 C  
ENDROOT
BRANCH   2   4
HETATM    4  C   UNL     1     -11.687  12.639  65.812  1.00  0.00    -0.419 C  
BRANCH   4   5
HETATM    5  C   UNL     1     -12.139  13.765  66.755  1.00  0.00    -0.418 C  
BRANCH   5   6
HETATM    6  O   UNL     1     -10.993  14.305  67.423  1.00  0.00    -0.284 OA 
BRANCH   6   7
HETATM    7  C   UNL     1     -11.158  15.697  67.674  1.00  0.00    -0.305 C  
BRANCH   7   8
HETATM    8  C   UNL     1     -10.062  16.508  66.991  1.00  0.00    -0.279 C  
HETATM    9  N   UNL     1      -9.342  17.306  67.861  1.00  0.00    -0.253 N  
HETATM   10  O   UNL     1      -9.833  16.404  65.791  1.00  0.00    -0.421 OA 
HETATM   11  H   UNL     1      -9.590  17.278  68.850  1.00  0.00     0.000 HD 
BRANCH   9  12
HETATM   12  C   UNL     1      -8.245  18.190  67.457  1.00  0.00    -0.236 C  
HETATM   13  C   UNL     1      -7.669  18.975  68.661  1.00  0.00    -0.378 C  
HETATM   14  C   UNL     1      -6.506  19.876  68.212  1.00  0.00    -0.304 C  
HETATM   15  C   UNL     1      -5.388  19.006  67.618  1.00  0.00    -0.172 C  
HETATM   16  C   UNL     1      -5.921  18.217  66.410  1.00  0.00    -0.207 C  
HETATM   17  C   UNL     1      -6.417  19.205  65.343  1.00  0.00    -0.313 C  
HETATM   18  C   UNL     1      -7.096  17.329  66.864  1.00  0.00    -0.234 C  
HETATM   19  C   UNL     1      -7.539  20.082  65.919  1.00  0.00    -0.316 C  
HETATM   20  C   UNL     1      -8.704  19.185  66.362  1.00  0.00    -0.336 C  
HETATM   21  C   UNL     1      -7.010  20.857  67.140  1.00  0.00    -0.426 C  
ENDBRANCH   9  12
ENDBRANCH   7   8
ENDBRANCH   6   7
ENDBRANCH   5   6
ENDBRANCH   4   5
ENDBRANCH   2   4
TORSDOF 6
ENDMDL
MODEL       35
REMARK 921   NORMALIZED FREE ENERGY PREDICTED BY IDOCK:   -4.92 KCAL/MOL
REMARK 922        TOTAL FREE ENERGY PREDICTED BY IDOCK:   -6.49 KCAL/MOL
REMARK 923 INTER-LIGAND FREE ENERGY PREDICTED BY IDOCK:   -6.49 KCAL/MOL
REMARK 924 INTRA-LIGAND FREE ENERGY PREDICTED BY IDOCK:    0.00 KCAL/MOL
REMARK 927      BINDING AFFINITY PREDICTED BY RF-SCORE:    0.00 PKD
ROOT
HETATM    1  C   UNL     1     -13.485   7.170  71.456  1.00  0.00    -0.332 C  
HETATM    2  N   UNL     1     -12.092   6.762  71.666  1.00  0.00    -0.344 NA 
HETATM    3  C   UNL     1     -11.522   6.293  70.400  1.00  0.00    -0.344 C  
ENDROOT
BRANCH   2   4
HETATM    4  C   UNL     1     -11.330   7.889  72.238  1.00  0.00    -0.337 C  
BRANCH   4   5
HETATM    5  C   UNL     1      -9.990   8.174  71.543  1.00  0.00    -0.182 C  
BRANCH   5   6
HETATM    6  O   UNL     1     -10.031   9.482  70.962  1.00  0.00    -0.278 OA 
BRANCH   6   7
HETATM    7  C   UNL     1     -11.310  10.081  71.144  1.00  0.00    -0.323 C  
BRANCH   7   8
HETATM    8  C   UNL     1     -11.727  10.866  69.905  1.00  0.00    -0.339 C  
HETATM    9  N   UNL     1     -10.695  11.594  69.339  1.00  0.00    -0.436 N  
HETATM   10  O   UNL     1     -12.863  10.800  69.449  1.00  0.00    -0.182 OA 
HETATM   11  H   UNL     1      -9.776  11.538  69.778  1.00  0.00     0.000 HD 
BRANCH   9  12
HETATM   12  C   UNL     1     -10.835  12.440  68.152  1.00  0.00    -0.221 C  
HETATM   13  C   UNL     1     -11.406  11.648  66.949  1.00  0.00    -0.364 C  
HETATM   14  C   UNL     1     -11.563  12.565  65.724  1.00  0.00    -0.439 C  
HETATM   15  C   UNL     1     -12.536  13.705  66.063  1.00  0.00    -0.477 C  
HETATM   16  C   UNL     1     -11.996  14.522  67.250  1.00  0.00    -0.375 C  
HETATM   17  C   UNL     1     -10.630  15.115  66.871  1.00  0.00    -0.297 C  
HETATM   18  C   UNL     1     -11.825  13.594  68.468  1.00  0.00    -0.406 C  
HETATM   19  C   UNL     1      -9.643  13.989  66.531  1.00  0.00    -0.307 C  
HETATM   20  C   UNL     1      -9.479  13.075  67.756  1.00  0.00    -0.209 C  
HETATM   21  C   UNL     1     -10.193  13.159  65.357  1.00  0.00    -0.301 C  
ENDBRANCH   9  12
ENDBRANCH   7   8
ENDBRANCH   6   7
ENDBRANCH   5   6
ENDBRANCH   4   5
ENDBRANCH   2   4
TORSDOF 6
ENDMDL
MODEL       36
REMARK 921   NORMALIZED FREE ENERGY PREDICTED BY IDOCK:   -4.90 KCAL/MOL
REMARK 922        TOTAL FREE ENERGY PREDICTED BY IDOCK:   -6.46 KCAL/MOL
REMARK 923 INTER-LIGAND FREE ENERGY PREDICTED BY IDOCK:   -6.44 KCAL/MOL
REMARK 924 INTRA-LIGAND FREE ENERGY PREDICTED BY IDOCK:   -0.01 KCAL/MOL
REMARK 927      BINDING AFFINITY PREDICTED BY RF-SCORE:    0.00 PKD
ROOT
HETATM    1  C   UNL     1     -10.788  16.241  69.416  1.00  0.00    -0.331 C  
HETATM    2  N   UNL     1     -11.233  16.379  68.026  1.00  0.00    -0.289 NA 
HETATM    3  C   UNL     1     -10.589  17.545  67.418  1.00  0.00    -0.311 C  
ENDROOT
BRANCH   2   4
HETATM    4  C   UNL     1     -10.941  15.133  67.289  1.00  0.00    -0.327 C  
BRANCH   4   5
HETATM    5  C   UNL     1     -11.992  14.026  67.461  1.00  0.00    -0.395 C  
BRANCH   5   6
HETATM    6  O   UNL     1     -11.355  12.750  67.335  1.00  0.00    -0.277 OA 
BRANCH   6   7
HETATM    7  C   UNL     1     -10.656  12.408  68.527  1.00  0.00    -0.231 C  
BRANCH   7   8
HETATM    8  C   UNL     1     -11.188  11.107  69.118  1.00  0.00    -0.264 C  
HETATM    9  N   UNL     1     -10.268  10.441  69.908  1.00  0.00    -0.415 N  
HETATM   10  O   UNL     1     -12.342  10.737  68.932  1.00  0.00    -0.433 OA 
HETATM   11  H   UNL     1      -9.350  10.867  70.031  1.00  0.00     0.000 HD 
BRANCH   9  12
HETATM   12  C   UNL     1     -10.526   9.165  70.581  1.00  0.00    -0.245 C  
HETATM   13  C   UNL     1     -10.804   8.029  69.565  1.00  0.00    -0.135 C  
HETATM   14  C   UNL     1     -11.049   6.699  70.298  1.00  0.00    -0.379 C  
HETATM   15  C   UNL     1      -9.800   6.329  71.112  1.00  0.00    -0.203 C  
HETATM   16  C   UNL     1      -9.498   7.432  72.141  1.00  0.00    -0.169 C  
HETATM   17  C   UNL     1     -10.698   7.578  73.089  1.00  0.00    -0.452 C  
HETATM   18  C   UNL     1      -9.270   8.765  71.402  1.00  0.00    -0.325 C  
HETATM   19  C   UNL     1     -11.956   7.951  72.291  1.00  0.00    -0.387 C  
HETATM   20  C   UNL     1     -11.717   9.283  71.564  1.00  0.00    -0.450 C  
HETATM   21  C   UNL     1     -12.248   6.856  71.249  1.00  0.00    -0.427 C  
ENDBRANCH   9  12
ENDBRANCH   7   8
ENDBRANCH   6   7
ENDBRANCH   5   6
ENDBRANCH   4   5
ENDBRANCH   2   4
TORSDOF 6
ENDMDL
MODEL       37
REMARK 921   NORMALIZED FREE ENERGY PREDICTED BY IDOCK:   -4.87 KCAL/MOL
REMARK 922        TOTAL FREE ENERGY PREDICTED BY IDOCK:   -6.42 KCAL/MOL
REMARK 923 INTER-LIGAND FREE ENERGY PREDICTED BY IDOCK:   -6.26 KCAL/MOL
REMARK 924 INTRA-LIGAND FREE ENERGY PREDICTED BY IDOCK:   -0.15 KCAL/MOL
REMARK 927      BINDING AFFINITY PREDICTED BY RF-SCORE:    0.00 PKD
ROOT
HETATM    1  C   UNL     1      -7.455  19.543  68.670  1.00  0.00    -0.345 C  
HETATM    2  N   UNL     1      -7.891  20.352  67.527  1.00  0.00    -0.311 NA 
HETATM    3  C   UNL     1      -7.271  19.845  66.301  1.00  0.00    -0.276 C  
ENDROOT
BRANCH   2   4
HETATM    4  C   UNL     1      -9.365  20.344  67.451  1.00  0.00    -0.402 C  
BRANCH   4   5
HETATM    5  C   UNL     1      -9.933  20.201  66.031  1.00  0.00    -0.374 C  
BRANCH   5   6
HETATM    6  O   UNL     1     -10.765  19.037  65.974  1.00  0.00    -0.437 OA 
BRANCH   6   7
HETATM    7  C   UNL     1     -10.654  18.271  67.169  1.00  0.00    -0.367 C  
BRANCH   7   8
HETATM    8  C   UNL     1     -10.135  16.868  66.873  1.00  0.00    -0.289 C  
HETATM    9  N   UNL     1     -10.904  15.864  67.433  1.00  0.00    -0.313 N  
HETATM   10  O   UNL     1      -9.154  16.679  66.162  1.00  0.00    -0.316 OA 
HETATM   11  H   UNL     1     -11.727  16.138  67.969  1.00  0.00     0.000 HD 
BRANCH   9  12
HETATM   12  C   UNL     1     -10.614  14.434  67.307  1.00  0.00    -0.279 C  
HETATM   13  C   UNL     1      -9.375  14.025  68.143  1.00  0.00    -0.201 C  
HETATM   14  C   UNL     1      -9.108  12.516  68.010  1.00  0.00    -0.200 C  
HETATM   15  C   UNL     1     -10.326  11.736  68.530  1.00  0.00    -0.228 C  
HETATM   16  C   UNL     1     -11.576  12.109  67.716  1.00  0.00    -0.410 C  
HETATM   17  C   UNL     1     -11.339  11.755  66.240  1.00  0.00    -0.350 C  
HETATM   18  C   UNL     1     -11.828  13.624  67.840  1.00  0.00    -0.402 C  
HETATM   19  C   UNL     1     -10.126  12.529  65.702  1.00  0.00    -0.285 C  
HETATM   20  C   UNL     1     -10.393  14.037  65.827  1.00  0.00    -0.330 C  
HETATM   21  C   UNL     1      -8.879  12.170  66.529  1.00  0.00    -0.151 C  
ENDBRANCH   9  12
ENDBRANCH   7   8
ENDBRANCH   6   7
ENDBRANCH   5   6
ENDBRANCH   4   5
ENDBRANCH   2   4
TORSDOF 6
ENDMDL
MODEL       38
REMARK 921   NORMALIZED FREE ENERGY PREDICTED BY IDOCK:   -4.86 KCAL/MOL
REMARK 922        TOTAL FREE ENERGY PREDICTED BY IDOCK:   -6.40 KCAL/MOL
REMARK 923 INTER-LIGAND FREE ENERGY PREDICTED BY IDOCK:   -6.27 KCAL/MOL
REMARK 924 INTRA-LIGAND FREE ENERGY PREDICTED BY IDOCK:   -0.13 KCAL/MOL
REMARK 927      BINDING AFFINITY PREDICTED BY RF-SCORE:    0.00 PKD
ROOT
HETATM    1  C   UNL     1     -13.903   8.827  71.954  1.00  0.00    -0.442 C  
HETATM    2  N   UNL     1     -12.514   8.358  72.015  1.00  0.00    -0.339 NA 
HETATM    3  C   UNL     1     -12.411   7.044  71.377  1.00  0.00    -0.377 C  
ENDROOT
BRANCH   2   4
HETATM    4  C   UNL     1     -11.629   9.357  71.383  1.00  0.00    -0.381 C  
BRANCH   4   5
HETATM    5  C   UNL     1     -10.129   9.050  71.504  1.00  0.00    -0.339 C  
BRANCH   5   6
HETATM    6  O   UNL     1      -9.437   9.650  70.403  1.00  0.00    -0.252 OA 
BRANCH   6   7
HETATM    7  C   UNL     1      -9.823   9.051  69.170  1.00  0.00    -0.175 C  
BRANCH   7   8
HETATM    8  C   UNL     1      -9.821  10.076  68.041  1.00  0.00    -0.142 C  
HETATM    9  N   UNL     1     -10.715  11.113  68.233  1.00  0.00    -0.183 N  
HETATM   10  O   UNL     1      -9.052   9.987  67.090  1.00  0.00    -0.137 OA 
HETATM   11  H   UNL     1     -11.273  11.109  69.087  1.00  0.00     0.000 HD 
BRANCH   9  12
HETATM   12  C   UNL     1     -10.914  12.218  67.292  1.00  0.00    -0.256 C  
HETATM   13  C   UNL     1     -11.534  11.729  65.959  1.00  0.00    -0.281 C  
HETATM   14  C   UNL     1     -11.753  12.912  65.000  1.00  0.00    -0.381 C  
HETATM   15  C   UNL     1     -12.717  13.919  65.646  1.00  0.00    -0.534 C  
HETATM   16  C   UNL     1     -12.129  14.436  66.970  1.00  0.00    -0.374 C  
HETATM   17  C   UNL     1     -10.785  15.126  66.688  1.00  0.00    -0.310 C  
HETATM   18  C   UNL     1     -11.897  13.245  67.919  1.00  0.00    -0.388 C  
HETATM   19  C   UNL     1      -9.808  14.132  66.045  1.00  0.00    -0.329 C  
HETATM   20  C   UNL     1      -9.582  12.953  67.004  1.00  0.00    -0.231 C  
HETATM   21  C   UNL     1     -10.404  13.601  64.729  1.00  0.00    -0.414 C  
ENDBRANCH   9  12
ENDBRANCH   7   8
ENDBRANCH   6   7
ENDBRANCH   5   6
ENDBRANCH   4   5
ENDBRANCH   2   4
TORSDOF 6
ENDMDL
MODEL       39
REMARK 921   NORMALIZED FREE ENERGY PREDICTED BY IDOCK:   -4.85 KCAL/MOL
REMARK 922        TOTAL FREE ENERGY PREDICTED BY IDOCK:   -6.39 KCAL/MOL
REMARK 923 INTER-LIGAND FREE ENERGY PREDICTED BY IDOCK:   -6.64 KCAL/MOL
REMARK 924 INTRA-LIGAND FREE ENERGY PREDICTED BY IDOCK:    0.25 KCAL/MOL
REMARK 927      BINDING AFFINITY PREDICTED BY RF-SCORE:    0.00 PKD
ROOT
HETATM    1  C   UNL     1     -11.825  16.156  71.747  1.00  0.00    -0.506 C  
HETATM    2  N   UNL     1     -12.303  15.054  72.587  1.00  0.00    -0.348 NA 
HETATM    3  C   UNL     1     -12.300  15.470  73.992  1.00  0.00    -0.660 C  
ENDROOT
BRANCH   2   4
HETATM    4  C   UNL     1     -13.643  14.633  72.133  1.00  0.00    -0.414 C  
BRANCH   4   5
HETATM    5  C   UNL     1     -13.979  13.159  72.406  1.00  0.00    -0.397 C  
BRANCH   5   6
HETATM    6  O   UNL     1     -13.040  12.328  71.715  1.00  0.00    -0.425 OA 
BRANCH   6   7
HETATM    7  C   UNL     1     -13.386  10.953  71.840  1.00  0.00    -0.324 C  
BRANCH   7   8
HETATM    8  C   UNL     1     -12.256  10.057  71.343  1.00  0.00    -0.416 C  
HETATM    9  N   UNL     1     -12.134   8.876  72.053  1.00  0.00    -0.360 N  
HETATM   10  O   UNL     1     -11.570  10.360  70.374  1.00  0.00    -0.287 OA 
HETATM   11  H   UNL     1     -12.792   8.707  72.814  1.00  0.00     0.000 HD 
BRANCH   9  12
HETATM   12  C   UNL     1     -11.122   7.851  71.784  1.00  0.00    -0.253 C  
HETATM   13  C   UNL     1      -9.788   8.476  71.306  1.00  0.00    -0.279 C  
HETATM   14  C   UNL     1      -8.738   7.380  71.054  1.00  0.00    -0.139 C  
HETATM   15  C   UNL     1      -8.478   6.614  72.360  1.00  0.00    -0.117 C  
HETATM   16  C   UNL     1      -9.782   5.969  72.860  1.00  0.00    -0.162 C  
HETATM   17  C   UNL     1     -10.302   4.994  71.793  1.00  0.00    -0.268 C  
HETATM   18  C   UNL     1     -10.833   7.071  73.096  1.00  0.00    -0.350 C  
HETATM   19  C   UNL     1     -10.571   5.744  70.481  1.00  0.00    -0.359 C  
HETATM   20  C   UNL     1     -11.624   6.835  70.729  1.00  0.00    -0.418 C  
HETATM   21  C   UNL     1      -9.270   6.405  69.990  1.00  0.00    -0.159 C  
ENDBRANCH   9  12
ENDBRANCH   7   8
ENDBRANCH   6   7
ENDBRANCH   5   6
ENDBRANCH   4   5
ENDBRANCH   2   4
TORSDOF 6
ENDMDL
MODEL       40
REMARK 921   NORMALIZED FREE ENERGY PREDICTED BY IDOCK:   -4.84 KCAL/MOL
REMARK 922        TOTAL FREE ENERGY PREDICTED BY IDOCK:   -6.38 KCAL/MOL
REMARK 923 INTER-LIGAND FREE ENERGY PREDICTED BY IDOCK:   -6.54 KCAL/MOL
REMARK 924 INTRA-LIGAND FREE ENERGY PREDICTED BY IDOCK:    0.16 KCAL/MOL
REMARK 927      BINDING AFFINITY PREDICTED BY RF-SCORE:    0.00 PKD
ROOT
HETATM    1  C   UNL     1      -9.695  17.527  68.439  1.00  0.00    -0.316 C  
HETATM    2  N   UNL     1     -10.586  16.933  67.437  1.00  0.00    -0.320 NA 
HETATM    3  C   UNL     1     -10.337  17.548  66.132  1.00  0.00    -0.329 C  
ENDROOT
BRANCH   2   4
HETATM    4  C   UNL     1     -10.391  15.469  67.411  1.00  0.00    -0.266 C  
BRANCH   4   5
HETATM    5  C   UNL     1     -11.601  14.654  67.893  1.00  0.00    -0.348 C  
BRANCH   5   6
HETATM    6  O   UNL     1     -11.179  13.753  68.922  1.00  0.00    -0.248 OA 
BRANCH   6   7
HETATM    7  C   UNL     1     -10.536  12.609  68.368  1.00  0.00    -0.243 C  
BRANCH   7   8
HETATM    8  C   UNL     1     -11.102  11.323  68.962  1.00  0.00    -0.244 C  
HETATM    9  N   UNL     1     -10.211  10.655  69.783  1.00  0.00    -0.436 N  
HETATM   10  O   UNL     1     -12.256  10.968  68.753  1.00  0.00    -0.546 OA 
HETATM   11  H   UNL     1      -9.289  11.069  69.922  1.00  0.00     0.000 HD 
BRANCH   9  12
HETATM   12  C   UNL     1     -10.504   9.392  70.466  1.00  0.00    -0.274 C  
HETATM   13  C   UNL     1      -9.318   8.933  71.351  1.00  0.00    -0.338 C  
HETATM   14  C   UNL     1      -9.662   7.618  72.072  1.00  0.00    -0.209 C  
HETATM   15  C   UNL     1     -10.887   7.837  72.973  1.00  0.00    -0.451 C  
HETATM   16  C   UNL     1     -12.090   8.285  72.125  1.00  0.00    -0.425 C  
HETATM   17  C   UNL     1     -12.408   7.196  71.089  1.00  0.00    -0.404 C  
HETATM   18  C   UNL     1     -11.734   9.593  71.393  1.00  0.00    -0.478 C  
HETATM   19  C   UNL     1     -11.194   6.967  70.177  1.00  0.00    -0.361 C  
HETATM   20  C   UNL     1     -10.854   8.277  69.450  1.00  0.00    -0.095 C  
HETATM   21  C   UNL     1      -9.985   6.536  71.028  1.00  0.00    -0.203 C  
ENDBRANCH   9  12
ENDBRANCH   7   8
ENDBRANCH   6   7
ENDBRANCH   5   6
ENDBRANCH   4   5
ENDBRANCH   2   4
TORSDOF 6
ENDMDL
MODEL       41
REMARK 921   NORMALIZED FREE ENERGY PREDICTED BY IDOCK:   -4.84 KCAL/MOL
REMARK 922        TOTAL FREE ENERGY PREDICTED BY IDOCK:   -6.38 KCAL/MOL
REMARK 923 INTER-LIGAND FREE ENERGY PREDICTED BY IDOCK:   -6.51 KCAL/MOL
REMARK 924 INTRA-LIGAND FREE ENERGY PREDICTED BY IDOCK:    0.13 KCAL/MOL
REMARK 927      BINDING AFFINITY PREDICTED BY RF-SCORE:    0.00 PKD
ROOT
HETATM    1  C   UNL     1     -11.588  16.190  72.020  1.00  0.00    -0.383 C  
HETATM    2  N   UNL     1     -12.397  15.548  73.061  1.00  0.00    -0.398 NA 
HETATM    3  C   UNL     1     -12.313  16.327  74.299  1.00  0.00    -0.509 C  
ENDROOT
BRANCH   2   4
HETATM    4  C   UNL     1     -13.788  15.406  72.586  1.00  0.00    -0.529 C  
BRANCH   4   5
HETATM    5  C   UNL     1     -14.168  13.988  72.133  1.00  0.00    -0.535 C  
BRANCH   5   6
HETATM    6  O   UNL     1     -13.561  13.723  70.864  1.00  0.00    -0.059 OA 
BRANCH   6   7
HETATM    7  C   UNL     1     -12.502  12.779  70.992  1.00  0.00    -0.277 C  
BRANCH   7   8
HETATM    8  C   UNL     1     -11.823  12.534  69.648  1.00  0.00    -0.314 C  
HETATM    9  N   UNL     1     -12.251  13.390  68.648  1.00  0.00    -0.223 N  
HETATM   10  O   UNL     1     -10.949  11.685  69.510  1.00  0.00    -0.200 OA 
HETATM   11  H   UNL     1     -12.952  14.091  68.889  1.00  0.00     0.000 HD 
BRANCH   9  12
HETATM   12  C   UNL     1     -11.765  13.355  67.267  1.00  0.00    -0.380 C  
HETATM   13  C   UNL     1     -10.279  13.782  67.173  1.00  0.00    -0.244 C  
HETATM   14  C   UNL     1      -9.789  13.715  65.716  1.00  0.00    -0.230 C  
HETATM   15  C   UNL     1      -9.916  12.273  65.203  1.00  0.00    -0.236 C  
HETATM   16  C   UNL     1     -11.384  11.817  65.271  1.00  0.00    -0.284 C  
HETATM   17  C   UNL     1     -12.240  12.746  64.396  1.00  0.00    -0.499 C  
HETATM   18  C   UNL     1     -11.872  11.902  66.730  1.00  0.00    -0.170 C  
HETATM   19  C   UNL     1     -12.127  14.192  64.898  1.00  0.00    -0.438 C  
HETATM   20  C   UNL     1     -12.622  14.263  66.351  1.00  0.00    -0.159 C  
HETATM   21  C   UNL     1     -10.656  14.642  64.847  1.00  0.00    -0.446 C  
ENDBRANCH   9  12
ENDBRANCH   7   8
ENDBRANCH   6   7
ENDBRANCH   5   6
ENDBRANCH   4   5
ENDBRANCH   2   4
TORSDOF 6
ENDMDL
MODEL       42
REMARK 921   NORMALIZED FREE ENERGY PREDICTED BY IDOCK:   -4.83 KCAL/MOL
REMARK 922        TOTAL FREE ENERGY PREDICTED BY IDOCK:   -6.36 KCAL/MOL
REMARK 923 INTER-LIGAND FREE ENERGY PREDICTED BY IDOCK:   -6.46 KCAL/MOL
REMARK 924 INTRA-LIGAND FREE ENERGY PREDICTED BY IDOCK:    0.10 KCAL/MOL
REMARK 927      BINDING AFFINITY PREDICTED BY RF-SCORE:    0.00 PKD
ROOT
HETATM    1  C   UNL     1     -12.979  15.707  73.701  1.00  0.00    -0.526 C  
HETATM    2  N   UNL     1     -12.673  14.835  72.561  1.00  0.00    -0.351 NA 
HETATM    3  C   UNL     1     -13.917  14.444  71.895  1.00  0.00    -0.487 C  
ENDROOT
BRANCH   2   4
HETATM    4  C   UNL     1     -11.745  15.528  71.646  1.00  0.00    -0.426 C  
BRANCH   4   5
HETATM    5  C   UNL     1     -12.252  15.668  70.203  1.00  0.00    -0.361 C  
BRANCH   5   6
HETATM    6  O   UNL     1     -11.141  15.583  69.305  1.00  0.00    -0.248 OA 
BRANCH   6   7
HETATM    7  C   UNL     1     -11.533  15.908  67.975  1.00  0.00    -0.236 C  
BRANCH   7   8
HETATM    8  C   UNL     1     -10.422  16.655  67.245  1.00  0.00    -0.313 C  
HETATM    9  N   UNL     1      -9.571  17.345  68.090  1.00  0.00    -0.276 N  
HETATM   10  O   UNL     1     -10.291  16.591  66.028  1.00  0.00    -0.327 OA 
HETATM   11  H   UNL     1      -9.749  17.290  69.093  1.00  0.00     0.000 HD 
BRANCH   9  12
HETATM   12  C   UNL     1      -8.433  18.150  67.641  1.00  0.00    -0.244 C  
HETATM   13  C   UNL     1      -7.765  18.903  68.818  1.00  0.00    -0.366 C  
HETATM   14  C   UNL     1      -6.560  19.721  68.321  1.00  0.00    -0.303 C  
HETATM   15  C   UNL     1      -5.524  18.774  67.698  1.00  0.00    -0.167 C  
HETATM   16  C   UNL     1      -6.150  18.013  66.516  1.00  0.00    -0.214 C  
HETATM   17  C   UNL     1      -6.615  19.026  65.458  1.00  0.00    -0.309 C  
HETATM   18  C   UNL     1      -7.365  17.210  67.017  1.00  0.00    -0.216 C  
HETATM   19  C   UNL     1      -7.654  19.980  66.063  1.00  0.00    -0.326 C  
HETATM   20  C   UNL     1      -8.862  19.166  66.553  1.00  0.00    -0.348 C  
HETATM   21  C   UNL     1      -7.034  20.726  67.257  1.00  0.00    -0.414 C  
ENDBRANCH   9  12
ENDBRANCH   7   8
ENDBRANCH   6   7
ENDBRANCH   5   6
ENDBRANCH   4   5
ENDBRANCH   2   4
TORSDOF 6
ENDMDL
MODEL       43
REMARK 921   NORMALIZED FREE ENERGY PREDICTED BY IDOCK:   -4.82 KCAL/MOL
REMARK 922        TOTAL FREE ENERGY PREDICTED BY IDOCK:   -6.35 KCAL/MOL
REMARK 923 INTER-LIGAND FREE ENERGY PREDICTED BY IDOCK:   -6.70 KCAL/MOL
REMARK 924 INTRA-LIGAND FREE ENERGY PREDICTED BY IDOCK:    0.35 KCAL/MOL
REMARK 927      BINDING AFFINITY PREDICTED BY RF-SCORE:    0.00 PKD
ROOT
HETATM    1  C   UNL     1     -12.158  15.140  64.249  1.00  0.00    -0.261 C  
HETATM    2  N   UNL     1     -12.702  13.799  64.483  1.00  0.00    -0.660 NA 
HETATM    3  C   UNL     1     -12.149  12.866  63.499  1.00  0.00    -0.555 C  
ENDROOT
BRANCH   2   4
HETATM    4  C   UNL     1     -12.409  13.385  65.870  1.00  0.00    -0.437 C  
BRANCH   4   5
HETATM    5  C   UNL     1     -11.305  12.324  66.002  1.00  0.00    -0.350 C  
BRANCH   5   6
HETATM    6  O   UNL     1     -11.783  11.249  66.819  1.00  0.00    -0.418 OA 
BRANCH   6   7
HETATM    7  C   UNL     1     -11.559  11.519  68.199  1.00  0.00    -0.308 C  
BRANCH   7   8
HETATM    8  C   UNL     1     -10.817  10.367  68.868  1.00  0.00    -0.236 C  
HETATM    9  N   UNL     1     -11.495   9.821  69.942  1.00  0.00    -0.396 N  
HETATM   10  O   UNL     1      -9.744   9.955  68.440  1.00  0.00    -0.146 OA 
HETATM   11  H   UNL     1     -12.405  10.216  70.181  1.00  0.00     0.000 HD 
BRANCH   9  12
HETATM   12  C   UNL     1     -10.994   8.714  70.760  1.00  0.00    -0.245 C  
HETATM   13  C   UNL     1     -11.344   7.339  70.137  1.00  0.00    -0.236 C  
HETATM   14  C   UNL     1     -10.786   6.197  71.004  1.00  0.00    -0.338 C  
HETATM   15  C   UNL     1      -9.257   6.320  71.087  1.00  0.00    -0.159 C  
HETATM   16  C   UNL     1      -8.872   7.672  71.711  1.00  0.00    -0.139 C  
HETATM   17  C   UNL     1      -9.466   7.760  73.125  1.00  0.00    -0.325 C  
HETATM   18  C   UNL     1      -9.446   8.811  70.848  1.00  0.00    -0.269 C  
HETATM   19  C   UNL     1     -10.996   7.642  73.061  1.00  0.00    -0.457 C  
HETATM   20  C   UNL     1     -11.555   8.786  72.202  1.00  0.00    -0.434 C  
HETATM   21  C   UNL     1     -11.382   6.297  72.419  1.00  0.00    -0.333 C  
ENDBRANCH   9  12
ENDBRANCH   7   8
ENDBRANCH   6   7
ENDBRANCH   5   6
ENDBRANCH   4   5
ENDBRANCH   2   4
TORSDOF 6
ENDMDL
MODEL       44
REMARK 921   NORMALIZED FREE ENERGY PREDICTED BY IDOCK:   -4.78 KCAL/MOL
REMARK 922        TOTAL FREE ENERGY PREDICTED BY IDOCK:   -6.30 KCAL/MOL
REMARK 923 INTER-LIGAND FREE ENERGY PREDICTED BY IDOCK:   -6.29 KCAL/MOL
REMARK 924 INTRA-LIGAND FREE ENERGY PREDICTED BY IDOCK:   -0.00 KCAL/MOL
REMARK 927      BINDING AFFINITY PREDICTED BY RF-SCORE:    0.00 PKD
ROOT
HETATM    1  C   UNL     1     -10.846   9.719  69.669  1.00  0.00    -0.250 C  
HETATM    2  N   UNL     1     -11.952  10.612  69.310  1.00  0.00    -0.246 NA 
HETATM    3  C   UNL     1     -12.106  11.642  70.341  1.00  0.00    -0.373 C  
ENDROOT
BRANCH   2   4
HETATM    4  C   UNL     1     -11.704  11.192  67.975  1.00  0.00    -0.212 C  
BRANCH   4   5
HETATM    5  C   UNL     1     -10.295  11.770  67.780  1.00  0.00    -0.194 C  
BRANCH   5   6
HETATM    6  O   UNL     1     -10.311  12.683  66.678  1.00  0.00    -0.233 OA 
BRANCH   6   7
HETATM    7  C   UNL     1     -11.069  13.848  66.991  1.00  0.00    -0.301 C  
BRANCH   7   8
HETATM    8  C   UNL     1     -10.282  15.114  66.670  1.00  0.00    -0.266 C  
HETATM    9  N   UNL     1     -10.353  16.076  67.662  1.00  0.00    -0.277 N  
HETATM   10  O   UNL     1      -9.618  15.220  65.645  1.00  0.00    -0.336 OA 
HETATM   11  H   UNL     1     -10.899  15.860  68.496  1.00  0.00     0.000 HD 
BRANCH   9  12
HETATM   12  C   UNL     1      -9.697  17.384  67.593  1.00  0.00    -0.270 C  
HETATM   13  C   UNL     1     -10.207  18.218  66.392  1.00  0.00    -0.417 C  
HETATM   14  C   UNL     1      -9.519  19.593  66.358  1.00  0.00    -0.479 C  
HETATM   15  C   UNL     1      -9.841  20.355  67.652  1.00  0.00    -0.538 C  
HETATM   16  C   UNL     1      -9.339  19.561  68.870  1.00  0.00    -0.393 C  
HETATM   17  C   UNL     1      -7.818  19.374  68.755  1.00  0.00    -0.392 C  
HETATM   18  C   UNL     1     -10.019  18.179  68.888  1.00  0.00    -0.352 C  
HETATM   19  C   UNL     1      -7.478  18.610  67.467  1.00  0.00    -0.237 C  
HETATM   20  C   UNL     1      -8.158  17.233  67.501  1.00  0.00    -0.197 C  
HETATM   21  C   UNL     1      -7.997  19.396  66.250  1.00  0.00    -0.330 C  
ENDBRANCH   9  12
ENDBRANCH   7   8
ENDBRANCH   6   7
ENDBRANCH   5   6
ENDBRANCH   4   5
ENDBRANCH   2   4
TORSDOF 6
ENDMDL
MODEL       45
REMARK 921   NORMALIZED FREE ENERGY PREDICTED BY IDOCK:   -4.78 KCAL/MOL
REMARK 922        TOTAL FREE ENERGY PREDICTED BY IDOCK:   -6.29 KCAL/MOL
REMARK 923 INTER-LIGAND FREE ENERGY PREDICTED BY IDOCK:   -5.92 KCAL/MOL
REMARK 924 INTRA-LIGAND FREE ENERGY PREDICTED BY IDOCK:   -0.37 KCAL/MOL
REMARK 927      BINDING AFFINITY PREDICTED BY RF-SCORE:    0.00 PKD
ROOT
HETATM    1  C   UNL     1      -6.229  13.322  68.114  1.00  0.00    -0.111 C  
HETATM    2  N   UNL     1      -6.422  14.698  68.585  1.00  0.00    -0.082 NA 
HETATM    3  C   UNL     1      -6.508  14.709  70.047  1.00  0.00    -0.168 C  
ENDROOT
BRANCH   2   4
HETATM    4  C   UNL     1      -5.324  15.548  68.084  1.00  0.00    -0.119 C  
BRANCH   4   5
HETATM    5  C   UNL     1      -5.761  16.940  67.604  1.00  0.00    -0.141 C  
BRANCH   5   6
HETATM    6  O   UNL     1      -7.191  17.010  67.606  1.00  0.00    -0.147 OA 
BRANCH   6   7
HETATM    7  C   UNL     1      -7.692  17.266  66.297  1.00  0.00    -0.318 C  
BRANCH   7   8
HETATM    8  C   UNL     1      -8.970  16.476  66.037  1.00  0.00    -0.241 C  
HETATM    9  N   UNL     1      -8.856  15.129  66.328  1.00  0.00    -0.459 N  
HETATM   10  O   UNL     1      -9.999  17.020  65.653  1.00  0.00    -0.554 OA 
HETATM   11  H   UNL     1      -7.963  14.793  66.688  1.00  0.00     0.000 HD 
BRANCH   9  12
HETATM   12  C   UNL     1      -9.934  14.152  66.155  1.00  0.00    -0.314 C  
HETATM   13  C   UNL     1      -9.464  12.716  66.495  1.00  0.00    -0.247 C  
HETATM   14  C   UNL     1     -10.620  11.715  66.326  1.00  0.00    -0.301 C  
HETATM   15  C   UNL     1     -11.763  12.093  67.281  1.00  0.00    -0.369 C  
HETATM   16  C   UNL     1     -12.264  13.513  66.966  1.00  0.00    -0.351 C  
HETATM   17  C   UNL     1     -12.776  13.555  65.518  1.00  0.00    -0.493 C  
HETATM   18  C   UNL     1     -11.097  14.507  67.121  1.00  0.00    -0.325 C  
HETATM   19  C   UNL     1     -11.645  13.183  64.549  1.00  0.00    -0.406 C  
HETATM   20  C   UNL     1     -10.491  14.185  64.710  1.00  0.00    -0.432 C  
HETATM   21  C   UNL     1     -11.131  11.770  64.876  1.00  0.00    -0.345 C  
ENDBRANCH   9  12
ENDBRANCH   7   8
ENDBRANCH   6   7
ENDBRANCH   5   6
ENDBRANCH   4   5
ENDBRANCH   2   4
TORSDOF 6
ENDMDL
MODEL       46
REMARK 921   NORMALIZED FREE ENERGY PREDICTED BY IDOCK:   -4.77 KCAL/MOL
REMARK 922        TOTAL FREE ENERGY PREDICTED BY IDOCK:   -6.29 KCAL/MOL
REMARK 923 INTER-LIGAND FREE ENERGY PREDICTED BY IDOCK:   -6.41 KCAL/MOL
REMARK 924 INTRA-LIGAND FREE ENERGY PREDICTED BY IDOCK:    0.13 KCAL/MOL
REMARK 927      BINDING AFFINITY PREDICTED BY RF-SCORE:    0.00 PKD
ROOT
HETATM    1  C   UNL     1     -14.283  15.103  71.705  1.00  0.00    -0.578 C  
HETATM    2  N   UNL     1     -12.877  15.194  71.296  1.00  0.00    -0.356 NA 
HETATM    3  C   UNL     1     -12.095  15.826  72.362  1.00  0.00    -0.489 C  
ENDROOT
BRANCH   2   4
HETATM    4  C   UNL     1     -12.375  13.848  70.959  1.00  0.00    -0.376 C  
BRANCH   4   5
HETATM    5  C   UNL     1     -13.161  12.692  71.597  1.00  0.00    -0.323 C  
BRANCH   5   6
HETATM    6  O   UNL     1     -12.705  11.453  71.043  1.00  0.00    -0.374 OA 
BRANCH   6   7
HETATM    7  C   UNL     1     -13.123  10.352  71.843  1.00  0.00    -0.458 C  
BRANCH   7   8
HETATM    8  C   UNL     1     -12.205   9.151  71.642  1.00  0.00    -0.361 C  
HETATM    9  N   UNL     1     -11.660   9.078  70.372  1.00  0.00    -0.429 N  
HETATM   10  O   UNL     1     -11.954   8.369  72.552  1.00  0.00    -0.393 OA 
HETATM   11  H   UNL     1     -11.903   9.812  69.707  1.00  0.00     0.000 HD 
BRANCH   9  12
HETATM   12  C   UNL     1     -10.758   8.017  69.920  1.00  0.00    -0.242 C  
HETATM   13  C   UNL     1      -9.453   7.981  70.754  1.00  0.00    -0.173 C  
HETATM   14  C   UNL     1      -8.535   6.845  70.272  1.00  0.00    -0.139 C  
HETATM   15  C   UNL     1      -9.258   5.500  70.441  1.00  0.00    -0.182 C  
HETATM   16  C   UNL     1     -10.557   5.494  69.617  1.00  0.00    -0.375 C  
HETATM   17  C   UNL     1     -10.212   5.703  68.134  1.00  0.00    -0.236 C  
HETATM   18  C   UNL     1     -11.464   6.644  70.093  1.00  0.00    -0.444 C  
HETATM   19  C   UNL     1      -9.490   7.045  67.946  1.00  0.00    -0.128 C  
HETATM   20  C   UNL     1     -10.408   8.183  68.420  1.00  0.00    -0.236 C  
HETATM   21  C   UNL     1      -8.201   7.059  68.786  1.00  0.00    -0.122 C  
ENDBRANCH   9  12
ENDBRANCH   7   8
ENDBRANCH   6   7
ENDBRANCH   5   6
ENDBRANCH   4   5
ENDBRANCH   2   4
TORSDOF 6
ENDMDL
MODEL       47
REMARK 921   NORMALIZED FREE ENERGY PREDICTED BY IDOCK:   -4.77 KCAL/MOL
REMARK 922        TOTAL FREE ENERGY PREDICTED BY IDOCK:   -6.28 KCAL/MOL
REMARK 923 INTER-LIGAND FREE ENERGY PREDICTED BY IDOCK:   -6.31 KCAL/MOL
REMARK 924 INTRA-LIGAND FREE ENERGY PREDICTED BY IDOCK:    0.03 KCAL/MOL
REMARK 927      BINDING AFFINITY PREDICTED BY RF-SCORE:    0.00 PKD
ROOT
HETATM    1  C   UNL     1     -13.008  10.437  71.513  1.00  0.00    -0.458 C  
HETATM    2  N   UNL     1     -12.745   9.136  72.135  1.00  0.00    -0.387 NA 
HETATM    3  C   UNL     1     -13.712   8.152  71.643  1.00  0.00    -0.355 C  
ENDROOT
BRANCH   2   4
HETATM    4  C   UNL     1     -11.351   8.732  71.864  1.00  0.00    -0.361 C  
BRANCH   4   5
HETATM    5  C   UNL     1     -11.144   8.003  70.528  1.00  0.00    -0.251 C  
BRANCH   5   6
HETATM    6  O   UNL     1     -10.447   8.868  69.625  1.00  0.00    -0.208 OA 
BRANCH   6   7
HETATM    7  C   UNL     1     -10.504   8.368  68.293  1.00  0.00    -0.163 C  
BRANCH   7   8
HETATM    8  C   UNL     1     -10.490   9.508  67.280  1.00  0.00    -0.262 C  
HETATM    9  N   UNL     1     -10.968  10.704  67.787  1.00  0.00    -0.285 N  
HETATM   10  O   UNL     1     -10.047   9.361  66.146  1.00  0.00    -0.292 OA 
HETATM   11  H   UNL     1     -11.268  10.721  68.762  1.00  0.00     0.000 HD 
BRANCH   9  12
HETATM   12  C   UNL     1     -11.070  11.946  67.018  1.00  0.00    -0.302 C  
HETATM   13  C   UNL     1      -9.675  12.540  66.702  1.00  0.00    -0.244 C  
HETATM   14  C   UNL     1      -9.812  13.830  65.875  1.00  0.00    -0.279 C  
HETATM   15  C   UNL     1     -10.518  13.511  64.548  1.00  0.00    -0.426 C  
HETATM   16  C   UNL     1     -11.914  12.927  64.822  1.00  0.00    -0.445 C  
HETATM   17  C   UNL     1     -12.744  13.956  65.605  1.00  0.00    -0.534 C  
HETATM   18  C   UNL     1     -11.771  11.645  65.664  1.00  0.00     0.032 C  
HETATM   19  C   UNL     1     -12.055  14.284  66.937  1.00  0.00    -0.440 C  
HETATM   20  C   UNL     1     -11.923  12.999  67.768  1.00  0.00    -0.344 C  
HETATM   21  C   UNL     1     -10.650  14.851  66.663  1.00  0.00    -0.305 C  
ENDBRANCH   9  12
ENDBRANCH   7   8
ENDBRANCH   6   7
ENDBRANCH   5   6
ENDBRANCH   4   5
ENDBRANCH   2   4
TORSDOF 6
ENDMDL
MODEL       48
REMARK 921   NORMALIZED FREE ENERGY PREDICTED BY IDOCK:   -4.77 KCAL/MOL
REMARK 922        TOTAL FREE ENERGY PREDICTED BY IDOCK:   -6.28 KCAL/MOL
REMARK 923 INTER-LIGAND FREE ENERGY PREDICTED BY IDOCK:   -6.38 KCAL/MOL
REMARK 924 INTRA-LIGAND FREE ENERGY PREDICTED BY IDOCK:    0.10 KCAL/MOL
REMARK 927      BINDING AFFINITY PREDICTED BY RF-SCORE:    0.00 PKD
ROOT
HETATM    1  C   UNL     1     -10.842  14.520  65.291  1.00  0.00    -0.367 C  
HETATM    2  N   UNL     1     -12.034  13.889  65.866  1.00  0.00    -0.385 NA 
HETATM    3  C   UNL     1     -12.407  12.721  65.065  1.00  0.00    -0.499 C  
ENDROOT
BRANCH   2   4
HETATM    4  C   UNL     1     -11.773  13.538  67.276  1.00  0.00    -0.383 C  
BRANCH   4   5
HETATM    5  C   UNL     1     -11.293  12.096  67.499  1.00  0.00    -0.326 C  
BRANCH   5   6
HETATM    6  O   UNL     1     -12.190  11.436  68.399  1.00  0.00    -0.571 OA 
BRANCH   6   7
HETATM    7  C   UNL     1     -11.906  11.788  69.750  1.00  0.00    -0.349 C  
BRANCH   7   8
HETATM    8  C   UNL     1     -11.799  10.545  70.627  1.00  0.00    -0.360 C  
HETATM    9  N   UNL     1     -10.800   9.674  70.231  1.00  0.00    -0.263 N  
HETATM   10  O   UNL     1     -12.511  10.385  71.612  1.00  0.00    -0.391 OA 
HETATM   11  H   UNL     1     -10.236   9.932  69.422  1.00  0.00     0.000 HD 
BRANCH   9  12
HETATM   12  C   UNL     1     -10.498   8.404  70.897  1.00  0.00    -0.196 C  
HETATM   13  C   UNL     1      -9.468   7.569  70.096  1.00  0.00    -0.161 C  
HETATM   14  C   UNL     1      -9.154   6.253  70.829  1.00  0.00    -0.150 C  
HETATM   15  C   UNL     1      -8.557   6.570  72.209  1.00  0.00    -0.123 C  
HETATM   16  C   UNL     1      -9.558   7.392  73.039  1.00  0.00    -0.242 C  
HETATM   17  C   UNL     1     -10.850   6.579  73.217  1.00  0.00    -0.276 C  
HETATM   18  C   UNL     1      -9.881   8.700  72.291  1.00  0.00    -0.360 C  
HETATM   19  C   UNL     1     -11.462   6.257  71.847  1.00  0.00    -0.360 C  
HETATM   20  C   UNL     1     -11.784   7.569  71.115  1.00  0.00    -0.315 C  
HETATM   21  C   UNL     1     -10.453   5.450  71.009  1.00  0.00    -0.302 C  
ENDBRANCH   9  12
ENDBRANCH   7   8
ENDBRANCH   6   7
ENDBRANCH   5   6
ENDBRANCH   4   5
ENDBRANCH   2   4
TORSDOF 6
ENDMDL
MODEL       49
REMARK 921   NORMALIZED FREE ENERGY PREDICTED BY IDOCK:   -4.77 KCAL/MOL
REMARK 922        TOTAL FREE ENERGY PREDICTED BY IDOCK:   -6.27 KCAL/MOL
REMARK 923 INTER-LIGAND FREE ENERGY PREDICTED BY IDOCK:   -6.30 KCAL/MOL
REMARK 924 INTRA-LIGAND FREE ENERGY PREDICTED BY IDOCK:    0.03 KCAL/MOL
REMARK 927      BINDING AFFINITY PREDICTED BY RF-SCORE:    0.00 PKD
ROOT
HETATM    1  C   UNL     1     -10.424  15.914  67.498  1.00  0.00    -0.298 C  
HETATM    2  N   UNL     1     -11.035  15.234  66.351  1.00  0.00    -0.318 NA 
HETATM    3  C   UNL     1      -9.986  14.737  65.459  1.00  0.00    -0.356 C  
ENDROOT
BRANCH   2   4
HETATM    4  C   UNL     1     -11.917  14.152  66.833  1.00  0.00    -0.449 C  
BRANCH   4   5
HETATM    5  C   UNL     1     -11.960  12.911  65.928  1.00  0.00    -0.448 C  
BRANCH   5   6
HETATM    6  O   UNL     1     -11.899  11.735  66.742  1.00  0.00    -0.586 OA 
BRANCH   6   7
HETATM    7  C   UNL     1     -11.614  12.066  68.097  1.00  0.00    -0.340 C  
BRANCH   7   8
HETATM    8  C   UNL     1     -10.924  10.908  68.809  1.00  0.00    -0.237 C  
HETATM    9  N   UNL     1     -11.772  10.169  69.614  1.00  0.00    -0.443 N  
HETATM   10  O   UNL     1      -9.739  10.651  68.627  1.00  0.00    -0.163 OA 
HETATM   11  H   UNL     1     -12.752  10.447  69.654  1.00  0.00     0.000 HD 
BRANCH   9  12
HETATM   12  C   UNL     1     -11.356   9.014  70.413  1.00  0.00    -0.210 C  
HETATM   13  C   UNL     1     -12.518   8.468  71.279  1.00  0.00    -0.275 C  
HETATM   14  C   UNL     1     -12.060   7.243  72.089  1.00  0.00    -0.287 C  
HETATM   15  C   UNL     1     -11.609   6.136  71.124  1.00  0.00    -0.269 C  
HETATM   16  C   UNL     1     -10.445   6.638  70.253  1.00  0.00    -0.247 C  
HETATM   17  C   UNL     1      -9.270   7.032  71.161  1.00  0.00    -0.157 C  
HETATM   18  C   UNL     1     -10.906   7.875  69.457  1.00  0.00    -0.141 C  
HETATM   19  C   UNL     1      -9.703   8.141  72.130  1.00  0.00    -0.311 C  
HETATM   20  C   UNL     1     -10.155   9.368  71.324  1.00  0.00    -0.309 C  
HETATM   21  C   UNL     1     -10.879   7.645  72.990  1.00  0.00    -0.457 C  
ENDBRANCH   9  12
ENDBRANCH   7   8
ENDBRANCH   6   7
ENDBRANCH   5   6
ENDBRANCH   4   5
ENDBRANCH   2   4
TORSDOF 6
ENDMDL
MODEL       50
REMARK 921   NORMALIZED FREE ENERGY PREDICTED BY IDOCK:   -4.76 KCAL/MOL
REMARK 922        TOTAL FREE ENERGY PREDICTED BY IDOCK:   -6.26 KCAL/MOL
REMARK 923 INTER-LIGAND FREE ENERGY PREDICTED BY IDOCK:   -6.52 KCAL/MOL
REMARK 924 INTRA-LIGAND FREE ENERGY PREDICTED BY IDOCK:    0.26 KCAL/MOL
REMARK 927      BINDING AFFINITY PREDICTED BY RF-SCORE:    0.00 PKD
ROOT
HETATM    1  C   UNL     1     -10.697  15.412  67.397  1.00  0.00    -0.296 C  
HETATM    2  N   UNL     1     -11.271  14.995  66.113  1.00  0.00    -0.334 NA 
HETATM    3  C   UNL     1     -10.195  14.755  65.149  1.00  0.00    -0.377 C  
ENDROOT
BRANCH   2   4
HETATM    4  C   UNL     1     -12.115  13.801  66.316  1.00  0.00    -0.446 C  
BRANCH   4   5
HETATM    5  C   UNL     1     -11.336  12.494  66.524  1.00  0.00    -0.334 C  
BRANCH   5   6
HETATM    6  O   UNL     1     -12.019  11.690  67.492  1.00  0.00    -0.622 OA 
BRANCH   6   7
HETATM    7  C   UNL     1     -11.555  11.972  68.809  1.00  0.00    -0.311 C  
BRANCH   7   8
HETATM    8  C   UNL     1     -11.711  10.756  69.715  1.00  0.00    -0.324 C  
HETATM    9  N   UNL     1     -10.515  10.123  70.003  1.00  0.00    -0.305 N  
HETATM   10  O   UNL     1     -12.800  10.424  70.170  1.00  0.00    -0.235 OA 
HETATM   11  H   UNL     1      -9.662  10.515  69.605  1.00  0.00     0.000 HD 
BRANCH   9  12
HETATM   12  C   UNL     1     -10.393   8.927  70.840  1.00  0.00    -0.240 C  
HETATM   13  C   UNL     1      -8.960   8.770  71.408  1.00  0.00    -0.307 C  
HETATM   14  C   UNL     1      -8.867   7.520  72.300  1.00  0.00    -0.161 C  
HETATM   15  C   UNL     1      -9.845   7.661  73.476  1.00  0.00    -0.357 C  
HETATM   16  C   UNL     1     -11.283   7.808  72.950  1.00  0.00    -0.434 C  
HETATM   17  C   UNL     1     -11.649   6.561  72.130  1.00  0.00    -0.349 C  
HETATM   18  C   UNL     1     -11.366   9.052  72.044  1.00  0.00    -0.395 C  
HETATM   19  C   UNL     1     -10.682   6.407  70.947  1.00  0.00    -0.301 C  
HETATM   20  C   UNL     1     -10.778   7.651  70.051  1.00  0.00    -0.245 C  
HETATM   21  C   UNL     1      -9.241   6.279  71.473  1.00  0.00    -0.149 C  
ENDBRANCH   9  12
ENDBRANCH   7   8
ENDBRANCH   6   7
ENDBRANCH   5   6
ENDBRANCH   4   5
ENDBRANCH   2   4
TORSDOF 6
ENDMDL
MODEL       51
REMARK 921   NORMALIZED FREE ENERGY PREDICTED BY IDOCK:   -4.72 KCAL/MOL
REMARK 922        TOTAL FREE ENERGY PREDICTED BY IDOCK:   -6.21 KCAL/MOL
REMARK 923 INTER-LIGAND FREE ENERGY PREDICTED BY IDOCK:   -6.29 KCAL/MOL
REMARK 924 INTRA-LIGAND FREE ENERGY PREDICTED BY IDOCK:    0.08 KCAL/MOL
REMARK 927      BINDING AFFINITY PREDICTED BY RF-SCORE:    0.00 PKD
ROOT
HETATM    1  C   UNL     1      -8.507   6.703  72.240  1.00  0.00    -0.111 C  
HETATM    2  N   UNL     1      -9.942   6.615  72.528  1.00  0.00    -0.169 NA 
HETATM    3  C   UNL     1     -10.171   6.839  73.957  1.00  0.00    -0.369 C  
ENDROOT
BRANCH   2   4
HETATM    4  C   UNL     1     -10.673   7.583  71.687  1.00  0.00    -0.214 C  
BRANCH   4   5
HETATM    5  C   UNL     1     -11.906   8.209  72.357  1.00  0.00    -0.388 C  
BRANCH   5   6
HETATM    6  O   UNL     1     -12.276   9.394  71.643  1.00  0.00    -0.341 OA 
BRANCH   6   7
HETATM    7  C   UNL     1     -11.158   9.945  70.954  1.00  0.00    -0.348 C  
BRANCH   7   8
HETATM    8  C   UNL     1     -11.611  10.803  69.777  1.00  0.00    -0.317 C  
HETATM    9  N   UNL     1     -10.596  11.563  69.224  1.00  0.00    -0.409 N  
HETATM   10  O   UNL     1     -12.760  10.764  69.353  1.00  0.00    -0.261 OA 
HETATM   11  H   UNL     1      -9.664  11.481  69.631  1.00  0.00     0.000 HD 
BRANCH   9  12
HETATM   12  C   UNL     1     -10.771  12.478  68.094  1.00  0.00    -0.227 C  
HETATM   13  C   UNL     1      -9.432  13.141  67.682  1.00  0.00    -0.207 C  
HETATM   14  C   UNL     1      -9.641  14.078  66.480  1.00  0.00    -0.307 C  
HETATM   15  C   UNL     1     -10.170  13.266  65.288  1.00  0.00    -0.303 C  
HETATM   16  C   UNL     1     -11.507  12.601  65.657  1.00  0.00    -0.387 C  
HETATM   17  C   UNL     1     -12.527  13.690  66.024  1.00  0.00    -0.477 C  
HETATM   18  C   UNL     1     -11.294  11.676  66.871  1.00  0.00    -0.364 C  
HETATM   19  C   UNL     1     -12.015  14.510  67.217  1.00  0.00    -0.375 C  
HETATM   20  C   UNL     1     -11.812  13.577  68.421  1.00  0.00    -0.408 C  
HETATM   21  C   UNL     1     -10.668  15.161  66.854  1.00  0.00    -0.308 C  
ENDBRANCH   9  12
ENDBRANCH   7   8
ENDBRANCH   6   7
ENDBRANCH   5   6
ENDBRANCH   4   5
ENDBRANCH   2   4
TORSDOF 6
ENDMDL
MODEL       52
REMARK 921   NORMALIZED FREE ENERGY PREDICTED BY IDOCK:   -4.71 KCAL/MOL
REMARK 922        TOTAL FREE ENERGY PREDICTED BY IDOCK:   -6.20 KCAL/MOL
REMARK 923 INTER-LIGAND FREE ENERGY PREDICTED BY IDOCK:   -6.23 KCAL/MOL
REMARK 924 INTRA-LIGAND FREE ENERGY PREDICTED BY IDOCK:    0.03 KCAL/MOL
REMARK 927      BINDING AFFINITY PREDICTED BY RF-SCORE:    0.00 PKD
ROOT
HETATM    1  C   UNL     1     -13.546   9.128  71.800  1.00  0.00    -0.415 C  
HETATM    2  N   UNL     1     -12.183   8.591  71.857  1.00  0.00    -0.329 NA 
HETATM    3  C   UNL     1     -12.171   7.227  71.324  1.00  0.00    -0.354 C  
ENDROOT
BRANCH   2   4
HETATM    4  C   UNL     1     -11.270   9.486  71.121  1.00  0.00    -0.376 C  
BRANCH   4   5
HETATM    5  C   UNL     1     -10.751   8.919  69.791  1.00  0.00    -0.225 C  
BRANCH   5   6
HETATM    6  O   UNL     1     -10.782   9.950  68.797  1.00  0.00    -0.210 OA 
BRANCH   6   7
HETATM    7  C   UNL     1     -11.696  10.980  69.160  1.00  0.00    -0.333 C  
BRANCH   7   8
HETATM    8  C   UNL     1     -11.465  12.234  68.322  1.00  0.00    -0.315 C  
HETATM    9  N   UNL     1     -10.500  13.077  68.843  1.00  0.00    -0.415 N  
HETATM   10  O   UNL     1     -12.059  12.424  67.267  1.00  0.00    -0.516 OA 
HETATM   11  H   UNL     1     -10.036  12.793  69.706  1.00  0.00     0.000 HD 
BRANCH   9  12
HETATM   12  C   UNL     1     -10.099  14.349  68.238  1.00  0.00    -0.239 C  
HETATM   13  C   UNL     1      -8.981  15.044  69.054  1.00  0.00    -0.205 C  
HETATM   14  C   UNL     1      -8.565  16.364  68.383  1.00  0.00    -0.209 C  
HETATM   15  C   UNL     1      -8.030  16.073  66.973  1.00  0.00    -0.262 C  
HETATM   16  C   UNL     1      -9.120  15.391  66.128  1.00  0.00    -0.339 C  
HETATM   17  C   UNL     1     -10.337  16.324  66.028  1.00  0.00    -0.363 C  
HETATM   18  C   UNL     1      -9.543  14.077  66.813  1.00  0.00    -0.293 C  
HETATM   19  C   UNL     1     -10.886  16.623  67.430  1.00  0.00    -0.186 C  
HETATM   20  C   UNL     1     -11.309  15.307  68.099  1.00  0.00    -0.346 C  
HETATM   21  C   UNL     1      -9.790  17.289  68.282  1.00  0.00    -0.304 C  
ENDBRANCH   9  12
ENDBRANCH   7   8
ENDBRANCH   6   7
ENDBRANCH   5   6
ENDBRANCH   4   5
ENDBRANCH   2   4
TORSDOF 6
ENDMDL
MODEL       53
REMARK 921   NORMALIZED FREE ENERGY PREDICTED BY IDOCK:   -4.70 KCAL/MOL
REMARK 922        TOTAL FREE ENERGY PREDICTED BY IDOCK:   -6.19 KCAL/MOL
REMARK 923 INTER-LIGAND FREE ENERGY PREDICTED BY IDOCK:   -6.43 KCAL/MOL
REMARK 924 INTRA-LIGAND FREE ENERGY PREDICTED BY IDOCK:    0.24 KCAL/MOL
REMARK 927      BINDING AFFINITY PREDICTED BY RF-SCORE:    0.00 PKD
ROOT
HETATM    1  C   UNL     1     -14.352  15.462  72.113  1.00  0.00    -0.544 C  
HETATM    2  N   UNL     1     -12.961  15.824  72.407  1.00  0.00    -0.452 NA 
HETATM    3  C   UNL     1     -12.742  15.797  73.855  1.00  0.00    -0.605 C  
ENDROOT
BRANCH   2   4
HETATM    4  C   UNL     1     -12.052  14.908  71.689  1.00  0.00    -0.351 C  
BRANCH   4   5
HETATM    5  C   UNL     1     -12.757  13.877  70.795  1.00  0.00    -0.313 C  
BRANCH   5   6
HETATM    6  O   UNL     1     -12.661  12.585  71.405  1.00  0.00    -0.348 OA 
BRANCH   6   7
HETATM    7  C   UNL     1     -12.351  11.586  70.438  1.00  0.00    -0.305 C  
BRANCH   7   8
HETATM    8  C   UNL     1     -12.157  10.226  71.101  1.00  0.00    -0.395 C  
HETATM    9  N   UNL     1     -11.069   9.524  70.615  1.00  0.00    -0.275 N  
HETATM   10  O   UNL     1     -12.884   9.840  72.010  1.00  0.00    -0.395 OA 
HETATM   11  H   UNL     1     -10.505   9.964  69.888  1.00  0.00     0.000 HD 
BRANCH   9  12
HETATM   12  C   UNL     1     -10.673   8.191  71.075  1.00  0.00    -0.217 C  
HETATM   13  C   UNL     1     -11.507   7.079  70.393  1.00  0.00    -0.355 C  
HETATM   14  C   UNL     1     -11.055   5.690  70.877  1.00  0.00    -0.200 C  
HETATM   15  C   UNL     1      -9.576   5.482  70.515  1.00  0.00    -0.225 C  
HETATM   16  C   UNL     1      -8.713   6.565  71.185  1.00  0.00    -0.138 C  
HETATM   17  C   UNL     1      -8.882   6.470  72.710  1.00  0.00    -0.127 C  
HETATM   18  C   UNL     1      -9.182   7.953  70.709  1.00  0.00    -0.159 C  
HETATM   19  C   UNL     1     -10.355   6.680  73.090  1.00  0.00    -0.256 C  
HETATM   20  C   UNL     1     -10.807   8.068  72.613  1.00  0.00    -0.436 C  
HETATM   21  C   UNL     1     -11.221   5.607  72.404  1.00  0.00    -0.336 C  
ENDBRANCH   9  12
ENDBRANCH   7   8
ENDBRANCH   6   7
ENDBRANCH   5   6
ENDBRANCH   4   5
ENDBRANCH   2   4
TORSDOF 6
ENDMDL
MODEL       54
REMARK 921   NORMALIZED FREE ENERGY PREDICTED BY IDOCK:   -4.70 KCAL/MOL
REMARK 922        TOTAL FREE ENERGY PREDICTED BY IDOCK:   -6.18 KCAL/MOL
REMARK 923 INTER-LIGAND FREE ENERGY PREDICTED BY IDOCK:   -6.29 KCAL/MOL
REMARK 924 INTRA-LIGAND FREE ENERGY PREDICTED BY IDOCK:    0.11 KCAL/MOL
REMARK 927      BINDING AFFINITY PREDICTED BY RF-SCORE:    0.00 PKD
ROOT
HETATM    1  C   UNL     1     -12.485  14.088  70.417  1.00  0.00    -0.350 C  
HETATM    2  N   UNL     1     -13.147  14.358  71.698  1.00  0.00    -0.331 NA 
HETATM    3  C   UNL     1     -14.317  15.210  71.477  1.00  0.00    -0.559 C  
ENDROOT
BRANCH   2   4
HETATM    4  C   UNL     1     -13.502  13.080  72.347  1.00  0.00    -0.515 C  
BRANCH   4   5
HETATM    5  C   UNL     1     -13.031  11.827  71.594  1.00  0.00    -0.362 C  
BRANCH   5   6
HETATM    6  O   UNL     1     -13.339  10.667  72.375  1.00  0.00    -0.283 OA 
BRANCH   6   7
HETATM    7  C   UNL     1     -13.277   9.486  71.581  1.00  0.00    -0.406 C  
BRANCH   7   8
HETATM    8  C   UNL     1     -11.988   8.716  71.846  1.00  0.00    -0.356 C  
HETATM    9  N   UNL     1     -12.196   7.410  72.251  1.00  0.00    -0.476 N  
HETATM   10  O   UNL     1     -10.885   9.220  71.662  1.00  0.00    -0.357 OA 
HETATM   11  H   UNL     1     -13.159   7.083  72.326  1.00  0.00     0.000 HD 
BRANCH   9  12
HETATM   12  C   UNL     1     -11.126   6.466  72.579  1.00  0.00    -0.263 C  
HETATM   13  C   UNL     1     -10.242   6.984  73.741  1.00  0.00    -0.401 C  
HETATM   14  C   UNL     1      -9.142   5.963  74.079  1.00  0.00    -0.127 C  
HETATM   15  C   UNL     1      -9.791   4.639  74.512  1.00  0.00    -0.209 C  
HETATM   16  C   UNL     1     -10.670   4.088  73.376  1.00  0.00    -0.299 C  
HETATM   17  C   UNL     1      -9.795   3.844  72.137  1.00  0.00    -0.235 C  
HETATM   18  C   UNL     1     -11.759   5.122  73.032  1.00  0.00    -0.231 C  
HETATM   19  C   UNL     1      -9.140   5.159  71.688  1.00  0.00    -0.163 C  
HETATM   20  C   UNL     1     -10.237   6.177  71.344  1.00  0.00    -0.248 C  
HETATM   21  C   UNL     1      -8.276   5.720  72.832  1.00  0.00    -0.119 C  
ENDBRANCH   9  12
ENDBRANCH   7   8
ENDBRANCH   6   7
ENDBRANCH   5   6
ENDBRANCH   4   5
ENDBRANCH   2   4
TORSDOF 6
ENDMDL
MODEL       55
REMARK 921   NORMALIZED FREE ENERGY PREDICTED BY IDOCK:   -4.61 KCAL/MOL
REMARK 922        TOTAL FREE ENERGY PREDICTED BY IDOCK:   -6.07 KCAL/MOL
REMARK 923 INTER-LIGAND FREE ENERGY PREDICTED BY IDOCK:   -6.12 KCAL/MOL
REMARK 924 INTRA-LIGAND FREE ENERGY PREDICTED BY IDOCK:    0.05 KCAL/MOL
REMARK 927      BINDING AFFINITY PREDICTED BY RF-SCORE:    0.00 PKD
ROOT
HETATM    1  C   UNL     1      -5.959  19.526  64.353  1.00  0.00    -0.267 C  
HETATM    2  N   UNL     1      -5.424  18.936  65.584  1.00  0.00    -0.153 NA 
HETATM    3  C   UNL     1      -5.246  19.982  66.594  1.00  0.00    -0.164 C  
ENDROOT
BRANCH   2   4
HETATM    4  C   UNL     1      -6.326  17.862  66.047  1.00  0.00    -0.253 C  
BRANCH   4   5
HETATM    5  C   UNL     1      -6.703  17.939  67.534  1.00  0.00    -0.176 C  
BRANCH   5   6
HETATM    6  O   UNL     1      -8.114  17.737  67.671  1.00  0.00    -0.217 OA 
BRANCH   6   7
HETATM    7  C   UNL     1      -8.804  18.139  66.491  1.00  0.00    -0.271 C  
BRANCH   7   8
HETATM    8  C   UNL     1      -9.771  17.055  66.028  1.00  0.00    -0.218 C  
HETATM    9  N   UNL     1      -9.479  15.801  66.532  1.00  0.00    -0.250 N  
HETATM   10  O   UNL     1     -10.736  17.311  65.317  1.00  0.00    -0.637 OA 
HETATM   11  H   UNL     1      -8.676  15.713  67.155  1.00  0.00     0.000 HD 
BRANCH   9  12
HETATM   12  C   UNL     1     -10.246  14.590  66.231  1.00  0.00    -0.297 C  
HETATM   13  C   UNL     1     -11.584  14.552  67.010  1.00  0.00    -0.402 C  
HETATM   14  C   UNL     1     -12.378  13.282  66.658  1.00  0.00    -0.274 C  
HETATM   15  C   UNL     1     -12.689  13.277  65.154  1.00  0.00    -0.464 C  
HETATM   16  C   UNL     1     -11.380  13.304  64.346  1.00  0.00    -0.415 C  
HETATM   17  C   UNL     1     -10.548  12.061  64.697  1.00  0.00    -0.351 C  
HETATM   18  C   UNL     1     -10.583  14.569  64.715  1.00  0.00    -0.401 C  
HETATM   19  C   UNL     1     -10.225  12.052  66.198  1.00  0.00    -0.255 C  
HETATM   20  C   UNL     1      -9.426  13.315  66.551  1.00  0.00    -0.251 C  
HETATM   21  C   UNL     1     -11.535  12.044  67.007  1.00  0.00    -0.402 C  
ENDBRANCH   9  12
ENDBRANCH   7   8
ENDBRANCH   6   7
ENDBRANCH   5   6
ENDBRANCH   4   5
ENDBRANCH   2   4
TORSDOF 6
ENDMDL
MODEL       56
REMARK 921   NORMALIZED FREE ENERGY PREDICTED BY IDOCK:   -4.61 KCAL/MOL
REMARK 922        TOTAL FREE ENERGY PREDICTED BY IDOCK:   -6.06 KCAL/MOL
REMARK 923 INTER-LIGAND FREE ENERGY PREDICTED BY IDOCK:   -6.19 KCAL/MOL
REMARK 924 INTRA-LIGAND FREE ENERGY PREDICTED BY IDOCK:    0.13 KCAL/MOL
REMARK 927      BINDING AFFINITY PREDICTED BY RF-SCORE:    0.00 PKD
ROOT
HETATM    1  C   UNL     1     -11.693  15.585  69.507  1.00  0.00    -0.365 C  
HETATM    2  N   UNL     1     -11.591  14.960  68.185  1.00  0.00    -0.328 NA 
HETATM    3  C   UNL     1     -10.631  15.702  67.364  1.00  0.00    -0.301 C  
ENDROOT
BRANCH   2   4
HETATM    4  C   UNL     1     -11.213  13.541  68.338  1.00  0.00    -0.278 C  
BRANCH   4   5
HETATM    5  C   UNL     1     -11.419  12.684  67.080  1.00  0.00    -0.346 C  
BRANCH   5   6
HETATM    6  O   UNL     1     -11.925  11.401  67.464  1.00  0.00    -0.626 OA 
BRANCH   6   7
HETATM    7  C   UNL     1     -10.923  10.397  67.332  1.00  0.00    -0.270 C  
BRANCH   7   8
HETATM    8  C   UNL     1     -10.485   9.880  68.698  1.00  0.00    -0.206 C  
HETATM    9  N   UNL     1     -10.941   8.605  68.979  1.00  0.00    -0.437 N  
HETATM   10  O   UNL     1      -9.756  10.537  69.434  1.00  0.00    -0.215 OA 
HETATM   11  H   UNL     1     -11.503   8.134  68.271  1.00  0.00     0.000 HD 
BRANCH   9  12
HETATM   12  C   UNL     1     -10.670   7.887  70.227  1.00  0.00    -0.236 C  
HETATM   13  C   UNL     1      -9.195   8.049  70.671  1.00  0.00    -0.156 C  
HETATM   14  C   UNL     1      -8.944   7.305  71.994  1.00  0.00    -0.143 C  
HETATM   15  C   UNL     1      -9.850   7.891  73.087  1.00  0.00    -0.357 C  
HETATM   16  C   UNL     1     -11.327   7.738  72.685  1.00  0.00    -0.449 C  
HETATM   17  C   UNL     1     -11.647   6.246  72.505  1.00  0.00    -0.273 C  
HETATM   18  C   UNL     1     -11.567   8.472  71.352  1.00  0.00    -0.344 C  
HETATM   19  C   UNL     1     -10.752   5.644  71.412  1.00  0.00    -0.310 C  
HETATM   20  C   UNL     1     -11.006   6.381  70.089  1.00  0.00    -0.395 C  
HETATM   21  C   UNL     1      -9.274   5.814  71.806  1.00  0.00    -0.157 C  
ENDBRANCH   9  12
ENDBRANCH   7   8
ENDBRANCH   6   7
ENDBRANCH   5   6
ENDBRANCH   4   5
ENDBRANCH   2   4
TORSDOF 6
ENDMDL
MODEL       57
REMARK 921   NORMALIZED FREE ENERGY PREDICTED BY IDOCK:   -4.59 KCAL/MOL
REMARK 922        TOTAL FREE ENERGY PREDICTED BY IDOCK:   -6.03 KCAL/MOL
REMARK 923 INTER-LIGAND FREE ENERGY PREDICTED BY IDOCK:   -6.30 KCAL/MOL
REMARK 924 INTRA-LIGAND FREE ENERGY PREDICTED BY IDOCK:    0.27 KCAL/MOL
REMARK 927      BINDING AFFINITY PREDICTED BY RF-SCORE:    0.00 PKD
ROOT
HETATM    1  C   UNL     1     -12.356  14.622  70.824  1.00  0.00    -0.328 C  
HETATM    2  N   UNL     1     -12.750  14.487  72.230  1.00  0.00    -0.329 NA 
HETATM    3  C   UNL     1     -13.490  15.679  72.649  1.00  0.00    -0.566 C  
ENDROOT
BRANCH   2   4
HETATM    4  C   UNL     1     -13.540  13.251  72.404  1.00  0.00    -0.594 C  
BRANCH   4   5
HETATM    5  C   UNL     1     -13.270  12.166  71.350  1.00  0.00    -0.074 C  
BRANCH   5   6
HETATM    6  O   UNL     1     -12.770  10.994  72.002  1.00  0.00    -0.305 OA 
BRANCH   6   7
HETATM    7  C   UNL     1     -12.606   9.925  71.075  1.00  0.00    -0.336 C  
BRANCH   7   8
HETATM    8  C   UNL     1     -11.494  10.233  70.077  1.00  0.00    -0.296 C  
HETATM    9  N   UNL     1     -11.947  10.815  68.907  1.00  0.00    -0.497 N  
HETATM   10  O   UNL     1     -10.315  10.019  70.337  1.00  0.00    -0.282 OA 
HETATM   11  H   UNL     1     -12.948  10.990  68.819  1.00  0.00     0.000 HD 
BRANCH   9  12
HETATM   12  C   UNL     1     -11.085  11.197  67.786  1.00  0.00    -0.285 C  
HETATM   13  C   UNL     1     -10.601   9.960  66.990  1.00  0.00    -0.272 C  
HETATM   14  C   UNL     1      -9.717  10.392  65.807  1.00  0.00    -0.285 C  
HETATM   15  C   UNL     1     -10.532  11.290  64.864  1.00  0.00    -0.375 C  
HETATM   16  C   UNL     1     -11.022  12.537  65.619  1.00  0.00    -0.323 C  
HETATM   17  C   UNL     1      -9.807  13.319  66.142  1.00  0.00    -0.286 C  
HETATM   18  C   UNL     1     -11.893  12.097  66.812  1.00  0.00    -0.304 C  
HETATM   19  C   UNL     1      -8.982  12.436  67.089  1.00  0.00    -0.195 C  
HETATM   20  C   UNL     1      -9.861  12.009  68.275  1.00  0.00    -0.204 C  
HETATM   21  C   UNL     1      -8.507  11.179  66.339  1.00  0.00    -0.167 C  
ENDBRANCH   9  12
ENDBRANCH   7   8
ENDBRANCH   6   7
ENDBRANCH   5   6
ENDBRANCH   4   5
ENDBRANCH   2   4
TORSDOF 6
ENDMDL
MODEL       58
REMARK 921   NORMALIZED FREE ENERGY PREDICTED BY IDOCK:   -4.57 KCAL/MOL
REMARK 922        TOTAL FREE ENERGY PREDICTED BY IDOCK:   -6.01 KCAL/MOL
REMARK 923 INTER-LIGAND FREE ENERGY PREDICTED BY IDOCK:   -5.81 KCAL/MOL
REMARK 924 INTRA-LIGAND FREE ENERGY PREDICTED BY IDOCK:   -0.21 KCAL/MOL
REMARK 927      BINDING AFFINITY PREDICTED BY RF-SCORE:    0.00 PKD
ROOT
HETATM    1  C   UNL     1     -10.948   6.459  67.926  1.00  0.00    -0.325 C  
HETATM    2  N   UNL     1     -10.254   7.373  67.013  1.00  0.00    -0.259 NA 
HETATM    3  C   UNL     1     -10.171   8.704  67.620  1.00  0.00    -0.239 C  
ENDROOT
BRANCH   2   4
HETATM    4  C   UNL     1      -8.923   6.826  66.685  1.00  0.00    -0.144 C  
BRANCH   4   5
HETATM    5  C   UNL     1      -7.917   7.860  66.157  1.00  0.00    -0.104 C  
BRANCH   5   6
HETATM    6  O   UNL     1      -8.299   8.253  64.834  1.00  0.00    -0.159 OA 
BRANCH   6   7
HETATM    7  C   UNL     1      -7.961   9.615  64.589  1.00  0.00    -0.135 C  
BRANCH   7   8
HETATM    8  C   UNL     1      -9.178  10.518  64.759  1.00  0.00    -0.227 C  
HETATM    9  N   UNL     1      -8.899  11.702  65.420  1.00  0.00    -0.398 N  
HETATM   10  O   UNL     1     -10.275  10.219  64.301  1.00  0.00    -0.269 OA 
HETATM   11  H   UNL     1      -7.938  11.866  65.717  1.00  0.00     0.000 HD 
BRANCH   9  12
HETATM   12  C   UNL     1      -9.894  12.734  65.720  1.00  0.00    -0.214 C  
HETATM   13  C   UNL     1     -10.993  12.208  66.676  1.00  0.00    -0.325 C  
HETATM   14  C   UNL     1     -12.010  13.319  66.993  1.00  0.00    -0.419 C  
HETATM   15  C   UNL     1     -11.289  14.490  67.676  1.00  0.00    -0.354 C  
HETATM   16  C   UNL     1     -10.194  15.046  66.750  1.00  0.00    -0.260 C  
HETATM   17  C   UNL     1     -10.841  15.539  65.447  1.00  0.00    -0.402 C  
HETATM   18  C   UNL     1      -9.188  13.925  66.425  1.00  0.00    -0.174 C  
HETATM   19  C   UNL     1     -11.564  14.379  64.747  1.00  0.00    -0.410 C  
HETATM   20  C   UNL     1     -10.550  13.272  64.424  1.00  0.00    -0.438 C  
HETATM   21  C   UNL     1     -12.647  13.810  65.682  1.00  0.00    -0.551 C  
ENDBRANCH   9  12
ENDBRANCH   7   8
ENDBRANCH   6   7
ENDBRANCH   5   6
ENDBRANCH   4   5
ENDBRANCH   2   4
TORSDOF 6
ENDMDL
MODEL       59
REMARK 921   NORMALIZED FREE ENERGY PREDICTED BY IDOCK:   -4.57 KCAL/MOL
REMARK 922        TOTAL FREE ENERGY PREDICTED BY IDOCK:   -6.01 KCAL/MOL
REMARK 923 INTER-LIGAND FREE ENERGY PREDICTED BY IDOCK:   -6.20 KCAL/MOL
REMARK 924 INTRA-LIGAND FREE ENERGY PREDICTED BY IDOCK:    0.19 KCAL/MOL
REMARK 927      BINDING AFFINITY PREDICTED BY RF-SCORE:    0.00 PKD
ROOT
HETATM    1  C   UNL     1     -10.651  13.925  64.630  1.00  0.00    -0.412 C  
HETATM    2  N   UNL     1     -10.961  12.492  64.678  1.00  0.00    -0.295 NA 
HETATM    3  C   UNL     1     -10.245  11.799  63.605  1.00  0.00    -0.428 C  
ENDROOT
BRANCH   2   4
HETATM    4  C   UNL     1     -10.621  11.959  66.011  1.00  0.00    -0.265 C  
BRANCH   4   5
HETATM    5  C   UNL     1      -9.149  12.136  66.416  1.00  0.00    -0.177 C  
BRANCH   5   6
HETATM    6  O   UNL     1      -9.039  13.254  67.303  1.00  0.00    -0.203 OA 
BRANCH   6   7
HETATM    7  C   UNL     1      -7.696  13.724  67.367  1.00  0.00    -0.143 C  
BRANCH   7   8
HETATM    8  C   UNL     1      -7.654  15.221  67.655  1.00  0.00    -0.172 C  
HETATM    9  N   UNL     1      -8.752  15.908  67.171  1.00  0.00    -0.189 N  
HETATM   10  O   UNL     1      -6.743  15.730  68.300  1.00  0.00    -0.111 OA 
HETATM   11  H   UNL     1      -9.474  15.373  66.689  1.00  0.00     0.000 HD 
BRANCH   9  12
HETATM   12  C   UNL     1      -8.948  17.353  67.306  1.00  0.00    -0.236 C  
HETATM   13  C   UNL     1      -8.515  17.862  68.704  1.00  0.00    -0.272 C  
HETATM   14  C   UNL     1      -8.710  19.384  68.809  1.00  0.00    -0.377 C  
HETATM   15  C   UNL     1      -7.846  20.082  67.747  1.00  0.00    -0.330 C  
HETATM   16  C   UNL     1      -8.255  19.609  66.342  1.00  0.00    -0.356 C  
HETATM   17  C   UNL     1      -9.733  19.957  66.105  1.00  0.00    -0.527 C  
HETATM   18  C   UNL     1      -8.073  18.082  66.249  1.00  0.00    -0.259 C  
HETATM   19  C   UNL     1     -10.612  19.265  67.155  1.00  0.00    -0.575 C  
HETATM   20  C   UNL     1     -10.424  17.744  67.048  1.00  0.00    -0.324 C  
HETATM   21  C   UNL     1     -10.190  19.724  68.563  1.00  0.00    -0.547 C  
ENDBRANCH   9  12
ENDBRANCH   7   8
ENDBRANCH   6   7
ENDBRANCH   5   6
ENDBRANCH   4   5
ENDBRANCH   2   4
TORSDOF 6
ENDMDL
MODEL       60
REMARK 921   NORMALIZED FREE ENERGY PREDICTED BY IDOCK:   -4.55 KCAL/MOL
REMARK 922        TOTAL FREE ENERGY PREDICTED BY IDOCK:   -5.98 KCAL/MOL
REMARK 923 INTER-LIGAND FREE ENERGY PREDICTED BY IDOCK:   -5.99 KCAL/MOL
REMARK 924 INTRA-LIGAND FREE ENERGY PREDICTED BY IDOCK:    0.01 KCAL/MOL
REMARK 927      BINDING AFFINITY PREDICTED BY RF-SCORE:    0.00 PKD
ROOT
HETATM    1  C   UNL     1     -10.877   9.513  69.507  1.00  0.00    -0.222 C  
HETATM    2  N   UNL     1     -10.630  10.956  69.587  1.00  0.00    -0.181 NA 
HETATM    3  C   UNL     1      -9.655  11.345  68.566  1.00  0.00    -0.189 C  
ENDROOT
BRANCH   2   4
HETATM    4  C   UNL     1     -11.908  11.683  69.444  1.00  0.00    -0.342 C  
BRANCH   4   5
HETATM    5  C   UNL     1     -12.242  12.625  70.611  1.00  0.00    -0.285 C  
BRANCH   5   6
HETATM    6  O   UNL     1     -12.506  13.934  70.096  1.00  0.00    -0.333 OA 
BRANCH   6   7
HETATM    7  C   UNL     1     -11.633  14.897  70.678  1.00  0.00    -0.291 C  
BRANCH   7   8
HETATM    8  C   UNL     1     -10.679  15.470  69.636  1.00  0.00    -0.271 C  
HETATM    9  N   UNL     1     -10.768  16.844  69.500  1.00  0.00    -0.346 N  
HETATM   10  O   UNL     1      -9.884  14.762  69.028  1.00  0.00    -0.224 OA 
HETATM   11  H   UNL     1     -11.435  17.339  70.093  1.00  0.00     0.000 HD 
BRANCH   9  12
HETATM   12  C   UNL     1      -9.970  17.636  68.561  1.00  0.00    -0.368 C  
HETATM   13  C   UNL     1      -8.469  17.261  68.630  1.00  0.00    -0.260 C  
HETATM   14  C   UNL     1      -7.659  18.091  67.618  1.00  0.00    -0.219 C  
HETATM   15  C   UNL     1      -8.169  17.801  66.198  1.00  0.00    -0.193 C  
HETATM   16  C   UNL     1      -9.658  18.171  66.088  1.00  0.00    -0.180 C  
HETATM   17  C   UNL     1      -9.828  19.667  66.395  1.00  0.00    -0.536 C  
HETATM   18  C   UNL     1     -10.461  17.349  67.115  1.00  0.00    -0.305 C  
HETATM   19  C   UNL     1      -9.326  19.974  67.813  1.00  0.00    -0.467 C  
HETATM   20  C   UNL     1     -10.138  19.152  68.825  1.00  0.00    -0.445 C  
HETATM   21  C   UNL     1      -7.841  19.587  67.928  1.00  0.00    -0.330 C  
ENDBRANCH   9  12
ENDBRANCH   7   8
ENDBRANCH   6   7
ENDBRANCH   5   6
ENDBRANCH   4   5
ENDBRANCH   2   4
TORSDOF 6
ENDMDL
MODEL       61
REMARK 921   NORMALIZED FREE ENERGY PREDICTED BY IDOCK:   -4.52 KCAL/MOL
REMARK 922        TOTAL FREE ENERGY PREDICTED BY IDOCK:   -5.95 KCAL/MOL
REMARK 923 INTER-LIGAND FREE ENERGY PREDICTED BY IDOCK:   -5.29 KCAL/MOL
REMARK 924 INTRA-LIGAND FREE ENERGY PREDICTED BY IDOCK:   -0.65 KCAL/MOL
REMARK 927      BINDING AFFINITY PREDICTED BY RF-SCORE:    0.00 PKD
ROOT
HETATM    1  C   UNL     1     -10.505   9.147  68.028  1.00  0.00    -0.224 C  
HETATM    2  N   UNL     1     -10.355  10.361  68.837  1.00  0.00    -0.196 NA 
HETATM    3  C   UNL     1      -8.976  10.847  68.742  1.00  0.00    -0.164 C  
ENDROOT
BRANCH   2   4
HETATM    4  C   UNL     1     -11.335  11.372  68.395  1.00  0.00    -0.281 C  
BRANCH   4   5
HETATM    5  C   UNL     1     -12.030  12.132  69.535  1.00  0.00    -0.275 C  
BRANCH   5   6
HETATM    6  O   UNL     1     -11.698  11.512  70.782  1.00  0.00    -0.204 OA 
BRANCH   6   7
HETATM    7  C   UNL     1     -12.847  10.918  71.379  1.00  0.00    -0.449 C  
BRANCH   7   8
HETATM    8  C   UNL     1     -12.550   9.493  71.835  1.00  0.00    -0.396 C  
HETATM    9  N   UNL     1     -11.249   9.093  71.588  1.00  0.00    -0.357 N  
HETATM   10  O   UNL     1     -13.391   8.810  72.408  1.00  0.00    -0.400 OA 
HETATM   11  H   UNL     1     -10.620   9.764  71.147  1.00  0.00     0.000 HD 
BRANCH   9  12
HETATM   12  C   UNL     1     -10.714   7.771  71.919  1.00  0.00    -0.225 C  
HETATM   13  C   UNL     1     -11.537   6.638  71.256  1.00  0.00    -0.374 C  
HETATM   14  C   UNL     1     -10.940   5.263  71.601  1.00  0.00    -0.121 C  
HETATM   15  C   UNL     1      -9.498   5.188  71.078  1.00  0.00    -0.214 C  
HETATM   16  C   UNL     1      -8.645   6.294  71.724  1.00  0.00    -0.133 C  
HETATM   17  C   UNL     1      -8.644   6.101  73.249  1.00  0.00    -0.123 C  
HETATM   18  C   UNL     1      -9.258   7.667  71.388  1.00  0.00    -0.152 C  
HETATM   19  C   UNL     1     -10.079   6.176  73.790  1.00  0.00    -0.245 C  
HETATM   20  C   UNL     1     -10.675   7.551  73.452  1.00  0.00    -0.387 C  
HETATM   21  C   UNL     1     -10.936   5.082  73.129  1.00  0.00    -0.375 C  
ENDBRANCH   9  12
ENDBRANCH   7   8
ENDBRANCH   6   7
ENDBRANCH   5   6
ENDBRANCH   4   5
ENDBRANCH   2   4
TORSDOF 6
ENDMDL
MODEL       62
REMARK 921   NORMALIZED FREE ENERGY PREDICTED BY IDOCK:   -4.52 KCAL/MOL
REMARK 922        TOTAL FREE ENERGY PREDICTED BY IDOCK:   -5.94 KCAL/MOL
REMARK 923 INTER-LIGAND FREE ENERGY PREDICTED BY IDOCK:   -5.81 KCAL/MOL
REMARK 924 INTRA-LIGAND FREE ENERGY PREDICTED BY IDOCK:   -0.13 KCAL/MOL
REMARK 927      BINDING AFFINITY PREDICTED BY RF-SCORE:    0.00 PKD
ROOT
HETATM    1  C   UNL     1     -11.483   8.978  71.872  1.00  0.00    -0.370 C  
HETATM    2  N   UNL     1     -11.840   7.559  71.778  1.00  0.00    -0.283 NA 
HETATM    3  C   UNL     1     -13.165   7.426  71.166  1.00  0.00    -0.197 C  
ENDROOT
BRANCH   2   4
HETATM    4  C   UNL     1     -10.800   6.838  71.018  1.00  0.00    -0.242 C  
BRANCH   4   5
HETATM    5  C   UNL     1     -11.106   6.662  69.523  1.00  0.00    -0.322 C  
BRANCH   5   6
HETATM    6  O   UNL     1     -10.191   7.456  68.760  1.00  0.00    -0.181 OA 
BRANCH   6   7
HETATM    7  C   UNL     1     -10.701   7.709  67.454  1.00  0.00    -0.248 C  
BRANCH   7   8
HETATM    8  C   UNL     1     -10.435   9.151  67.035  1.00  0.00    -0.240 C  
HETATM    9  N   UNL     1     -11.043  10.086  67.855  1.00  0.00    -0.464 N  
HETATM   10  O   UNL     1      -9.708   9.426  66.087  1.00  0.00    -0.224 OA 
HETATM   11  H   UNL     1     -11.588   9.743  68.645  1.00  0.00     0.000 HD 
BRANCH   9  12
HETATM   12  C   UNL     1     -10.954  11.535  67.663  1.00  0.00    -0.242 C  
HETATM   13  C   UNL     1     -11.579  11.973  66.315  1.00  0.00    -0.378 C  
HETATM   14  C   UNL     1     -11.492  13.500  66.150  1.00  0.00    -0.348 C  
HETATM   15  C   UNL     1     -12.266  14.180  67.290  1.00  0.00    -0.314 C  
HETATM   16  C   UNL     1     -11.666  13.776  68.647  1.00  0.00    -0.391 C  
HETATM   17  C   UNL     1     -10.195  14.217  68.698  1.00  0.00    -0.246 C  
HETATM   18  C   UNL     1     -11.741  12.244  68.799  1.00  0.00    -0.390 C  
HETATM   19  C   UNL     1      -9.405  13.544  67.566  1.00  0.00    -0.220 C  
HETATM   20  C   UNL     1      -9.484  12.019  67.732  1.00  0.00    -0.190 C  
HETATM   21  C   UNL     1     -10.017  13.933  66.209  1.00  0.00    -0.315 C  
ENDBRANCH   9  12
ENDBRANCH   7   8
ENDBRANCH   6   7
ENDBRANCH   5   6
ENDBRANCH   4   5
ENDBRANCH   2   4
TORSDOF 6
ENDMDL
MODEL       63
REMARK 921   NORMALIZED FREE ENERGY PREDICTED BY IDOCK:   -4.51 KCAL/MOL
REMARK 922        TOTAL FREE ENERGY PREDICTED BY IDOCK:   -5.93 KCAL/MOL
REMARK 923 INTER-LIGAND FREE ENERGY PREDICTED BY IDOCK:   -5.81 KCAL/MOL
REMARK 924 INTRA-LIGAND FREE ENERGY PREDICTED BY IDOCK:   -0.12 KCAL/MOL
REMARK 927      BINDING AFFINITY PREDICTED BY RF-SCORE:    0.00 PKD
ROOT
HETATM    1  C   UNL     1      -9.289  19.478  66.413  1.00  0.00    -0.379 C  
HETATM    2  N   UNL     1      -9.428  18.462  67.462  1.00  0.00    -0.268 NA 
HETATM    3  C   UNL     1      -9.898  19.093  68.697  1.00  0.00    -0.420 C  
ENDROOT
BRANCH   2   4
HETATM    4  C   UNL     1     -10.339  17.397  66.998  1.00  0.00    -0.318 C  
BRANCH   4   5
HETATM    5  C   UNL     1     -10.735  17.493  65.516  1.00  0.00    -0.062 C  
BRANCH   5   6
HETATM    6  O   UNL     1     -10.442  16.250  64.870  1.00  0.00    -0.624 OA 
BRANCH   6   7
HETATM    7  C   UNL     1     -11.639  15.562  64.521  1.00  0.00    -0.283 C  
BRANCH   7   8
HETATM    8  C   UNL     1     -11.562  14.093  64.924  1.00  0.00    -0.379 C  
HETATM    9  N   UNL     1     -10.451  13.787  65.690  1.00  0.00    -0.296 N  
HETATM   10  O   UNL     1     -12.442  13.293  64.625  1.00  0.00    -0.518 OA 
HETATM   11  H   UNL     1      -9.807  14.544  65.918  1.00  0.00     0.000 HD 
BRANCH   9  12
HETATM   12  C   UNL     1     -10.138  12.448  66.195  1.00  0.00    -0.248 C  
HETATM   13  C   UNL     1      -9.976  11.426  65.042  1.00  0.00    -0.312 C  
HETATM   14  C   UNL     1      -9.626  10.035  65.599  1.00  0.00    -0.313 C  
HETATM   15  C   UNL     1      -8.300  10.115  66.371  1.00  0.00    -0.125 C  
HETATM   16  C   UNL     1      -8.426  11.116  67.532  1.00  0.00    -0.126 C  
HETATM   17  C   UNL     1      -9.539  10.645  68.482  1.00  0.00    -0.175 C  
HETATM   18  C   UNL     1      -8.793  12.502  66.969  1.00  0.00    -0.212 C  
HETATM   19  C   UNL     1     -10.874  10.563  67.728  1.00  0.00    -0.347 C  
HETATM   20  C   UNL     1     -11.229  11.952  67.176  1.00  0.00    -0.377 C  
HETATM   21  C   UNL     1     -10.742   9.576  66.554  1.00  0.00    -0.031 C  
ENDBRANCH   9  12
ENDBRANCH   7   8
ENDBRANCH   6   7
ENDBRANCH   5   6
ENDBRANCH   4   5
ENDBRANCH   2   4
TORSDOF 6
ENDMDL
MODEL       64
REMARK 921   NORMALIZED FREE ENERGY PREDICTED BY IDOCK:   -4.48 KCAL/MOL
REMARK 922        TOTAL FREE ENERGY PREDICTED BY IDOCK:   -5.88 KCAL/MOL
REMARK 923 INTER-LIGAND FREE ENERGY PREDICTED BY IDOCK:   -5.75 KCAL/MOL
REMARK 924 INTRA-LIGAND FREE ENERGY PREDICTED BY IDOCK:   -0.13 KCAL/MOL
REMARK 927      BINDING AFFINITY PREDICTED BY RF-SCORE:    0.00 PKD
ROOT
HETATM    1  C   UNL     1      -9.649  12.128  67.931  1.00  0.00    -0.198 C  
HETATM    2  N   UNL     1     -10.095  12.096  66.534  1.00  0.00    -0.206 NA 
HETATM    3  C   UNL     1      -9.928  10.744  65.996  1.00  0.00    -0.242 C  
ENDROOT
BRANCH   2   4
HETATM    4  C   UNL     1     -11.494  12.561  66.453  1.00  0.00    -0.365 C  
BRANCH   4   5
HETATM    5  C   UNL     1     -11.935  13.471  67.609  1.00  0.00    -0.336 C  
BRANCH   5   6
HETATM    6  O   UNL     1     -12.035  14.818  67.134  1.00  0.00    -0.351 OA 
BRANCH   6   7
HETATM    7  C   UNL     1     -11.373  15.720  68.015  1.00  0.00    -0.310 C  
BRANCH   7   8
HETATM    8  C   UNL     1     -10.208  16.410  67.314  1.00  0.00    -0.278 C  
HETATM    9  N   UNL     1      -9.614  17.402  68.074  1.00  0.00    -0.268 N  
HETATM   10  O   UNL     1      -9.825  16.064  66.202  1.00  0.00    -0.280 OA 
HETATM   11  H   UNL     1      -9.988  17.574  69.007  1.00  0.00     0.000 HD 
BRANCH   9  12
HETATM   12  C   UNL     1      -8.485  18.222  67.628  1.00  0.00    -0.255 C  
HETATM   13  C   UNL     1      -8.861  19.097  66.406  1.00  0.00    -0.349 C  
HETATM   14  C   UNL     1      -7.665  19.962  65.973  1.00  0.00    -0.337 C  
HETATM   15  C   UNL     1      -7.262  20.889  67.131  1.00  0.00    -0.395 C  
HETATM   16  C   UNL     1      -6.871  20.053  68.362  1.00  0.00    -0.337 C  
HETATM   17  C   UNL     1      -5.684  19.148  67.998  1.00  0.00    -0.198 C  
HETATM   18  C   UNL     1      -8.068  19.177  68.779  1.00  0.00    -0.384 C  
HETATM   19  C   UNL     1      -6.071  18.212  66.844  1.00  0.00    -0.176 C  
HETATM   20  C   UNL     1      -7.261  17.341  67.276  1.00  0.00    -0.191 C  
HETATM   21  C   UNL     1      -6.480  19.048  65.618  1.00  0.00    -0.296 C  
ENDBRANCH   9  12
ENDBRANCH   7   8
ENDBRANCH   6   7
ENDBRANCH   5   6
ENDBRANCH   4   5
ENDBRANCH   2   4
TORSDOF 6
ENDMDL
MODEL       65
REMARK 921   NORMALIZED FREE ENERGY PREDICTED BY IDOCK:   -4.47 KCAL/MOL
REMARK 922        TOTAL FREE ENERGY PREDICTED BY IDOCK:   -5.88 KCAL/MOL
REMARK 923 INTER-LIGAND FREE ENERGY PREDICTED BY IDOCK:   -5.98 KCAL/MOL
REMARK 924 INTRA-LIGAND FREE ENERGY PREDICTED BY IDOCK:    0.09 KCAL/MOL
REMARK 927      BINDING AFFINITY PREDICTED BY RF-SCORE:    0.00 PKD
ROOT
HETATM    1  C   UNL     1     -12.880  15.859  73.535  1.00  0.00    -0.590 C  
HETATM    2  N   UNL     1     -12.767  14.807  72.521  1.00  0.00    -0.351 NA 
HETATM    3  C   UNL     1     -14.096  14.485  71.997  1.00  0.00    -0.516 C  
ENDROOT
BRANCH   2   4
HETATM    4  C   UNL     1     -11.840  15.244  71.459  1.00  0.00    -0.380 C  
BRANCH   4   5
HETATM    5  C   UNL     1     -12.398  15.125  70.032  1.00  0.00    -0.315 C  
BRANCH   5   6
HETATM    6  O   UNL     1     -11.355  14.683  69.156  1.00  0.00    -0.252 OA 
BRANCH   6   7
HETATM    7  C   UNL     1     -11.862  14.416  67.853  1.00  0.00    -0.349 C  
BRANCH   7   8
HETATM    8  C   UNL     1     -11.520  12.996  67.414  1.00  0.00    -0.332 C  
HETATM    9  N   UNL     1     -10.508  12.416  68.158  1.00  0.00    -0.213 N  
HETATM   10  O   UNL     1     -12.134  12.431  66.516  1.00  0.00    -0.599 OA 
HETATM   11  H   UNL     1     -10.099  12.965  68.914  1.00  0.00     0.000 HD 
BRANCH   9  12
HETATM   12  C   UNL     1      -9.985  11.067  67.932  1.00  0.00    -0.174 C  
HETATM   13  C   UNL     1      -9.881  10.739  66.422  1.00  0.00    -0.254 C  
HETATM   14  C   UNL     1      -9.308   9.326  66.214  1.00  0.00    -0.257 C  
HETATM   15  C   UNL     1      -7.902   9.252  66.827  1.00  0.00    -0.104 C  
HETATM   16  C   UNL     1      -7.967   9.562  68.333  1.00  0.00    -0.093 C  
HETATM   17  C   UNL     1      -8.876   8.531  69.019  1.00  0.00    -0.145 C  
HETATM   18  C   UNL     1      -8.556  10.972  68.534  1.00  0.00    -0.158 C  
HETATM   19  C   UNL     1     -10.289   8.594  68.420  1.00  0.00    -0.239 C  
HETATM   20  C   UNL     1     -10.865  10.002  68.633  1.00  0.00    -0.265 C  
HETATM   21  C   UNL     1     -10.221   8.302  66.910  1.00  0.00    -0.388 C  
ENDBRANCH   9  12
ENDBRANCH   7   8
ENDBRANCH   6   7
ENDBRANCH   5   6
ENDBRANCH   4   5
ENDBRANCH   2   4
TORSDOF 6
ENDMDL
MODEL       66
REMARK 921   NORMALIZED FREE ENERGY PREDICTED BY IDOCK:   -4.45 KCAL/MOL
REMARK 922        TOTAL FREE ENERGY PREDICTED BY IDOCK:   -5.85 KCAL/MOL
REMARK 923 INTER-LIGAND FREE ENERGY PREDICTED BY IDOCK:   -5.91 KCAL/MOL
REMARK 924 INTRA-LIGAND FREE ENERGY PREDICTED BY IDOCK:    0.06 KCAL/MOL
REMARK 927      BINDING AFFINITY PREDICTED BY RF-SCORE:    0.00 PKD
ROOT
HETATM    1  C   UNL     1     -11.268  16.239  68.391  1.00  0.00    -0.349 C  
HETATM    2  N   UNL     1     -11.781  15.001  67.796  1.00  0.00    -0.324 NA 
HETATM    3  C   UNL     1     -11.093  14.745  66.528  1.00  0.00    -0.334 C  
ENDROOT
BRANCH   2   4
HETATM    4  C   UNL     1     -11.618  13.890  68.753  1.00  0.00    -0.335 C  
BRANCH   4   5
HETATM    5  C   UNL     1     -12.184  14.164  70.155  1.00  0.00    -0.351 C  
BRANCH   5   6
HETATM    6  O   UNL     1     -12.309  12.924  70.861  1.00  0.00    -0.370 OA 
BRANCH   6   7
HETATM    7  C   UNL     1     -12.027  11.820  70.007  1.00  0.00    -0.344 C  
BRANCH   7   8
HETATM    8  C   UNL     1     -11.931  10.524  70.805  1.00  0.00    -0.370 C  
HETATM    9  N   UNL     1     -10.914   9.687  70.381  1.00  0.00    -0.275 N  
HETATM   10  O   UNL     1     -12.668  10.295  71.757  1.00  0.00    -0.408 OA 
HETATM   11  H   UNL     1     -10.331  10.002  69.606  1.00  0.00     0.000 HD 
BRANCH   9  12
HETATM   12  C   UNL     1     -10.618   8.380  70.972  1.00  0.00    -0.214 C  
HETATM   13  C   UNL     1     -11.895   7.513  71.110  1.00  0.00    -0.324 C  
HETATM   14  C   UNL     1     -11.552   6.139  71.712  1.00  0.00    -0.333 C  
HETATM   15  C   UNL     1     -10.566   5.411  70.787  1.00  0.00    -0.293 C  
HETATM   16  C   UNL     1      -9.278   6.239  70.633  1.00  0.00    -0.164 C  
HETATM   17  C   UNL     1      -8.634   6.427  72.015  1.00  0.00    -0.126 C  
HETATM   18  C   UNL     1      -9.631   7.619  70.046  1.00  0.00    -0.164 C  
HETATM   19  C   UNL     1      -9.606   7.158  72.953  1.00  0.00    -0.188 C  
HETATM   20  C   UNL     1      -9.945   8.533  72.358  1.00  0.00    -0.365 C  
HETATM   21  C   UNL     1     -10.902   6.339  73.092  1.00  0.00    -0.281 C  
ENDBRANCH   9  12
ENDBRANCH   7   8
ENDBRANCH   6   7
ENDBRANCH   5   6
ENDBRANCH   4   5
ENDBRANCH   2   4
TORSDOF 6
ENDMDL
MODEL       67
REMARK 921   NORMALIZED FREE ENERGY PREDICTED BY IDOCK:   -4.44 KCAL/MOL
REMARK 922        TOTAL FREE ENERGY PREDICTED BY IDOCK:   -5.84 KCAL/MOL
REMARK 923 INTER-LIGAND FREE ENERGY PREDICTED BY IDOCK:   -5.67 KCAL/MOL
REMARK 924 INTRA-LIGAND FREE ENERGY PREDICTED BY IDOCK:   -0.17 KCAL/MOL
REMARK 927      BINDING AFFINITY PREDICTED BY RF-SCORE:    0.00 PKD
ROOT
HETATM    1  C   UNL     1      -6.097  20.002  70.661  1.00  0.00    -0.315 C  
HETATM    2  N   UNL     1      -5.875  19.617  69.263  1.00  0.00    -0.238 NA 
HETATM    3  C   UNL     1      -5.747  18.161  69.169  1.00  0.00    -0.211 C  
ENDROOT
BRANCH   2   4
HETATM    4  C   UNL     1      -6.978  20.135  68.429  1.00  0.00    -0.270 C  
BRANCH   4   5
HETATM    5  C   UNL     1      -8.372  19.617  68.817  1.00  0.00    -0.245 C  
BRANCH   5   6
HETATM    6  O   UNL     1      -9.166  19.477  67.634  1.00  0.00    -0.301 OA 
BRANCH   6   7
HETATM    7  C   UNL     1      -8.389  18.967  66.555  1.00  0.00    -0.302 C  
BRANCH   7   8
HETATM    8  C   UNL     1      -8.525  17.451  66.453  1.00  0.00    -0.257 C  
HETATM    9  N   UNL     1      -9.774  16.982  66.821  1.00  0.00    -0.258 N  
HETATM   10  O   UNL     1      -7.613  16.746  66.035  1.00  0.00    -0.236 OA 
HETATM   11  H   UNL     1     -10.473  17.666  67.109  1.00  0.00     0.000 HD 
BRANCH   9  12
HETATM   12  C   UNL     1     -10.159  15.569  66.823  1.00  0.00    -0.264 C  
HETATM   13  C   UNL     1      -9.125  14.696  67.578  1.00  0.00    -0.192 C  
HETATM   14  C   UNL     1      -9.565  13.222  67.585  1.00  0.00    -0.213 C  
HETATM   15  C   UNL     1     -10.921  13.099  68.297  1.00  0.00    -0.278 C  
HETATM   16  C   UNL     1     -11.978  13.946  67.568  1.00  0.00    -0.421 C  
HETATM   17  C   UNL     1     -12.115  13.443  66.122  1.00  0.00    -0.481 C  
HETATM   18  C   UNL     1     -11.523  15.418  67.551  1.00  0.00    -0.228 C  
HETATM   19  C   UNL     1     -10.769  13.562  65.394  1.00  0.00    -0.308 C  
HETATM   20  C   UNL     1     -10.331  15.034  65.380  1.00  0.00    -0.410 C  
HETATM   21  C   UNL     1      -9.707  12.729  66.134  1.00  0.00    -0.246 C  
ENDBRANCH   9  12
ENDBRANCH   7   8
ENDBRANCH   6   7
ENDBRANCH   5   6
ENDBRANCH   4   5
ENDBRANCH   2   4
TORSDOF 6
ENDMDL
MODEL       68
REMARK 921   NORMALIZED FREE ENERGY PREDICTED BY IDOCK:   -4.41 KCAL/MOL
REMARK 922        TOTAL FREE ENERGY PREDICTED BY IDOCK:   -5.80 KCAL/MOL
REMARK 923 INTER-LIGAND FREE ENERGY PREDICTED BY IDOCK:   -5.76 KCAL/MOL
REMARK 924 INTRA-LIGAND FREE ENERGY PREDICTED BY IDOCK:   -0.04 KCAL/MOL
REMARK 927      BINDING AFFINITY PREDICTED BY RF-SCORE:    0.00 PKD
ROOT
HETATM    1  C   UNL     1     -12.468  14.339  64.896  1.00  0.00    -0.390 C  
HETATM    2  N   UNL     1     -12.623  12.883  64.821  1.00  0.00    -0.649 NA 
HETATM    3  C   UNL     1     -12.201  12.411  63.500  1.00  0.00    -0.563 C  
ENDROOT
BRANCH   2   4
HETATM    4  C   UNL     1     -11.855  12.248  65.911  1.00  0.00    -0.354 C  
BRANCH   4   5
HETATM    5  C   UNL     1     -10.576  12.998  66.313  1.00  0.00    -0.271 C  
BRANCH   5   6
HETATM    6  O   UNL     1      -9.494  12.064  66.403  1.00  0.00    -0.221 OA 
BRANCH   6   7
HETATM    7  C   UNL     1      -9.933  10.744  66.099  1.00  0.00    -0.232 C  
BRANCH   7   8
HETATM    8  C   UNL     1      -9.657   9.796  67.261  1.00  0.00    -0.157 C  
HETATM    9  N   UNL     1     -10.724   9.662  68.131  1.00  0.00    -0.327 N  
HETATM   10  O   UNL     1      -8.597   9.187  67.361  1.00  0.00    -0.115 OA 
HETATM   11  H   UNL     1     -11.576  10.182  67.923  1.00  0.00     0.000 HD 
BRANCH   9  12
HETATM   12  C   UNL     1     -10.712   8.821  69.331  1.00  0.00    -0.169 C  
HETATM   13  C   UNL     1      -9.401   8.996  70.138  1.00  0.00    -0.213 C  
HETATM   14  C   UNL     1      -9.425   8.120  71.403  1.00  0.00    -0.211 C  
HETATM   15  C   UNL     1     -10.605   8.542  72.291  1.00  0.00    -0.408 C  
HETATM   16  C   UNL     1     -11.928   8.372  71.525  1.00  0.00    -0.344 C  
HETATM   17  C   UNL     1     -12.093   6.897  71.128  1.00  0.00    -0.428 C  
HETATM   18  C   UNL     1     -11.890   9.239  70.252  1.00  0.00    -0.015 C  
HETATM   19  C   UNL     1     -10.923   6.459  70.235  1.00  0.00    -0.378 C  
HETATM   20  C   UNL     1     -10.901   7.328  68.968  1.00  0.00    -0.137 C  
HETATM   21  C   UNL     1      -9.597   6.647  70.995  1.00  0.00    -0.178 C  
ENDBRANCH   9  12
ENDBRANCH   7   8
ENDBRANCH   6   7
ENDBRANCH   5   6
ENDBRANCH   4   5
ENDBRANCH   2   4
TORSDOF 6
ENDMDL
MODEL       69
REMARK 921   NORMALIZED FREE ENERGY PREDICTED BY IDOCK:   -4.41 KCAL/MOL
REMARK 922        TOTAL FREE ENERGY PREDICTED BY IDOCK:   -5.79 KCAL/MOL
REMARK 923 INTER-LIGAND FREE ENERGY PREDICTED BY IDOCK:   -5.29 KCAL/MOL
REMARK 924 INTRA-LIGAND FREE ENERGY PREDICTED BY IDOCK:   -0.50 KCAL/MOL
REMARK 927      BINDING AFFINITY PREDICTED BY RF-SCORE:    0.00 PKD
ROOT
HETATM    1  C   UNL     1     -10.200  16.018  67.543  1.00  0.00    -0.275 C  
HETATM    2  N   UNL     1     -10.254  15.529  68.924  1.00  0.00    -0.202 NA 
HETATM    3  C   UNL     1      -8.900  15.476  69.479  1.00  0.00    -0.229 C  
ENDROOT
BRANCH   2   4
HETATM    4  C   UNL     1     -11.149  16.393  69.718  1.00  0.00    -0.305 C  
BRANCH   4   5
HETATM    5  C   UNL     1     -11.988  15.652  70.770  1.00  0.00    -0.398 C  
BRANCH   5   6
HETATM    6  O   UNL     1     -12.646  14.542  70.148  1.00  0.00    -0.341 OA 
BRANCH   6   7
HETATM    7  C   UNL     1     -12.557  13.376  70.961  1.00  0.00    -0.343 C  
BRANCH   7   8
HETATM    8  C   UNL     1     -12.035  12.189  70.157  1.00  0.00    -0.314 C  
HETATM    9  N   UNL     1     -10.934  12.491  69.376  1.00  0.00    -0.450 N  
HETATM   10  O   UNL     1     -12.536  11.074  70.252  1.00  0.00    -0.305 OA 
HETATM   11  H   UNL     1     -10.573  13.444  69.411  1.00  0.00     0.000 HD 
BRANCH   9  12
HETATM   12  C   UNL     1     -10.252  11.533  68.503  1.00  0.00    -0.213 C  
HETATM   13  C   UNL     1      -9.865  10.240  69.265  1.00  0.00    -0.244 C  
HETATM   14  C   UNL     1      -9.171   9.244  68.320  1.00  0.00    -0.134 C  
HETATM   15  C   UNL     1     -10.132   8.870  67.181  1.00  0.00    -0.316 C  
HETATM   16  C   UNL     1     -10.532  10.130  66.394  1.00  0.00    -0.210 C  
HETATM   17  C   UNL     1      -9.269  10.774  65.802  1.00  0.00    -0.215 C  
HETATM   18  C   UNL     1     -11.211  11.129  67.350  1.00  0.00    -0.363 C  
HETATM   19  C   UNL     1      -8.297  11.158  66.928  1.00  0.00    -0.147 C  
HETATM   20  C   UNL     1      -8.985  12.158  67.869  1.00  0.00    -0.184 C  
HETATM   21  C   UNL     1      -7.912   9.900  67.727  1.00  0.00    -0.105 C  
ENDBRANCH   9  12
ENDBRANCH   7   8
ENDBRANCH   6   7
ENDBRANCH   5   6
ENDBRANCH   4   5
ENDBRANCH   2   4
TORSDOF 6
ENDMDL
MODEL       70
REMARK 921   NORMALIZED FREE ENERGY PREDICTED BY IDOCK:   -4.39 KCAL/MOL
REMARK 922        TOTAL FREE ENERGY PREDICTED BY IDOCK:   -5.77 KCAL/MOL
REMARK 923 INTER-LIGAND FREE ENERGY PREDICTED BY IDOCK:   -5.90 KCAL/MOL
REMARK 924 INTRA-LIGAND FREE ENERGY PREDICTED BY IDOCK:    0.13 KCAL/MOL
REMARK 927      BINDING AFFINITY PREDICTED BY RF-SCORE:    0.00 PKD
ROOT
HETATM    1  C   UNL     1     -11.386  15.003  69.244  1.00  0.00    -0.296 C  
HETATM    2  N   UNL     1     -12.138  13.810  68.841  1.00  0.00    -0.350 NA 
HETATM    3  C   UNL     1     -11.693  13.375  67.515  1.00  0.00    -0.366 C  
ENDROOT
BRANCH   2   4
HETATM    4  C   UNL     1     -11.970  12.755  69.859  1.00  0.00    -0.298 C  
BRANCH   4   5
HETATM    5  C   UNL     1     -12.772  12.978  71.151  1.00  0.00    -0.283 C  
BRANCH   5   6
HETATM    6  O   UNL     1     -13.003  11.715  71.784  1.00  0.00    -0.435 OA 
BRANCH   6   7
HETATM    7  C   UNL     1     -12.779  10.640  70.876  1.00  0.00    -0.404 C  
BRANCH   7   8
HETATM    8  C   UNL     1     -12.380   9.371  71.620  1.00  0.00    -0.385 C  
HETATM    9  N   UNL     1     -11.172   8.841  71.202  1.00  0.00    -0.260 N  
HETATM   10  O   UNL     1     -13.061   8.914  72.531  1.00  0.00    -0.422 OA 
HETATM   11  H   UNL     1     -10.666   9.333  70.465  1.00  0.00     0.000 HD 
BRANCH   9  12
HETATM   12  C   UNL     1     -10.570   7.622  71.747  1.00  0.00    -0.214 C  
HETATM   13  C   UNL     1     -10.685   7.569  73.291  1.00  0.00    -0.437 C  
HETATM   14  C   UNL     1     -10.067   6.269  73.834  1.00  0.00    -0.283 C  
HETATM   15  C   UNL     1     -10.818   5.064  73.247  1.00  0.00    -0.356 C  
HETATM   16  C   UNL     1     -10.717   5.078  71.712  1.00  0.00    -0.150 C  
HETATM   17  C   UNL     1      -9.237   5.002  71.306  1.00  0.00    -0.186 C  
HETATM   18  C   UNL     1     -11.323   6.389  71.176  1.00  0.00    -0.376 C  
HETATM   19  C   UNL     1      -8.471   6.202  71.881  1.00  0.00    -0.129 C  
HETATM   20  C   UNL     1      -9.082   7.501  71.335  1.00  0.00    -0.145 C  
HETATM   21  C   UNL     1      -8.588   6.199  73.416  1.00  0.00    -0.122 C  
ENDBRANCH   9  12
ENDBRANCH   7   8
ENDBRANCH   6   7
ENDBRANCH   5   6
ENDBRANCH   4   5
ENDBRANCH   2   4
TORSDOF 6
ENDMDL
MODEL       71
REMARK 921   NORMALIZED FREE ENERGY PREDICTED BY IDOCK:   -4.39 KCAL/MOL
REMARK 922        TOTAL FREE ENERGY PREDICTED BY IDOCK:   -5.77 KCAL/MOL
REMARK 923 INTER-LIGAND FREE ENERGY PREDICTED BY IDOCK:   -5.89 KCAL/MOL
REMARK 924 INTRA-LIGAND FREE ENERGY PREDICTED BY IDOCK:    0.12 KCAL/MOL
REMARK 927      BINDING AFFINITY PREDICTED BY RF-SCORE:    0.00 PKD
ROOT
HETATM    1  C   UNL     1     -11.385  14.997  69.243  1.00  0.00    -0.296 C  
HETATM    2  N   UNL     1     -12.144  13.809  68.841  1.00  0.00    -0.350 NA 
HETATM    3  C   UNL     1     -11.694  13.361  67.521  1.00  0.00    -0.366 C  
ENDROOT
BRANCH   2   4
HETATM    4  C   UNL     1     -11.995  12.758  69.867  1.00  0.00    -0.298 C  
BRANCH   4   5
HETATM    5  C   UNL     1     -12.804  12.997  71.151  1.00  0.00    -0.245 C  
BRANCH   5   6
HETATM    6  O   UNL     1     -13.056  11.740  71.787  1.00  0.00    -0.463 OA 
BRANCH   6   7
HETATM    7  C   UNL     1     -12.840  10.659  70.885  1.00  0.00    -0.382 C  
BRANCH   7   8
HETATM    8  C   UNL     1     -12.479   9.383  71.638  1.00  0.00    -0.378 C  
HETATM    9  N   UNL     1     -11.276   8.827  71.241  1.00  0.00    -0.264 N  
HETATM   10  O   UNL     1     -13.185   8.943  72.539  1.00  0.00    -0.426 OA 
HETATM   11  H   UNL     1     -10.749   9.306  70.512  1.00  0.00     0.000 HD 
BRANCH   9  12
HETATM   12  C   UNL     1     -10.709   7.597  71.799  1.00  0.00    -0.216 C  
HETATM   13  C   UNL     1      -9.536   7.066  70.938  1.00  0.00    -0.167 C  
HETATM   14  C   UNL     1      -8.947   5.788  71.558  1.00  0.00    -0.146 C  
HETATM   15  C   UNL     1      -8.415   6.104  72.965  1.00  0.00    -0.118 C  
HETATM   16  C   UNL     1      -9.557   6.625  73.854  1.00  0.00    -0.236 C  
HETATM   17  C   UNL     1     -10.649   5.549  73.952  1.00  0.00    -0.304 C  
HETATM   18  C   UNL     1     -10.154   7.896  73.218  1.00  0.00    -0.313 C  
HETATM   19  C   UNL     1     -11.194   5.223  72.555  1.00  0.00    -0.272 C  
HETATM   20  C   UNL     1     -11.790   6.496  71.935  1.00  0.00    -0.381 C  
HETATM   21  C   UNL     1     -10.048   4.719  71.659  1.00  0.00    -0.264 C  
ENDBRANCH   9  12
ENDBRANCH   7   8
ENDBRANCH   6   7
ENDBRANCH   5   6
ENDBRANCH   4   5
ENDBRANCH   2   4
TORSDOF 6
ENDMDL
MODEL       72
REMARK 921   NORMALIZED FREE ENERGY PREDICTED BY IDOCK:   -4.37 KCAL/MOL
REMARK 922        TOTAL FREE ENERGY PREDICTED BY IDOCK:   -5.73 KCAL/MOL
REMARK 923 INTER-LIGAND FREE ENERGY PREDICTED BY IDOCK:   -5.04 KCAL/MOL
REMARK 924 INTRA-LIGAND FREE ENERGY PREDICTED BY IDOCK:   -0.69 KCAL/MOL
REMARK 927      BINDING AFFINITY PREDICTED BY RF-SCORE:    0.00 PKD
ROOT
HETATM    1  C   UNL     1     -11.891  12.051  69.380  1.00  0.00    -0.324 C  
HETATM    2  N   UNL     1     -10.745  11.599  68.585  1.00  0.00    -0.204 NA 
HETATM    3  C   UNL     1     -11.220  10.855  67.417  1.00  0.00    -0.273 C  
ENDROOT
BRANCH   2   4
HETATM    4  C   UNL     1      -9.919  12.763  68.206  1.00  0.00    -0.230 C  
BRANCH   4   5
HETATM    5  C   UNL     1      -8.460  12.428  67.861  1.00  0.00    -0.166 C  
BRANCH   5   6
HETATM    6  O   UNL     1      -7.931  11.552  68.862  1.00  0.00    -0.131 OA 
BRANCH   6   7
HETATM    7  C   UNL     1      -7.435  10.351  68.280  1.00  0.00    -0.090 C  
BRANCH   7   8
HETATM    8  C   UNL     1      -8.125   9.129  68.877  1.00  0.00    -0.100 C  
HETATM    9  N   UNL     1      -9.040   9.439  69.867  1.00  0.00    -0.187 N  
HETATM   10  O   UNL     1      -7.904   7.995  68.464  1.00  0.00    -0.110 OA 
HETATM   11  H   UNL     1      -9.177  10.423  70.097  1.00  0.00     0.000 HD 
BRANCH   9  12
HETATM   12  C   UNL     1      -9.826   8.448  70.605  1.00  0.00    -0.181 C  
HETATM   13  C   UNL     1      -8.926   7.538  71.477  1.00  0.00    -0.142 C  
HETATM   14  C   UNL     1      -9.779   6.524  72.258  1.00  0.00    -0.159 C  
HETATM   15  C   UNL     1     -10.749   7.277  73.181  1.00  0.00    -0.411 C  
HETATM   16  C   UNL     1     -11.669   8.186  72.347  1.00  0.00    -0.461 C  
HETATM   17  C   UNL     1     -12.471   7.321  71.363  1.00  0.00    -0.418 C  
HETATM   18  C   UNL     1     -10.807   9.189  71.555  1.00  0.00    -0.436 C  
HETATM   19  C   UNL     1     -11.517   6.563  70.430  1.00  0.00    -0.465 C  
HETATM   20  C   UNL     1     -10.668   7.574  69.644  1.00  0.00    -0.236 C  
HETATM   21  C   UNL     1     -10.584   5.668  71.265  1.00  0.00    -0.321 C  
ENDBRANCH   9  12
ENDBRANCH   7   8
ENDBRANCH   6   7
ENDBRANCH   5   6
ENDBRANCH   4   5
ENDBRANCH   2   4
TORSDOF 6
ENDMDL
MODEL       73
REMARK 921   NORMALIZED FREE ENERGY PREDICTED BY IDOCK:   -4.34 KCAL/MOL
REMARK 922        TOTAL FREE ENERGY PREDICTED BY IDOCK:   -5.71 KCAL/MOL
REMARK 923 INTER-LIGAND FREE ENERGY PREDICTED BY IDOCK:   -5.71 KCAL/MOL
REMARK 924 INTRA-LIGAND FREE ENERGY PREDICTED BY IDOCK:    0.00 KCAL/MOL
REMARK 927      BINDING AFFINITY PREDICTED BY RF-SCORE:    0.00 PKD
ROOT
HETATM    1  C   UNL     1     -12.002  14.105  67.000  1.00  0.00    -0.439 C  
HETATM    2  N   UNL     1     -11.839  12.659  66.822  1.00  0.00    -0.473 NA 
HETATM    3  C   UNL     1     -10.611  12.393  66.068  1.00  0.00    -0.256 C  
ENDROOT
BRANCH   2   4
HETATM    4  C   UNL     1     -11.837  11.997  68.142  1.00  0.00    -0.286 C  
BRANCH   4   5
HETATM    5  C   UNL     1     -11.686  12.951  69.336  1.00  0.00    -0.321 C  
BRANCH   5   6
HETATM    6  O   UNL     1     -12.263  12.343  70.497  1.00  0.00    -0.361 OA 
BRANCH   6   7
HETATM    7  C   UNL     1     -12.900  11.113  70.167  1.00  0.00    -0.004 C  
BRANCH   7   8
HETATM    8  C   UNL     1     -12.436   9.992  71.090  1.00  0.00    -0.379 C  
HETATM    9  N   UNL     1     -11.511   9.144  70.508  1.00  0.00    -0.335 N  
HETATM   10  O   UNL     1     -12.827   9.905  72.249  1.00  0.00    -0.360 OA 
HETATM   11  H   UNL     1     -11.222   9.340  69.550  1.00  0.00     0.000 HD 
BRANCH   9  12
HETATM   12  C   UNL     1     -10.918   7.984  71.178  1.00  0.00    -0.243 C  
HETATM   13  C   UNL     1     -10.200   8.386  72.490  1.00  0.00    -0.369 C  
HETATM   14  C   UNL     1      -9.607   7.146  73.183  1.00  0.00    -0.213 C  
HETATM   15  C   UNL     1     -10.738   6.165  73.526  1.00  0.00    -0.263 C  
HETATM   16  C   UNL     1     -11.469   5.735  72.242  1.00  0.00    -0.320 C  
HETATM   17  C   UNL     1     -10.468   5.048  71.301  1.00  0.00    -0.213 C  
HETATM   18  C   UNL     1     -12.046   6.982  71.546  1.00  0.00    -0.392 C  
HETATM   19  C   UNL     1      -9.331   6.016  70.944  1.00  0.00    -0.175 C  
HETATM   20  C   UNL     1      -9.920   7.252  70.246  1.00  0.00    -0.188 C  
HETATM   21  C   UNL     1      -8.612   6.462  72.230  1.00  0.00    -0.117 C  
ENDBRANCH   9  12
ENDBRANCH   7   8
ENDBRANCH   6   7
ENDBRANCH   5   6
ENDBRANCH   4   5
ENDBRANCH   2   4
TORSDOF 6
ENDMDL
MODEL       74
REMARK 921   NORMALIZED FREE ENERGY PREDICTED BY IDOCK:   -4.32 KCAL/MOL
REMARK 922        TOTAL FREE ENERGY PREDICTED BY IDOCK:   -5.68 KCAL/MOL
REMARK 923 INTER-LIGAND FREE ENERGY PREDICTED BY IDOCK:   -5.64 KCAL/MOL
REMARK 924 INTRA-LIGAND FREE ENERGY PREDICTED BY IDOCK:   -0.04 KCAL/MOL
REMARK 927      BINDING AFFINITY PREDICTED BY RF-SCORE:    0.00 PKD
ROOT
HETATM    1  C   UNL     1      -9.083  10.543  64.886  1.00  0.00    -0.205 C  
HETATM    2  N   UNL     1     -10.403  11.003  65.327  1.00  0.00    -0.275 NA 
HETATM    3  C   UNL     1     -10.297  11.589  66.666  1.00  0.00    -0.226 C  
ENDROOT
BRANCH   2   4
HETATM    4  C   UNL     1     -10.946  11.959  64.342  1.00  0.00    -0.337 C  
BRANCH   4   5
HETATM    5  C   UNL     1     -11.498  13.259  64.947  1.00  0.00    -0.318 C  
BRANCH   5   6
HETATM    6  O   UNL     1     -10.720  14.364  64.473  1.00  0.00    -0.371 OA 
BRANCH   6   7
HETATM    7  C   UNL     1     -10.973  15.534  65.244  1.00  0.00    -0.380 C  
BRANCH   7   8
HETATM    8  C   UNL     1      -9.701  16.023  65.929  1.00  0.00    -0.343 C  
HETATM    9  N   UNL     1      -9.660  17.394  66.106  1.00  0.00    -0.232 N  
HETATM   10  O   UNL     1      -8.837  15.245  66.318  1.00  0.00    -0.297 OA 
HETATM   11  H   UNL     1     -10.459  17.940  65.783  1.00  0.00     0.000 HD 
BRANCH   9  12
HETATM   12  C   UNL     1      -8.545  18.115  66.726  1.00  0.00    -0.259 C  
HETATM   13  C   UNL     1      -7.230  17.930  65.928  1.00  0.00    -0.277 C  
HETATM   14  C   UNL     1      -6.084  18.715  66.589  1.00  0.00    -0.177 C  
HETATM   15  C   UNL     1      -6.436  20.210  66.609  1.00  0.00    -0.233 C  
HETATM   16  C   UNL     1      -7.734  20.434  67.403  1.00  0.00    -0.364 C  
HETATM   17  C   UNL     1      -7.533  19.939  68.844  1.00  0.00    -0.233 C  
HETATM   18  C   UNL     1      -8.874  19.633  66.746  1.00  0.00    -0.396 C  
HETATM   19  C   UNL     1      -7.184  18.444  68.843  1.00  0.00    -0.286 C  
HETATM   20  C   UNL     1      -8.331  17.658  68.190  1.00  0.00    -0.259 C  
HETATM   21  C   UNL     1      -5.895  18.218  68.032  1.00  0.00    -0.165 C  
ENDBRANCH   9  12
ENDBRANCH   7   8
ENDBRANCH   6   7
ENDBRANCH   5   6
ENDBRANCH   4   5
ENDBRANCH   2   4
TORSDOF 6
ENDMDL
MODEL       75
REMARK 921   NORMALIZED FREE ENERGY PREDICTED BY IDOCK:   -4.32 KCAL/MOL
REMARK 922        TOTAL FREE ENERGY PREDICTED BY IDOCK:   -5.67 KCAL/MOL
REMARK 923 INTER-LIGAND FREE ENERGY PREDICTED BY IDOCK:   -5.72 KCAL/MOL
REMARK 924 INTRA-LIGAND FREE ENERGY PREDICTED BY IDOCK:    0.05 KCAL/MOL
REMARK 927      BINDING AFFINITY PREDICTED BY RF-SCORE:    0.00 PKD
ROOT
HETATM    1  C   UNL     1      -9.845   7.454  66.761  1.00  0.00    -0.220 C  
HETATM    2  N   UNL     1     -10.078   8.901  66.818  1.00  0.00    -0.262 NA 
HETATM    3  C   UNL     1     -10.010   9.355  68.209  1.00  0.00    -0.174 C  
ENDROOT
BRANCH   2   4
HETATM    4  C   UNL     1      -9.096   9.592  65.958  1.00  0.00    -0.176 C  
BRANCH   4   5
HETATM    5  C   UNL     1      -9.713  10.527  64.907  1.00  0.00    -0.300 C  
BRANCH   5   6
HETATM    6  O   UNL     1     -10.220  11.696  65.559  1.00  0.00    -0.239 OA 
BRANCH   6   7
HETATM    7  C   UNL     1     -10.491  12.729  64.617  1.00  0.00    -0.350 C  
BRANCH   7   8
HETATM    8  C   UNL     1     -10.731  14.061  65.320  1.00  0.00    -0.358 C  
HETATM    9  N   UNL     1      -9.575  14.788  65.536  1.00  0.00    -0.498 N  
HETATM   10  O   UNL     1     -11.859  14.444  65.610  1.00  0.00    -0.353 OA 
HETATM   11  H   UNL     1      -8.694  14.391  65.210  1.00  0.00     0.000 HD 
BRANCH   9  12
HETATM   12  C   UNL     1      -9.531  16.093  66.202  1.00  0.00    -0.327 C  
HETATM   13  C   UNL     1      -9.958  15.991  67.687  1.00  0.00    -0.239 C  
HETATM   14  C   UNL     1      -9.881  17.369  68.367  1.00  0.00    -0.316 C  
HETATM   15  C   UNL     1      -8.435  17.885  68.309  1.00  0.00    -0.280 C  
HETATM   16  C   UNL     1      -7.979  18.009  66.846  1.00  0.00    -0.251 C  
HETATM   17  C   UNL     1      -8.900  18.997  66.114  1.00  0.00    -0.194 C  
HETATM   18  C   UNL     1      -8.074  16.629  66.167  1.00  0.00    -0.273 C  
HETATM   19  C   UNL     1     -10.351  18.495  66.158  1.00  0.00    -0.457 C  
HETATM   20  C   UNL     1     -10.431  17.121  65.474  1.00  0.00    -0.158 C  
HETATM   21  C   UNL     1     -10.801  18.353  67.623  1.00  0.00    -0.295 C  
ENDBRANCH   9  12
ENDBRANCH   7   8
ENDBRANCH   6   7
ENDBRANCH   5   6
ENDBRANCH   4   5
ENDBRANCH   2   4
TORSDOF 6
ENDMDL
MODEL       76
REMARK 921   NORMALIZED FREE ENERGY PREDICTED BY IDOCK:   -4.32 KCAL/MOL
REMARK 922        TOTAL FREE ENERGY PREDICTED BY IDOCK:   -5.67 KCAL/MOL
REMARK 923 INTER-LIGAND FREE ENERGY PREDICTED BY IDOCK:   -5.80 KCAL/MOL
REMARK 924 INTRA-LIGAND FREE ENERGY PREDICTED BY IDOCK:    0.13 KCAL/MOL
REMARK 927      BINDING AFFINITY PREDICTED BY RF-SCORE:    0.00 PKD
ROOT
HETATM    1  C   UNL     1     -11.982  11.189  68.945  1.00  0.00    -0.298 C  
HETATM    2  N   UNL     1     -10.627  10.838  68.508  1.00  0.00    -0.182 NA 
HETATM    3  C   UNL     1     -10.665   9.588  67.745  1.00  0.00    -0.242 C  
ENDROOT
BRANCH   2   4
HETATM    4  C   UNL     1     -10.058  11.952  67.725  1.00  0.00    -0.191 C  
BRANCH   4   5
HETATM    5  C   UNL     1      -8.623  12.341  68.114  1.00  0.00    -0.181 C  
BRANCH   5   6
HETATM    6  O   UNL     1      -8.080  13.200  67.105  1.00  0.00    -0.168 OA 
BRANCH   6   7
HETATM    7  C   UNL     1      -6.976  13.945  67.609  1.00  0.00    -0.175 C  
BRANCH   7   8
HETATM    8  C   UNL     1      -7.163  15.437  67.356  1.00  0.00    -0.209 C  
HETATM    9  N   UNL     1      -8.397  15.916  67.758  1.00  0.00    -0.148 N  
HETATM   10  O   UNL     1      -6.268  16.130  66.885  1.00  0.00    -0.316 OA 
HETATM   11  H   UNL     1      -9.049  15.255  68.182  1.00  0.00     0.000 HD 
BRANCH   9  12
HETATM   12  C   UNL     1      -8.831  17.308  67.616  1.00  0.00    -0.220 C  
HETATM   13  C   UNL     1     -10.357  17.457  67.833  1.00  0.00    -0.369 C  
HETATM   14  C   UNL     1     -10.780  18.930  67.700  1.00  0.00    -0.469 C  
HETATM   15  C   UNL     1     -10.051  19.766  68.763  1.00  0.00    -0.523 C  
HETATM   16  C   UNL     1      -8.529  19.651  68.572  1.00  0.00    -0.334 C  
HETATM   17  C   UNL     1      -8.158  20.170  67.174  1.00  0.00    -0.370 C  
HETATM   18  C   UNL     1      -8.115  18.171  68.690  1.00  0.00    -0.301 C  
HETATM   19  C   UNL     1      -8.875  19.342  66.098  1.00  0.00    -0.301 C  
HETATM   20  C   UNL     1      -8.449  17.871  66.224  1.00  0.00    -0.218 C  
HETATM   21  C   UNL     1     -10.398  19.442  66.301  1.00  0.00    -0.584 C  
ENDBRANCH   9  12
ENDBRANCH   7   8
ENDBRANCH   6   7
ENDBRANCH   5   6
ENDBRANCH   4   5
ENDBRANCH   2   4
TORSDOF 6
ENDMDL
MODEL       77
REMARK 921   NORMALIZED FREE ENERGY PREDICTED BY IDOCK:   -4.31 KCAL/MOL
REMARK 922        TOTAL FREE ENERGY PREDICTED BY IDOCK:   -5.66 KCAL/MOL
REMARK 923 INTER-LIGAND FREE ENERGY PREDICTED BY IDOCK:   -5.50 KCAL/MOL
REMARK 924 INTRA-LIGAND FREE ENERGY PREDICTED BY IDOCK:   -0.16 KCAL/MOL
REMARK 927      BINDING AFFINITY PREDICTED BY RF-SCORE:    0.00 PKD
ROOT
HETATM    1  C   UNL     1     -10.990   6.325  67.157  1.00  0.00    -0.370 C  
HETATM    2  N   UNL     1     -10.244   7.496  66.686  1.00  0.00    -0.231 NA 
HETATM    3  C   UNL     1     -10.306   8.556  67.695  1.00  0.00    -0.253 C  
ENDROOT
BRANCH   2   4
HETATM    4  C   UNL     1      -8.856   7.103  66.374  1.00  0.00    -0.145 C  
BRANCH   4   5
HETATM    5  C   UNL     1      -8.001   8.215  65.748  1.00  0.00    -0.105 C  
BRANCH   5   6
HETATM    6  O   UNL     1      -8.476   8.483  64.424  1.00  0.00    -0.154 OA 
BRANCH   6   7
HETATM    7  C   UNL     1      -8.275   9.850  64.077  1.00  0.00    -0.159 C  
BRANCH   7   8
HETATM    8  C   UNL     1      -9.385  10.727  64.648  1.00  0.00    -0.233 C  
HETATM    9  N   UNL     1      -8.925  11.724  65.488  1.00  0.00    -0.411 N  
HETATM   10  O   UNL     1     -10.560  10.569  64.333  1.00  0.00    -0.235 OA 
HETATM   11  H   UNL     1      -7.919  11.791  65.642  1.00  0.00     0.000 HD 
BRANCH   9  12
HETATM   12  C   UNL     1      -9.786  12.691  66.173  1.00  0.00    -0.259 C  
HETATM   13  C   UNL     1      -9.028  13.436  67.299  1.00  0.00    -0.221 C  
HETATM   14  C   UNL     1      -9.949  14.460  67.985  1.00  0.00    -0.225 C  
HETATM   15  C   UNL     1     -10.422  15.493  66.949  1.00  0.00    -0.301 C  
HETATM   16  C   UNL     1     -11.190  14.789  65.818  1.00  0.00    -0.337 C  
HETATM   17  C   UNL     1     -12.410  14.068  66.411  1.00  0.00    -0.468 C  
HETATM   18  C   UNL     1     -10.267  13.754  65.147  1.00  0.00    -0.367 C  
HETATM   19  C   UNL     1     -11.956  13.030  67.446  1.00  0.00    -0.372 C  
HETATM   20  C   UNL     1     -11.041  12.002  66.763  1.00  0.00    -0.353 C  
HETATM   21  C   UNL     1     -11.171  13.731  68.569  1.00  0.00    -0.304 C  
ENDBRANCH   9  12
ENDBRANCH   7   8
ENDBRANCH   6   7
ENDBRANCH   5   6
ENDBRANCH   4   5
ENDBRANCH   2   4
TORSDOF 6
ENDMDL
MODEL       78
REMARK 921   NORMALIZED FREE ENERGY PREDICTED BY IDOCK:   -4.31 KCAL/MOL
REMARK 922        TOTAL FREE ENERGY PREDICTED BY IDOCK:   -5.66 KCAL/MOL
REMARK 923 INTER-LIGAND FREE ENERGY PREDICTED BY IDOCK:   -5.87 KCAL/MOL
REMARK 924 INTRA-LIGAND FREE ENERGY PREDICTED BY IDOCK:    0.21 KCAL/MOL
REMARK 927      BINDING AFFINITY PREDICTED BY RF-SCORE:    0.00 PKD
ROOT
HETATM    1  C   UNL     1     -10.382  15.023  66.023  1.00  0.00    -0.312 C  
HETATM    2  N   UNL     1     -10.526  14.990  67.482  1.00  0.00    -0.252 NA 
HETATM    3  C   UNL     1     -10.430  16.351  68.016  1.00  0.00    -0.303 C  
ENDROOT
BRANCH   2   4
HETATM    4  C   UNL     1     -11.804  14.341  67.836  1.00  0.00    -0.358 C  
BRANCH   4   5
HETATM    5  C   UNL     1     -12.023  14.138  69.343  1.00  0.00    -0.337 C  
BRANCH   5   6
HETATM    6  O   UNL     1     -11.969  12.739  69.640  1.00  0.00    -0.314 OA 
BRANCH   6   7
HETATM    7  C   UNL     1     -12.764  12.428  70.781  1.00  0.00    -0.123 C  
BRANCH   7   8
HETATM    8  C   UNL     1     -12.557  10.980  71.213  1.00  0.00    -0.412 C  
HETATM    9  N   UNL     1     -11.528  10.345  70.542  1.00  0.00    -0.327 N  
HETATM   10  O   UNL     1     -13.224  10.471  72.107  1.00  0.00    -0.458 OA 
HETATM   11  H   UNL     1     -11.009  10.882  69.848  1.00  0.00     0.000 HD 
BRANCH   9  12
HETATM   12  C   UNL     1     -11.134   8.951  70.763  1.00  0.00    -0.261 C  
HETATM   13  C   UNL     1     -10.302   8.398  69.579  1.00  0.00    -0.219 C  
HETATM   14  C   UNL     1      -9.883   6.942  69.847  1.00  0.00    -0.172 C  
HETATM   15  C   UNL     1      -9.021   6.886  71.118  1.00  0.00    -0.143 C  
HETATM   16  C   UNL     1      -9.820   7.420  72.320  1.00  0.00    -0.203 C  
HETATM   17  C   UNL     1     -11.073   6.551  72.516  1.00  0.00    -0.294 C  
HETATM   18  C   UNL     1     -10.250   8.872  72.037  1.00  0.00    -0.363 C  
HETATM   19  C   UNL     1     -11.948   6.598  71.255  1.00  0.00    -0.409 C  
HETATM   20  C   UNL     1     -12.373   8.050  70.989  1.00  0.00    -0.164 C  
HETATM   21  C   UNL     1     -11.142   6.082  70.049  1.00  0.00    -0.451 C  
ENDBRANCH   9  12
ENDBRANCH   7   8
ENDBRANCH   6   7
ENDBRANCH   5   6
ENDBRANCH   4   5
ENDBRANCH   2   4
TORSDOF 6
ENDMDL
MODEL       79
REMARK 921   NORMALIZED FREE ENERGY PREDICTED BY IDOCK:   -4.30 KCAL/MOL
REMARK 922        TOTAL FREE ENERGY PREDICTED BY IDOCK:   -5.64 KCAL/MOL
REMARK 923 INTER-LIGAND FREE ENERGY PREDICTED BY IDOCK:   -5.32 KCAL/MOL
REMARK 924 INTRA-LIGAND FREE ENERGY PREDICTED BY IDOCK:   -0.32 KCAL/MOL
REMARK 927      BINDING AFFINITY PREDICTED BY RF-SCORE:    0.00 PKD
ROOT
HETATM    1  C   UNL     1     -11.682  13.753  69.228  1.00  0.00    -0.327 C  
HETATM    2  N   UNL     1     -11.048  12.437  69.097  1.00  0.00    -0.231 NA 
HETATM    3  C   UNL     1     -12.054  11.388  69.280  1.00  0.00    -0.289 C  
ENDROOT
BRANCH   2   4
HETATM    4  C   UNL     1     -10.375  12.342  67.786  1.00  0.00    -0.216 C  
BRANCH   4   5
HETATM    5  C   UNL     1     -10.962  11.284  66.840  1.00  0.00    -0.290 C  
BRANCH   5   6
HETATM    6  O   UNL     1      -9.900  10.467  66.334  1.00  0.00    -0.194 OA 
BRANCH   6   7
HETATM    7  C   UNL     1     -10.127   9.093  66.632  1.00  0.00    -0.273 C  
BRANCH   7   8
HETATM    8  C   UNL     1      -9.740   8.776  68.073  1.00  0.00    -0.157 C  
HETATM    9  N   UNL     1     -10.680   8.013  68.743  1.00  0.00    -0.401 N  
HETATM   10  O   UNL     1      -8.669   9.136  68.549  1.00  0.00    -0.128 OA 
HETATM   11  H   UNL     1     -11.515   7.730  68.232  1.00  0.00     0.000 HD 
BRANCH   9  12
HETATM   12  C   UNL     1     -10.554   7.584  70.138  1.00  0.00    -0.235 C  
HETATM   13  C   UNL     1     -10.339   8.787  71.089  1.00  0.00    -0.315 C  
HETATM   14  C   UNL     1     -10.233   8.309  72.548  1.00  0.00    -0.386 C  
HETATM   15  C   UNL     1     -11.535   7.598  72.947  1.00  0.00    -0.342 C  
HETATM   16  C   UNL     1     -11.777   6.389  72.028  1.00  0.00    -0.376 C  
HETATM   17  C   UNL     1     -10.600   5.410  72.166  1.00  0.00    -0.284 C  
HETATM   18  C   UNL     1     -11.866   6.872  70.568  1.00  0.00    -0.385 C  
HETATM   19  C   UNL     1      -9.290   6.104  71.768  1.00  0.00    -0.159 C  
HETATM   20  C   UNL     1      -9.390   6.575  70.309  1.00  0.00    -0.163 C  
HETATM   21  C   UNL     1      -9.057   7.325  72.675  1.00  0.00    -0.169 C  
ENDBRANCH   9  12
ENDBRANCH   7   8
ENDBRANCH   6   7
ENDBRANCH   5   6
ENDBRANCH   4   5
ENDBRANCH   2   4
TORSDOF 6
ENDMDL
MODEL       80
REMARK 921   NORMALIZED FREE ENERGY PREDICTED BY IDOCK:   -4.27 KCAL/MOL
REMARK 922        TOTAL FREE ENERGY PREDICTED BY IDOCK:   -5.61 KCAL/MOL
REMARK 923 INTER-LIGAND FREE ENERGY PREDICTED BY IDOCK:   -5.12 KCAL/MOL
REMARK 924 INTRA-LIGAND FREE ENERGY PREDICTED BY IDOCK:   -0.48 KCAL/MOL
REMARK 927      BINDING AFFINITY PREDICTED BY RF-SCORE:    0.00 PKD
ROOT
HETATM    1  C   UNL     1     -11.185  13.466  66.047  1.00  0.00    -0.296 C  
HETATM    2  N   UNL     1     -10.621  13.686  67.382  1.00  0.00    -0.258 NA 
HETATM    3  C   UNL     1      -9.159  13.643  67.311  1.00  0.00    -0.228 C  
ENDROOT
BRANCH   2   4
HETATM    4  C   UNL     1     -11.116  14.968  67.921  1.00  0.00    -0.307 C  
BRANCH   4   5
HETATM    5  C   UNL     1     -11.637  14.898  69.364  1.00  0.00    -0.309 C  
BRANCH   5   6
HETATM    6  O   UNL     1     -12.572  13.819  69.473  1.00  0.00    -0.192 OA 
BRANCH   6   7
HETATM    7  C   UNL     1     -12.276  13.000  70.600  1.00  0.00    -0.307 C  
BRANCH   7   8
HETATM    8  C   UNL     1     -11.968  11.570  70.170  1.00  0.00    -0.369 C  
HETATM    9  N   UNL     1     -10.712  11.418  69.612  1.00  0.00    -0.455 N  
HETATM   10  O   UNL     1     -12.761  10.653  70.359  1.00  0.00    -0.333 OA 
HETATM   11  H   UNL     1     -10.117  12.244  69.547  1.00  0.00     0.000 HD 
BRANCH   9  12
HETATM   12  C   UNL     1     -10.178  10.150  69.109  1.00  0.00    -0.214 C  
HETATM   13  C   UNL     1     -10.480   8.979  70.076  1.00  0.00    -0.233 C  
HETATM   14  C   UNL     1      -9.928   7.658  69.512  1.00  0.00    -0.182 C  
HETATM   15  C   UNL     1     -10.600   7.361  68.163  1.00  0.00    -0.216 C  
HETATM   16  C   UNL     1     -10.313   8.501  67.170  1.00  0.00    -0.377 C  
HETATM   17  C   UNL     1      -8.795   8.620  66.967  1.00  0.00    -0.143 C  
HETATM   18  C   UNL     1     -10.853   9.823  67.748  1.00  0.00    -0.306 C  
HETATM   19  C   UNL     1      -8.107   8.921  68.307  1.00  0.00    -0.109 C  
HETATM   20  C   UNL     1      -8.651  10.243  68.869  1.00  0.00    -0.150 C  
HETATM   21  C   UNL     1      -8.410   7.789  69.306  1.00  0.00    -0.136 C  
ENDBRANCH   9  12
ENDBRANCH   7   8
ENDBRANCH   6   7
ENDBRANCH   5   6
ENDBRANCH   4   5
ENDBRANCH   2   4
TORSDOF 6
ENDMDL
MODEL       81
REMARK 921   NORMALIZED FREE ENERGY PREDICTED BY IDOCK:   -4.27 KCAL/MOL
REMARK 922        TOTAL FREE ENERGY PREDICTED BY IDOCK:   -5.60 KCAL/MOL
REMARK 923 INTER-LIGAND FREE ENERGY PREDICTED BY IDOCK:   -5.72 KCAL/MOL
REMARK 924 INTRA-LIGAND FREE ENERGY PREDICTED BY IDOCK:    0.12 KCAL/MOL
REMARK 927      BINDING AFFINITY PREDICTED BY RF-SCORE:    0.00 PKD
ROOT
HETATM    1  C   UNL     1     -10.410  18.998  65.983  1.00  0.00    -0.446 C  
HETATM    2  N   UNL     1     -10.060  17.580  66.117  1.00  0.00    -0.452 NA 
HETATM    3  C   UNL     1     -10.339  17.132  67.483  1.00  0.00    -0.341 C  
ENDROOT
BRANCH   2   4
HETATM    4  C   UNL     1     -10.798  16.793  65.110  1.00  0.00    -0.138 C  
BRANCH   4   5
HETATM    5  C   UNL     1     -10.595  15.274  65.210  1.00  0.00    -0.417 C  
BRANCH   5   6
HETATM    6  O   UNL     1     -11.782  14.611  64.758  1.00  0.00    -0.391 OA 
BRANCH   6   7
HETATM    7  C   UNL     1     -12.361  13.834  65.802  1.00  0.00    -0.486 C  
BRANCH   7   8
HETATM    8  C   UNL     1     -11.537  12.579  66.070  1.00  0.00    -0.406 C  
HETATM    9  N   UNL     1     -11.359  12.311  67.415  1.00  0.00    -0.303 N  
HETATM   10  O   UNL     1     -11.127  11.868  65.159  1.00  0.00    -0.305 OA 
HETATM   11  H   UNL     1     -11.787  12.948  68.088  1.00  0.00     0.000 HD 
BRANCH   9  12
HETATM   12  C   UNL     1     -10.599  11.174  67.938  1.00  0.00    -0.198 C  
HETATM   13  C   UNL     1     -10.875  10.945  69.445  1.00  0.00    -0.286 C  
HETATM   14  C   UNL     1     -10.082   9.732  69.961  1.00  0.00    -0.301 C  
HETATM   15  C   UNL     1     -10.513   8.476  69.190  1.00  0.00    -0.217 C  
HETATM   16  C   UNL     1     -10.243   8.663  67.687  1.00  0.00    -0.300 C  
HETATM   17  C   UNL     1      -8.740   8.901  67.472  1.00  0.00    -0.124 C  
HETATM   18  C   UNL     1     -11.028   9.888  67.180  1.00  0.00    -0.147 C  
HETATM   19  C   UNL     1      -8.292  10.156  68.234  1.00  0.00    -0.115 C  
HETATM   20  C   UNL     1      -9.078  11.370  67.715  1.00  0.00    -0.158 C  
HETATM   21  C   UNL     1      -8.580   9.977  69.736  1.00  0.00    -0.192 C  
ENDBRANCH   9  12
ENDBRANCH   7   8
ENDBRANCH   6   7
ENDBRANCH   5   6
ENDBRANCH   4   5
ENDBRANCH   2   4
TORSDOF 6
ENDMDL
MODEL       82
REMARK 921   NORMALIZED FREE ENERGY PREDICTED BY IDOCK:   -4.27 KCAL/MOL
REMARK 922        TOTAL FREE ENERGY PREDICTED BY IDOCK:   -5.60 KCAL/MOL
REMARK 923 INTER-LIGAND FREE ENERGY PREDICTED BY IDOCK:   -5.72 KCAL/MOL
REMARK 924 INTRA-LIGAND FREE ENERGY PREDICTED BY IDOCK:    0.11 KCAL/MOL
REMARK 927      BINDING AFFINITY PREDICTED BY RF-SCORE:    0.00 PKD
ROOT
HETATM    1  C   UNL     1     -10.723   7.773  69.471  1.00  0.00    -0.198 C  
HETATM    2  N   UNL     1     -10.481   9.143  69.005  1.00  0.00    -0.222 NA 
HETATM    3  C   UNL     1      -9.451   9.769  69.837  1.00  0.00    -0.231 C  
ENDROOT
BRANCH   2   4
HETATM    4  C   UNL     1     -10.105   9.118  67.577  1.00  0.00    -0.228 C  
BRANCH   4   5
HETATM    5  C   UNL     1     -10.371  10.429  66.822  1.00  0.00    -0.235 C  
BRANCH   5   6
HETATM    6  O   UNL     1     -11.541  11.052  67.362  1.00  0.00    -0.525 OA 
BRANCH   6   7
HETATM    7  C   UNL     1     -11.818  12.281  66.697  1.00  0.00    -0.289 C  
BRANCH   7   8
HETATM    8  C   UNL     1     -10.965  13.411  67.262  1.00  0.00    -0.272 C  
HETATM    9  N   UNL     1     -11.131  14.614  66.600  1.00  0.00    -0.327 N  
HETATM   10  O   UNL     1     -10.246  13.251  68.243  1.00  0.00    -0.239 OA 
HETATM   11  H   UNL     1     -11.793  14.643  65.824  1.00  0.00     0.000 HD 
BRANCH   9  12
HETATM   12  C   UNL     1     -10.421  15.849  66.938  1.00  0.00    -0.309 C  
HETATM   13  C   UNL     1      -8.885  15.643  66.942  1.00  0.00    -0.279 C  
HETATM   14  C   UNL     1      -8.165  16.961  67.277  1.00  0.00    -0.205 C  
HETATM   15  C   UNL     1      -8.513  18.016  66.217  1.00  0.00    -0.214 C  
HETATM   16  C   UNL     1     -10.032  18.255  66.191  1.00  0.00    -0.313 C  
HETATM   17  C   UNL     1     -10.486  18.754  67.572  1.00  0.00    -0.495 C  
HETATM   18  C   UNL     1     -10.748  16.929  65.870  1.00  0.00    -0.151 C  
HETATM   19  C   UNL     1     -10.148  17.709  68.645  1.00  0.00    -0.377 C  
HETATM   20  C   UNL     1     -10.872  16.394  68.316  1.00  0.00    -0.347 C  
HETATM   21  C   UNL     1      -8.630  17.455  68.658  1.00  0.00    -0.259 C  
ENDBRANCH   9  12
ENDBRANCH   7   8
ENDBRANCH   6   7
ENDBRANCH   5   6
ENDBRANCH   4   5
ENDBRANCH   2   4
TORSDOF 6
ENDMDL
MODEL       83
REMARK 921   NORMALIZED FREE ENERGY PREDICTED BY IDOCK:   -4.26 KCAL/MOL
REMARK 922        TOTAL FREE ENERGY PREDICTED BY IDOCK:   -5.60 KCAL/MOL
REMARK 923 INTER-LIGAND FREE ENERGY PREDICTED BY IDOCK:   -5.68 KCAL/MOL
REMARK 924 INTRA-LIGAND FREE ENERGY PREDICTED BY IDOCK:    0.08 KCAL/MOL
REMARK 927      BINDING AFFINITY PREDICTED BY RF-SCORE:    0.00 PKD
ROOT
HETATM    1  C   UNL     1      -8.674   6.996  71.873  1.00  0.00    -0.124 C  
HETATM    2  N   UNL     1      -9.869   7.558  71.235  1.00  0.00    -0.179 NA 
HETATM    3  C   UNL     1     -10.997   6.641  71.413  1.00  0.00    -0.250 C  
ENDROOT
BRANCH   2   4
HETATM    4  C   UNL     1     -10.144   8.895  71.797  1.00  0.00    -0.337 C  
BRANCH   4   5
HETATM    5  C   UNL     1     -11.587   9.385  71.608  1.00  0.00    -0.396 C  
BRANCH   5   6
HETATM    6  O   UNL     1     -11.596  10.473  70.676  1.00  0.00    -0.319 OA 
BRANCH   6   7
HETATM    7  C   UNL     1     -12.603  11.423  71.010  1.00  0.00    -0.386 C  
BRANCH   7   8
HETATM    8  C   UNL     1     -12.250  12.805  70.470  1.00  0.00    -0.307 C  
HETATM    9  N   UNL     1     -11.250  12.786  69.514  1.00  0.00    -0.464 N  
HETATM   10  O   UNL     1     -12.848  13.812  70.832  1.00  0.00    -0.315 OA 
HETATM   11  H   UNL     1     -10.856  11.882  69.255  1.00  0.00     0.000 HD 
BRANCH   9  12
HETATM   12  C   UNL     1     -10.721  13.979  68.848  1.00  0.00    -0.248 C  
HETATM   13  C   UNL     1     -10.494  15.139  69.849  1.00  0.00    -0.234 C  
HETATM   14  C   UNL     1      -9.917  16.369  69.127  1.00  0.00    -0.273 C  
HETATM   15  C   UNL     1      -8.567  16.001  68.493  1.00  0.00    -0.190 C  
HETATM   16  C   UNL     1      -8.756  14.856  67.483  1.00  0.00    -0.197 C  
HETATM   17  C   UNL     1      -9.728  15.311  66.383  1.00  0.00    -0.308 C  
HETATM   18  C   UNL     1      -9.349  13.633  68.208  1.00  0.00    -0.204 C  
HETATM   19  C   UNL     1     -11.085  15.680  67.000  1.00  0.00    -0.200 C  
HETATM   20  C   UNL     1     -11.666  14.451  67.715  1.00  0.00    -0.407 C  
HETATM   21  C   UNL     1     -10.893  16.813  68.024  1.00  0.00    -0.341 C  
ENDBRANCH   9  12
ENDBRANCH   7   8
ENDBRANCH   6   7
ENDBRANCH   5   6
ENDBRANCH   4   5
ENDBRANCH   2   4
TORSDOF 6
ENDMDL
MODEL       84
REMARK 921   NORMALIZED FREE ENERGY PREDICTED BY IDOCK:   -4.24 KCAL/MOL
REMARK 922        TOTAL FREE ENERGY PREDICTED BY IDOCK:   -5.57 KCAL/MOL
REMARK 923 INTER-LIGAND FREE ENERGY PREDICTED BY IDOCK:   -5.04 KCAL/MOL
REMARK 924 INTRA-LIGAND FREE ENERGY PREDICTED BY IDOCK:   -0.52 KCAL/MOL
REMARK 927      BINDING AFFINITY PREDICTED BY RF-SCORE:    0.00 PKD
ROOT
HETATM    1  C   UNL     1     -10.146  14.753  65.432  1.00  0.00    -0.374 C  
HETATM    2  N   UNL     1      -9.872  14.902  66.865  1.00  0.00    -0.235 NA 
HETATM    3  C   UNL     1      -8.436  15.099  67.073  1.00  0.00    -0.229 C  
ENDROOT
BRANCH   2   4
HETATM    4  C   UNL     1     -10.672  16.019  67.406  1.00  0.00    -0.306 C  
BRANCH   4   5
HETATM    5  C   UNL     1     -11.487  15.674  68.661  1.00  0.00    -0.375 C  
BRANCH   5   6
HETATM    6  O   UNL     1     -12.220  14.467  68.428  1.00  0.00    -0.275 OA 
BRANCH   6   7
HETATM    7  C   UNL     1     -11.990  13.521  69.467  1.00  0.00    -0.334 C  
BRANCH   7   8
HETATM    8  C   UNL     1     -11.561  12.174  68.893  1.00  0.00    -0.324 C  
HETATM    9  N   UNL     1     -10.279  12.176  68.376  1.00  0.00    -0.208 N  
HETATM   10  O   UNL     1     -12.289  11.188  68.946  1.00  0.00    -0.512 OA 
HETATM   11  H   UNL     1      -9.745  13.044  68.428  1.00  0.00     0.000 HD 
BRANCH   9  12
HETATM   12  C   UNL     1      -9.635  11.014  67.757  1.00  0.00    -0.170 C  
HETATM   13  C   UNL     1      -8.236  11.368  67.194  1.00  0.00    -0.157 C  
HETATM   14  C   UNL     1      -7.575  10.126  66.571  1.00  0.00    -0.109 C  
HETATM   15  C   UNL     1      -7.407   9.045  67.649  1.00  0.00    -0.084 C  
HETATM   16  C   UNL     1      -8.780   8.660  68.227  1.00  0.00    -0.142 C  
HETATM   17  C   UNL     1      -9.666   8.116  67.095  1.00  0.00    -0.259 C  
HETATM   18  C   UNL     1      -9.443   9.911  68.833  1.00  0.00    -0.170 C  
HETATM   19  C   UNL     1      -9.847   9.186  66.009  1.00  0.00    -0.342 C  
HETATM   20  C   UNL     1     -10.514  10.425  66.627  1.00  0.00    -0.279 C  
HETATM   21  C   UNL     1      -8.472   9.586  65.445  1.00  0.00    -0.157 C  
ENDBRANCH   9  12
ENDBRANCH   7   8
ENDBRANCH   6   7
ENDBRANCH   5   6
ENDBRANCH   4   5
ENDBRANCH   2   4
TORSDOF 6
ENDMDL
MODEL       85
REMARK 921   NORMALIZED FREE ENERGY PREDICTED BY IDOCK:   -4.21 KCAL/MOL
REMARK 922        TOTAL FREE ENERGY PREDICTED BY IDOCK:   -5.52 KCAL/MOL
REMARK 923 INTER-LIGAND FREE ENERGY PREDICTED BY IDOCK:   -5.54 KCAL/MOL
REMARK 924 INTRA-LIGAND FREE ENERGY PREDICTED BY IDOCK:    0.02 KCAL/MOL
REMARK 927      BINDING AFFINITY PREDICTED BY RF-SCORE:    0.00 PKD
ROOT
HETATM    1  C   UNL     1     -10.495  17.536  65.973  1.00  0.00    -0.274 C  
HETATM    2  N   UNL     1      -9.922  16.343  65.341  1.00  0.00    -0.533 NA 
HETATM    3  C   UNL     1      -8.901  15.765  66.218  1.00  0.00    -0.343 C  
ENDROOT
BRANCH   2   4
HETATM    4  C   UNL     1     -11.001  15.383  65.033  1.00  0.00    -0.436 C  
BRANCH   4   5
HETATM    5  C   UNL     1     -10.560  13.911  65.007  1.00  0.00    -0.404 C  
BRANCH   5   6
HETATM    6  O   UNL     1     -11.582  13.105  65.605  1.00  0.00    -0.316 OA 
BRANCH   6   7
HETATM    7  C   UNL     1     -11.553  13.216  67.024  1.00  0.00    -0.359 C  
BRANCH   7   8
HETATM    8  C   UNL     1     -11.430  11.844  67.677  1.00  0.00    -0.317 C  
HETATM    9  N   UNL     1     -10.155  11.312  67.610  1.00  0.00    -0.177 N  
HETATM   10  O   UNL     1     -12.378  11.309  68.243  1.00  0.00    -0.542 OA 
HETATM   11  H   UNL     1      -9.431  11.867  67.155  1.00  0.00     0.000 HD 
BRANCH   9  12
HETATM   12  C   UNL     1      -9.775  10.004  68.150  1.00  0.00    -0.140 C  
HETATM   13  C   UNL     1      -8.262   9.728  67.968  1.00  0.00    -0.109 C  
HETATM   14  C   UNL     1      -7.888   8.359  68.564  1.00  0.00    -0.120 C  
HETATM   15  C   UNL     1      -8.208   8.354  70.067  1.00  0.00    -0.121 C  
HETATM   16  C   UNL     1      -9.708   8.615  70.286  1.00  0.00    -0.191 C  
HETATM   17  C   UNL     1     -10.518   7.511  69.590  1.00  0.00    -0.235 C  
HETATM   18  C   UNL     1     -10.079   9.979  69.673  1.00  0.00    -0.263 C  
HETATM   19  C   UNL     1     -10.213   7.504  68.085  1.00  0.00    -0.228 C  
HETATM   20  C   UNL     1     -10.592   8.867  67.487  1.00  0.00    -0.307 C  
HETATM   21  C   UNL     1      -8.708   7.261  67.866  1.00  0.00    -0.123 C  
ENDBRANCH   9  12
ENDBRANCH   7   8
ENDBRANCH   6   7
ENDBRANCH   5   6
ENDBRANCH   4   5
ENDBRANCH   2   4
TORSDOF 6
ENDMDL
MODEL       86
REMARK 921   NORMALIZED FREE ENERGY PREDICTED BY IDOCK:   -4.20 KCAL/MOL
REMARK 922        TOTAL FREE ENERGY PREDICTED BY IDOCK:   -5.51 KCAL/MOL
REMARK 923 INTER-LIGAND FREE ENERGY PREDICTED BY IDOCK:   -5.64 KCAL/MOL
REMARK 924 INTRA-LIGAND FREE ENERGY PREDICTED BY IDOCK:    0.12 KCAL/MOL
REMARK 927      BINDING AFFINITY PREDICTED BY RF-SCORE:    0.00 PKD
ROOT
HETATM    1  C   UNL     1      -8.793  10.387  65.070  1.00  0.00    -0.191 C  
HETATM    2  N   UNL     1     -10.224  10.695  65.162  1.00  0.00    -0.306 NA 
HETATM    3  C   UNL     1     -10.566  11.035  66.545  1.00  0.00    -0.254 C  
ENDROOT
BRANCH   2   4
HETATM    4  C   UNL     1     -10.555  11.784  64.222  1.00  0.00    -0.335 C  
BRANCH   4   5
HETATM    5  C   UNL     1     -11.179  13.026  64.876  1.00  0.00    -0.302 C  
BRANCH   5   6
HETATM    6  O   UNL     1     -10.452  14.189  64.463  1.00  0.00    -0.408 OA 
BRANCH   6   7
HETATM    7  C   UNL     1     -10.832  15.327  65.230  1.00  0.00    -0.403 C  
BRANCH   7   8
HETATM    8  C   UNL     1      -9.662  15.841  66.062  1.00  0.00    -0.345 C  
HETATM    9  N   UNL     1      -9.466  17.206  65.956  1.00  0.00    -0.191 N  
HETATM   10  O   UNL     1      -9.006  15.097  66.783  1.00  0.00    -0.229 OA 
HETATM   11  H   UNL     1     -10.103  17.734  65.360  1.00  0.00     0.000 HD 
BRANCH   9  12
HETATM   12  C   UNL     1      -8.403  17.944  66.644  1.00  0.00    -0.261 C  
HETATM   13  C   UNL     1      -8.297  17.537  68.135  1.00  0.00    -0.249 C  
HETATM   14  C   UNL     1      -7.160  18.310  68.826  1.00  0.00    -0.291 C  
HETATM   15  C   UNL     1      -5.828  17.981  68.134  1.00  0.00    -0.168 C  
HETATM   16  C   UNL     1      -5.893  18.382  66.650  1.00  0.00    -0.175 C  
HETATM   17  C   UNL     1      -6.160  19.892  66.549  1.00  0.00    -0.177 C  
HETATM   18  C   UNL     1      -7.043  17.617  65.969  1.00  0.00    -0.318 C  
HETATM   19  C   UNL     1      -7.490  20.238  67.233  1.00  0.00    -0.338 C  
HETATM   20  C   UNL     1      -8.628  19.473  66.540  1.00  0.00    -0.374 C  
HETATM   21  C   UNL     1      -7.433  19.820  68.713  1.00  0.00    -0.320 C  
ENDBRANCH   9  12
ENDBRANCH   7   8
ENDBRANCH   6   7
ENDBRANCH   5   6
ENDBRANCH   4   5
ENDBRANCH   2   4
TORSDOF 6
ENDMDL
MODEL       87
REMARK 921   NORMALIZED FREE ENERGY PREDICTED BY IDOCK:   -4.13 KCAL/MOL
REMARK 922        TOTAL FREE ENERGY PREDICTED BY IDOCK:   -5.41 KCAL/MOL
REMARK 923 INTER-LIGAND FREE ENERGY PREDICTED BY IDOCK:   -5.36 KCAL/MOL
REMARK 924 INTRA-LIGAND FREE ENERGY PREDICTED BY IDOCK:   -0.05 KCAL/MOL
REMARK 927      BINDING AFFINITY PREDICTED BY RF-SCORE:    0.00 PKD
ROOT
HETATM    1  C   UNL     1      -8.524   9.067  64.319  1.00  0.00    -0.170 C  
HETATM    2  N   UNL     1      -8.949  10.370  63.797  1.00  0.00    -0.209 NA 
HETATM    3  C   UNL     1      -9.291  10.243  62.379  1.00  0.00    -0.271 C  
ENDROOT
BRANCH   2   4
HETATM    4  C   UNL     1     -10.078  10.878  64.601  1.00  0.00    -0.328 C  
BRANCH   4   5
HETATM    5  C   UNL     1      -9.708  11.985  65.599  1.00  0.00    -0.223 C  
BRANCH   5   6
HETATM    6  O   UNL     1     -10.474  11.812  66.796  1.00  0.00    -0.214 OA 
BRANCH   6   7
HETATM    7  C   UNL     1     -10.835  10.447  66.979  1.00  0.00    -0.203 C  
BRANCH   7   8
HETATM    8  C   UNL     1     -10.562   9.997  68.411  1.00  0.00    -0.220 C  
HETATM    9  N   UNL     1     -10.945   8.692  68.663  1.00  0.00    -0.439 N  
HETATM   10  O   UNL     1     -10.008  10.729  69.224  1.00  0.00    -0.214 OA 
HETATM   11  H   UNL     1     -11.355   8.159  67.896  1.00  0.00     0.000 HD 
BRANCH   9  12
HETATM   12  C   UNL     1     -10.802   8.024  69.959  1.00  0.00    -0.235 C  
HETATM   13  C   UNL     1     -11.669   8.702  71.050  1.00  0.00    -0.319 C  
HETATM   14  C   UNL     1     -11.517   7.968  72.394  1.00  0.00    -0.449 C  
HETATM   15  C   UNL     1     -11.984   6.513  72.234  1.00  0.00    -0.272 C  
HETATM   16  C   UNL     1     -11.138   5.803  71.163  1.00  0.00    -0.257 C  
HETATM   17  C   UNL     1      -9.663   5.819  71.596  1.00  0.00    -0.192 C  
HETATM   18  C   UNL     1     -11.281   6.553  69.825  1.00  0.00    -0.456 C  
HETATM   19  C   UNL     1      -9.178   7.267  71.757  1.00  0.00    -0.153 C  
HETATM   20  C   UNL     1      -9.322   8.001  70.415  1.00  0.00    -0.158 C  
HETATM   21  C   UNL     1     -10.037   7.983  72.815  1.00  0.00    -0.378 C  
ENDBRANCH   9  12
ENDBRANCH   7   8
ENDBRANCH   6   7
ENDBRANCH   5   6
ENDBRANCH   4   5
ENDBRANCH   2   4
TORSDOF 6
ENDMDL
MODEL       88
REMARK 921   NORMALIZED FREE ENERGY PREDICTED BY IDOCK:   -4.12 KCAL/MOL
REMARK 922        TOTAL FREE ENERGY PREDICTED BY IDOCK:   -5.41 KCAL/MOL
REMARK 923 INTER-LIGAND FREE ENERGY PREDICTED BY IDOCK:   -5.50 KCAL/MOL
REMARK 924 INTRA-LIGAND FREE ENERGY PREDICTED BY IDOCK:    0.09 KCAL/MOL
REMARK 927      BINDING AFFINITY PREDICTED BY RF-SCORE:    0.00 PKD
ROOT
HETATM    1  C   UNL     1     -10.502  18.576  66.131  1.00  0.00    -0.413 C  
HETATM    2  N   UNL     1     -10.077  17.306  66.727  1.00  0.00    -0.292 NA 
HETATM    3  C   UNL     1     -10.687  17.154  68.049  1.00  0.00    -0.372 C  
ENDROOT
BRANCH   2   4
HETATM    4  C   UNL     1     -10.428  16.195  65.820  1.00  0.00    -0.367 C  
BRANCH   4   5
HETATM    5  C   UNL     1     -10.096  14.796  66.362  1.00  0.00    -0.280 C  
BRANCH   5   6
HETATM    6  O   UNL     1     -10.697  13.810  65.516  1.00  0.00    -0.286 OA 
BRANCH   6   7
HETATM    7  C   UNL     1     -11.577  12.969  66.255  1.00  0.00    -0.360 C  
BRANCH   7   8
HETATM    8  C   UNL     1     -10.835  11.758  66.811  1.00  0.00    -0.270 C  
HETATM    9  N   UNL     1     -11.304  11.341  68.044  1.00  0.00    -0.286 N  
HETATM   10  O   UNL     1      -9.946  11.198  66.179  1.00  0.00    -0.214 OA 
HETATM   11  H   UNL     1     -12.082  11.855  68.456  1.00  0.00     0.000 HD 
BRANCH   9  12
HETATM   12  C   UNL     1     -10.756  10.209  68.796  1.00  0.00    -0.220 C  
HETATM   13  C   UNL     1     -10.757   8.909  67.955  1.00  0.00    -0.185 C  
HETATM   14  C   UNL     1     -10.157   7.744  68.761  1.00  0.00    -0.205 C  
HETATM   15  C   UNL     1      -8.706   8.080  69.138  1.00  0.00    -0.137 C  
HETATM   16  C   UNL     1      -8.666   9.364  69.985  1.00  0.00    -0.227 C  
HETATM   17  C   UNL     1      -9.487   9.146  71.266  1.00  0.00    -0.313 C  
HETATM   18  C   UNL     1      -9.284  10.522  69.179  1.00  0.00    -0.183 C  
HETATM   19  C   UNL     1     -10.942   8.812  70.907  1.00  0.00    -0.315 C  
HETATM   20  C   UNL     1     -11.546   9.977  70.108  1.00  0.00    -0.320 C  
HETATM   21  C   UNL     1     -10.980   7.538  70.044  1.00  0.00    -0.252 C  
ENDBRANCH   9  12
ENDBRANCH   7   8
ENDBRANCH   6   7
ENDBRANCH   5   6
ENDBRANCH   4   5
ENDBRANCH   2   4
TORSDOF 6
ENDMDL
MODEL       89
REMARK 921   NORMALIZED FREE ENERGY PREDICTED BY IDOCK:   -4.12 KCAL/MOL
REMARK 922        TOTAL FREE ENERGY PREDICTED BY IDOCK:   -5.40 KCAL/MOL
REMARK 923 INTER-LIGAND FREE ENERGY PREDICTED BY IDOCK:   -5.41 KCAL/MOL
REMARK 924 INTRA-LIGAND FREE ENERGY PREDICTED BY IDOCK:    0.01 KCAL/MOL
REMARK 927      BINDING AFFINITY PREDICTED BY RF-SCORE:    0.00 PKD
ROOT
HETATM    1  C   UNL     1      -8.944  19.930  67.449  1.00  0.00    -0.337 C  
HETATM    2  N   UNL     1      -7.961  18.914  67.839  1.00  0.00    -0.265 NA 
HETATM    3  C   UNL     1      -7.078  19.457  68.874  1.00  0.00    -0.358 C  
ENDROOT
BRANCH   2   4
HETATM    4  C   UNL     1      -8.664  17.696  68.288  1.00  0.00    -0.276 C  
BRANCH   4   5
HETATM    5  C   UNL     1     -10.139  17.909  68.662  1.00  0.00    -0.394 C  
BRANCH   5   6
HETATM    6  O   UNL     1     -10.957  17.068  67.841  1.00  0.00    -0.337 OA 
BRANCH   6   7
HETATM    7  C   UNL     1     -11.541  16.019  68.607  1.00  0.00    -0.343 C  
BRANCH   7   8
HETATM    8  C   UNL     1     -11.399  14.678  67.895  1.00  0.00    -0.315 C  
HETATM    9  N   UNL     1     -10.286  13.957  68.291  1.00  0.00    -0.242 N  
HETATM   10  O   UNL     1     -12.234  14.282  67.089  1.00  0.00    -0.410 OA 
HETATM   11  H   UNL     1      -9.684  14.365  69.005  1.00  0.00     0.000 HD 
BRANCH   9  12
HETATM   12  C   UNL     1      -9.916  12.646  67.752  1.00  0.00    -0.218 C  
HETATM   13  C   UNL     1     -11.048  11.607  67.950  1.00  0.00    -0.306 C  
HETATM   14  C   UNL     1     -10.641  10.247  67.355  1.00  0.00    -0.324 C  
HETATM   15  C   UNL     1     -10.383  10.407  65.849  1.00  0.00    -0.261 C  
HETATM   16  C   UNL     1      -9.256  11.427  65.613  1.00  0.00    -0.209 C  
HETATM   17  C   UNL     1      -7.975  10.927  66.298  1.00  0.00    -0.161 C  
HETATM   18  C   UNL     1      -9.663  12.781  66.226  1.00  0.00    -0.262 C  
HETATM   19  C   UNL     1      -8.214  10.764  67.806  1.00  0.00    -0.112 C  
HETATM   20  C   UNL     1      -8.613  12.122  68.404  1.00  0.00    -0.141 C  
HETATM   21  C   UNL     1      -9.354   9.758  68.041  1.00  0.00    -0.138 C  
ENDBRANCH   9  12
ENDBRANCH   7   8
ENDBRANCH   6   7
ENDBRANCH   5   6
ENDBRANCH   4   5
ENDBRANCH   2   4
TORSDOF 6
ENDMDL
MODEL       90
REMARK 921   NORMALIZED FREE ENERGY PREDICTED BY IDOCK:   -4.11 KCAL/MOL
REMARK 922        TOTAL FREE ENERGY PREDICTED BY IDOCK:   -5.39 KCAL/MOL
REMARK 923 INTER-LIGAND FREE ENERGY PREDICTED BY IDOCK:   -5.54 KCAL/MOL
REMARK 924 INTRA-LIGAND FREE ENERGY PREDICTED BY IDOCK:    0.15 KCAL/MOL
REMARK 927      BINDING AFFINITY PREDICTED BY RF-SCORE:    0.00 PKD
ROOT
HETATM    1  C   UNL     1     -12.037  15.616  70.631  1.00  0.00    -0.405 C  
HETATM    2  N   UNL     1     -12.335  14.740  71.769  1.00  0.00    -0.333 NA 
HETATM    3  C   UNL     1     -12.792  15.547  72.903  1.00  0.00    -0.457 C  
ENDROOT
BRANCH   2   4
HETATM    4  C   UNL     1     -13.333  13.730  71.365  1.00  0.00    -0.270 C  
BRANCH   4   5
HETATM    5  C   UNL     1     -13.199  12.377  72.080  1.00  0.00    -0.409 C  
BRANCH   5   6
HETATM    6  O   UNL     1     -13.268  11.325  71.110  1.00  0.00    -0.226 OA 
BRANCH   6   7
HETATM    7  C   UNL     1     -12.678  10.130  71.611  1.00  0.00    -0.447 C  
BRANCH   7   8
HETATM    8  C   UNL     1     -11.561   9.646  70.693  1.00  0.00    -0.299 C  
HETATM    9  N   UNL     1     -11.661   8.308  70.357  1.00  0.00    -0.473 N  
HETATM   10  O   UNL     1     -10.697  10.407  70.270  1.00  0.00    -0.282 OA 
HETATM   11  H   UNL     1     -12.450   7.781  70.731  1.00  0.00     0.000 HD 
BRANCH   9  12
HETATM   12  C   UNL     1     -10.710   7.598  69.499  1.00  0.00    -0.209 C  
HETATM   13  C   UNL     1     -10.694   8.174  68.061  1.00  0.00    -0.108 C  
HETATM   14  C   UNL     1      -9.671   7.425  67.190  1.00  0.00    -0.223 C  
HETATM   15  C   UNL     1      -8.269   7.590  67.796  1.00  0.00    -0.119 C  
HETATM   16  C   UNL     1      -8.243   7.017  69.224  1.00  0.00    -0.125 C  
HETATM   17  C   UNL     1      -8.604   5.525  69.174  1.00  0.00    -0.104 C  
HETATM   18  C   UNL     1      -9.281   7.761  70.087  1.00  0.00    -0.153 C  
HETATM   19  C   UNL     1     -10.005   5.342  68.573  1.00  0.00    -0.227 C  
HETATM   20  C   UNL     1     -11.029   6.083  69.445  1.00  0.00    -0.455 C  
HETATM   21  C   UNL     1     -10.036   5.931  67.151  1.00  0.00    -0.213 C  
ENDBRANCH   9  12
ENDBRANCH   7   8
ENDBRANCH   6   7
ENDBRANCH   5   6
ENDBRANCH   4   5
ENDBRANCH   2   4
TORSDOF 6
ENDMDL
MODEL       91
REMARK 921   NORMALIZED FREE ENERGY PREDICTED BY IDOCK:   -4.08 KCAL/MOL
REMARK 922        TOTAL FREE ENERGY PREDICTED BY IDOCK:   -5.35 KCAL/MOL
REMARK 923 INTER-LIGAND FREE ENERGY PREDICTED BY IDOCK:   -5.06 KCAL/MOL
REMARK 924 INTRA-LIGAND FREE ENERGY PREDICTED BY IDOCK:   -0.29 KCAL/MOL
REMARK 927      BINDING AFFINITY PREDICTED BY RF-SCORE:    0.00 PKD
ROOT
HETATM    1  C   UNL     1      -6.727  10.145  62.775  1.00  0.00    -0.133 C  
HETATM    2  N   UNL     1      -7.893   9.754  63.573  1.00  0.00    -0.133 NA 
HETATM    3  C   UNL     1      -9.023   9.468  62.685  1.00  0.00    -0.238 C  
ENDROOT
BRANCH   2   4
HETATM    4  C   UNL     1      -7.544   8.597  64.421  1.00  0.00    -0.115 C  
BRANCH   4   5
HETATM    5  C   UNL     1      -7.166   8.954  65.867  1.00  0.00    -0.089 C  
BRANCH   5   6
HETATM    6  O   UNL     1      -7.968   8.180  66.766  1.00  0.00    -0.100 OA 
BRANCH   6   7
HETATM    7  C   UNL     1      -9.355   8.418  66.546  1.00  0.00    -0.201 C  
BRANCH   7   8
HETATM    8  C   UNL     1      -9.729   9.849  66.919  1.00  0.00    -0.186 C  
HETATM    9  N   UNL     1     -10.241  10.580  65.862  1.00  0.00    -0.256 N  
HETATM   10  O   UNL     1      -9.621  10.267  68.066  1.00  0.00    -0.144 OA 
HETATM   11  H   UNL     1     -10.329  10.114  64.959  1.00  0.00     0.000 HD 
BRANCH   9  12
HETATM   12  C   UNL     1     -10.664  11.979  65.953  1.00  0.00    -0.275 C  
HETATM   13  C   UNL     1     -11.837  12.158  66.948  1.00  0.00    -0.295 C  
HETATM   14  C   UNL     1     -12.246  13.639  67.041  1.00  0.00    -0.373 C  
HETATM   15  C   UNL     1     -11.052  14.466  67.541  1.00  0.00    -0.312 C  
HETATM   16  C   UNL     1      -9.868  14.321  66.569  1.00  0.00    -0.299 C  
HETATM   17  C   UNL     1     -10.291  14.826  65.182  1.00  0.00    -0.439 C  
HETATM   18  C   UNL     1      -9.474  12.834  66.469  1.00  0.00    -0.253 C  
HETATM   19  C   UNL     1     -11.483  14.008  64.665  1.00  0.00    -0.389 C  
HETATM   20  C   UNL     1     -11.075  12.530  64.565  1.00  0.00    -0.357 C  
HETATM   21  C   UNL     1     -12.661  14.138  65.647  1.00  0.00    -0.469 C  
ENDBRANCH   9  12
ENDBRANCH   7   8
ENDBRANCH   6   7
ENDBRANCH   5   6
ENDBRANCH   4   5
ENDBRANCH   2   4
TORSDOF 6
ENDMDL
MODEL       92
REMARK 921   NORMALIZED FREE ENERGY PREDICTED BY IDOCK:   -4.08 KCAL/MOL
REMARK 922        TOTAL FREE ENERGY PREDICTED BY IDOCK:   -5.34 KCAL/MOL
REMARK 923 INTER-LIGAND FREE ENERGY PREDICTED BY IDOCK:   -5.46 KCAL/MOL
REMARK 924 INTRA-LIGAND FREE ENERGY PREDICTED BY IDOCK:    0.11 KCAL/MOL
REMARK 927      BINDING AFFINITY PREDICTED BY RF-SCORE:    0.00 PKD
ROOT
HETATM    1  C   UNL     1      -8.250   4.935  67.574  1.00  0.00    -0.105 C  
HETATM    2  N   UNL     1      -9.056   5.201  68.769  1.00  0.00    -0.110 NA 
HETATM    3  C   UNL     1      -8.217   5.081  69.964  1.00  0.00    -0.081 C  
ENDROOT
BRANCH   2   4
HETATM    4  C   UNL     1      -9.679   6.535  68.657  1.00  0.00    -0.127 C  
BRANCH   4   5
HETATM    5  C   UNL     1     -10.861   6.610  67.679  1.00  0.00    -0.315 C  
BRANCH   5   6
HETATM    6  O   UNL     1     -10.840   7.878  67.014  1.00  0.00    -0.305 OA 
BRANCH   6   7
HETATM    7  C   UNL     1      -9.505   8.344  66.846  1.00  0.00    -0.185 C  
BRANCH   7   8
HETATM    8  C   UNL     1      -9.487   9.801  66.396  1.00  0.00    -0.184 C  
HETATM    9  N   UNL     1     -10.586  10.524  66.822  1.00  0.00    -0.241 N  
HETATM   10  O   UNL     1      -8.551  10.270  65.758  1.00  0.00    -0.143 OA 
HETATM   11  H   UNL     1     -11.284  10.041  67.388  1.00  0.00     0.000 HD 
BRANCH   9  12
HETATM   12  C   UNL     1     -10.815  11.938  66.516  1.00  0.00    -0.278 C  
HETATM   13  C   UNL     1      -9.510  12.765  66.624  1.00  0.00    -0.249 C  
HETATM   14  C   UNL     1      -9.774  14.240  66.275  1.00  0.00    -0.321 C  
HETATM   15  C   UNL     1     -10.294  14.336  64.833  1.00  0.00    -0.429 C  
HETATM   16  C   UNL     1     -11.598  13.534  64.689  1.00  0.00    -0.395 C  
HETATM   17  C   UNL     1     -12.651  14.110  65.648  1.00  0.00    -0.495 C  
HETATM   18  C   UNL     1     -11.330  12.062  65.055  1.00  0.00    -0.365 C  
HETATM   19  C   UNL     1     -12.150  14.018  67.096  1.00  0.00    -0.436 C  
HETATM   20  C   UNL     1     -11.891  12.546  67.450  1.00  0.00    -0.381 C  
HETATM   21  C   UNL     1     -10.834  14.806  67.236  1.00  0.00    -0.309 C  
ENDBRANCH   9  12
ENDBRANCH   7   8
ENDBRANCH   6   7
ENDBRANCH   5   6
ENDBRANCH   4   5
ENDBRANCH   2   4
TORSDOF 6
ENDMDL
MODEL       93
REMARK 921   NORMALIZED FREE ENERGY PREDICTED BY IDOCK:   -4.08 KCAL/MOL
REMARK 922        TOTAL FREE ENERGY PREDICTED BY IDOCK:   -5.34 KCAL/MOL
REMARK 923 INTER-LIGAND FREE ENERGY PREDICTED BY IDOCK:   -5.31 KCAL/MOL
REMARK 924 INTRA-LIGAND FREE ENERGY PREDICTED BY IDOCK:   -0.04 KCAL/MOL
REMARK 927      BINDING AFFINITY PREDICTED BY RF-SCORE:    0.00 PKD
ROOT
HETATM    1  C   UNL     1     -12.280  14.382  64.645  1.00  0.00    -0.464 C  
HETATM    2  N   UNL     1     -11.615  13.167  65.125  1.00  0.00    -0.308 NA 
HETATM    3  C   UNL     1     -11.880  12.063  64.199  1.00  0.00    -0.373 C  
ENDROOT
BRANCH   2   4
HETATM    4  C   UNL     1     -10.170  13.426  65.284  1.00  0.00    -0.298 C  
BRANCH   4   5
HETATM    5  C   UNL     1      -9.785  14.119  66.599  1.00  0.00    -0.288 C  
BRANCH   5   6
HETATM    6  O   UNL     1      -9.446  13.125  67.572  1.00  0.00    -0.199 OA 
BRANCH   6   7
HETATM    7  C   UNL     1     -10.580  12.775  68.360  1.00  0.00    -0.248 C  
BRANCH   7   8
HETATM    8  C   UNL     1     -10.870  11.281  68.267  1.00  0.00    -0.205 C  
HETATM    9  N   UNL     1      -9.741  10.490  68.390  1.00  0.00    -0.153 N  
HETATM   10  O   UNL     1     -12.011  10.850  68.144  1.00  0.00    -0.581 OA 
HETATM   11  H   UNL     1      -8.846  10.956  68.537  1.00  0.00     0.000 HD 
BRANCH   9  12
HETATM   12  C   UNL     1      -9.747   9.027  68.325  1.00  0.00    -0.152 C  
HETATM   13  C   UNL     1      -8.309   8.449  68.313  1.00  0.00    -0.131 C  
HETATM   14  C   UNL     1      -8.345   6.912  68.267  1.00  0.00    -0.123 C  
HETATM   15  C   UNL     1      -9.073   6.382  69.512  1.00  0.00    -0.138 C  
HETATM   16  C   UNL     1     -10.511   6.928  69.552  1.00  0.00    -0.244 C  
HETATM   17  C   UNL     1     -11.259   6.467  68.292  1.00  0.00    -0.276 C  
HETATM   18  C   UNL     1     -10.468   8.467  69.582  1.00  0.00    -0.221 C  
HETATM   19  C   UNL     1     -10.546   6.991  67.036  1.00  0.00    -0.412 C  
HETATM   20  C   UNL     1     -10.515   8.526  67.077  1.00  0.00    -0.362 C  
HETATM   21  C   UNL     1      -9.102   6.460  67.006  1.00  0.00    -0.130 C  
ENDBRANCH   9  12
ENDBRANCH   7   8
ENDBRANCH   6   7
ENDBRANCH   5   6
ENDBRANCH   4   5
ENDBRANCH   2   4
TORSDOF 6
ENDMDL
MODEL       94
REMARK 921   NORMALIZED FREE ENERGY PREDICTED BY IDOCK:   -4.08 KCAL/MOL
REMARK 922        TOTAL FREE ENERGY PREDICTED BY IDOCK:   -5.34 KCAL/MOL
REMARK 923 INTER-LIGAND FREE ENERGY PREDICTED BY IDOCK:   -5.33 KCAL/MOL
REMARK 924 INTRA-LIGAND FREE ENERGY PREDICTED BY IDOCK:   -0.02 KCAL/MOL
REMARK 927      BINDING AFFINITY PREDICTED BY RF-SCORE:    0.00 PKD
ROOT
HETATM    1  C   UNL     1     -10.925  15.053  64.879  1.00  0.00    -0.413 C  
HETATM    2  N   UNL     1     -11.829  14.710  65.982  1.00  0.00    -0.322 NA 
HETATM    3  C   UNL     1     -12.553  13.478  65.658  1.00  0.00    -0.459 C  
ENDROOT
BRANCH   2   4
HETATM    4  C   UNL     1     -11.055  14.589  67.233  1.00  0.00    -0.312 C  
BRANCH   4   5
HETATM    5  C   UNL     1     -11.846  14.022  68.422  1.00  0.00    -0.362 C  
BRANCH   5   6
HETATM    6  O   UNL     1     -11.145  12.892  68.955  1.00  0.00    -0.251 OA 
BRANCH   6   7
HETATM    7  C   UNL     1     -11.909  11.700  68.804  1.00  0.00    -0.325 C  
BRANCH   7   8
HETATM    8  C   UNL     1     -11.070  10.588  68.184  1.00  0.00    -0.287 C  
HETATM    9  N   UNL     1     -11.064   9.420  68.925  1.00  0.00    -0.448 N  
HETATM   10  O   UNL     1     -10.505  10.730  67.105  1.00  0.00    -0.212 OA 
HETATM   11  H   UNL     1     -11.609   9.401  69.787  1.00  0.00     0.000 HD 
BRANCH   9  12
HETATM   12  C   UNL     1     -10.327   8.210  68.554  1.00  0.00    -0.198 C  
HETATM   13  C   UNL     1     -10.669   7.023  69.489  1.00  0.00    -0.263 C  
HETATM   14  C   UNL     1      -9.900   5.761  69.063  1.00  0.00    -0.204 C  
HETATM   15  C   UNL     1     -10.297   5.382  67.628  1.00  0.00    -0.235 C  
HETATM   16  C   UNL     1      -9.962   6.536  66.668  1.00  0.00    -0.204 C  
HETATM   17  C   UNL     1      -8.451   6.811  66.721  1.00  0.00    -0.117 C  
HETATM   18  C   UNL     1     -10.723   7.800  67.109  1.00  0.00    -0.337 C  
HETATM   19  C   UNL     1      -8.036   7.194  68.148  1.00  0.00    -0.124 C  
HETATM   20  C   UNL     1      -8.798   8.459  68.574  1.00  0.00    -0.136 C  
HETATM   21  C   UNL     1      -8.389   6.048  69.113  1.00  0.00    -0.114 C  
ENDBRANCH   9  12
ENDBRANCH   7   8
ENDBRANCH   6   7
ENDBRANCH   5   6
ENDBRANCH   4   5
ENDBRANCH   2   4
TORSDOF 6
ENDMDL
MODEL       95
REMARK 921   NORMALIZED FREE ENERGY PREDICTED BY IDOCK:   -4.07 KCAL/MOL
REMARK 922        TOTAL FREE ENERGY PREDICTED BY IDOCK:   -5.34 KCAL/MOL
REMARK 923 INTER-LIGAND FREE ENERGY PREDICTED BY IDOCK:   -5.76 KCAL/MOL
REMARK 924 INTRA-LIGAND FREE ENERGY PREDICTED BY IDOCK:    0.42 KCAL/MOL
REMARK 927      BINDING AFFINITY PREDICTED BY RF-SCORE:    0.00 PKD
ROOT
HETATM    1  C   UNL     1      -8.931   9.517  62.977  1.00  0.00    -0.201 C  
HETATM    2  N   UNL     1      -9.173   9.601  64.421  1.00  0.00    -0.239 NA 
HETATM    3  C   UNL     1      -8.180   8.793  65.133  1.00  0.00    -0.148 C  
ENDROOT
BRANCH   2   4
HETATM    4  C   UNL     1      -9.147  11.016  64.843  1.00  0.00    -0.147 C  
BRANCH   4   5
HETATM    5  C   UNL     1     -10.429  11.801  64.529  1.00  0.00    -0.304 C  
BRANCH   5   6
HETATM    6  O   UNL     1     -10.355  13.088  65.153  1.00  0.00    -0.295 OA 
BRANCH   6   7
HETATM    7  C   UNL     1     -10.692  13.006  66.534  1.00  0.00    -0.278 C  
BRANCH   7   8
HETATM    8  C   UNL     1     -10.467  14.344  67.231  1.00  0.00    -0.269 C  
HETATM    9  N   UNL     1     -10.156  15.374  66.363  1.00  0.00    -0.265 N  
HETATM   10  O   UNL     1     -10.605  14.472  68.443  1.00  0.00    -0.233 OA 
HETATM   11  H   UNL     1     -10.114  15.161  65.367  1.00  0.00     0.000 HD 
BRANCH   9  12
HETATM   12  C   UNL     1      -9.882  16.752  66.779  1.00  0.00    -0.276 C  
HETATM   13  C   UNL     1      -8.362  17.017  66.917  1.00  0.00    -0.247 C  
HETATM   14  C   UNL     1      -8.104  18.475  67.333  1.00  0.00    -0.248 C  
HETATM   15  C   UNL     1      -8.668  19.418  66.259  1.00  0.00    -0.364 C  
HETATM   16  C   UNL     1     -10.181  19.190  66.101  1.00  0.00    -0.535 C  
HETATM   17  C   UNL     1     -10.875  19.475  67.442  1.00  0.00    -0.536 C  
HETATM   18  C   UNL     1     -10.434  17.724  65.701  1.00  0.00    -0.132 C  
HETATM   19  C   UNL     1     -10.325  18.538  68.528  1.00  0.00    -0.315 C  
HETATM   20  C   UNL     1     -10.588  17.081  68.118  1.00  0.00    -0.369 C  
HETATM   21  C   UNL     1      -8.808  18.753  68.672  1.00  0.00    -0.360 C  
ENDBRANCH   9  12
ENDBRANCH   7   8
ENDBRANCH   6   7
ENDBRANCH   5   6
ENDBRANCH   4   5
ENDBRANCH   2   4
TORSDOF 6
ENDMDL
MODEL       96
REMARK 921   NORMALIZED FREE ENERGY PREDICTED BY IDOCK:   -4.07 KCAL/MOL
REMARK 922        TOTAL FREE ENERGY PREDICTED BY IDOCK:   -5.33 KCAL/MOL
REMARK 923 INTER-LIGAND FREE ENERGY PREDICTED BY IDOCK:   -5.26 KCAL/MOL
REMARK 924 INTRA-LIGAND FREE ENERGY PREDICTED BY IDOCK:   -0.07 KCAL/MOL
REMARK 927      BINDING AFFINITY PREDICTED BY RF-SCORE:    0.00 PKD
ROOT
HETATM    1  C   UNL     1      -9.029   7.536  69.717  1.00  0.00    -0.141 C  
HETATM    2  N   UNL     1      -9.254   6.259  69.033  1.00  0.00    -0.128 NA 
HETATM    3  C   UNL     1     -10.543   5.701  69.447  1.00  0.00    -0.304 C  
ENDROOT
BRANCH   2   4
HETATM    4  C   UNL     1      -9.177   6.462  67.573  1.00  0.00    -0.112 C  
BRANCH   4   5
HETATM    5  C   UNL     1      -7.794   6.889  67.057  1.00  0.00    -0.111 C  
BRANCH   5   6
HETATM    6  O   UNL     1      -7.888   8.203  66.497  1.00  0.00    -0.091 OA 
BRANCH   6   7
HETATM    7  C   UNL     1      -9.153   8.403  65.874  1.00  0.00    -0.171 C  
BRANCH   7   8
HETATM    8  C   UNL     1      -9.362   9.872  65.522  1.00  0.00    -0.223 C  
HETATM    9  N   UNL     1     -10.267  10.516  66.348  1.00  0.00    -0.234 N  
HETATM   10  O   UNL     1      -8.737  10.415  64.618  1.00  0.00    -0.174 OA 
HETATM   11  H   UNL     1     -10.694   9.975  67.099  1.00  0.00     0.000 HD 
BRANCH   9  12
HETATM   12  C   UNL     1     -10.651  11.923  66.214  1.00  0.00    -0.253 C  
HETATM   13  C   UNL     1     -11.355  12.197  64.862  1.00  0.00    -0.378 C  
HETATM   14  C   UNL     1     -11.768  13.676  64.759  1.00  0.00    -0.399 C  
HETATM   15  C   UNL     1     -12.746  14.011  65.894  1.00  0.00    -0.436 C  
HETATM   16  C   UNL     1     -12.077  13.760  67.257  1.00  0.00    -0.393 C  
HETATM   17  C   UNL     1     -10.833  14.653  67.377  1.00  0.00    -0.298 C  
HETATM   18  C   UNL     1     -11.652  12.282  67.347  1.00  0.00    -0.425 C  
HETATM   19  C   UNL     1      -9.841  14.328  66.251  1.00  0.00    -0.323 C  
HETATM   20  C   UNL     1      -9.422  12.854  66.356  1.00  0.00    -0.228 C  
HETATM   21  C   UNL     1     -10.517  14.561  64.887  1.00  0.00    -0.435 C  
ENDBRANCH   9  12
ENDBRANCH   7   8
ENDBRANCH   6   7
ENDBRANCH   5   6
ENDBRANCH   4   5
ENDBRANCH   2   4
TORSDOF 6
ENDMDL
MODEL       97
REMARK 921   NORMALIZED FREE ENERGY PREDICTED BY IDOCK:   -4.07 KCAL/MOL
REMARK 922        TOTAL FREE ENERGY PREDICTED BY IDOCK:   -5.33 KCAL/MOL
REMARK 923 INTER-LIGAND FREE ENERGY PREDICTED BY IDOCK:   -5.30 KCAL/MOL
REMARK 924 INTRA-LIGAND FREE ENERGY PREDICTED BY IDOCK:   -0.03 KCAL/MOL
REMARK 927      BINDING AFFINITY PREDICTED BY RF-SCORE:    0.00 PKD
ROOT
HETATM    1  C   UNL     1      -8.392  11.942  68.573  1.00  0.00    -0.118 C  
HETATM    2  N   UNL     1      -9.567  12.689  68.112  1.00  0.00    -0.216 NA 
HETATM    3  C   UNL     1      -9.447  14.092  68.517  1.00  0.00    -0.191 C  
ENDROOT
BRANCH   2   4
HETATM    4  C   UNL     1      -9.702  12.540  66.649  1.00  0.00    -0.242 C  
BRANCH   4   5
HETATM    5  C   UNL     1     -11.050  11.968  66.186  1.00  0.00    -0.322 C  
BRANCH   5   6
HETATM    6  O   UNL     1     -11.332  10.775  66.925  1.00  0.00    -0.303 OA 
BRANCH   6   7
HETATM    7  C   UNL     1     -10.484   9.707  66.514  1.00  0.00    -0.143 C  
BRANCH   7   8
HETATM    8  C   UNL     1     -10.411   8.624  67.586  1.00  0.00    -0.254 C  
HETATM    9  N   UNL     1     -10.765   9.070  68.847  1.00  0.00    -0.376 N  
HETATM   10  O   UNL     1     -10.111   7.467  67.316  1.00  0.00    -0.183 OA 
HETATM   11  H   UNL     1     -11.043  10.046  68.946  1.00  0.00     0.000 HD 
BRANCH   9  12
HETATM   12  C   UNL     1     -10.767   8.232  70.049  1.00  0.00    -0.239 C  
HETATM   13  C   UNL     1     -11.239   6.789  69.740  1.00  0.00    -0.368 C  
HETATM   14  C   UNL     1     -11.209   5.927  71.014  1.00  0.00    -0.280 C  
HETATM   15  C   UNL     1      -9.772   5.866  71.553  1.00  0.00    -0.189 C  
HETATM   16  C   UNL     1      -9.272   7.283  71.882  1.00  0.00    -0.147 C  
HETATM   17  C   UNL     1     -10.190   7.905  72.947  1.00  0.00    -0.397 C  
HETATM   18  C   UNL     1      -9.320   8.145  70.606  1.00  0.00    -0.165 C  
HETATM   19  C   UNL     1     -11.631   7.978  72.422  1.00  0.00    -0.450 C  
HETATM   20  C   UNL     1     -11.664   8.844  71.154  1.00  0.00    -0.356 C  
HETATM   21  C   UNL     1     -12.124   6.561  72.075  1.00  0.00    -0.358 C  
ENDBRANCH   9  12
ENDBRANCH   7   8
ENDBRANCH   6   7
ENDBRANCH   5   6
ENDBRANCH   4   5
ENDBRANCH   2   4
TORSDOF 6
ENDMDL
MODEL       98
REMARK 921   NORMALIZED FREE ENERGY PREDICTED BY IDOCK:   -4.06 KCAL/MOL
REMARK 922        TOTAL FREE ENERGY PREDICTED BY IDOCK:   -5.31 KCAL/MOL
REMARK 923 INTER-LIGAND FREE ENERGY PREDICTED BY IDOCK:   -5.25 KCAL/MOL
REMARK 924 INTRA-LIGAND FREE ENERGY PREDICTED BY IDOCK:   -0.06 KCAL/MOL
REMARK 927      BINDING AFFINITY PREDICTED BY RF-SCORE:    0.00 PKD
ROOT
HETATM    1  C   UNL     1      -6.260  18.824  69.545  1.00  0.00    -0.268 C  
HETATM    2  N   UNL     1      -6.968  17.970  68.586  1.00  0.00    -0.251 NA 
HETATM    3  C   UNL     1      -7.025  16.599  69.098  1.00  0.00    -0.227 C  
ENDROOT
BRANCH   2   4
HETATM    4  C   UNL     1      -8.311  18.526  68.330  1.00  0.00    -0.332 C  
BRANCH   4   5
HETATM    5  C   UNL     1      -9.440  17.484  68.293  1.00  0.00    -0.296 C  
BRANCH   5   6
HETATM    6  O   UNL     1     -10.175  17.632  67.074  1.00  0.00    -0.309 OA 
BRANCH   6   7
HETATM    7  C   UNL     1      -9.725  16.705  66.090  1.00  0.00    -0.303 C  
BRANCH   7   8
HETATM    8  C   UNL     1     -10.183  15.290  66.424  1.00  0.00    -0.277 C  
HETATM    9  N   UNL     1      -9.143  14.389  66.563  1.00  0.00    -0.415 N  
HETATM   10  O   UNL     1     -11.367  15.017  66.596  1.00  0.00    -0.344 OA 
HETATM   11  H   UNL     1      -8.192  14.738  66.443  1.00  0.00     0.000 HD 
BRANCH   9  12
HETATM   12  C   UNL     1      -9.315  12.967  66.870  1.00  0.00    -0.241 C  
HETATM   13  C   UNL     1      -7.956  12.267  67.119  1.00  0.00    -0.161 C  
HETATM   14  C   UNL     1      -8.169  10.782  67.461  1.00  0.00    -0.112 C  
HETATM   15  C   UNL     1      -9.016  10.670  68.738  1.00  0.00    -0.172 C  
HETATM   16  C   UNL     1     -10.381  11.348  68.525  1.00  0.00    -0.219 C  
HETATM   17  C   UNL     1     -11.112  10.651  67.367  1.00  0.00    -0.341 C  
HETATM   18  C   UNL     1     -10.160  12.830  68.167  1.00  0.00    -0.239 C  
HETATM   19  C   UNL     1     -10.280  10.756  66.081  1.00  0.00    -0.308 C  
HETATM   20  C   UNL     1     -10.072  12.238  65.733  1.00  0.00    -0.274 C  
HETATM   21  C   UNL     1      -8.907  10.095  66.300  1.00  0.00    -0.163 C  
ENDBRANCH   9  12
ENDBRANCH   7   8
ENDBRANCH   6   7
ENDBRANCH   5   6
ENDBRANCH   4   5
ENDBRANCH   2   4
TORSDOF 6
ENDMDL
MODEL       99
REMARK 921   NORMALIZED FREE ENERGY PREDICTED BY IDOCK:   -4.05 KCAL/MOL
REMARK 922        TOTAL FREE ENERGY PREDICTED BY IDOCK:   -5.31 KCAL/MOL
REMARK 923 INTER-LIGAND FREE ENERGY PREDICTED BY IDOCK:   -5.29 KCAL/MOL
REMARK 924 INTRA-LIGAND FREE ENERGY PREDICTED BY IDOCK:   -0.02 KCAL/MOL
REMARK 927      BINDING AFFINITY PREDICTED BY RF-SCORE:    0.00 PKD
ROOT
HETATM    1  C   UNL     1     -10.733   7.189  67.157  1.00  0.00    -0.352 C  
HETATM    2  N   UNL     1      -9.780   8.124  67.763  1.00  0.00    -0.152 NA 
HETATM    3  C   UNL     1      -8.415   7.633  67.560  1.00  0.00    -0.116 C  
ENDROOT
BRANCH   2   4
HETATM    4  C   UNL     1      -9.979   9.470  67.191  1.00  0.00    -0.204 C  
BRANCH   4   5
HETATM    5  C   UNL     1     -10.006   9.517  65.656  1.00  0.00    -0.199 C  
BRANCH   5   6
HETATM    6  O   UNL     1      -9.440  10.755  65.213  1.00  0.00    -0.193 OA 
BRANCH   6   7
HETATM    7  C   UNL     1     -10.407  11.542  64.525  1.00  0.00    -0.302 C  
BRANCH   7   8
HETATM    8  C   UNL     1     -10.471  12.953  65.098  1.00  0.00    -0.309 C  
HETATM    9  N   UNL     1      -9.892  13.069  66.349  1.00  0.00    -0.265 N  
HETATM   10  O   UNL     1     -10.952  13.887  64.465  1.00  0.00    -0.388 OA 
HETATM   11  H   UNL     1      -9.480  12.233  66.762  1.00  0.00     0.000 HD 
BRANCH   9  12
HETATM   12  C   UNL     1      -9.833  14.313  67.120  1.00  0.00    -0.252 C  
HETATM   13  C   UNL     1      -9.220  15.470  66.293  1.00  0.00    -0.364 C  
HETATM   14  C   UNL     1      -9.190  16.768  67.119  1.00  0.00    -0.233 C  
HETATM   15  C   UNL     1     -10.625  17.154  67.510  1.00  0.00    -0.323 C  
HETATM   16  C   UNL     1     -11.264  16.031  68.344  1.00  0.00    -0.364 C  
HETATM   17  C   UNL     1     -10.430  15.813  69.617  1.00  0.00    -0.289 C  
HETATM   18  C   UNL     1     -11.275  14.731  67.518  1.00  0.00    -0.339 C  
HETATM   19  C   UNL     1      -8.993  15.422  69.244  1.00  0.00    -0.261 C  
HETATM   20  C   UNL     1      -9.019  14.123  68.425  1.00  0.00    -0.189 C  
HETATM   21  C   UNL     1      -8.360  16.538  68.393  1.00  0.00    -0.200 C  
ENDBRANCH   9  12
ENDBRANCH   7   8
ENDBRANCH   6   7
ENDBRANCH   5   6
ENDBRANCH   4   5
ENDBRANCH   2   4
TORSDOF 6
ENDMDL
MODEL      100
REMARK 921   NORMALIZED FREE ENERGY PREDICTED BY IDOCK:   -4.05 KCAL/MOL
REMARK 922        TOTAL FREE ENERGY PREDICTED BY IDOCK:   -5.31 KCAL/MOL
REMARK 923 INTER-LIGAND FREE ENERGY PREDICTED BY IDOCK:   -5.31 KCAL/MOL
REMARK 924 INTRA-LIGAND FREE ENERGY PREDICTED BY IDOCK:    0.00 KCAL/MOL
REMARK 927      BINDING AFFINITY PREDICTED BY RF-SCORE:    0.00 PKD
ROOT
HETATM    1  C   UNL     1     -10.488   5.095  66.316  1.00  0.00    -0.289 C  
HETATM    2  N   UNL     1     -10.693   6.427  66.894  1.00  0.00    -0.324 NA 
HETATM    3  C   UNL     1     -11.032   6.300  68.313  1.00  0.00    -0.321 C  
ENDROOT
BRANCH   2   4
HETATM    4  C   UNL     1      -9.485   7.248  66.682  1.00  0.00    -0.177 C  
BRANCH   4   5
HETATM    5  C   UNL     1      -9.740   8.599  65.996  1.00  0.00    -0.168 C  
BRANCH   5   6
HETATM    6  O   UNL     1      -9.611   9.647  66.962  1.00  0.00    -0.160 OA 
BRANCH   6   7
HETATM    7  C   UNL     1     -10.888  10.086  67.414  1.00  0.00    -0.249 C  
BRANCH   7   8
HETATM    8  C   UNL     1     -11.042  11.593  67.237  1.00  0.00    -0.290 C  
HETATM    9  N   UNL     1      -9.968  12.319  67.719  1.00  0.00    -0.195 N  
HETATM   10  O   UNL     1     -12.015  12.081  66.672  1.00  0.00    -0.614 OA 
HETATM   11  H   UNL     1      -9.189  11.803  68.128  1.00  0.00     0.000 HD 
BRANCH   9  12
HETATM   12  C   UNL     1      -9.874  13.780  67.680  1.00  0.00    -0.234 C  
HETATM   13  C   UNL     1     -11.167  14.451  68.205  1.00  0.00    -0.295 C  
HETATM   14  C   UNL     1     -11.032  15.983  68.175  1.00  0.00    -0.339 C  
HETATM   15  C   UNL     1      -9.862  16.409  69.074  1.00  0.00    -0.266 C  
HETATM   16  C   UNL     1      -8.555  15.769  68.576  1.00  0.00    -0.183 C  
HETATM   17  C   UNL     1      -8.285  16.234  67.136  1.00  0.00    -0.219 C  
HETATM   18  C   UNL     1      -8.703  14.235  68.594  1.00  0.00    -0.150 C  
HETATM   19  C   UNL     1      -9.444  15.813  66.222  1.00  0.00    -0.349 C  
HETATM   20  C   UNL     1      -9.577  14.283  66.245  1.00  0.00    -0.310 C  
HETATM   21  C   UNL     1     -10.755  16.438  66.731  1.00  0.00    -0.180 C  
ENDBRANCH   9  12
ENDBRANCH   7   8
ENDBRANCH   6   7
ENDBRANCH   5   6
ENDBRANCH   4   5
ENDBRANCH   2   4
TORSDOF 6
ENDMDL
MODEL      101
REMARK 921   NORMALIZED FREE ENERGY PREDICTED BY IDOCK:   -4.03 KCAL/MOL
REMARK 922        TOTAL FREE ENERGY PREDICTED BY IDOCK:   -5.28 KCAL/MOL
REMARK 923 INTER-LIGAND FREE ENERGY PREDICTED BY IDOCK:   -5.43 KCAL/MOL
REMARK 924 INTRA-LIGAND FREE ENERGY PREDICTED BY IDOCK:    0.15 KCAL/MOL
REMARK 927      BINDING AFFINITY PREDICTED BY RF-SCORE:    0.00 PKD
ROOT
HETATM    1  C   UNL     1      -8.661  20.567  66.856  1.00  0.00    -0.176 C  
HETATM    2  N   UNL     1      -7.276  20.087  66.917  1.00  0.00    -0.229 NA 
HETATM    3  C   UNL     1      -6.418  20.962  66.115  1.00  0.00    -0.222 C  
ENDROOT
BRANCH   2   4
HETATM    4  C   UNL     1      -6.841  20.018  68.326  1.00  0.00    -0.302 C  
BRANCH   4   5
HETATM    5  C   UNL     1      -6.308  18.645  68.765  1.00  0.00    -0.222 C  
BRANCH   5   6
HETATM    6  O   UNL     1      -7.164  17.622  68.245  1.00  0.00    -0.210 OA 
BRANCH   6   7
HETATM    7  C   UNL     1      -7.210  16.501  69.122  1.00  0.00    -0.226 C  
BRANCH   7   8
HETATM    8  C   UNL     1      -8.345  15.556  68.741  1.00  0.00    -0.187 C  
HETATM    9  N   UNL     1      -8.626  15.547  67.387  1.00  0.00    -0.169 N  
HETATM   10  O   UNL     1      -8.904  14.848  69.572  1.00  0.00    -0.107 OA 
HETATM   11  H   UNL     1      -8.065  16.144  66.780  1.00  0.00     0.000 HD 
BRANCH   9  12
HETATM   12  C   UNL     1      -9.677  14.736  66.766  1.00  0.00    -0.254 C  
HETATM   13  C   UNL     1     -10.096  15.303  65.386  1.00  0.00    -0.397 C  
HETATM   14  C   UNL     1     -11.183  14.420  64.748  1.00  0.00    -0.391 C  
HETATM   15  C   UNL     1     -10.631  13.001  64.545  1.00  0.00    -0.413 C  
HETATM   16  C   UNL     1     -10.213  12.400  65.899  1.00  0.00    -0.273 C  
HETATM   17  C   UNL     1     -11.439  12.343  66.823  1.00  0.00    -0.423 C  
HETATM   18  C   UNL     1      -9.137  13.298  66.539  1.00  0.00    -0.130 C  
HETATM   19  C   UNL     1     -12.002  13.755  67.040  1.00  0.00    -0.452 C  
HETATM   20  C   UNL     1     -10.920  14.636  67.683  1.00  0.00    -0.296 C  
HETATM   21  C   UNL     1     -12.403  14.363  65.684  1.00  0.00    -0.347 C  
ENDBRANCH   9  12
ENDBRANCH   7   8
ENDBRANCH   6   7
ENDBRANCH   5   6
ENDBRANCH   4   5
ENDBRANCH   2   4
TORSDOF 6
ENDMDL
MODEL      102
REMARK 921   NORMALIZED FREE ENERGY PREDICTED BY IDOCK:   -4.03 KCAL/MOL
REMARK 922        TOTAL FREE ENERGY PREDICTED BY IDOCK:   -5.27 KCAL/MOL
REMARK 923 INTER-LIGAND FREE ENERGY PREDICTED BY IDOCK:   -5.48 KCAL/MOL
REMARK 924 INTRA-LIGAND FREE ENERGY PREDICTED BY IDOCK:    0.20 KCAL/MOL
REMARK 927      BINDING AFFINITY PREDICTED BY RF-SCORE:    0.00 PKD
ROOT
HETATM    1  C   UNL     1      -8.665   3.489  66.370  1.00  0.00    -0.124 C  
HETATM    2  N   UNL     1      -9.119   4.548  65.463  1.00  0.00    -0.136 NA 
HETATM    3  C   UNL     1     -10.350   4.126  64.792  1.00  0.00    -0.188 C  
ENDROOT
BRANCH   2   4
HETATM    4  C   UNL     1      -9.299   5.802  66.221  1.00  0.00    -0.156 C  
BRANCH   4   5
HETATM    5  C   UNL     1      -8.009   6.607  66.443  1.00  0.00    -0.106 C  
BRANCH   5   6
HETATM    6  O   UNL     1      -8.350   7.951  66.800  1.00  0.00    -0.115 OA 
BRANCH   6   7
HETATM    7  C   UNL     1      -9.723   8.217  66.531  1.00  0.00    -0.253 C  
BRANCH   7   8
HETATM    8  C   UNL     1      -9.902   9.612  65.940  1.00  0.00    -0.288 C  
HETATM    9  N   UNL     1     -10.395  10.536  66.844  1.00  0.00    -0.229 N  
HETATM   10  O   UNL     1      -9.585   9.870  64.784  1.00  0.00    -0.289 OA 
HETATM   11  H   UNL     1     -10.581  10.219  67.795  1.00  0.00     0.000 HD 
BRANCH   9  12
HETATM   12  C   UNL     1     -10.668  11.939  66.525  1.00  0.00    -0.258 C  
HETATM   13  C   UNL     1      -9.366  12.778  66.474  1.00  0.00    -0.221 C  
HETATM   14  C   UNL     1      -9.680  14.241  66.116  1.00  0.00    -0.325 C  
HETATM   15  C   UNL     1     -10.348  14.294  64.734  1.00  0.00    -0.373 C  
HETATM   16  C   UNL     1     -11.653  13.479  64.749  1.00  0.00    -0.372 C  
HETATM   17  C   UNL     1     -12.605  14.074  65.798  1.00  0.00    -0.512 C  
HETATM   18  C   UNL     1     -11.334  12.019  65.124  1.00  0.00    -0.359 C  
HETATM   19  C   UNL     1     -11.953  14.026  67.187  1.00  0.00    -0.465 C  
HETATM   20  C   UNL     1     -11.646  12.565  67.550  1.00  0.00    -0.424 C  
HETATM   21  C   UNL     1     -10.638  14.825  67.167  1.00  0.00    -0.285 C  
ENDBRANCH   9  12
ENDBRANCH   7   8
ENDBRANCH   6   7
ENDBRANCH   5   6
ENDBRANCH   4   5
ENDBRANCH   2   4
TORSDOF 6
ENDMDL
MODEL      103
REMARK 921   NORMALIZED FREE ENERGY PREDICTED BY IDOCK:   -4.01 KCAL/MOL
REMARK 922        TOTAL FREE ENERGY PREDICTED BY IDOCK:   -5.26 KCAL/MOL
REMARK 923 INTER-LIGAND FREE ENERGY PREDICTED BY IDOCK:   -5.04 KCAL/MOL
REMARK 924 INTRA-LIGAND FREE ENERGY PREDICTED BY IDOCK:   -0.21 KCAL/MOL
REMARK 927      BINDING AFFINITY PREDICTED BY RF-SCORE:    0.00 PKD
ROOT
HETATM    1  C   UNL     1      -8.586   8.397  71.956  1.00  0.00    -0.191 C  
HETATM    2  N   UNL     1      -9.087   7.296  72.786  1.00  0.00    -0.133 NA 
HETATM    3  C   UNL     1      -8.497   7.382  74.124  1.00  0.00    -0.202 C  
ENDROOT
BRANCH   2   4
HETATM    4  C   UNL     1     -10.562   7.339  72.823  1.00  0.00    -0.281 C  
BRANCH   4   5
HETATM    5  C   UNL     1     -11.255   6.228  72.018  1.00  0.00    -0.281 C  
BRANCH   5   6
HETATM    6  O   UNL     1     -11.703   6.765  70.768  1.00  0.00    -0.345 OA 
BRANCH   6   7
HETATM    7  C   UNL     1     -10.808   6.420  69.715  1.00  0.00    -0.314 C  
BRANCH   7   8
HETATM    8  C   UNL     1     -10.349   7.662  68.959  1.00  0.00    -0.213 C  
HETATM    9  N   UNL     1     -11.145   8.771  69.183  1.00  0.00    -0.426 N  
HETATM   10  O   UNL     1      -9.337   7.660  68.266  1.00  0.00    -0.145 OA 
HETATM   11  H   UNL     1     -11.937   8.669  69.817  1.00  0.00     0.000 HD 
BRANCH   9  12
HETATM   12  C   UNL     1     -10.927  10.083  68.568  1.00  0.00    -0.209 C  
HETATM   13  C   UNL     1     -11.996  11.110  69.017  1.00  0.00    -0.389 C  
HETATM   14  C   UNL     1     -11.729  12.482  68.375  1.00  0.00    -0.375 C  
HETATM   15  C   UNL     1     -10.349  12.991  68.817  1.00  0.00    -0.146 C  
HETATM   16  C   UNL     1      -9.257  11.999  68.379  1.00  0.00    -0.160 C  
HETATM   17  C   UNL     1      -9.284  11.867  66.848  1.00  0.00    -0.193 C  
HETATM   18  C   UNL     1      -9.540  10.623  69.012  1.00  0.00    -0.207 C  
HETATM   19  C   UNL     1     -10.657  11.356  66.389  1.00  0.00    -0.311 C  
HETATM   20  C   UNL     1     -10.923   9.982  67.023  1.00  0.00    -0.119 C  
HETATM   21  C   UNL     1     -11.751  12.338  66.844  1.00  0.00    -0.404 C  
ENDBRANCH   9  12
ENDBRANCH   7   8
ENDBRANCH   6   7
ENDBRANCH   5   6
ENDBRANCH   4   5
ENDBRANCH   2   4
TORSDOF 6
ENDMDL
MODEL      104
REMARK 921   NORMALIZED FREE ENERGY PREDICTED BY IDOCK:   -4.00 KCAL/MOL
REMARK 922        TOTAL FREE ENERGY PREDICTED BY IDOCK:   -5.24 KCAL/MOL
REMARK 923 INTER-LIGAND FREE ENERGY PREDICTED BY IDOCK:   -5.19 KCAL/MOL
REMARK 924 INTRA-LIGAND FREE ENERGY PREDICTED BY IDOCK:   -0.05 KCAL/MOL
REMARK 927      BINDING AFFINITY PREDICTED BY RF-SCORE:    0.00 PKD
ROOT
HETATM    1  C   UNL     1      -7.449   9.829  65.657  1.00  0.00    -0.110 C  
HETATM    2  N   UNL     1      -8.694   9.170  66.066  1.00  0.00    -0.144 NA 
HETATM    3  C   UNL     1      -8.817   9.215  67.525  1.00  0.00    -0.119 C  
ENDROOT
BRANCH   2   4
HETATM    4  C   UNL     1      -9.837   9.815  65.389  1.00  0.00    -0.295 C  
BRANCH   4   5
HETATM    5  C   UNL     1      -9.529  11.191  64.782  1.00  0.00    -0.218 C  
BRANCH   5   6
HETATM    6  O   UNL     1     -10.674  12.037  64.930  1.00  0.00    -0.279 OA 
BRANCH   6   7
HETATM    7  C   UNL     1     -11.071  12.123  66.296  1.00  0.00    -0.310 C  
BRANCH   7   8
HETATM    8  C   UNL     1     -10.466  13.353  66.964  1.00  0.00    -0.257 C  
HETATM    9  N   UNL     1     -10.688  14.527  66.266  1.00  0.00    -0.303 N  
HETATM   10  O   UNL     1      -9.886  13.284  68.042  1.00  0.00    -0.217 OA 
HETATM   11  H   UNL     1     -11.225  14.472  65.401  1.00  0.00     0.000 HD 
BRANCH   9  12
HETATM   12  C   UNL     1     -10.203  15.843  66.687  1.00  0.00    -0.288 C  
HETATM   13  C   UNL     1     -10.672  16.961  65.723  1.00  0.00    -0.165 C  
HETATM   14  C   UNL     1     -10.167  18.334  66.201  1.00  0.00    -0.393 C  
HETATM   15  C   UNL     1     -10.734  18.625  67.599  1.00  0.00    -0.428 C  
HETATM   16  C   UNL     1     -10.280  17.539  68.588  1.00  0.00    -0.373 C  
HETATM   17  C   UNL     1      -8.745  17.530  68.654  1.00  0.00    -0.258 C  
HETATM   18  C   UNL     1     -10.774  16.166  68.095  1.00  0.00    -0.315 C  
HETATM   19  C   UNL     1      -8.160  17.236  67.265  1.00  0.00    -0.210 C  
HETATM   20  C   UNL     1      -8.657  15.863  66.788  1.00  0.00    -0.301 C  
HETATM   21  C   UNL     1      -8.631  18.313  66.270  1.00  0.00    -0.208 C  
ENDBRANCH   9  12
ENDBRANCH   7   8
ENDBRANCH   6   7
ENDBRANCH   5   6
ENDBRANCH   4   5
ENDBRANCH   2   4
TORSDOF 6
ENDMDL
MODEL      105
REMARK 921   NORMALIZED FREE ENERGY PREDICTED BY IDOCK:   -3.99 KCAL/MOL
REMARK 922        TOTAL FREE ENERGY PREDICTED BY IDOCK:   -5.22 KCAL/MOL
REMARK 923 INTER-LIGAND FREE ENERGY PREDICTED BY IDOCK:   -5.03 KCAL/MOL
REMARK 924 INTRA-LIGAND FREE ENERGY PREDICTED BY IDOCK:   -0.19 KCAL/MOL
REMARK 927      BINDING AFFINITY PREDICTED BY RF-SCORE:    0.00 PKD
ROOT
HETATM    1  C   UNL     1      -5.769  10.464  67.330  1.00  0.00    -0.045 C  
HETATM    2  N   UNL     1      -6.014   9.047  67.045  1.00  0.00    -0.055 NA 
HETATM    3  C   UNL     1      -7.275   8.632  67.663  1.00  0.00    -0.084 C  
ENDROOT
BRANCH   2   4
HETATM    4  C   UNL     1      -6.011   8.830  65.585  1.00  0.00    -0.051 C  
BRANCH   4   5
HETATM    5  C   UNL     1      -5.736  10.091  64.751  1.00  0.00    -0.100 C  
BRANCH   5   6
HETATM    6  O   UNL     1      -6.855  10.340  63.894  1.00  0.00    -0.124 OA 
BRANCH   6   7
HETATM    7  C   UNL     1      -8.013   9.650  64.354  1.00  0.00    -0.138 C  
BRANCH   7   8
HETATM    8  C   UNL     1      -9.192  10.604  64.509  1.00  0.00    -0.231 C  
HETATM    9  N   UNL     1      -8.982  11.593  65.453  1.00  0.00    -0.405 N  
HETATM   10  O   UNL     1     -10.198  10.508  63.814  1.00  0.00    -0.281 OA 
HETATM   11  H   UNL     1      -8.086  11.604  65.940  1.00  0.00     0.000 HD 
BRANCH   9  12
HETATM   12  C   UNL     1      -9.961  12.626  65.800  1.00  0.00    -0.256 C  
HETATM   13  C   UNL     1     -11.255  12.013  66.391  1.00  0.00    -0.389 C  
HETATM   14  C   UNL     1     -12.255  13.120  66.766  1.00  0.00    -0.306 C  
HETATM   15  C   UNL     1     -11.624  14.038  67.824  1.00  0.00    -0.378 C  
HETATM   16  C   UNL     1     -10.339  14.675  67.268  1.00  0.00    -0.256 C  
HETATM   17  C   UNL     1     -10.687  15.501  66.019  1.00  0.00    -0.331 C  
HETATM   18  C   UNL     1      -9.349  13.561  66.878  1.00  0.00    -0.255 C  
HETATM   19  C   UNL     1     -11.316  14.597  64.950  1.00  0.00    -0.403 C  
HETATM   20  C   UNL     1     -10.317  13.495  64.568  1.00  0.00    -0.381 C  
HETATM   21  C   UNL     1     -12.592  13.945  65.512  1.00  0.00    -0.560 C  
ENDBRANCH   9  12
ENDBRANCH   7   8
ENDBRANCH   6   7
ENDBRANCH   5   6
ENDBRANCH   4   5
ENDBRANCH   2   4
TORSDOF 6
ENDMDL
MODEL      106
REMARK 921   NORMALIZED FREE ENERGY PREDICTED BY IDOCK:   -3.98 KCAL/MOL
REMARK 922        TOTAL FREE ENERGY PREDICTED BY IDOCK:   -5.21 KCAL/MOL
REMARK 923 INTER-LIGAND FREE ENERGY PREDICTED BY IDOCK:   -5.42 KCAL/MOL
REMARK 924 INTRA-LIGAND FREE ENERGY PREDICTED BY IDOCK:    0.21 KCAL/MOL
REMARK 927      BINDING AFFINITY PREDICTED BY RF-SCORE:    0.00 PKD
ROOT
HETATM    1  C   UNL     1     -10.734   7.491  73.312  1.00  0.00    -0.382 C  
HETATM    2  N   UNL     1     -10.913   6.749  72.061  1.00  0.00    -0.231 NA 
HETATM    3  C   UNL     1     -12.249   7.010  71.521  1.00  0.00    -0.368 C  
ENDROOT
BRANCH   2   4
HETATM    4  C   UNL     1      -9.845   7.120  71.111  1.00  0.00    -0.179 C  
BRANCH   4   5
HETATM    5  C   UNL     1      -9.186   8.480  71.388  1.00  0.00    -0.210 C  
BRANCH   5   6
HETATM    6  O   UNL     1      -9.553   9.399  70.354  1.00  0.00    -0.230 OA 
BRANCH   6   7
HETATM    7  C   UNL     1      -8.399   9.959  69.735  1.00  0.00    -0.183 C  
BRANCH   7   8
HETATM    8  C   UNL     1      -8.791  10.910  68.609  1.00  0.00    -0.158 C  
HETATM    9  N   UNL     1      -9.587  11.962  69.026  1.00  0.00    -0.402 N  
HETATM   10  O   UNL     1      -8.382  10.759  67.463  1.00  0.00    -0.115 OA 
HETATM   11  H   UNL     1      -9.828  12.014  70.016  1.00  0.00     0.000 HD 
BRANCH   9  12
HETATM   12  C   UNL     1     -10.108  13.006  68.140  1.00  0.00    -0.237 C  
HETATM   13  C   UNL     1      -9.032  14.074  67.822  1.00  0.00    -0.186 C  
HETATM   14  C   UNL     1      -9.598  15.145  66.873  1.00  0.00    -0.252 C  
HETATM   15  C   UNL     1     -10.031  14.480  65.557  1.00  0.00    -0.373 C  
HETATM   16  C   UNL     1     -11.109  13.418  65.833  1.00  0.00    -0.293 C  
HETATM   17  C   UNL     1     -12.325  14.094  66.486  1.00  0.00    -0.405 C  
HETATM   18  C   UNL     1     -10.541  12.359  66.796  1.00  0.00    -0.250 C  
HETATM   19  C   UNL     1     -11.911  14.761  67.805  1.00  0.00    -0.322 C  
HETATM   20  C   UNL     1     -11.351  13.693  68.757  1.00  0.00    -0.326 C  
HETATM   21  C   UNL     1     -10.819  15.811  67.531  1.00  0.00    -0.315 C  
ENDBRANCH   9  12
ENDBRANCH   7   8
ENDBRANCH   6   7
ENDBRANCH   5   6
ENDBRANCH   4   5
ENDBRANCH   2   4
TORSDOF 6
ENDMDL
MODEL      107
REMARK 921   NORMALIZED FREE ENERGY PREDICTED BY IDOCK:   -3.97 KCAL/MOL
REMARK 922        TOTAL FREE ENERGY PREDICTED BY IDOCK:   -5.20 KCAL/MOL
REMARK 923 INTER-LIGAND FREE ENERGY PREDICTED BY IDOCK:   -5.36 KCAL/MOL
REMARK 924 INTRA-LIGAND FREE ENERGY PREDICTED BY IDOCK:    0.16 KCAL/MOL
REMARK 927      BINDING AFFINITY PREDICTED BY RF-SCORE:    0.00 PKD
ROOT
HETATM    1  C   UNL     1     -11.613  15.332  70.114  1.00  0.00    -0.299 C  
HETATM    2  N   UNL     1     -11.681  15.554  68.666  1.00  0.00    -0.363 NA 
HETATM    3  C   UNL     1     -10.893  16.738  68.314  1.00  0.00    -0.366 C  
ENDROOT
BRANCH   2   4
HETATM    4  C   UNL     1     -11.216  14.344  67.960  1.00  0.00    -0.280 C  
BRANCH   4   5
HETATM    5  C   UNL     1     -12.206  13.788  66.924  1.00  0.00    -0.366 C  
BRANCH   5   6
HETATM    6  O   UNL     1     -11.920  12.403  66.700  1.00  0.00    -0.562 OA 
BRANCH   6   7
HETATM    7  C   UNL     1     -10.516  12.174  66.645  1.00  0.00    -0.220 C  
BRANCH   7   8
HETATM    8  C   UNL     1     -10.107  11.053  67.596  1.00  0.00    -0.182 C  
HETATM    9  N   UNL     1     -10.443   9.791  67.139  1.00  0.00    -0.254 N  
HETATM   10  O   UNL     1      -9.497  11.278  68.635  1.00  0.00    -0.186 OA 
HETATM   11  H   UNL     1     -10.909   9.720  66.235  1.00  0.00     0.000 HD 
BRANCH   9  12
HETATM   12  C   UNL     1     -10.172   8.550  67.869  1.00  0.00    -0.218 C  
HETATM   13  C   UNL     1      -8.652   8.295  68.020  1.00  0.00    -0.132 C  
HETATM   14  C   UNL     1      -8.398   6.999  68.808  1.00  0.00    -0.122 C  
HETATM   15  C   UNL     1      -9.013   7.126  70.210  1.00  0.00    -0.152 C  
HETATM   16  C   UNL     1     -10.527   7.371  70.100  1.00  0.00    -0.228 C  
HETATM   17  C   UNL     1     -11.175   6.186  69.367  1.00  0.00    -0.466 C  
HETATM   18  C   UNL     1     -10.775   8.661  69.296  1.00  0.00    -0.151 C  
HETATM   19  C   UNL     1     -10.574   6.045  67.961  1.00  0.00    -0.330 C  
HETATM   20  C   UNL     1     -10.833   7.336  67.169  1.00  0.00    -0.378 C  
HETATM   21  C   UNL     1      -9.055   5.820  68.070  1.00  0.00    -0.110 C  
ENDBRANCH   9  12
ENDBRANCH   7   8
ENDBRANCH   6   7
ENDBRANCH   5   6
ENDBRANCH   4   5
ENDBRANCH   2   4
TORSDOF 6
ENDMDL
MODEL      108
REMARK 921   NORMALIZED FREE ENERGY PREDICTED BY IDOCK:   -3.95 KCAL/MOL
REMARK 922        TOTAL FREE ENERGY PREDICTED BY IDOCK:   -5.18 KCAL/MOL
REMARK 923 INTER-LIGAND FREE ENERGY PREDICTED BY IDOCK:   -5.09 KCAL/MOL
REMARK 924 INTRA-LIGAND FREE ENERGY PREDICTED BY IDOCK:   -0.08 KCAL/MOL
REMARK 927      BINDING AFFINITY PREDICTED BY RF-SCORE:    0.00 PKD
ROOT
HETATM    1  C   UNL     1      -7.487   8.962  67.729  1.00  0.00    -0.093 C  
HETATM    2  N   UNL     1      -8.555   8.322  66.954  1.00  0.00    -0.117 NA 
HETATM    3  C   UNL     1      -9.858   8.734  67.481  1.00  0.00    -0.179 C  
ENDROOT
BRANCH   2   4
HETATM    4  C   UNL     1      -8.399   8.663  65.526  1.00  0.00    -0.150 C  
BRANCH   4   5
HETATM    5  C   UNL     1      -9.477   9.607  64.971  1.00  0.00    -0.245 C  
BRANCH   5   6
HETATM    6  O   UNL     1      -8.912  10.910  64.793  1.00  0.00    -0.191 OA 
BRANCH   6   7
HETATM    7  C   UNL     1      -9.929  11.881  64.567  1.00  0.00    -0.228 C  
BRANCH   7   8
HETATM    8  C   UNL     1     -10.175  12.716  65.819  1.00  0.00    -0.272 C  
HETATM    9  N   UNL     1      -9.590  13.969  65.772  1.00  0.00    -0.515 N  
HETATM   10  O   UNL     1     -10.869  12.307  66.743  1.00  0.00    -0.237 OA 
HETATM   11  H   UNL     1      -9.072  14.221  64.931  1.00  0.00     0.000 HD 
BRANCH   9  12
HETATM   12  C   UNL     1      -9.666  14.958  66.850  1.00  0.00    -0.240 C  
HETATM   13  C   UNL     1      -8.844  14.519  68.088  1.00  0.00    -0.177 C  
HETATM   14  C   UNL     1      -8.924  15.585  69.194  1.00  0.00    -0.256 C  
HETATM   15  C   UNL     1      -8.345  16.908  68.668  1.00  0.00    -0.261 C  
HETATM   16  C   UNL     1      -9.144  17.381  67.442  1.00  0.00    -0.236 C  
HETATM   17  C   UNL     1     -10.610  17.594  67.849  1.00  0.00    -0.390 C  
HETATM   18  C   UNL     1      -9.074  16.302  66.344  1.00  0.00    -0.336 C  
HETATM   19  C   UNL     1     -11.206  16.280  68.374  1.00  0.00    -0.349 C  
HETATM   20  C   UNL     1     -11.135  15.215  67.269  1.00  0.00    -0.332 C  
HETATM   21  C   UNL     1     -10.395  15.796  69.590  1.00  0.00    -0.290 C  
ENDBRANCH   9  12
ENDBRANCH   7   8
ENDBRANCH   6   7
ENDBRANCH   5   6
ENDBRANCH   4   5
ENDBRANCH   2   4
TORSDOF 6
ENDMDL
MODEL      109
REMARK 921   NORMALIZED FREE ENERGY PREDICTED BY IDOCK:   -3.95 KCAL/MOL
REMARK 922        TOTAL FREE ENERGY PREDICTED BY IDOCK:   -5.17 KCAL/MOL
REMARK 923 INTER-LIGAND FREE ENERGY PREDICTED BY IDOCK:   -5.09 KCAL/MOL
REMARK 924 INTRA-LIGAND FREE ENERGY PREDICTED BY IDOCK:   -0.08 KCAL/MOL
REMARK 927      BINDING AFFINITY PREDICTED BY RF-SCORE:    0.00 PKD
ROOT
HETATM    1  C   UNL     1      -8.337   5.940  71.920  1.00  0.00    -0.119 C  
HETATM    2  N   UNL     1      -9.783   6.142  72.053  1.00  0.00    -0.153 NA 
HETATM    3  C   UNL     1     -10.461   4.844  72.069  1.00  0.00    -0.176 C  
ENDROOT
BRANCH   2   4
HETATM    4  C   UNL     1     -10.060   6.931  73.270  1.00  0.00    -0.232 C  
BRANCH   4   5
HETATM    5  C   UNL     1     -11.047   8.091  73.071  1.00  0.00    -0.233 C  
BRANCH   5   6
HETATM    6  O   UNL     1     -11.248   8.301  71.669  1.00  0.00    -0.247 OA 
BRANCH   6   7
HETATM    7  C   UNL     1     -12.148   9.380  71.438  1.00  0.00    -0.363 C  
BRANCH   7   8
HETATM    8  C   UNL     1     -11.596  10.335  70.384  1.00  0.00    -0.328 C  
HETATM    9  N   UNL     1     -11.191   9.702  69.223  1.00  0.00    -0.432 N  
HETATM   10  O   UNL     1     -11.572  11.548  70.560  1.00  0.00    -0.245 OA 
HETATM   11  H   UNL     1     -11.300   8.690  69.169  1.00  0.00     0.000 HD 
BRANCH   9  12
HETATM   12  C   UNL     1     -10.616  10.390  68.065  1.00  0.00    -0.221 C  
HETATM   13  C   UNL     1      -9.252  11.041  68.405  1.00  0.00    -0.175 C  
HETATM   14  C   UNL     1      -8.661  11.736  67.166  1.00  0.00    -0.169 C  
HETATM   15  C   UNL     1      -8.442  10.697  66.056  1.00  0.00    -0.165 C  
HETATM   16  C   UNL     1      -9.779  10.035  65.683  1.00  0.00    -0.336 C  
HETATM   17  C   UNL     1     -10.752  11.114  65.184  1.00  0.00    -0.279 C  
HETATM   18  C   UNL     1     -10.373   9.355  66.932  1.00  0.00    -0.308 C  
HETATM   19  C   UNL     1     -10.986  12.160  66.283  1.00  0.00    -0.332 C  
HETATM   20  C   UNL     1     -11.583  11.470  67.519  1.00  0.00    -0.322 C  
HETATM   21  C   UNL     1      -9.645  12.809  66.670  1.00  0.00    -0.255 C  
ENDBRANCH   9  12
ENDBRANCH   7   8
ENDBRANCH   6   7
ENDBRANCH   5   6
ENDBRANCH   4   5
ENDBRANCH   2   4
TORSDOF 6
ENDMDL
MODEL      110
REMARK 921   NORMALIZED FREE ENERGY PREDICTED BY IDOCK:   -3.93 KCAL/MOL
REMARK 922        TOTAL FREE ENERGY PREDICTED BY IDOCK:   -5.14 KCAL/MOL
REMARK 923 INTER-LIGAND FREE ENERGY PREDICTED BY IDOCK:   -5.22 KCAL/MOL
REMARK 924 INTRA-LIGAND FREE ENERGY PREDICTED BY IDOCK:    0.07 KCAL/MOL
REMARK 927      BINDING AFFINITY PREDICTED BY RF-SCORE:    0.00 PKD
ROOT
HETATM    1  C   UNL     1     -12.197  13.508  63.680  1.00  0.00    -0.375 C  
HETATM    2  N   UNL     1     -11.191  13.610  64.743  1.00  0.00    -0.344 NA 
HETATM    3  C   UNL     1     -11.402  14.845  65.501  1.00  0.00    -0.339 C  
ENDROOT
BRANCH   2   4
HETATM    4  C   UNL     1     -11.258  12.411  65.601  1.00  0.00    -0.322 C  
BRANCH   4   5
HETATM    5  C   UNL     1     -11.284  12.703  67.109  1.00  0.00    -0.300 C  
BRANCH   5   6
HETATM    6  O   UNL     1     -11.922  11.615  67.787  1.00  0.00    -0.608 OA 
BRANCH   6   7
HETATM    7  C   UNL     1     -11.664  11.664  69.187  1.00  0.00    -0.326 C  
BRANCH   7   8
HETATM    8  C   UNL     1     -11.228  10.299  69.710  1.00  0.00    -0.282 C  
HETATM    9  N   UNL     1     -10.862   9.416  68.710  1.00  0.00    -0.395 N  
HETATM   10  O   UNL     1     -11.171  10.055  70.910  1.00  0.00    -0.323 OA 
HETATM   11  H   UNL     1     -10.905   9.743  67.746  1.00  0.00     0.000 HD 
BRANCH   9  12
HETATM   12  C   UNL     1     -10.416   8.040  68.946  1.00  0.00    -0.191 C  
HETATM   13  C   UNL     1     -10.252   7.257  67.620  1.00  0.00    -0.257 C  
HETATM   14  C   UNL     1      -9.762   5.825  67.895  1.00  0.00    -0.134 C  
HETATM   15  C   UNL     1      -8.399   5.881  68.601  1.00  0.00    -0.109 C  
HETATM   16  C   UNL     1      -8.525   6.644  69.931  1.00  0.00    -0.139 C  
HETATM   17  C   UNL     1      -9.535   5.918  70.833  1.00  0.00    -0.191 C  
HETATM   18  C   UNL     1      -9.032   8.071  69.649  1.00  0.00    -0.145 C  
HETATM   19  C   UNL     1     -10.906   5.856  70.144  1.00  0.00    -0.402 C  
HETATM   20  C   UNL     1     -11.401   7.285  69.873  1.00  0.00    -0.145 C  
HETATM   21  C   UNL     1     -10.776   5.109  68.804  1.00  0.00     0.109 C  
ENDBRANCH   9  12
ENDBRANCH   7   8
ENDBRANCH   6   7
ENDBRANCH   5   6
ENDBRANCH   4   5
ENDBRANCH   2   4
TORSDOF 6
ENDMDL
MODEL      111
REMARK 921   NORMALIZED FREE ENERGY PREDICTED BY IDOCK:   -3.93 KCAL/MOL
REMARK 922        TOTAL FREE ENERGY PREDICTED BY IDOCK:   -5.14 KCAL/MOL
REMARK 923 INTER-LIGAND FREE ENERGY PREDICTED BY IDOCK:   -5.37 KCAL/MOL
REMARK 924 INTRA-LIGAND FREE ENERGY PREDICTED BY IDOCK:    0.23 KCAL/MOL
REMARK 927      BINDING AFFINITY PREDICTED BY RF-SCORE:    0.00 PKD
ROOT
HETATM    1  C   UNL     1      -9.063   9.434  70.290  1.00  0.00    -0.245 C  
HETATM    2  N   UNL     1      -9.996   8.794  71.223  1.00  0.00    -0.236 NA 
HETATM    3  C   UNL     1      -9.300   8.477  72.473  1.00  0.00    -0.246 C  
ENDROOT
BRANCH   2   4
HETATM    4  C   UNL     1     -11.159   9.677  71.440  1.00  0.00    -0.326 C  
BRANCH   4   5
HETATM    5  C   UNL     1     -11.658  10.399  70.179  1.00  0.00    -0.312 C  
BRANCH   5   6
HETATM    6  O   UNL     1     -11.674  11.810  70.423  1.00  0.00    -0.300 OA 
BRANCH   6   7
HETATM    7  C   UNL     1     -12.147  12.519  69.282  1.00  0.00    -0.161 C  
BRANCH   7   8
HETATM    8  C   UNL     1     -11.540  13.917  69.218  1.00  0.00    -0.309 C  
HETATM    9  N   UNL     1     -10.953  14.210  68.000  1.00  0.00    -0.250 N  
HETATM   10  O   UNL     1     -11.623  14.701  70.156  1.00  0.00    -0.262 OA 
HETATM   11  H   UNL     1     -10.984  13.496  67.272  1.00  0.00     0.000 HD 
BRANCH   9  12
HETATM   12  C   UNL     1     -10.292  15.478  67.685  1.00  0.00    -0.269 C  
HETATM   13  C   UNL     1     -10.100  15.660  66.159  1.00  0.00    -0.333 C  
HETATM   14  C   UNL     1      -9.424  17.009  65.856  1.00  0.00    -0.116 C  
HETATM   15  C   UNL     1     -10.311  18.150  66.375  1.00  0.00    -0.404 C  
HETATM   16  C   UNL     1     -10.516  18.009  67.894  1.00  0.00    -0.408 C  
HETATM   17  C   UNL     1      -9.149  18.069  68.593  1.00  0.00    -0.276 C  
HETATM   18  C   UNL     1     -11.178  16.649  68.190  1.00  0.00    -0.202 C  
HETATM   19  C   UNL     1      -8.249  16.931  68.087  1.00  0.00    -0.207 C  
HETATM   20  C   UNL     1      -8.919  15.583  68.395  1.00  0.00    -0.189 C  
HETATM   21  C   UNL     1      -8.060  17.062  66.565  1.00  0.00    -0.320 C  
ENDBRANCH   9  12
ENDBRANCH   7   8
ENDBRANCH   6   7
ENDBRANCH   5   6
ENDBRANCH   4   5
ENDBRANCH   2   4
TORSDOF 6
ENDMDL
MODEL      112
REMARK 921   NORMALIZED FREE ENERGY PREDICTED BY IDOCK:   -3.91 KCAL/MOL
REMARK 922        TOTAL FREE ENERGY PREDICTED BY IDOCK:   -5.11 KCAL/MOL
REMARK 923 INTER-LIGAND FREE ENERGY PREDICTED BY IDOCK:   -5.20 KCAL/MOL
REMARK 924 INTRA-LIGAND FREE ENERGY PREDICTED BY IDOCK:    0.08 KCAL/MOL
REMARK 927      BINDING AFFINITY PREDICTED BY RF-SCORE:    0.00 PKD
ROOT
HETATM    1  C   UNL     1      -8.537   4.673  73.311  1.00  0.00    -0.102 C  
HETATM    2  N   UNL     1      -9.770   4.500  72.535  1.00  0.00    -0.146 NA 
HETATM    3  C   UNL     1     -10.295   3.148  72.742  1.00  0.00    -0.157 C  
ENDROOT
BRANCH   2   4
HETATM    4  C   UNL     1     -10.743   5.541  72.919  1.00  0.00    -0.249 C  
BRANCH   4   5
HETATM    5  C   UNL     1     -11.479   6.196  71.740  1.00  0.00    -0.285 C  
BRANCH   5   6
HETATM    6  O   UNL     1     -10.874   7.462  71.455  1.00  0.00    -0.224 OA 
BRANCH   6   7
HETATM    7  C   UNL     1     -11.065   7.823  70.091  1.00  0.00    -0.209 C  
BRANCH   7   8
HETATM    8  C   UNL     1     -10.866   9.322  69.890  1.00  0.00    -0.234 C  
HETATM    9  N   UNL     1     -10.985   9.723  68.571  1.00  0.00    -0.416 N  
HETATM   10  O   UNL     1     -10.671  10.080  70.833  1.00  0.00    -0.300 OA 
HETATM   11  H   UNL     1     -11.196   9.010  67.873  1.00  0.00     0.000 HD 
BRANCH   9  12
HETATM   12  C   UNL     1     -10.827  11.105  68.110  1.00  0.00    -0.219 C  
HETATM   13  C   UNL     1      -9.416  11.658  68.434  1.00  0.00    -0.193 C  
HETATM   14  C   UNL     1      -9.271  13.101  67.919  1.00  0.00    -0.207 C  
HETATM   15  C   UNL     1      -9.465  13.119  66.395  1.00  0.00    -0.226 C  
HETATM   16  C   UNL     1     -10.862  12.585  66.036  1.00  0.00    -0.309 C  
HETATM   17  C   UNL     1     -11.926  13.477  66.695  1.00  0.00    -0.452 C  
HETATM   18  C   UNL     1     -11.006  11.146  66.568  1.00  0.00    -0.270 C  
HETATM   19  C   UNL     1     -11.749  13.467  68.220  1.00  0.00    -0.394 C  
HETATM   20  C   UNL     1     -11.901  12.029  68.737  1.00  0.00    -0.358 C  
HETATM   21  C   UNL     1     -10.344  13.984  68.579  1.00  0.00    -0.247 C  
ENDBRANCH   9  12
ENDBRANCH   7   8
ENDBRANCH   6   7
ENDBRANCH   5   6
ENDBRANCH   4   5
ENDBRANCH   2   4
TORSDOF 6
ENDMDL
MODEL      113
REMARK 921   NORMALIZED FREE ENERGY PREDICTED BY IDOCK:   -3.90 KCAL/MOL
REMARK 922        TOTAL FREE ENERGY PREDICTED BY IDOCK:   -5.10 KCAL/MOL
REMARK 923 INTER-LIGAND FREE ENERGY PREDICTED BY IDOCK:   -4.65 KCAL/MOL
REMARK 924 INTRA-LIGAND FREE ENERGY PREDICTED BY IDOCK:   -0.45 KCAL/MOL
REMARK 927      BINDING AFFINITY PREDICTED BY RF-SCORE:    0.00 PKD
ROOT
HETATM    1  C   UNL     1      -8.834  13.307  68.157  1.00  0.00    -0.187 C  
HETATM    2  N   UNL     1     -10.180  13.857  67.964  1.00  0.00    -0.240 NA 
HETATM    3  C   UNL     1     -10.453  14.861  68.996  1.00  0.00    -0.247 C  
ENDROOT
BRANCH   2   4
HETATM    4  C   UNL     1     -10.294  14.413  66.601  1.00  0.00    -0.275 C  
BRANCH   4   5
HETATM    5  C   UNL     1     -11.674  14.236  65.951  1.00  0.00    -0.372 C  
BRANCH   5   6
HETATM    6  O   UNL     1     -11.983  12.839  65.879  1.00  0.00    -0.417 OA 
BRANCH   6   7
HETATM    7  C   UNL     1     -11.222  12.201  64.858  1.00  0.00    -0.323 C  
BRANCH   7   8
HETATM    8  C   UNL     1     -10.536  10.948  65.393  1.00  0.00    -0.223 C  
HETATM    9  N   UNL     1     -10.667  10.786  66.760  1.00  0.00    -0.251 N  
HETATM   10  O   UNL     1      -9.972  10.153  64.649  1.00  0.00    -0.328 OA 
HETATM   11  H   UNL     1     -11.200  11.487  67.274  1.00  0.00     0.000 HD 
BRANCH   9  12
HETATM   12  C   UNL     1     -10.093   9.673  67.519  1.00  0.00    -0.197 C  
HETATM   13  C   UNL     1     -10.651   8.308  67.045  1.00  0.00    -0.328 C  
HETATM   14  C   UNL     1     -10.014   7.157  67.843  1.00  0.00    -0.186 C  
HETATM   15  C   UNL     1      -8.494   7.165  67.623  1.00  0.00    -0.120 C  
HETATM   16  C   UNL     1      -7.901   8.504  68.093  1.00  0.00    -0.103 C  
HETATM   17  C   UNL     1      -8.199   8.688  69.589  1.00  0.00    -0.114 C  
HETATM   18  C   UNL     1      -8.555   9.653  67.301  1.00  0.00    -0.132 C  
HETATM   19  C   UNL     1      -9.715   8.686  69.828  1.00  0.00    -0.176 C  
HETATM   20  C   UNL     1     -10.353   9.839  69.037  1.00  0.00    -0.222 C  
HETATM   21  C   UNL     1     -10.312   7.353  69.340  1.00  0.00    -0.211 C  
ENDBRANCH   9  12
ENDBRANCH   7   8
ENDBRANCH   6   7
ENDBRANCH   5   6
ENDBRANCH   4   5
ENDBRANCH   2   4
TORSDOF 6
ENDMDL
MODEL      114
REMARK 921   NORMALIZED FREE ENERGY PREDICTED BY IDOCK:   -3.89 KCAL/MOL
REMARK 922        TOTAL FREE ENERGY PREDICTED BY IDOCK:   -5.09 KCAL/MOL
REMARK 923 INTER-LIGAND FREE ENERGY PREDICTED BY IDOCK:   -5.05 KCAL/MOL
REMARK 924 INTRA-LIGAND FREE ENERGY PREDICTED BY IDOCK:   -0.05 KCAL/MOL
REMARK 927      BINDING AFFINITY PREDICTED BY RF-SCORE:    0.00 PKD
ROOT
HETATM    1  C   UNL     1     -11.792  16.090  72.008  1.00  0.00    -0.533 C  
HETATM    2  N   UNL     1     -12.564  15.133  71.209  1.00  0.00    -0.322 NA 
HETATM    3  C   UNL     1     -13.989  15.278  71.510  1.00  0.00    -0.532 C  
ENDROOT
BRANCH   2   4
HETATM    4  C   UNL     1     -12.273  15.339  69.776  1.00  0.00    -0.294 C  
BRANCH   4   5
HETATM    5  C   UNL     1     -11.856  14.070  69.018  1.00  0.00    -0.354 C  
BRANCH   5   6
HETATM    6  O   UNL     1     -10.427  13.996  68.976  1.00  0.00    -0.227 OA 
BRANCH   6   7
HETATM    7  C   UNL     1      -9.985  13.346  67.788  1.00  0.00    -0.233 C  
BRANCH   7   8
HETATM    8  C   UNL     1     -10.141  11.834  67.902  1.00  0.00    -0.186 C  
HETATM    9  N   UNL     1      -9.378  11.273  68.911  1.00  0.00    -0.363 N  
HETATM   10  O   UNL     1     -10.915  11.208  67.186  1.00  0.00    -0.265 OA 
HETATM   11  H   UNL     1      -8.804  11.898  69.477  1.00  0.00     0.000 HD 
BRANCH   9  12
HETATM   12  C   UNL     1      -9.340   9.842  69.220  1.00  0.00    -0.191 C  
HETATM   13  C   UNL     1      -8.959   8.998  67.978  1.00  0.00    -0.133 C  
HETATM   14  C   UNL     1      -8.905   7.503  68.337  1.00  0.00    -0.126 C  
HETATM   15  C   UNL     1      -7.842   7.279  69.424  1.00  0.00    -0.122 C  
HETATM   16  C   UNL     1      -8.193   8.095  70.679  1.00  0.00    -0.114 C  
HETATM   17  C   UNL     1      -9.563   7.641  71.207  1.00  0.00    -0.171 C  
HETATM   18  C   UNL     1      -8.262   9.589  70.309  1.00  0.00    -0.209 C  
HETATM   19  C   UNL     1     -10.639   7.861  70.134  1.00  0.00    -0.237 C  
HETATM   20  C   UNL     1     -10.700   9.355  69.779  1.00  0.00    -0.250 C  
HETATM   21  C   UNL     1     -10.278   7.060  68.870  1.00  0.00    -0.183 C  
ENDBRANCH   9  12
ENDBRANCH   7   8
ENDBRANCH   6   7
ENDBRANCH   5   6
ENDBRANCH   4   5
ENDBRANCH   2   4
TORSDOF 6
ENDMDL
MODEL      115
REMARK 921   NORMALIZED FREE ENERGY PREDICTED BY IDOCK:   -3.87 KCAL/MOL
REMARK 922        TOTAL FREE ENERGY PREDICTED BY IDOCK:   -5.06 KCAL/MOL
REMARK 923 INTER-LIGAND FREE ENERGY PREDICTED BY IDOCK:   -5.07 KCAL/MOL
REMARK 924 INTRA-LIGAND FREE ENERGY PREDICTED BY IDOCK:    0.01 KCAL/MOL
REMARK 927      BINDING AFFINITY PREDICTED BY RF-SCORE:    0.00 PKD
ROOT
HETATM    1  C   UNL     1      -7.413   5.493  64.559  1.00  0.00    -0.068 C  
HETATM    2  N   UNL     1      -6.686   6.755  64.391  1.00  0.00    -0.041 NA 
HETATM    3  C   UNL     1      -6.314   6.923  62.984  1.00  0.00    -0.043 C  
ENDROOT
BRANCH   2   4
HETATM    4  C   UNL     1      -7.515   7.871  64.886  1.00  0.00    -0.082 C  
BRANCH   4   5
HETATM    5  C   UNL     1      -6.774   9.210  65.017  1.00  0.00    -0.073 C  
BRANCH   5   6
HETATM    6  O   UNL     1      -7.365  10.163  64.126  1.00  0.00    -0.135 OA 
BRANCH   6   7
HETATM    7  C   UNL     1      -8.665   9.743  63.720  1.00  0.00    -0.224 C  
BRANCH   7   8
HETATM    8  C   UNL     1      -9.707  10.808  64.041  1.00  0.00    -0.313 C  
HETATM    9  N   UNL     1      -9.337  11.652  65.073  1.00  0.00    -0.412 N  
HETATM   10  O   UNL     1     -10.745  10.913  63.396  1.00  0.00    -0.233 OA 
HETATM   11  H   UNL     1      -8.427  11.500  65.508  1.00  0.00     0.000 HD 
BRANCH   9  12
HETATM   12  C   UNL     1     -10.164  12.749  65.582  1.00  0.00    -0.279 C  
HETATM   13  C   UNL     1      -9.404  13.599  66.631  1.00  0.00    -0.265 C  
HETATM   14  C   UNL     1     -10.288  14.755  67.130  1.00  0.00    -0.255 C  
HETATM   15  C   UNL     1     -10.659  15.660  65.946  1.00  0.00    -0.354 C  
HETATM   16  C   UNL     1     -11.425  14.851  64.885  1.00  0.00    -0.407 C  
HETATM   17  C   UNL     1     -12.708  14.286  65.515  1.00  0.00    -0.399 C  
HETATM   18  C   UNL     1     -10.542  13.685  64.401  1.00  0.00    -0.360 C  
HETATM   19  C   UNL     1     -12.355  13.375  66.699  1.00  0.00    -0.324 C  
HETATM   20  C   UNL     1     -11.479  12.215  66.202  1.00  0.00    -0.429 C  
HETATM   21  C   UNL     1     -11.572  14.180  67.752  1.00  0.00    -0.379 C  
ENDBRANCH   9  12
ENDBRANCH   7   8
ENDBRANCH   6   7
ENDBRANCH   5   6
ENDBRANCH   4   5
ENDBRANCH   2   4
TORSDOF 6
ENDMDL
MODEL      116
REMARK 921   NORMALIZED FREE ENERGY PREDICTED BY IDOCK:   -3.86 KCAL/MOL
REMARK 922        TOTAL FREE ENERGY PREDICTED BY IDOCK:   -5.05 KCAL/MOL
REMARK 923 INTER-LIGAND FREE ENERGY PREDICTED BY IDOCK:   -5.22 KCAL/MOL
REMARK 924 INTRA-LIGAND FREE ENERGY PREDICTED BY IDOCK:    0.17 KCAL/MOL
REMARK 927      BINDING AFFINITY PREDICTED BY RF-SCORE:    0.00 PKD
ROOT
HETATM    1  C   UNL     1     -10.473  11.333  64.874  1.00  0.00    -0.314 C  
HETATM    2  N   UNL     1      -9.722  10.096  64.639  1.00  0.00    -0.314 NA 
HETATM    3  C   UNL     1      -8.739  10.313  63.574  1.00  0.00    -0.206 C  
ENDROOT
BRANCH   2   4
HETATM    4  C   UNL     1      -9.091   9.656  65.899  1.00  0.00    -0.178 C  
BRANCH   4   5
HETATM    5  C   UNL     1      -7.820  10.428  66.282  1.00  0.00    -0.132 C  
BRANCH   5   6
HETATM    6  O   UNL     1      -7.771  10.575  67.705  1.00  0.00    -0.092 OA 
BRANCH   6   7
HETATM    7  C   UNL     1      -8.835  11.401  68.170  1.00  0.00    -0.162 C  
BRANCH   7   8
HETATM    8  C   UNL     1      -9.825  10.597  69.005  1.00  0.00    -0.205 C  
HETATM    9  N   UNL     1      -9.264   9.488  69.614  1.00  0.00    -0.185 N  
HETATM   10  O   UNL     1     -10.991  10.952  69.145  1.00  0.00    -0.206 OA 
HETATM   11  H   UNL     1      -8.270   9.316  69.464  1.00  0.00     0.000 HD 
BRANCH   9  12
HETATM   12  C   UNL     1     -10.002   8.547  70.459  1.00  0.00    -0.188 C  
HETATM   13  C   UNL     1     -10.755   7.489  69.614  1.00  0.00    -0.236 C  
HETATM   14  C   UNL     1     -11.501   6.501  70.527  1.00  0.00    -0.448 C  
HETATM   15  C   UNL     1     -10.490   5.776  71.428  1.00  0.00    -0.296 C  
HETATM   16  C   UNL     1      -9.729   6.797  72.291  1.00  0.00    -0.156 C  
HETATM   17  C   UNL     1     -10.733   7.562  73.167  1.00  0.00    -0.452 C  
HETATM   18  C   UNL     1      -8.997   7.792  71.371  1.00  0.00    -0.151 C  
HETATM   19  C   UNL     1     -11.750   8.296  72.282  1.00  0.00    -0.453 C  
HETATM   20  C   UNL     1     -11.008   9.288  71.375  1.00  0.00    -0.429 C  
HETATM   21  C   UNL     1     -12.499   7.277  71.405  1.00  0.00    -0.418 C  
ENDBRANCH   9  12
ENDBRANCH   7   8
ENDBRANCH   6   7
ENDBRANCH   5   6
ENDBRANCH   4   5
ENDBRANCH   2   4
TORSDOF 6
ENDMDL
MODEL      117
REMARK 921   NORMALIZED FREE ENERGY PREDICTED BY IDOCK:   -3.86 KCAL/MOL
REMARK 922        TOTAL FREE ENERGY PREDICTED BY IDOCK:   -5.05 KCAL/MOL
REMARK 923 INTER-LIGAND FREE ENERGY PREDICTED BY IDOCK:   -5.06 KCAL/MOL
REMARK 924 INTRA-LIGAND FREE ENERGY PREDICTED BY IDOCK:    0.01 KCAL/MOL
REMARK 927      BINDING AFFINITY PREDICTED BY RF-SCORE:    0.00 PKD
ROOT
HETATM    1  C   UNL     1     -10.086  19.175  66.302  1.00  0.00    -0.431 C  
HETATM    2  N   UNL     1      -9.565  18.387  67.423  1.00  0.00    -0.282 NA 
HETATM    3  C   UNL     1      -9.848  19.079  68.683  1.00  0.00    -0.413 C  
ENDROOT
BRANCH   2   4
HETATM    4  C   UNL     1     -10.151  17.032  67.387  1.00  0.00    -0.291 C  
BRANCH   4   5
HETATM    5  C   UNL     1     -10.359  16.462  65.976  1.00  0.00    -0.352 C  
BRANCH   5   6
HETATM    6  O   UNL     1     -11.271  15.361  66.046  1.00  0.00    -0.284 OA 
BRANCH   6   7
HETATM    7  C   UNL     1     -11.038  14.577  67.212  1.00  0.00    -0.312 C  
BRANCH   7   8
HETATM    8  C   UNL     1     -10.394  13.242  66.852  1.00  0.00    -0.255 C  
HETATM    9  N   UNL     1     -10.460  12.305  67.868  1.00  0.00    -0.208 N  
HETATM   10  O   UNL     1      -9.916  13.033  65.743  1.00  0.00    -0.279 OA 
HETATM   11  H   UNL     1     -10.925  12.575  68.735  1.00  0.00     0.000 HD 
BRANCH   9  12
HETATM   12  C   UNL     1      -9.908  10.951  67.781  1.00  0.00    -0.175 C  
HETATM   13  C   UNL     1      -8.364  10.971  67.650  1.00  0.00    -0.117 C  
HETATM   14  C   UNL     1      -7.810   9.537  67.583  1.00  0.00    -0.102 C  
HETATM   15  C   UNL     1      -8.180   8.788  68.872  1.00  0.00    -0.118 C  
HETATM   16  C   UNL     1      -9.710   8.739  69.032  1.00  0.00    -0.172 C  
HETATM   17  C   UNL     1     -10.317   8.007  67.826  1.00  0.00    -0.294 C  
HETATM   18  C   UNL     1     -10.260  10.178  69.081  1.00  0.00    -0.229 C  
HETATM   19  C   UNL     1      -9.960   8.744  66.528  1.00  0.00    -0.360 C  
HETATM   20  C   UNL     1     -10.518  10.174  66.588  1.00  0.00    -0.254 C  
HETATM   21  C   UNL     1      -8.429   8.810  66.377  1.00  0.00    -0.127 C  
ENDBRANCH   9  12
ENDBRANCH   7   8
ENDBRANCH   6   7
ENDBRANCH   5   6
ENDBRANCH   4   5
ENDBRANCH   2   4
TORSDOF 6
ENDMDL
MODEL      118
REMARK 921   NORMALIZED FREE ENERGY PREDICTED BY IDOCK:   -3.84 KCAL/MOL
REMARK 922        TOTAL FREE ENERGY PREDICTED BY IDOCK:   -5.02 KCAL/MOL
REMARK 923 INTER-LIGAND FREE ENERGY PREDICTED BY IDOCK:   -4.51 KCAL/MOL
REMARK 924 INTRA-LIGAND FREE ENERGY PREDICTED BY IDOCK:   -0.52 KCAL/MOL
REMARK 927      BINDING AFFINITY PREDICTED BY RF-SCORE:    0.00 PKD
ROOT
HETATM    1  C   UNL     1      -7.953   6.890  66.683  1.00  0.00    -0.108 C  
HETATM    2  N   UNL     1      -9.116   6.094  67.087  1.00  0.00    -0.114 NA 
HETATM    3  C   UNL     1     -10.329   6.909  66.985  1.00  0.00    -0.278 C  
ENDROOT
BRANCH   2   4
HETATM    4  C   UNL     1      -9.191   4.876  66.256  1.00  0.00    -0.142 C  
BRANCH   4   5
HETATM    5  C   UNL     1      -8.880   3.570  67.004  1.00  0.00    -0.131 C  
BRANCH   5   6
HETATM    6  O   UNL     1      -9.899   3.336  67.982  1.00  0.00    -0.061 OA 
BRANCH   6   7
HETATM    7  C   UNL     1      -9.329   2.971  69.235  1.00  0.00    -0.147 C  
BRANCH   7   8
HETATM    8  C   UNL     1      -9.240   4.176  70.166  1.00  0.00    -0.140 C  
HETATM    9  N   UNL     1     -10.295   5.061  70.028  1.00  0.00    -0.271 N  
HETATM   10  O   UNL     1      -8.334   4.297  70.982  1.00  0.00    -0.081 OA 
HETATM   11  H   UNL     1     -11.020   4.834  69.347  1.00  0.00     0.000 HD 
BRANCH   9  12
HETATM   12  C   UNL     1     -10.440   6.300  70.794  1.00  0.00    -0.222 C  
HETATM   13  C   UNL     1     -10.425   6.034  72.320  1.00  0.00    -0.241 C  
HETATM   14  C   UNL     1     -10.556   7.354  73.100  1.00  0.00    -0.424 C  
HETATM   15  C   UNL     1      -9.373   8.270  72.752  1.00  0.00    -0.338 C  
HETATM   16  C   UNL     1      -9.362   8.566  71.243  1.00  0.00    -0.261 C  
HETATM   17  C   UNL     1     -10.675   9.263  70.858  1.00  0.00    -0.371 C  
HETATM   18  C   UNL     1      -9.247   7.239  70.468  1.00  0.00    -0.158 C  
HETATM   19  C   UNL     1     -11.870   8.359  71.195  1.00  0.00    -0.314 C  
HETATM   20  C   UNL     1     -11.745   7.043  70.413  1.00  0.00    -0.326 C  
HETATM   21  C   UNL     1     -11.870   8.048  72.703  1.00  0.00    -0.380 C  
ENDBRANCH   9  12
ENDBRANCH   7   8
ENDBRANCH   6   7
ENDBRANCH   5   6
ENDBRANCH   4   5
ENDBRANCH   2   4
TORSDOF 6
ENDMDL
MODEL      119
REMARK 921   NORMALIZED FREE ENERGY PREDICTED BY IDOCK:   -3.77 KCAL/MOL
REMARK 922        TOTAL FREE ENERGY PREDICTED BY IDOCK:   -4.94 KCAL/MOL
REMARK 923 INTER-LIGAND FREE ENERGY PREDICTED BY IDOCK:   -5.29 KCAL/MOL
REMARK 924 INTRA-LIGAND FREE ENERGY PREDICTED BY IDOCK:    0.35 KCAL/MOL
REMARK 927      BINDING AFFINITY PREDICTED BY RF-SCORE:    0.00 PKD
ROOT
HETATM    1  C   UNL     1      -7.212   6.774  70.868  1.00  0.00    -0.073 C  
HETATM    2  N   UNL     1      -8.334   5.917  70.468  1.00  0.00    -0.121 NA 
HETATM    3  C   UNL     1      -9.079   5.498  71.657  1.00  0.00    -0.142 C  
ENDROOT
BRANCH   2   4
HETATM    4  C   UNL     1      -9.185   6.640  69.503  1.00  0.00    -0.143 C  
BRANCH   4   5
HETATM    5  C   UNL     1      -8.542   7.896  68.897  1.00  0.00    -0.132 C  
BRANCH   5   6
HETATM    6  O   UNL     1      -9.521   8.599  68.124  1.00  0.00    -0.139 OA 
BRANCH   6   7
HETATM    7  C   UNL     1     -10.595   9.045  68.946  1.00  0.00    -0.180 C  
BRANCH   7   8
HETATM    8  C   UNL     1     -11.187  10.345  68.413  1.00  0.00    -0.258 C  
HETATM    9  N   UNL     1     -10.374  10.988  67.496  1.00  0.00    -0.191 N  
HETATM   10  O   UNL     1     -12.301  10.733  68.746  1.00  0.00    -0.435 OA 
HETATM   11  H   UNL     1      -9.485  10.548  67.258  1.00  0.00     0.000 HD 
BRANCH   9  12
HETATM   12  C   UNL     1     -10.705  12.258  66.845  1.00  0.00    -0.232 C  
HETATM   13  C   UNL     1     -11.505  12.038  65.537  1.00  0.00    -0.368 C  
HETATM   14  C   UNL     1     -11.858  13.388  64.888  1.00  0.00    -0.403 C  
HETATM   15  C   UNL     1     -12.723  14.208  65.857  1.00  0.00    -0.387 C  
HETATM   16  C   UNL     1     -11.956  14.455  67.167  1.00  0.00    -0.419 C  
HETATM   17  C   UNL     1     -10.666  15.231  66.855  1.00  0.00    -0.313 C  
HETATM   18  C   UNL     1     -11.591  13.100  67.803  1.00  0.00    -0.379 C  
HETATM   19  C   UNL     1      -9.787  14.423  65.890  1.00  0.00    -0.336 C  
HETATM   20  C   UNL     1      -9.428  13.078  66.539  1.00  0.00    -0.246 C  
HETATM   21  C   UNL     1     -10.562  14.159  64.586  1.00  0.00    -0.391 C  
ENDBRANCH   9  12
ENDBRANCH   7   8
ENDBRANCH   6   7
ENDBRANCH   5   6
ENDBRANCH   4   5
ENDBRANCH   2   4
TORSDOF 6
ENDMDL
MODEL      120
REMARK 921   NORMALIZED FREE ENERGY PREDICTED BY IDOCK:   -3.75 KCAL/MOL
REMARK 922        TOTAL FREE ENERGY PREDICTED BY IDOCK:   -4.90 KCAL/MOL
REMARK 923 INTER-LIGAND FREE ENERGY PREDICTED BY IDOCK:   -5.00 KCAL/MOL
REMARK 924 INTRA-LIGAND FREE ENERGY PREDICTED BY IDOCK:    0.10 KCAL/MOL
REMARK 927      BINDING AFFINITY PREDICTED BY RF-SCORE:    0.00 PKD
ROOT
HETATM    1  C   UNL     1      -8.942   4.566  64.993  1.00  0.00    -0.149 C  
HETATM    2  N   UNL     1      -9.047   4.703  66.449  1.00  0.00    -0.116 NA 
HETATM    3  C   UNL     1      -7.831   4.183  67.080  1.00  0.00    -0.096 C  
ENDROOT
BRANCH   2   4
HETATM    4  C   UNL     1      -9.294   6.117  66.794  1.00  0.00    -0.140 C  
BRANCH   4   5
HETATM    5  C   UNL     1      -8.220   7.095  66.293  1.00  0.00    -0.124 C  
BRANCH   5   6
HETATM    6  O   UNL     1      -8.799   8.398  66.159  1.00  0.00    -0.146 OA 
BRANCH   6   7
HETATM    7  C   UNL     1     -10.085   8.450  66.769  1.00  0.00    -0.303 C  
BRANCH   7   8
HETATM    8  C   UNL     1     -10.469   9.885  67.114  1.00  0.00    -0.242 C  
HETATM    9  N   UNL     1     -10.262  10.777  66.077  1.00  0.00    -0.247 N  
HETATM   10  O   UNL     1     -10.957  10.181  68.199  1.00  0.00    -0.255 OA 
HETATM   11  H   UNL     1      -9.893  10.410  65.200  1.00  0.00     0.000 HD 
BRANCH   9  12
HETATM   12  C   UNL     1     -10.538  12.213  66.155  1.00  0.00    -0.255 C  
HETATM   13  C   UNL     1     -11.949  12.494  66.729  1.00  0.00    -0.327 C  
HETATM   14  C   UNL     1     -12.203  14.009  66.821  1.00  0.00    -0.439 C  
HETATM   15  C   UNL     1     -11.161  14.644  67.754  1.00  0.00    -0.320 C  
HETATM   16  C   UNL     1      -9.745  14.394  67.210  1.00  0.00    -0.233 C  
HETATM   17  C   UNL     1      -9.625  15.022  65.813  1.00  0.00    -0.327 C  
HETATM   18  C   UNL     1      -9.503  12.876  67.105  1.00  0.00    -0.229 C  
HETATM   19  C   UNL     1     -10.658  14.396  64.864  1.00  0.00    -0.456 C  
HETATM   20  C   UNL     1     -10.402  12.884  64.766  1.00  0.00    -0.345 C  
HETATM   21  C   UNL     1     -12.075  14.630  65.419  1.00  0.00    -0.250 C  
ENDBRANCH   9  12
ENDBRANCH   7   8
ENDBRANCH   6   7
ENDBRANCH   5   6
ENDBRANCH   4   5
ENDBRANCH   2   4
TORSDOF 6
ENDMDL
MODEL      121
REMARK 921   NORMALIZED FREE ENERGY PREDICTED BY IDOCK:   -3.74 KCAL/MOL
REMARK 922        TOTAL FREE ENERGY PREDICTED BY IDOCK:   -4.89 KCAL/MOL
REMARK 923 INTER-LIGAND FREE ENERGY PREDICTED BY IDOCK:   -4.87 KCAL/MOL
REMARK 924 INTRA-LIGAND FREE ENERGY PREDICTED BY IDOCK:   -0.02 KCAL/MOL
REMARK 927      BINDING AFFINITY PREDICTED BY RF-SCORE:    0.00 PKD
ROOT
HETATM    1  C   UNL     1     -12.306  12.524  63.502  1.00  0.00    -0.525 C  
HETATM    2  N   UNL     1     -11.910  13.706  64.273  1.00  0.00    -0.413 NA 
HETATM    3  C   UNL     1     -12.775  13.840  65.447  1.00  0.00    -0.472 C  
ENDROOT
BRANCH   2   4
HETATM    4  C   UNL     1     -10.484  13.601  64.640  1.00  0.00    -0.423 C  
BRANCH   4   5
HETATM    5  C   UNL     1     -10.227  13.232  66.109  1.00  0.00    -0.296 C  
BRANCH   5   6
HETATM    6  O   UNL     1      -9.608  11.942  66.167  1.00  0.00    -0.225 OA 
BRANCH   6   7
HETATM    7  C   UNL     1     -10.411  11.023  66.902  1.00  0.00    -0.235 C  
BRANCH   7   8
HETATM    8  C   UNL     1      -9.572   9.862  67.425  1.00  0.00    -0.155 C  
HETATM    9  N   UNL     1     -10.326   8.810  67.912  1.00  0.00    -0.219 N  
HETATM   10  O   UNL     1      -8.347   9.870  67.362  1.00  0.00    -0.117 OA 
HETATM   11  H   UNL     1     -11.342   8.894  67.871  1.00  0.00     0.000 HD 
BRANCH   9  12
HETATM   12  C   UNL     1      -9.764   7.583  68.480  1.00  0.00    -0.156 C  
HETATM   13  C   UNL     1      -8.710   7.890  69.574  1.00  0.00    -0.134 C  
HETATM   14  C   UNL     1      -8.153   6.585  70.169  1.00  0.00    -0.121 C  
HETATM   15  C   UNL     1      -9.300   5.787  70.807  1.00  0.00    -0.189 C  
HETATM   16  C   UNL     1     -10.363   5.453  69.746  1.00  0.00    -0.375 C  
HETATM   17  C   UNL     1      -9.717   4.614  68.633  1.00  0.00    -0.217 C  
HETATM   18  C   UNL     1     -10.905   6.764  69.143  1.00  0.00    -0.298 C  
HETATM   19  C   UNL     1      -8.570   5.399  67.981  1.00  0.00    -0.100 C  
HETATM   20  C   UNL     1      -9.125   6.699  67.380  1.00  0.00    -0.120 C  
HETATM   21  C   UNL     1      -7.515   5.749  69.046  1.00  0.00    -0.084 C  
ENDBRANCH   9  12
ENDBRANCH   7   8
ENDBRANCH   6   7
ENDBRANCH   5   6
ENDBRANCH   4   5
ENDBRANCH   2   4
TORSDOF 6
ENDMDL
MODEL      122
REMARK 921   NORMALIZED FREE ENERGY PREDICTED BY IDOCK:   -3.74 KCAL/MOL
REMARK 922        TOTAL FREE ENERGY PREDICTED BY IDOCK:   -4.89 KCAL/MOL
REMARK 923 INTER-LIGAND FREE ENERGY PREDICTED BY IDOCK:   -5.02 KCAL/MOL
REMARK 924 INTRA-LIGAND FREE ENERGY PREDICTED BY IDOCK:    0.13 KCAL/MOL
REMARK 927      BINDING AFFINITY PREDICTED BY RF-SCORE:    0.00 PKD
ROOT
HETATM    1  C   UNL     1      -6.263  13.752  68.582  1.00  0.00    -0.089 C  
HETATM    2  N   UNL     1      -7.131  13.251  67.512  1.00  0.00    -0.161 NA 
HETATM    3  C   UNL     1      -6.751  11.877  67.174  1.00  0.00    -0.142 C  
ENDROOT
BRANCH   2   4
HETATM    4  C   UNL     1      -8.542  13.352  67.933  1.00  0.00    -0.184 C  
BRANCH   4   5
HETATM    5  C   UNL     1      -9.547  13.483  66.779  1.00  0.00    -0.267 C  
BRANCH   5   6
HETATM    6  O   UNL     1     -10.694  12.674  67.062  1.00  0.00    -0.241 OA 
BRANCH   6   7
HETATM    7  C   UNL     1     -10.397  11.291  66.895  1.00  0.00    -0.234 C  
BRANCH   7   8
HETATM    8  C   UNL     1     -11.001  10.463  68.023  1.00  0.00    -0.291 C  
HETATM    9  N   UNL     1     -10.095   9.613  68.632  1.00  0.00    -0.172 N  
HETATM   10  O   UNL     1     -12.170  10.595  68.368  1.00  0.00    -0.372 OA 
HETATM   11  H   UNL     1      -9.133   9.621  68.293  1.00  0.00     0.000 HD 
BRANCH   9  12
HETATM   12  C   UNL     1     -10.424   8.705  69.733  1.00  0.00    -0.220 C  
HETATM   13  C   UNL     1      -9.163   8.294  70.533  1.00  0.00    -0.160 C  
HETATM   14  C   UNL     1      -9.541   7.359  71.695  1.00  0.00    -0.165 C  
HETATM   15  C   UNL     1     -10.504   8.089  72.643  1.00  0.00    -0.408 C  
HETATM   16  C   UNL     1     -11.776   8.504  71.884  1.00  0.00    -0.409 C  
HETATM   17  C   UNL     1     -12.464   7.246  71.331  1.00  0.00    -0.418 C  
HETATM   18  C   UNL     1     -11.389   9.427  70.713  1.00  0.00    -0.363 C  
HETATM   19  C   UNL     1     -11.516   6.505  70.377  1.00  0.00    -0.465 C  
HETATM   20  C   UNL     1     -11.142   7.435  69.212  1.00  0.00    -0.012 C  
HETATM   21  C   UNL     1     -10.234   6.107  71.132  1.00  0.00    -0.245 C  
ENDBRANCH   9  12
ENDBRANCH   7   8
ENDBRANCH   6   7
ENDBRANCH   5   6
ENDBRANCH   4   5
ENDBRANCH   2   4
TORSDOF 6
ENDMDL
MODEL      123
REMARK 921   NORMALIZED FREE ENERGY PREDICTED BY IDOCK:   -3.72 KCAL/MOL
REMARK 922        TOTAL FREE ENERGY PREDICTED BY IDOCK:   -4.86 KCAL/MOL
REMARK 923 INTER-LIGAND FREE ENERGY PREDICTED BY IDOCK:   -4.70 KCAL/MOL
REMARK 924 INTRA-LIGAND FREE ENERGY PREDICTED BY IDOCK:   -0.16 KCAL/MOL
REMARK 927      BINDING AFFINITY PREDICTED BY RF-SCORE:    0.00 PKD
ROOT
HETATM    1  C   UNL     1      -5.661  19.087  67.955  1.00  0.00    -0.191 C  
HETATM    2  N   UNL     1      -6.427  18.884  66.722  1.00  0.00    -0.187 NA 
HETATM    3  C   UNL     1      -6.262  17.504  66.262  1.00  0.00    -0.232 C  
ENDROOT
BRANCH   2   4
HETATM    4  C   UNL     1      -7.843  19.227  66.960  1.00  0.00    -0.247 C  
BRANCH   4   5
HETATM    5  C   UNL     1      -8.417  18.697  68.283  1.00  0.00    -0.324 C  
BRANCH   5   6
HETATM    6  O   UNL     1      -9.706  18.124  68.039  1.00  0.00    -0.287 OA 
BRANCH   6   7
HETATM    7  C   UNL     1      -9.862  17.786  66.665  1.00  0.00    -0.322 C  
BRANCH   7   8
HETATM    8  C   UNL     1     -10.293  16.331  66.506  1.00  0.00    -0.307 C  
HETATM    9  N   UNL     1      -9.506  15.441  67.213  1.00  0.00    -0.208 N  
HETATM   10  O   UNL     1     -11.278  16.017  65.847  1.00  0.00    -0.083 OA 
HETATM   11  H   UNL     1      -8.738  15.820  67.767  1.00  0.00     0.000 HD 
BRANCH   9  12
HETATM   12  C   UNL     1      -9.701  13.989  67.219  1.00  0.00    -0.237 C  
HETATM   13  C   UNL     1      -9.807  13.420  65.783  1.00  0.00    -0.213 C  
HETATM   14  C   UNL     1      -9.989  11.893  65.819  1.00  0.00    -0.264 C  
HETATM   15  C   UNL     1      -8.775  11.252  66.509  1.00  0.00    -0.178 C  
HETATM   16  C   UNL     1      -8.643  11.787  67.945  1.00  0.00    -0.156 C  
HETATM   17  C   UNL     1      -9.917  11.438  68.730  1.00  0.00    -0.188 C  
HETATM   18  C   UNL     1      -8.478  13.318  67.902  1.00  0.00    -0.177 C  
HETATM   19  C   UNL     1     -11.141  12.073  68.056  1.00  0.00    -0.292 C  
HETATM   20  C   UNL     1     -10.965  13.599  68.025  1.00  0.00    -0.270 C  
HETATM   21  C   UNL     1     -11.262  11.553  66.612  1.00  0.00    -0.336 C  
ENDBRANCH   9  12
ENDBRANCH   7   8
ENDBRANCH   6   7
ENDBRANCH   5   6
ENDBRANCH   4   5
ENDBRANCH   2   4
TORSDOF 6
ENDMDL
MODEL      124
REMARK 921   NORMALIZED FREE ENERGY PREDICTED BY IDOCK:   -3.72 KCAL/MOL
REMARK 922        TOTAL FREE ENERGY PREDICTED BY IDOCK:   -4.86 KCAL/MOL
REMARK 923 INTER-LIGAND FREE ENERGY PREDICTED BY IDOCK:   -4.62 KCAL/MOL
REMARK 924 INTRA-LIGAND FREE ENERGY PREDICTED BY IDOCK:   -0.24 KCAL/MOL
REMARK 927      BINDING AFFINITY PREDICTED BY RF-SCORE:    0.00 PKD
ROOT
HETATM    1  C   UNL     1      -7.216  10.204  68.417  1.00  0.00    -0.076 C  
HETATM    2  N   UNL     1      -6.868  11.384  67.620  1.00  0.00    -0.075 NA 
HETATM    3  C   UNL     1      -6.284  10.961  66.345  1.00  0.00    -0.130 C  
ENDROOT
BRANCH   2   4
HETATM    4  C   UNL     1      -8.068  12.224  67.433  1.00  0.00    -0.175 C  
BRANCH   4   5
HETATM    5  C   UNL     1      -9.181  11.572  66.597  1.00  0.00    -0.186 C  
BRANCH   5   6
HETATM    6  O   UNL     1     -10.452  11.929  67.150  1.00  0.00    -0.214 OA 
BRANCH   6   7
HETATM    7  C   UNL     1     -11.258  10.774  67.364  1.00  0.00    -0.241 C  
BRANCH   7   8
HETATM    8  C   UNL     1     -11.040  10.207  68.763  1.00  0.00    -0.203 C  
HETATM    9  N   UNL     1     -11.142   8.829  68.823  1.00  0.00    -0.421 N  
HETATM   10  O   UNL     1     -10.754  10.926  69.714  1.00  0.00    -0.225 OA 
HETATM   11  H   UNL     1     -11.339   8.328  67.957  1.00  0.00     0.000 HD 
BRANCH   9  12
HETATM   12  C   UNL     1     -10.987   8.041  70.049  1.00  0.00    -0.202 C  
HETATM   13  C   UNL     1     -11.832   8.620  71.211  1.00  0.00    -0.344 C  
HETATM   14  C   UNL     1     -11.668   7.762  72.477  1.00  0.00    -0.393 C  
HETATM   15  C   UNL     1     -12.150   6.332  72.189  1.00  0.00    -0.304 C  
HETATM   16  C   UNL     1     -11.326   5.719  71.044  1.00  0.00    -0.122 C  
HETATM   17  C   UNL     1      -9.845   5.683  71.454  1.00  0.00    -0.221 C  
HETATM   18  C   UNL     1     -11.481   6.593  69.784  1.00  0.00    -0.388 C  
HETATM   19  C   UNL     1      -9.345   7.106  71.743  1.00  0.00    -0.155 C  
HETATM   20  C   UNL     1      -9.501   7.963  70.478  1.00  0.00    -0.162 C  
HETATM   21  C   UNL     1     -10.182   7.726  72.876  1.00  0.00    -0.377 C  
ENDBRANCH   9  12
ENDBRANCH   7   8
ENDBRANCH   6   7
ENDBRANCH   5   6
ENDBRANCH   4   5
ENDBRANCH   2   4
TORSDOF 6
ENDMDL
MODEL      125
REMARK 921   NORMALIZED FREE ENERGY PREDICTED BY IDOCK:   -3.71 KCAL/MOL
REMARK 922        TOTAL FREE ENERGY PREDICTED BY IDOCK:   -4.85 KCAL/MOL
REMARK 923 INTER-LIGAND FREE ENERGY PREDICTED BY IDOCK:   -5.07 KCAL/MOL
REMARK 924 INTRA-LIGAND FREE ENERGY PREDICTED BY IDOCK:    0.22 KCAL/MOL
REMARK 927      BINDING AFFINITY PREDICTED BY RF-SCORE:    0.00 PKD
ROOT
HETATM    1  C   UNL     1      -8.356   7.660  73.891  1.00  0.00    -0.210 C  
HETATM    2  N   UNL     1      -8.400   6.923  72.624  1.00  0.00    -0.110 NA 
HETATM    3  C   UNL     1      -7.427   5.829  72.658  1.00  0.00    -0.096 C  
ENDROOT
BRANCH   2   4
HETATM    4  C   UNL     1      -9.774   6.440  72.382  1.00  0.00    -0.153 C  
BRANCH   4   5
HETATM    5  C   UNL     1     -10.851   7.118  73.242  1.00  0.00    -0.338 C  
BRANCH   5   6
HETATM    6  O   UNL     1     -11.671   7.940  72.404  1.00  0.00    -0.333 OA 
BRANCH   6   7
HETATM    7  C   UNL     1     -11.362   7.736  71.029  1.00  0.00    -0.271 C  
BRANCH   7   8
HETATM    8  C   UNL     1     -10.890   9.031  70.376  1.00  0.00    -0.246 C  
HETATM    9  N   UNL     1     -11.131   9.084  69.015  1.00  0.00    -0.436 N  
HETATM   10  O   UNL     1     -10.393   9.941  71.031  1.00  0.00    -0.215 OA 
HETATM   11  H   UNL     1     -11.595   8.286  68.582  1.00  0.00     0.000 HD 
BRANCH   9  12
HETATM   12  C   UNL     1     -10.765  10.212  68.155  1.00  0.00    -0.244 C  
HETATM   13  C   UNL     1     -10.621   9.778  66.674  1.00  0.00    -0.178 C  
HETATM   14  C   UNL     1     -10.259  10.985  65.791  1.00  0.00    -0.316 C  
HETATM   15  C   UNL     1     -11.374  12.037  65.885  1.00  0.00    -0.391 C  
HETATM   16  C   UNL     1     -11.540  12.500  67.342  1.00  0.00    -0.434 C  
HETATM   17  C   UNL     1     -10.218  13.116  67.827  1.00  0.00    -0.231 C  
HETATM   18  C   UNL     1     -11.886  11.285  68.223  1.00  0.00    -0.299 C  
HETATM   19  C   UNL     1      -9.092  12.076  67.744  1.00  0.00    -0.187 C  
HETATM   20  C   UNL     1      -9.448  10.873  68.630  1.00  0.00    -0.192 C  
HETATM   21  C   UNL     1      -8.939  11.598  66.288  1.00  0.00    -0.194 C  
ENDBRANCH   9  12
ENDBRANCH   7   8
ENDBRANCH   6   7
ENDBRANCH   5   6
ENDBRANCH   4   5
ENDBRANCH   2   4
TORSDOF 6
ENDMDL
MODEL      126
REMARK 921   NORMALIZED FREE ENERGY PREDICTED BY IDOCK:   -3.70 KCAL/MOL
REMARK 922        TOTAL FREE ENERGY PREDICTED BY IDOCK:   -4.83 KCAL/MOL
REMARK 923 INTER-LIGAND FREE ENERGY PREDICTED BY IDOCK:   -4.95 KCAL/MOL
REMARK 924 INTRA-LIGAND FREE ENERGY PREDICTED BY IDOCK:    0.12 KCAL/MOL
REMARK 927      BINDING AFFINITY PREDICTED BY RF-SCORE:    0.00 PKD
ROOT
HETATM    1  C   UNL     1     -12.124  16.129  72.572  1.00  0.00    -0.550 C  
HETATM    2  N   UNL     1     -12.554  15.151  71.568  1.00  0.00    -0.325 NA 
HETATM    3  C   UNL     1     -13.982  14.870  71.735  1.00  0.00    -0.489 C  
ENDROOT
BRANCH   2   4
HETATM    4  C   UNL     1     -12.240  15.660  70.218  1.00  0.00    -0.386 C  
BRANCH   4   5
HETATM    5  C   UNL     1     -11.348  14.735  69.376  1.00  0.00    -0.285 C  
BRANCH   5   6
HETATM    6  O   UNL     1     -12.075  13.544  69.058  1.00  0.00    -0.341 OA 
BRANCH   6   7
HETATM    7  C   UNL     1     -11.904  13.191  67.689  1.00  0.00    -0.359 C  
BRANCH   7   8
HETATM    8  C   UNL     1     -10.868  12.082  67.535  1.00  0.00    -0.241 C  
HETATM    9  N   UNL     1     -10.457  11.887  66.229  1.00  0.00    -0.232 N  
HETATM   10  O   UNL     1     -10.425  11.474  68.503  1.00  0.00    -0.194 OA 
HETATM   11  H   UNL     1     -10.860  12.485  65.508  1.00  0.00     0.000 HD 
BRANCH   9  12
HETATM   12  C   UNL     1      -9.481  10.877  65.813  1.00  0.00    -0.211 C  
HETATM   13  C   UNL     1      -9.232  10.919  64.284  1.00  0.00    -0.221 C  
HETATM   14  C   UNL     1      -8.187   9.865  63.878  1.00  0.00    -0.156 C  
HETATM   15  C   UNL     1      -6.861  10.160  64.597  1.00  0.00    -0.117 C  
HETATM   16  C   UNL     1      -7.068  10.117  66.121  1.00  0.00    -0.114 C  
HETATM   17  C   UNL     1      -7.563   8.719  66.521  1.00  0.00    -0.095 C  
HETATM   18  C   UNL     1      -8.127  11.163  66.518  1.00  0.00    -0.163 C  
HETATM   19  C   UNL     1      -8.890   8.408  65.814  1.00  0.00    -0.204 C  
HETATM   20  C   UNL     1      -9.937   9.455  66.223  1.00  0.00    -0.353 C  
HETATM   21  C   UNL     1      -8.688   8.470  64.289  1.00  0.00     0.085 C  
ENDBRANCH   9  12
ENDBRANCH   7   8
ENDBRANCH   6   7
ENDBRANCH   5   6
ENDBRANCH   4   5
ENDBRANCH   2   4
TORSDOF 6
ENDMDL
MODEL      127
REMARK 921   NORMALIZED FREE ENERGY PREDICTED BY IDOCK:   -3.69 KCAL/MOL
REMARK 922        TOTAL FREE ENERGY PREDICTED BY IDOCK:   -4.82 KCAL/MOL
REMARK 923 INTER-LIGAND FREE ENERGY PREDICTED BY IDOCK:   -4.78 KCAL/MOL
REMARK 924 INTRA-LIGAND FREE ENERGY PREDICTED BY IDOCK:   -0.04 KCAL/MOL
REMARK 927      BINDING AFFINITY PREDICTED BY RF-SCORE:    0.00 PKD
ROOT
HETATM    1  C   UNL     1      -7.078  12.807  69.436  1.00  0.00     0.186 C  
HETATM    2  N   UNL     1      -6.076  13.426  70.310  1.00  0.00    -0.134 NA 
HETATM    3  C   UNL     1      -5.335  12.383  71.024  1.00  0.00    -0.143 C  
ENDROOT
BRANCH   2   4
HETATM    4  C   UNL     1      -5.188  14.290  69.507  1.00  0.00    -0.090 C  
BRANCH   4   5
HETATM    5  C   UNL     1      -5.336  15.794  69.784  1.00  0.00    -0.119 C  
BRANCH   5   6
HETATM    6  O   UNL     1      -6.728  16.128  69.824  1.00  0.00    -0.196 OA 
BRANCH   6   7
HETATM    7  C   UNL     1      -7.120  16.821  68.643  1.00  0.00    -0.195 C  
BRANCH   7   8
HETATM    8  C   UNL     1      -7.776  15.871  67.645  1.00  0.00    -0.150 C  
HETATM    9  N   UNL     1      -9.138  15.723  67.836  1.00  0.00    -0.185 N  
HETATM   10  O   UNL     1      -7.138  15.343  66.741  1.00  0.00    -0.140 OA 
HETATM   11  H   UNL     1      -9.573  16.249  68.593  1.00  0.00     0.000 HD 
BRANCH   9  12
HETATM   12  C   UNL     1      -9.997  14.861  67.021  1.00  0.00    -0.240 C  
HETATM   13  C   UNL     1     -11.379  14.640  67.685  1.00  0.00    -0.350 C  
HETATM   14  C   UNL     1     -12.268  13.751  66.798  1.00  0.00    -0.440 C  
HETATM   15  C   UNL     1     -12.482  14.438  65.441  1.00  0.00    -0.357 C  
HETATM   16  C   UNL     1     -11.128  14.664  64.746  1.00  0.00    -0.394 C  
HETATM   17  C   UNL     1     -10.443  13.306  64.526  1.00  0.00    -0.434 C  
HETATM   18  C   UNL     1     -10.238  15.542  65.646  1.00  0.00    -0.403 C  
HETATM   19  C   UNL     1     -10.218  12.607  65.874  1.00  0.00    -0.290 C  
HETATM   20  C   UNL     1      -9.325  13.490  66.759  1.00  0.00    -0.262 C  
HETATM   21  C   UNL     1     -11.571  12.397  66.578  1.00  0.00    -0.447 C  
ENDBRANCH   9  12
ENDBRANCH   7   8
ENDBRANCH   6   7
ENDBRANCH   5   6
ENDBRANCH   4   5
ENDBRANCH   2   4
TORSDOF 6
ENDMDL
MODEL      128
REMARK 921   NORMALIZED FREE ENERGY PREDICTED BY IDOCK:   -3.68 KCAL/MOL
REMARK 922        TOTAL FREE ENERGY PREDICTED BY IDOCK:   -4.81 KCAL/MOL
REMARK 923 INTER-LIGAND FREE ENERGY PREDICTED BY IDOCK:   -4.64 KCAL/MOL
REMARK 924 INTRA-LIGAND FREE ENERGY PREDICTED BY IDOCK:   -0.17 KCAL/MOL
REMARK 927      BINDING AFFINITY PREDICTED BY RF-SCORE:    0.00 PKD
ROOT
HETATM    1  C   UNL     1     -10.958  10.369  69.978  1.00  0.00    -0.308 C  
HETATM    2  N   UNL     1     -11.675  11.022  68.879  1.00  0.00    -0.318 NA 
HETATM    3  C   UNL     1     -11.724  12.467  69.113  1.00  0.00    -0.322 C  
ENDROOT
BRANCH   2   4
HETATM    4  C   UNL     1     -11.023  10.686  67.598  1.00  0.00    -0.310 C  
BRANCH   4   5
HETATM    5  C   UNL     1     -10.053   9.497  67.665  1.00  0.00    -0.205 C  
BRANCH   5   6
HETATM    6  O   UNL     1     -10.722   8.319  67.203  1.00  0.00    -0.302 OA 
BRANCH   6   7
HETATM    7  C   UNL     1      -9.954   7.152  67.483  1.00  0.00    -0.167 C  
BRANCH   7   8
HETATM    8  C   UNL     1     -10.346   6.552  68.829  1.00  0.00    -0.193 C  
HETATM    9  N   UNL     1      -9.358   6.657  69.791  1.00  0.00    -0.145 N  
HETATM   10  O   UNL     1     -11.458   6.072  69.024  1.00  0.00    -0.275 OA 
HETATM   11  H   UNL     1      -8.487   7.118  69.530  1.00  0.00     0.000 HD 
BRANCH   9  12
HETATM   12  C   UNL     1      -9.479   6.150  71.160  1.00  0.00    -0.167 C  
HETATM   13  C   UNL     1      -9.708   4.618  71.184  1.00  0.00    -0.252 C  
HETATM   14  C   UNL     1      -9.808   4.110  72.633  1.00  0.00    -0.205 C  
HETATM   15  C   UNL     1      -8.498   4.419  73.372  1.00  0.00    -0.097 C  
HETATM   16  C   UNL     1      -8.242   5.936  73.378  1.00  0.00    -0.115 C  
HETATM   17  C   UNL     1      -9.407   6.639  74.091  1.00  0.00    -0.232 C  
HETATM   18  C   UNL     1      -8.158   6.440  71.924  1.00  0.00    -0.109 C  
HETATM   19  C   UNL     1     -10.725   6.344  73.362  1.00  0.00    -0.286 C  
HETATM   20  C   UNL     1     -10.630   6.856  71.917  1.00  0.00    -0.236 C  
HETATM   21  C   UNL     1     -10.972   4.824  73.340  1.00  0.00    -0.396 C  
ENDBRANCH   9  12
ENDBRANCH   7   8
ENDBRANCH   6   7
ENDBRANCH   5   6
ENDBRANCH   4   5
ENDBRANCH   2   4
TORSDOF 6
ENDMDL
MODEL      129
REMARK 921   NORMALIZED FREE ENERGY PREDICTED BY IDOCK:   -3.67 KCAL/MOL
REMARK 922        TOTAL FREE ENERGY PREDICTED BY IDOCK:   -4.80 KCAL/MOL
REMARK 923 INTER-LIGAND FREE ENERGY PREDICTED BY IDOCK:   -4.57 KCAL/MOL
REMARK 924 INTRA-LIGAND FREE ENERGY PREDICTED BY IDOCK:   -0.23 KCAL/MOL
REMARK 927      BINDING AFFINITY PREDICTED BY RF-SCORE:    0.00 PKD
ROOT
HETATM    1  C   UNL     1     -11.284  12.489  68.968  1.00  0.00    -0.268 C  
HETATM    2  N   UNL     1     -10.433  11.808  67.987  1.00  0.00    -0.193 NA 
HETATM    3  C   UNL     1     -11.247  11.375  66.848  1.00  0.00    -0.264 C  
ENDROOT
BRANCH   2   4
HETATM    4  C   UNL     1      -9.335  12.706  67.579  1.00  0.00    -0.188 C  
BRANCH   4   5
HETATM    5  C   UNL     1      -8.025  11.992  67.215  1.00  0.00    -0.174 C  
BRANCH   5   6
HETATM    6  O   UNL     1      -7.830  10.887  68.105  1.00  0.00    -0.106 OA 
BRANCH   6   7
HETATM    7  C   UNL     1      -7.793   9.656  67.390  1.00  0.00    -0.095 C  
BRANCH   7   8
HETATM    8  C   UNL     1      -8.471   8.544  68.183  1.00  0.00    -0.134 C  
HETATM    9  N   UNL     1      -9.135   8.994  69.311  1.00  0.00    -0.143 N  
HETATM   10  O   UNL     1      -8.454   7.377  67.806  1.00  0.00    -0.118 OA 
HETATM   11  H   UNL     1      -9.122   9.995  69.503  1.00  0.00     0.000 HD 
BRANCH   9  12
HETATM   12  C   UNL     1      -9.855   8.127  70.247  1.00  0.00    -0.184 C  
HETATM   13  C   UNL     1     -10.540   6.944  69.520  1.00  0.00    -0.261 C  
HETATM   14  C   UNL     1     -11.269   6.039  70.528  1.00  0.00    -0.363 C  
HETATM   15  C   UNL     1     -10.252   5.473  71.531  1.00  0.00    -0.270 C  
HETATM   16  C   UNL     1      -9.557   6.621  72.282  1.00  0.00    -0.150 C  
HETATM   17  C   UNL     1     -10.615   7.440  73.038  1.00  0.00    -0.392 C  
HETATM   18  C   UNL     1      -8.843   7.532  71.264  1.00  0.00    -0.137 C  
HETATM   19  C   UNL     1     -11.638   8.017  72.050  1.00  0.00    -0.369 C  
HETATM   20  C   UNL     1     -10.914   8.927  71.046  1.00  0.00    -0.341 C  
HETATM   21  C   UNL     1     -12.320   6.869  71.285  1.00  0.00    -0.422 C  
ENDBRANCH   9  12
ENDBRANCH   7   8
ENDBRANCH   6   7
ENDBRANCH   5   6
ENDBRANCH   4   5
ENDBRANCH   2   4
TORSDOF 6
ENDMDL
MODEL      130
REMARK 921   NORMALIZED FREE ENERGY PREDICTED BY IDOCK:   -3.67 KCAL/MOL
REMARK 922        TOTAL FREE ENERGY PREDICTED BY IDOCK:   -4.79 KCAL/MOL
REMARK 923 INTER-LIGAND FREE ENERGY PREDICTED BY IDOCK:   -4.82 KCAL/MOL
REMARK 924 INTRA-LIGAND FREE ENERGY PREDICTED BY IDOCK:    0.03 KCAL/MOL
REMARK 927      BINDING AFFINITY PREDICTED BY RF-SCORE:    0.00 PKD
ROOT
HETATM    1  C   UNL     1      -5.849  10.343  65.923  1.00  0.00    -0.099 C  
HETATM    2  N   UNL     1      -5.802   8.957  65.448  1.00  0.00    -0.047 NA 
HETATM    3  C   UNL     1      -6.443   8.079  66.429  1.00  0.00    -0.047 C  
ENDROOT
BRANCH   2   4
HETATM    4  C   UNL     1      -6.441   8.869  64.120  1.00  0.00    -0.079 C  
BRANCH   4   5
HETATM    5  C   UNL     1      -6.376  10.161  63.291  1.00  0.00    -0.140 C  
BRANCH   5   6
HETATM    6  O   UNL     1      -7.672  10.435  62.747  1.00  0.00    -0.145 OA 
BRANCH   6   7
HETATM    7  C   UNL     1      -8.656   9.576  63.315  1.00  0.00    -0.214 C  
BRANCH   7   8
HETATM    8  C   UNL     1      -9.375  10.261  64.473  1.00  0.00    -0.276 C  
HETATM    9  N   UNL     1      -9.450  11.636  64.342  1.00  0.00    -0.426 N  
HETATM   10  O   UNL     1      -9.873   9.622  65.393  1.00  0.00    -0.315 OA 
HETATM   11  H   UNL     1      -9.040  12.058  63.509  1.00  0.00     0.000 HD 
BRANCH   9  12
HETATM   12  C   UNL     1     -10.078  12.526  65.321  1.00  0.00    -0.257 C  
HETATM   13  C   UNL     1     -10.334  13.935  64.730  1.00  0.00    -0.419 C  
HETATM   14  C   UNL     1     -11.014  14.841  65.771  1.00  0.00    -0.334 C  
HETATM   15  C   UNL     1     -12.364  14.229  66.174  1.00  0.00    -0.411 C  
HETATM   16  C   UNL     1     -12.148  12.830  66.776  1.00  0.00    -0.290 C  
HETATM   17  C   UNL     1     -11.253  12.950  68.019  1.00  0.00    -0.305 C  
HETATM   18  C   UNL     1     -11.452  11.933  65.734  1.00  0.00    -0.326 C  
HETATM   19  C   UNL     1      -9.897  13.558  67.633  1.00  0.00    -0.228 C  
HETATM   20  C   UNL     1      -9.212  12.651  66.599  1.00  0.00    -0.218 C  
HETATM   21  C   UNL     1     -10.114  14.950  67.013  1.00  0.00    -0.244 C  
ENDBRANCH   9  12
ENDBRANCH   7   8
ENDBRANCH   6   7
ENDBRANCH   5   6
ENDBRANCH   4   5
ENDBRANCH   2   4
TORSDOF 6
ENDMDL
MODEL      131
REMARK 921   NORMALIZED FREE ENERGY PREDICTED BY IDOCK:   -3.66 KCAL/MOL
REMARK 922        TOTAL FREE ENERGY PREDICTED BY IDOCK:   -4.78 KCAL/MOL
REMARK 923 INTER-LIGAND FREE ENERGY PREDICTED BY IDOCK:   -4.76 KCAL/MOL
REMARK 924 INTRA-LIGAND FREE ENERGY PREDICTED BY IDOCK:   -0.02 KCAL/MOL
REMARK 927      BINDING AFFINITY PREDICTED BY RF-SCORE:    0.00 PKD
ROOT
HETATM    1  C   UNL     1     -10.239  18.666  67.431  1.00  0.00    -0.384 C  
HETATM    2  N   UNL     1      -8.828  18.459  67.089  1.00  0.00    -0.259 NA 
HETATM    3  C   UNL     1      -8.292  19.667  66.458  1.00  0.00    -0.332 C  
ENDROOT
BRANCH   2   4
HETATM    4  C   UNL     1      -8.077  18.084  68.304  1.00  0.00    -0.291 C  
BRANCH   4   5
HETATM    5  C   UNL     1      -6.577  17.838  68.080  1.00  0.00    -0.192 C  
BRANCH   5   6
HETATM    6  O   UNL     1      -6.405  16.605  67.373  1.00  0.00    -0.138 OA 
BRANCH   6   7
HETATM    7  C   UNL     1      -6.733  15.493  68.200  1.00  0.00    -0.127 C  
BRANCH   7   8
HETATM    8  C   UNL     1      -7.895  14.699  67.611  1.00  0.00    -0.181 C  
HETATM    9  N   UNL     1      -8.242  13.589  68.361  1.00  0.00    -0.168 N  
HETATM   10  O   UNL     1      -8.477  15.062  66.595  1.00  0.00    -0.248 OA 
HETATM   11  H   UNL     1      -7.717  13.409  69.216  1.00  0.00     0.000 HD 
BRANCH   9  12
HETATM   12  C   UNL     1      -9.315  12.656  68.008  1.00  0.00    -0.209 C  
HETATM   13  C   UNL     1     -10.681  13.376  67.882  1.00  0.00    -0.259 C  
HETATM   14  C   UNL     1     -11.783  12.377  67.489  1.00  0.00    -0.425 C  
HETATM   15  C   UNL     1     -11.437  11.746  66.132  1.00  0.00    -0.288 C  
HETATM   16  C   UNL     1     -10.088  11.012  66.221  1.00  0.00    -0.282 C  
HETATM   17  C   UNL     1     -10.187   9.908  67.285  1.00  0.00    -0.277 C  
HETATM   18  C   UNL     1      -8.993  12.014  66.631  1.00  0.00    -0.204 C  
HETATM   19  C   UNL     1     -10.529  10.522  68.650  1.00  0.00    -0.211 C  
HETATM   20  C   UNL     1      -9.426  11.514  69.048  1.00  0.00     0.068 C  
HETATM   21  C   UNL     1     -11.869  11.273  68.556  1.00  0.00    -0.355 C  
ENDBRANCH   9  12
ENDBRANCH   7   8
ENDBRANCH   6   7
ENDBRANCH   5   6
ENDBRANCH   4   5
ENDBRANCH   2   4
TORSDOF 6
ENDMDL
MODEL      132
REMARK 921   NORMALIZED FREE ENERGY PREDICTED BY IDOCK:   -3.62 KCAL/MOL
REMARK 922        TOTAL FREE ENERGY PREDICTED BY IDOCK:   -4.73 KCAL/MOL
REMARK 923 INTER-LIGAND FREE ENERGY PREDICTED BY IDOCK:   -4.60 KCAL/MOL
REMARK 924 INTRA-LIGAND FREE ENERGY PREDICTED BY IDOCK:   -0.13 KCAL/MOL
REMARK 927      BINDING AFFINITY PREDICTED BY RF-SCORE:    0.00 PKD
ROOT
HETATM    1  C   UNL     1      -7.763   6.046  62.707  1.00  0.00    -0.088 C  
HETATM    2  N   UNL     1      -6.936   6.715  63.716  1.00  0.00    -0.049 NA 
HETATM    3  C   UNL     1      -6.472   8.003  63.194  1.00  0.00    -0.080 C  
ENDROOT
BRANCH   2   4
HETATM    4  C   UNL     1      -7.707   6.865  64.965  1.00  0.00    -0.112 C  
BRANCH   4   5
HETATM    5  C   UNL     1      -6.900   7.409  66.154  1.00  0.00    -0.057 C  
BRANCH   5   6
HETATM    6  O   UNL     1      -7.653   8.443  66.797  1.00  0.00    -0.088 OA 
BRANCH   6   7
HETATM    7  C   UNL     1      -8.924   8.610  66.178  1.00  0.00    -0.180 C  
BRANCH   7   8
HETATM    8  C   UNL     1      -9.124  10.052  65.722  1.00  0.00    -0.163 C  
HETATM    9  N   UNL     1     -10.146  10.705  66.386  1.00  0.00    -0.218 N  
HETATM   10  O   UNL     1      -8.400  10.569  64.879  1.00  0.00    -0.170 OA 
HETATM   11  H   UNL     1     -10.654  10.189  67.105  1.00  0.00     0.000 HD 
BRANCH   9  12
HETATM   12  C   UNL     1     -10.548  12.090  66.127  1.00  0.00    -0.263 C  
HETATM   13  C   UNL     1     -10.926  12.307  64.641  1.00  0.00    -0.349 C  
HETATM   14  C   UNL     1     -11.365  13.762  64.403  1.00  0.00    -0.375 C  
HETATM   15  C   UNL     1     -12.596  14.071  65.269  1.00  0.00    -0.495 C  
HETATM   16  C   UNL     1     -12.255  13.875  66.757  1.00  0.00    -0.438 C  
HETATM   17  C   UNL     1     -11.111  14.828  67.139  1.00  0.00    -0.333 C  
HETATM   18  C   UNL     1     -11.800  12.421  66.985  1.00  0.00    -0.368 C  
HETATM   19  C   UNL     1      -9.871  14.531  66.285  1.00  0.00    -0.322 C  
HETATM   20  C   UNL     1      -9.426  13.081  66.526  1.00  0.00    -0.246 C  
HETATM   21  C   UNL     1     -10.217  14.708  64.795  1.00  0.00    -0.203 C  
ENDBRANCH   9  12
ENDBRANCH   7   8
ENDBRANCH   6   7
ENDBRANCH   5   6
ENDBRANCH   4   5
ENDBRANCH   2   4
TORSDOF 6
ENDMDL
MODEL      133
REMARK 921   NORMALIZED FREE ENERGY PREDICTED BY IDOCK:   -3.62 KCAL/MOL
REMARK 922        TOTAL FREE ENERGY PREDICTED BY IDOCK:   -4.73 KCAL/MOL
REMARK 923 INTER-LIGAND FREE ENERGY PREDICTED BY IDOCK:   -4.62 KCAL/MOL
REMARK 924 INTRA-LIGAND FREE ENERGY PREDICTED BY IDOCK:   -0.11 KCAL/MOL
REMARK 927      BINDING AFFINITY PREDICTED BY RF-SCORE:    0.00 PKD
ROOT
HETATM    1  C   UNL     1      -6.763  12.331  67.346  1.00  0.00    -0.150 C  
HETATM    2  N   UNL     1      -6.463  13.144  68.529  1.00  0.00    -0.077 NA 
HETATM    3  C   UNL     1      -5.916  12.290  69.586  1.00  0.00    -0.121 C  
ENDROOT
BRANCH   2   4
HETATM    4  C   UNL     1      -5.537  14.232  68.157  1.00  0.00    -0.124 C  
BRANCH   4   5
HETATM    5  C   UNL     1      -5.921  15.615  68.705  1.00  0.00    -0.100 C  
BRANCH   5   6
HETATM    6  O   UNL     1      -7.099  15.490  69.509  1.00  0.00    -0.178 OA 
BRANCH   6   7
HETATM    7  C   UNL     1      -7.999  16.567  69.267  1.00  0.00    -0.104 C  
BRANCH   7   8
HETATM    8  C   UNL     1      -8.940  16.243  68.111  1.00  0.00    -0.187 C  
HETATM    9  N   UNL     1      -9.210  14.892  67.981  1.00  0.00    -0.182 N  
HETATM   10  O   UNL     1      -9.432  17.121  67.413  1.00  0.00    -0.242 OA 
HETATM   11  H   UNL     1      -8.780  14.254  68.650  1.00  0.00     0.000 HD 
BRANCH   9  12
HETATM   12  C   UNL     1     -10.073  14.318  66.946  1.00  0.00    -0.264 C  
HETATM   13  C   UNL     1      -9.734  14.879  65.542  1.00  0.00    -0.275 C  
HETATM   14  C   UNL     1     -10.639  14.243  64.473  1.00  0.00    -0.232 C  
HETATM   15  C   UNL     1     -10.418  12.723  64.458  1.00  0.00    -0.392 C  
HETATM   16  C   UNL     1     -10.756  12.128  65.836  1.00  0.00    -0.302 C  
HETATM   17  C   UNL     1     -12.227  12.424  66.164  1.00  0.00    -0.119 C  
HETATM   18  C   UNL     1      -9.857  12.781  66.903  1.00  0.00    -0.236 C  
HETATM   19  C   UNL     1     -12.466  13.941  66.187  1.00  0.00    -0.478 C  
HETATM   20  C   UNL     1     -11.568  14.577  67.258  1.00  0.00    -0.405 C  
HETATM   21  C   UNL     1     -12.110  14.539  64.814  1.00  0.00    -0.454 C  
ENDBRANCH   9  12
ENDBRANCH   7   8
ENDBRANCH   6   7
ENDBRANCH   5   6
ENDBRANCH   4   5
ENDBRANCH   2   4
TORSDOF 6
ENDMDL
MODEL      134
REMARK 921   NORMALIZED FREE ENERGY PREDICTED BY IDOCK:   -3.62 KCAL/MOL
REMARK 922        TOTAL FREE ENERGY PREDICTED BY IDOCK:   -4.73 KCAL/MOL
REMARK 923 INTER-LIGAND FREE ENERGY PREDICTED BY IDOCK:   -5.37 KCAL/MOL
REMARK 924 INTRA-LIGAND FREE ENERGY PREDICTED BY IDOCK:    0.64 KCAL/MOL
REMARK 927      BINDING AFFINITY PREDICTED BY RF-SCORE:    0.00 PKD
ROOT
HETATM    1  C   UNL     1     -10.470  18.068  67.462  1.00  0.00    -0.396 C  
HETATM    2  N   UNL     1     -10.632  16.736  66.870  1.00  0.00    -0.266 NA 
HETATM    3  C   UNL     1      -9.372  16.316  66.254  1.00  0.00    -0.326 C  
ENDROOT
BRANCH   2   4
HETATM    4  C   UNL     1     -11.089  15.789  67.907  1.00  0.00    -0.326 C  
BRANCH   4   5
HETATM    5  C   UNL     1     -11.305  14.352  67.410  1.00  0.00    -0.337 C  
BRANCH   5   6
HETATM    6  O   UNL     1     -12.456  14.318  66.558  1.00  0.00    -0.428 OA 
BRANCH   6   7
HETATM    7  C   UNL     1     -12.368  13.247  65.624  1.00  0.00    -0.465 C  
BRANCH   7   8
HETATM    8  C   UNL     1     -11.539  12.098  66.187  1.00  0.00    -0.354 C  
HETATM    9  N   UNL     1     -10.384  11.844  65.468  1.00  0.00    -0.254 N  
HETATM   10  O   UNL     1     -11.865  11.506  67.210  1.00  0.00    -0.609 OA 
HETATM   11  H   UNL     1     -10.190  12.432  64.658  1.00  0.00     0.000 HD 
BRANCH   9  12
HETATM   12  C   UNL     1      -9.423  10.788  65.793  1.00  0.00    -0.204 C  
HETATM   13  C   UNL     1      -8.584  10.377  64.557  1.00  0.00    -0.187 C  
HETATM   14  C   UNL     1      -7.569   9.284  64.933  1.00  0.00    -0.108 C  
HETATM   15  C   UNL     1      -6.617   9.823  66.011  1.00  0.00    -0.082 C  
HETATM   16  C   UNL     1      -7.415  10.232  67.261  1.00  0.00    -0.094 C  
HETATM   17  C   UNL     1      -8.159   9.003  67.807  1.00  0.00    -0.109 C  
HETATM   18  C   UNL     1      -8.441  11.314  66.875  1.00  0.00    -0.152 C  
HETATM   19  C   UNL     1      -9.118   8.453  66.742  1.00  0.00    -0.192 C  
HETATM   20  C   UNL     1     -10.138   9.540  66.370  1.00  0.00    -0.328 C  
HETATM   21  C   UNL     1      -8.322   8.061  65.484  1.00  0.00    -0.153 C  
ENDBRANCH   9  12
ENDBRANCH   7   8
ENDBRANCH   6   7
ENDBRANCH   5   6
ENDBRANCH   4   5
ENDBRANCH   2   4
TORSDOF 6
ENDMDL
MODEL      135
REMARK 921   NORMALIZED FREE ENERGY PREDICTED BY IDOCK:   -3.62 KCAL/MOL
REMARK 922        TOTAL FREE ENERGY PREDICTED BY IDOCK:   -4.73 KCAL/MOL
REMARK 923 INTER-LIGAND FREE ENERGY PREDICTED BY IDOCK:   -4.74 KCAL/MOL
REMARK 924 INTRA-LIGAND FREE ENERGY PREDICTED BY IDOCK:    0.01 KCAL/MOL
REMARK 927      BINDING AFFINITY PREDICTED BY RF-SCORE:    0.00 PKD
ROOT
HETATM    1  C   UNL     1     -12.642  14.228  70.377  1.00  0.00    -0.343 C  
HETATM    2  N   UNL     1     -12.460  13.172  71.378  1.00  0.00    -0.250 NA 
HETATM    3  C   UNL     1     -13.625  13.128  72.263  1.00  0.00    -0.581 C  
ENDROOT
BRANCH   2   4
HETATM    4  C   UNL     1     -12.228  11.883  70.696  1.00  0.00    -0.331 C  
BRANCH   4   5
HETATM    5  C   UNL     1     -13.045  10.708  71.254  1.00  0.00    -0.359 C  
BRANCH   5   6
HETATM    6  O   UNL     1     -12.311   9.493  71.062  1.00  0.00    -0.300 OA 
BRANCH   6   7
HETATM    7  C   UNL     1     -10.966   9.764  70.680  1.00  0.00    -0.331 C  
BRANCH   7   8
HETATM    8  C   UNL     1     -10.593   8.999  69.415  1.00  0.00    -0.221 C  
HETATM    9  N   UNL     1     -10.092   7.734  69.661  1.00  0.00    -0.191 N  
HETATM   10  O   UNL     1     -10.777   9.469  68.297  1.00  0.00    -0.226 OA 
HETATM   11  H   UNL     1     -10.026   7.428  70.632  1.00  0.00     0.000 HD 
BRANCH   9  12
HETATM   12  C   UNL     1      -9.650   6.802  68.620  1.00  0.00    -0.131 C  
HETATM   13  C   UNL     1      -8.532   7.416  67.741  1.00  0.00    -0.118 C  
HETATM   14  C   UNL     1      -8.072   6.409  66.672  1.00  0.00    -0.110 C  
HETATM   15  C   UNL     1      -7.517   5.154  67.362  1.00  0.00    -0.083 C  
HETATM   16  C   UNL     1      -8.605   4.509  68.238  1.00  0.00    -0.107 C  
HETATM   17  C   UNL     1      -9.798   4.118  67.351  1.00  0.00    -0.152 C  
HETATM   18  C   UNL     1      -9.073   5.528  69.295  1.00  0.00    -0.132 C  
HETATM   19  C   UNL     1     -10.368   5.363  66.657  1.00  0.00    -0.325 C  
HETATM   20  C   UNL     1     -10.834   6.367  67.722  1.00  0.00    -0.418 C  
HETATM   21  C   UNL     1      -9.274   6.018  65.795  1.00  0.00    -0.032 C  
ENDBRANCH   9  12
ENDBRANCH   7   8
ENDBRANCH   6   7
ENDBRANCH   5   6
ENDBRANCH   4   5
ENDBRANCH   2   4
TORSDOF 6
ENDMDL
MODEL      136
REMARK 921   NORMALIZED FREE ENERGY PREDICTED BY IDOCK:   -3.62 KCAL/MOL
REMARK 922        TOTAL FREE ENERGY PREDICTED BY IDOCK:   -4.72 KCAL/MOL
REMARK 923 INTER-LIGAND FREE ENERGY PREDICTED BY IDOCK:   -4.73 KCAL/MOL
REMARK 924 INTRA-LIGAND FREE ENERGY PREDICTED BY IDOCK:    0.01 KCAL/MOL
REMARK 927      BINDING AFFINITY PREDICTED BY RF-SCORE:    0.00 PKD
ROOT
HETATM    1  C   UNL     1     -11.614   9.785  70.780  1.00  0.00    -0.339 C  
HETATM    2  N   UNL     1     -12.472   8.898  71.572  1.00  0.00    -0.312 NA 
HETATM    3  C   UNL     1     -13.877   9.254  71.358  1.00  0.00    -0.209 C  
ENDROOT
BRANCH   2   4
HETATM    4  C   UNL     1     -12.193   7.493  71.214  1.00  0.00    -0.329 C  
BRANCH   4   5
HETATM    5  C   UNL     1     -10.722   7.075  71.365  1.00  0.00    -0.219 C  
BRANCH   5   6
HETATM    6  O   UNL     1     -10.378   6.178  70.303  1.00  0.00    -0.191 OA 
BRANCH   6   7
HETATM    7  C   UNL     1     -11.037   6.543  69.094  1.00  0.00    -0.326 C  
BRANCH   7   8
HETATM    8  C   UNL     1     -10.130   7.397  68.214  1.00  0.00    -0.177 C  
HETATM    9  N   UNL     1     -10.608   8.678  68.005  1.00  0.00    -0.399 N  
HETATM   10  O   UNL     1      -9.060   6.976  67.788  1.00  0.00    -0.127 OA 
HETATM   11  H   UNL     1     -11.490   8.935  68.448  1.00  0.00     0.000 HD 
BRANCH   9  12
HETATM   12  C   UNL     1      -9.933   9.690  67.189  1.00  0.00    -0.194 C  
HETATM   13  C   UNL     1      -8.458   9.883  67.623  1.00  0.00    -0.114 C  
HETATM   14  C   UNL     1      -7.768  10.933  66.736  1.00  0.00    -0.141 C  
HETATM   15  C   UNL     1      -7.788  10.459  65.275  1.00  0.00    -0.137 C  
HETATM   16  C   UNL     1      -9.240  10.266  64.805  1.00  0.00    -0.287 C  
HETATM   17  C   UNL     1      -9.986  11.604  64.915  1.00  0.00    -0.293 C  
HETATM   18  C   UNL     1      -9.930   9.225  65.707  1.00  0.00    -0.215 C  
HETATM   19  C   UNL     1      -9.978  12.093  66.371  1.00  0.00    -0.243 C  
HETATM   20  C   UNL     1     -10.674  11.048  67.258  1.00  0.00    -0.312 C  
HETATM   21  C   UNL     1      -8.525  12.268  66.847  1.00  0.00    -0.159 C  
ENDBRANCH   9  12
ENDBRANCH   7   8
ENDBRANCH   6   7
ENDBRANCH   5   6
ENDBRANCH   4   5
ENDBRANCH   2   4
TORSDOF 6
ENDMDL
MODEL      137
REMARK 921   NORMALIZED FREE ENERGY PREDICTED BY IDOCK:   -3.61 KCAL/MOL
REMARK 922        TOTAL FREE ENERGY PREDICTED BY IDOCK:   -4.71 KCAL/MOL
REMARK 923 INTER-LIGAND FREE ENERGY PREDICTED BY IDOCK:   -4.64 KCAL/MOL
REMARK 924 INTRA-LIGAND FREE ENERGY PREDICTED BY IDOCK:   -0.06 KCAL/MOL
REMARK 927      BINDING AFFINITY PREDICTED BY RF-SCORE:    0.00 PKD
ROOT
HETATM    1  C   UNL     1      -7.500  11.475  69.006  1.00  0.00    -0.073 C  
HETATM    2  N   UNL     1      -7.475  10.068  69.419  1.00  0.00    -0.099 NA 
HETATM    3  C   UNL     1      -6.762   9.942  70.692  1.00  0.00    -0.094 C  
ENDROOT
BRANCH   2   4
HETATM    4  C   UNL     1      -8.857   9.555  69.501  1.00  0.00    -0.179 C  
BRANCH   4   5
HETATM    5  C   UNL     1      -9.866  10.286  68.602  1.00  0.00    -0.173 C  
BRANCH   5   6
HETATM    6  O   UNL     1     -11.064  10.534  69.347  1.00  0.00    -0.224 OA 
BRANCH   6   7
HETATM    7  C   UNL     1     -11.900  11.469  68.672  1.00  0.00    -0.318 C  
BRANCH   7   8
HETATM    8  C   UNL     1     -11.402  12.895  68.880  1.00  0.00    -0.288 C  
HETATM    9  N   UNL     1     -10.693  13.396  67.803  1.00  0.00    -0.245 N  
HETATM   10  O   UNL     1     -11.663  13.530  69.897  1.00  0.00    -0.292 OA 
HETATM   11  H   UNL     1     -10.576  12.794  66.989  1.00  0.00     0.000 HD 
BRANCH   9  12
HETATM   12  C   UNL     1     -10.099  14.734  67.755  1.00  0.00    -0.224 C  
HETATM   13  C   UNL     1      -9.202  15.007  68.988  1.00  0.00    -0.205 C  
HETATM   14  C   UNL     1      -8.574  16.409  68.900  1.00  0.00    -0.250 C  
HETATM   15  C   UNL     1      -7.706  16.498  67.636  1.00  0.00    -0.167 C  
HETATM   16  C   UNL     1      -8.566  16.243  66.387  1.00  0.00    -0.361 C  
HETATM   17  C   UNL     1      -9.677  17.302  66.317  1.00  0.00    -0.282 C  
HETATM   18  C   UNL     1      -9.204  14.844  66.490  1.00  0.00    -0.314 C  
HETATM   19  C   UNL     1     -10.558  17.224  67.572  1.00  0.00    -0.329 C  
HETATM   20  C   UNL     1     -11.192  15.827  67.658  1.00  0.00    -0.246 C  
HETATM   21  C   UNL     1      -9.694  17.461  68.823  1.00  0.00    -0.282 C  
ENDBRANCH   9  12
ENDBRANCH   7   8
ENDBRANCH   6   7
ENDBRANCH   5   6
ENDBRANCH   4   5
ENDBRANCH   2   4
TORSDOF 6
ENDMDL
MODEL      138
REMARK 921   NORMALIZED FREE ENERGY PREDICTED BY IDOCK:   -3.60 KCAL/MOL
REMARK 922        TOTAL FREE ENERGY PREDICTED BY IDOCK:   -4.70 KCAL/MOL
REMARK 923 INTER-LIGAND FREE ENERGY PREDICTED BY IDOCK:   -5.04 KCAL/MOL
REMARK 924 INTRA-LIGAND FREE ENERGY PREDICTED BY IDOCK:    0.33 KCAL/MOL
REMARK 927      BINDING AFFINITY PREDICTED BY RF-SCORE:    0.00 PKD
ROOT
HETATM    1  C   UNL     1      -5.891  19.616  65.741  1.00  0.00    -0.167 C  
HETATM    2  N   UNL     1      -5.821  19.266  67.163  1.00  0.00    -0.175 NA 
HETATM    3  C   UNL     1      -6.186  20.429  67.975  1.00  0.00    -0.269 C  
ENDROOT
BRANCH   2   4
HETATM    4  C   UNL     1      -6.694  18.105  67.428  1.00  0.00    -0.194 C  
BRANCH   4   5
HETATM    5  C   UNL     1      -6.443  17.409  68.775  1.00  0.00    -0.201 C  
BRANCH   5   6
HETATM    6  O   UNL     1      -7.640  16.741  69.187  1.00  0.00    -0.240 OA 
BRANCH   6   7
HETATM    7  C   UNL     1      -8.795  17.400  68.676  1.00  0.00    -0.258 C  
BRANCH   7   8
HETATM    8  C   UNL     1      -9.740  16.407  68.008  1.00  0.00    -0.235 C  
HETATM    9  N   UNL     1      -9.182  15.156  67.817  1.00  0.00    -0.180 N  
HETATM   10  O   UNL     1     -10.895  16.705  67.723  1.00  0.00    -0.340 OA 
HETATM   11  H   UNL     1      -8.225  15.007  68.136  1.00  0.00     0.000 HD 
BRANCH   9  12
HETATM   12  C   UNL     1      -9.875  14.029  67.187  1.00  0.00    -0.240 C  
HETATM   13  C   UNL     1      -9.400  12.672  67.763  1.00  0.00    -0.198 C  
HETATM   14  C   UNL     1     -10.159  11.509  67.100  1.00  0.00    -0.223 C  
HETATM   15  C   UNL     1     -11.663  11.659  67.380  1.00  0.00    -0.278 C  
HETATM   16  C   UNL     1     -12.173  12.994  66.812  1.00  0.00    -0.261 C  
HETATM   17  C   UNL     1     -11.933  13.019  65.295  1.00  0.00    -0.446 C  
HETATM   18  C   UNL     1     -11.397  14.153  67.467  1.00  0.00    -0.343 C  
HETATM   19  C   UNL     1     -10.434  12.875  64.997  1.00  0.00    -0.337 C  
HETATM   20  C   UNL     1      -9.674  14.038  65.651  1.00  0.00    -0.181 C  
HETATM   21  C   UNL     1      -9.919  11.547  65.581  1.00  0.00    -0.275 C  
ENDBRANCH   9  12
ENDBRANCH   7   8
ENDBRANCH   6   7
ENDBRANCH   5   6
ENDBRANCH   4   5
ENDBRANCH   2   4
TORSDOF 6
ENDMDL
MODEL      139
REMARK 921   NORMALIZED FREE ENERGY PREDICTED BY IDOCK:   -3.60 KCAL/MOL
REMARK 922        TOTAL FREE ENERGY PREDICTED BY IDOCK:   -4.70 KCAL/MOL
REMARK 923 INTER-LIGAND FREE ENERGY PREDICTED BY IDOCK:   -4.67 KCAL/MOL
REMARK 924 INTRA-LIGAND FREE ENERGY PREDICTED BY IDOCK:   -0.03 KCAL/MOL
REMARK 927      BINDING AFFINITY PREDICTED BY RF-SCORE:    0.00 PKD
ROOT
HETATM    1  C   UNL     1      -8.130   6.057  65.122  1.00  0.00    -0.132 C  
HETATM    2  N   UNL     1      -7.644   7.287  64.489  1.00  0.00    -0.099 NA 
HETATM    3  C   UNL     1      -7.886   7.225  63.046  1.00  0.00    -0.123 C  
ENDROOT
BRANCH   2   4
HETATM    4  C   UNL     1      -8.297   8.454  65.114  1.00  0.00    -0.167 C  
BRANCH   4   5
HETATM    5  C   UNL     1      -7.631   9.803  64.803  1.00  0.00    -0.129 C  
BRANCH   5   6
HETATM    6  O   UNL     1      -8.605  10.688  64.240  1.00  0.00    -0.170 OA 
BRANCH   6   7
HETATM    7  C   UNL     1      -9.899  10.431  64.776  1.00  0.00    -0.340 C  
BRANCH   7   8
HETATM    8  C   UNL     1     -10.416  11.634  65.558  1.00  0.00    -0.273 C  
HETATM    9  N   UNL     1      -9.413  12.473  66.009  1.00  0.00    -0.390 N  
HETATM   10  O   UNL     1     -11.615  11.838  65.713  1.00  0.00    -0.312 OA 
HETATM   11  H   UNL     1      -8.449  12.228  65.781  1.00  0.00     0.000 HD 
BRANCH   9  12
HETATM   12  C   UNL     1      -9.642  13.689  66.793  1.00  0.00    -0.275 C  
HETATM   13  C   UNL     1     -10.473  13.399  68.068  1.00  0.00    -0.243 C  
HETATM   14  C   UNL     1     -10.679  14.689  68.882  1.00  0.00    -0.251 C  
HETATM   15  C   UNL     1      -9.311  15.246  69.306  1.00  0.00    -0.239 C  
HETATM   16  C   UNL     1      -8.460  15.556  68.063  1.00  0.00    -0.143 C  
HETATM   17  C   UNL     1      -9.190  16.599  67.202  1.00  0.00    -0.233 C  
HETATM   18  C   UNL     1      -8.272  14.264  67.244  1.00  0.00    -0.212 C  
HETATM   19  C   UNL     1     -10.558  16.056  66.765  1.00  0.00    -0.297 C  
HETATM   20  C   UNL     1     -10.355  14.773  65.946  1.00  0.00    -0.335 C  
HETATM   21  C   UNL     1     -11.403  15.728  68.010  1.00  0.00    -0.310 C  
ENDBRANCH   9  12
ENDBRANCH   7   8
ENDBRANCH   6   7
ENDBRANCH   5   6
ENDBRANCH   4   5
ENDBRANCH   2   4
TORSDOF 6
ENDMDL
MODEL      140
REMARK 921   NORMALIZED FREE ENERGY PREDICTED BY IDOCK:   -3.56 KCAL/MOL
REMARK 922        TOTAL FREE ENERGY PREDICTED BY IDOCK:   -4.65 KCAL/MOL
REMARK 923 INTER-LIGAND FREE ENERGY PREDICTED BY IDOCK:   -4.68 KCAL/MOL
REMARK 924 INTRA-LIGAND FREE ENERGY PREDICTED BY IDOCK:    0.04 KCAL/MOL
REMARK 927      BINDING AFFINITY PREDICTED BY RF-SCORE:    0.00 PKD
ROOT
HETATM    1  C   UNL     1      -8.407   5.076  62.645  1.00  0.00    -0.104 C  
HETATM    2  N   UNL     1      -7.938   4.941  64.028  1.00  0.00    -0.095 NA 
HETATM    3  C   UNL     1      -7.670   6.268  64.588  1.00  0.00    -0.105 C  
ENDROOT
BRANCH   2   4
HETATM    4  C   UNL     1      -8.940   4.196  64.817  1.00  0.00    -0.140 C  
BRANCH   4   5
HETATM    5  C   UNL     1      -8.649   4.132  66.324  1.00  0.00    -0.113 C  
BRANCH   5   6
HETATM    6  O   UNL     1      -9.889   4.138  67.041  1.00  0.00    -0.212 OA 
BRANCH   6   7
HETATM    7  C   UNL     1     -10.705   5.235  66.642  1.00  0.00    -0.200 C  
BRANCH   7   8
HETATM    8  C   UNL     1     -10.684   6.341  67.691  1.00  0.00    -0.313 C  
HETATM    9  N   UNL     1     -10.399   5.889  68.967  1.00  0.00    -0.208 N  
HETATM   10  O   UNL     1     -10.858   7.518  67.393  1.00  0.00    -0.267 OA 
HETATM   11  H   UNL     1     -10.224   4.891  69.090  1.00  0.00     0.000 HD 
BRANCH   9  12
HETATM   12  C   UNL     1     -10.330   6.746  70.152  1.00  0.00    -0.202 C  
HETATM   13  C   UNL     1      -9.603   8.081  69.851  1.00  0.00    -0.171 C  
HETATM   14  C   UNL     1      -9.566   8.970  71.106  1.00  0.00    -0.356 C  
HETATM   15  C   UNL     1     -11.003   9.286  71.549  1.00  0.00    -0.446 C  
HETATM   16  C   UNL     1     -11.755   7.982  71.867  1.00  0.00    -0.351 C  
HETATM   17  C   UNL     1     -11.024   7.245  73.000  1.00  0.00    -0.388 C  
HETATM   18  C   UNL     1     -11.774   7.090  70.611  1.00  0.00    -0.384 C  
HETATM   19  C   UNL     1      -9.586   6.917  72.573  1.00  0.00    -0.165 C  
HETATM   20  C   UNL     1      -9.620   6.024  71.324  1.00  0.00    -0.189 C  
HETATM   21  C   UNL     1      -8.840   8.221  72.237  1.00  0.00    -0.274 C  
ENDBRANCH   9  12
ENDBRANCH   7   8
ENDBRANCH   6   7
ENDBRANCH   5   6
ENDBRANCH   4   5
ENDBRANCH   2   4
TORSDOF 6
ENDMDL
MODEL      141
REMARK 921   NORMALIZED FREE ENERGY PREDICTED BY IDOCK:   -3.56 KCAL/MOL
REMARK 922        TOTAL FREE ENERGY PREDICTED BY IDOCK:   -4.64 KCAL/MOL
REMARK 923 INTER-LIGAND FREE ENERGY PREDICTED BY IDOCK:   -4.56 KCAL/MOL
REMARK 924 INTRA-LIGAND FREE ENERGY PREDICTED BY IDOCK:   -0.08 KCAL/MOL
REMARK 927      BINDING AFFINITY PREDICTED BY RF-SCORE:    0.00 PKD
ROOT
HETATM    1  C   UNL     1     -11.806  10.694  69.832  1.00  0.00    -0.315 C  
HETATM    2  N   UNL     1     -11.838  10.260  71.233  1.00  0.00    -0.360 NA 
HETATM    3  C   UNL     1     -13.173   9.754  71.560  1.00  0.00    -0.404 C  
ENDROOT
BRANCH   2   4
HETATM    4  C   UNL     1     -10.787   9.248  71.458  1.00  0.00    -0.372 C  
BRANCH   4   5
HETATM    5  C   UNL     1     -11.263   7.982  72.187  1.00  0.00    -0.319 C  
BRANCH   5   6
HETATM    6  O   UNL     1     -10.835   6.829  71.453  1.00  0.00    -0.229 OA 
BRANCH   6   7
HETATM    7  C   UNL     1     -11.706   6.570  70.357  1.00  0.00    -0.375 C  
BRANCH   7   8
HETATM    8  C   UNL     1     -10.918   6.406  69.061  1.00  0.00    -0.348 C  
HETATM    9  N   UNL     1     -10.498   5.109  68.830  1.00  0.00    -0.105 N  
HETATM   10  O   UNL     1     -10.734   7.344  68.293  1.00  0.00    -0.180 OA 
HETATM   11  H   UNL     1     -10.749   4.398  69.516  1.00  0.00     0.000 HD 
BRANCH   9  12
HETATM   12  C   UNL     1      -9.716   4.689  67.665  1.00  0.00    -0.161 C  
HETATM   13  C   UNL     1     -10.489   4.922  66.343  1.00  0.00    -0.325 C  
HETATM   14  C   UNL     1      -9.636   4.494  65.136  1.00  0.00    -0.167 C  
HETATM   15  C   UNL     1      -8.347   5.329  65.101  1.00  0.00    -0.145 C  
HETATM   16  C   UNL     1      -7.546   5.115  66.397  1.00  0.00    -0.088 C  
HETATM   17  C   UNL     1      -7.184   3.627  66.523  1.00  0.00    -0.067 C  
HETATM   18  C   UNL     1      -8.412   5.530  67.602  1.00  0.00    -0.102 C  
HETATM   19  C   UNL     1      -8.461   2.776  66.563  1.00  0.00    -0.103 C  
HETATM   20  C   UNL     1      -9.311   3.198  67.771  1.00  0.00    -0.252 C  
HETATM   21  C   UNL     1      -9.273   3.005  65.275  1.00  0.00    -0.146 C  
ENDBRANCH   9  12
ENDBRANCH   7   8
ENDBRANCH   6   7
ENDBRANCH   5   6
ENDBRANCH   4   5
ENDBRANCH   2   4
TORSDOF 6
ENDMDL
MODEL      142
REMARK 921   NORMALIZED FREE ENERGY PREDICTED BY IDOCK:   -3.53 KCAL/MOL
REMARK 922        TOTAL FREE ENERGY PREDICTED BY IDOCK:   -4.60 KCAL/MOL
REMARK 923 INTER-LIGAND FREE ENERGY PREDICTED BY IDOCK:   -4.04 KCAL/MOL
REMARK 924 INTRA-LIGAND FREE ENERGY PREDICTED BY IDOCK:   -0.57 KCAL/MOL
REMARK 927      BINDING AFFINITY PREDICTED BY RF-SCORE:    0.00 PKD
ROOT
HETATM    1  C   UNL     1      -7.754   4.531  68.115  1.00  0.00    -0.080 C  
HETATM    2  N   UNL     1      -9.168   4.148  68.183  1.00  0.00    -0.136 NA 
HETATM    3  C   UNL     1      -9.932   4.909  67.192  1.00  0.00    -0.197 C  
ENDROOT
BRANCH   2   4
HETATM    4  C   UNL     1      -9.293   2.690  67.984  1.00  0.00    -0.202 C  
BRANCH   4   5
HETATM    5  C   UNL     1      -8.756   1.837  69.143  1.00  0.00    -0.066 C  
BRANCH   5   6
HETATM    6  O   UNL     1      -9.646   1.949  70.259  1.00  0.00    -0.104 OA 
BRANCH   6   7
HETATM    7  C   UNL     1      -8.926   2.195  71.463  1.00  0.00    -0.079 C  
BRANCH   7   8
HETATM    8  C   UNL     1      -9.015   3.665  71.861  1.00  0.00    -0.105 C  
HETATM    9  N   UNL     1      -9.962   4.375  71.146  1.00  0.00    -0.191 N  
HETATM   10  O   UNL     1      -8.333   4.131  72.767  1.00  0.00    -0.094 OA 
HETATM   11  H   UNL     1     -10.506   3.872  70.446  1.00  0.00     0.000 HD 
BRANCH   9  12
HETATM   12  C   UNL     1     -10.235   5.803  71.328  1.00  0.00    -0.215 C  
HETATM   13  C   UNL     1     -11.284   6.318  70.310  1.00  0.00    -0.455 C  
HETATM   14  C   UNL     1     -11.568   7.813  70.539  1.00  0.00    -0.173 C  
HETATM   15  C   UNL     1     -12.124   8.014  71.957  1.00  0.00    -0.377 C  
HETATM   16  C   UNL     1     -11.104   7.522  72.997  1.00  0.00    -0.413 C  
HETATM   17  C   UNL     1      -9.802   8.324  72.843  1.00  0.00    -0.303 C  
HETATM   18  C   UNL     1     -10.811   6.029  72.752  1.00  0.00    -0.284 C  
HETATM   19  C   UNL     1      -9.230   8.131  71.431  1.00  0.00    -0.195 C  
HETATM   20  C   UNL     1      -8.939   6.640  71.203  1.00  0.00    -0.145 C  
HETATM   21  C   UNL     1     -10.259   8.606  70.389  1.00  0.00    -0.218 C  
ENDBRANCH   9  12
ENDBRANCH   7   8
ENDBRANCH   6   7
ENDBRANCH   5   6
ENDBRANCH   4   5
ENDBRANCH   2   4
TORSDOF 6
ENDMDL
MODEL      143
REMARK 921   NORMALIZED FREE ENERGY PREDICTED BY IDOCK:   -3.52 KCAL/MOL
REMARK 922        TOTAL FREE ENERGY PREDICTED BY IDOCK:   -4.59 KCAL/MOL
REMARK 923 INTER-LIGAND FREE ENERGY PREDICTED BY IDOCK:   -4.69 KCAL/MOL
REMARK 924 INTRA-LIGAND FREE ENERGY PREDICTED BY IDOCK:    0.10 KCAL/MOL
REMARK 927      BINDING AFFINITY PREDICTED BY RF-SCORE:    0.00 PKD
ROOT
HETATM    1  C   UNL     1     -11.994  14.329  69.645  1.00  0.00    -0.336 C  
HETATM    2  N   UNL     1     -11.914  13.526  68.421  1.00  0.00    -0.363 NA 
HETATM    3  C   UNL     1     -11.593  14.393  67.285  1.00  0.00    -0.379 C  
ENDROOT
BRANCH   2   4
HETATM    4  C   UNL     1     -10.917  12.452  68.601  1.00  0.00    -0.247 C  
BRANCH   4   5
HETATM    5  C   UNL     1     -11.113  11.236  67.682  1.00  0.00    -0.277 C  
BRANCH   5   6
HETATM    6  O   UNL     1     -11.191  10.052  68.482  1.00  0.00    -0.211 OA 
BRANCH   6   7
HETATM    7  C   UNL     1     -11.015  10.355  69.863  1.00  0.00    -0.305 C  
BRANCH   7   8
HETATM    8  C   UNL     1     -10.214   9.264  70.564  1.00  0.00    -0.251 C  
HETATM    9  N   UNL     1     -10.593   7.983  70.207  1.00  0.00    -0.227 N  
HETATM   10  O   UNL     1      -9.293   9.529  71.330  1.00  0.00    -0.229 OA 
HETATM   11  H   UNL     1     -11.343   7.882  69.524  1.00  0.00     0.000 HD 
BRANCH   9  12
HETATM   12  C   UNL     1      -9.990   6.762  70.746  1.00  0.00    -0.187 C  
HETATM   13  C   UNL     1     -10.491   5.499  70.001  1.00  0.00    -0.373 C  
HETATM   14  C   UNL     1      -9.825   4.235  70.571  1.00  0.00    -0.269 C  
HETATM   15  C   UNL     1      -8.303   4.336  70.389  1.00  0.00    -0.081 C  
HETATM   16  C   UNL     1      -7.766   5.576  71.126  1.00  0.00    -0.104 C  
HETATM   17  C   UNL     1      -8.092   5.451  72.622  1.00  0.00    -0.106 C  
HETATM   18  C   UNL     1      -8.449   6.836  70.561  1.00  0.00    -0.138 C  
HETATM   19  C   UNL     1      -9.611   5.353  72.823  1.00  0.00    -0.165 C  
HETATM   20  C   UNL     1     -10.278   6.617  72.261  1.00  0.00    -0.206 C  
HETATM   21  C   UNL     1     -10.151   4.123  72.070  1.00  0.00    -0.234 C  
ENDBRANCH   9  12
ENDBRANCH   7   8
ENDBRANCH   6   7
ENDBRANCH   5   6
ENDBRANCH   4   5
ENDBRANCH   2   4
TORSDOF 6
ENDMDL
MODEL      144
REMARK 921   NORMALIZED FREE ENERGY PREDICTED BY IDOCK:   -3.51 KCAL/MOL
REMARK 922        TOTAL FREE ENERGY PREDICTED BY IDOCK:   -4.58 KCAL/MOL
REMARK 923 INTER-LIGAND FREE ENERGY PREDICTED BY IDOCK:   -4.42 KCAL/MOL
REMARK 924 INTRA-LIGAND FREE ENERGY PREDICTED BY IDOCK:   -0.16 KCAL/MOL
REMARK 927      BINDING AFFINITY PREDICTED BY RF-SCORE:    0.00 PKD
ROOT
HETATM    1  C   UNL     1     -11.596  10.800  69.891  1.00  0.00    -0.331 C  
HETATM    2  N   UNL     1     -12.042  10.334  71.208  1.00  0.00    -0.377 NA 
HETATM    3  C   UNL     1     -13.435   9.889  71.125  1.00  0.00    -0.240 C  
ENDROOT
BRANCH   2   4
HETATM    4  C   UNL     1     -11.143   9.264  71.683  1.00  0.00    -0.368 C  
BRANCH   4   5
HETATM    5  C   UNL     1     -11.846   7.942  72.027  1.00  0.00    -0.318 C  
BRANCH   5   6
HETATM    6  O   UNL     1     -11.076   6.852  71.508  1.00  0.00    -0.235 OA 
BRANCH   6   7
HETATM    7  C   UNL     1     -11.437   6.569  70.160  1.00  0.00    -0.415 C  
BRANCH   7   8
HETATM    8  C   UNL     1     -10.289   6.888  69.208  1.00  0.00    -0.198 C  
HETATM    9  N   UNL     1     -10.590   7.880  68.292  1.00  0.00    -0.372 N  
HETATM   10  O   UNL     1      -9.198   6.336  69.303  1.00  0.00    -0.133 OA 
HETATM   11  H   UNL     1     -11.516   8.304  68.336  1.00  0.00     0.000 HD 
BRANCH   9  12
HETATM   12  C   UNL     1      -9.665   8.363  67.264  1.00  0.00    -0.184 C  
HETATM   13  C   UNL     1     -10.273   9.535  66.453  1.00  0.00    -0.302 C  
HETATM   14  C   UNL     1      -9.273  10.037  65.397  1.00  0.00    -0.259 C  
HETATM   15  C   UNL     1      -8.000  10.536  66.097  1.00  0.00    -0.147 C  
HETATM   16  C   UNL     1      -7.362   9.393  66.905  1.00  0.00    -0.090 C  
HETATM   17  C   UNL     1      -7.000   8.245  65.951  1.00  0.00    -0.064 C  
HETATM   18  C   UNL     1      -8.374   8.885  67.950  1.00  0.00    -0.118 C  
HETATM   19  C   UNL     1      -8.262   7.730  65.245  1.00  0.00    -0.142 C  
HETATM   20  C   UNL     1      -9.260   7.223  66.297  1.00  0.00    -0.175 C  
HETATM   21  C   UNL     1      -8.912   8.879  64.451  1.00  0.00     0.048 C  
ENDBRANCH   9  12
ENDBRANCH   7   8
ENDBRANCH   6   7
ENDBRANCH   5   6
ENDBRANCH   4   5
ENDBRANCH   2   4
TORSDOF 6
ENDMDL
MODEL      145
REMARK 921   NORMALIZED FREE ENERGY PREDICTED BY IDOCK:   -3.51 KCAL/MOL
REMARK 922        TOTAL FREE ENERGY PREDICTED BY IDOCK:   -4.57 KCAL/MOL
REMARK 923 INTER-LIGAND FREE ENERGY PREDICTED BY IDOCK:   -4.39 KCAL/MOL
REMARK 924 INTRA-LIGAND FREE ENERGY PREDICTED BY IDOCK:   -0.19 KCAL/MOL
REMARK 927      BINDING AFFINITY PREDICTED BY RF-SCORE:    0.00 PKD
ROOT
HETATM    1  C   UNL     1     -10.923   9.759  71.180  1.00  0.00    -0.316 C  
HETATM    2  N   UNL     1     -12.062  10.185  70.360  1.00  0.00    -0.265 NA 
HETATM    3  C   UNL     1     -12.733  11.317  71.002  1.00  0.00    -0.359 C  
ENDROOT
BRANCH   2   4
HETATM    4  C   UNL     1     -11.593  10.512  68.999  1.00  0.00    -0.207 C  
BRANCH   4   5
HETATM    5  C   UNL     1     -10.319   9.772  68.565  1.00  0.00    -0.202 C  
BRANCH   5   6
HETATM    6  O   UNL     1     -10.686   8.577  67.867  1.00  0.00    -0.187 OA 
BRANCH   6   7
HETATM    7  C   UNL     1      -9.752   7.531  68.118  1.00  0.00    -0.154 C  
BRANCH   7   8
HETATM    8  C   UNL     1     -10.182   6.693  69.318  1.00  0.00    -0.183 C  
HETATM    9  N   UNL     1      -9.193   6.549  70.275  1.00  0.00    -0.155 N  
HETATM   10  O   UNL     1     -11.318   6.244  69.419  1.00  0.00    -0.412 OA 
HETATM   11  H   UNL     1      -8.298   7.007  70.106  1.00  0.00     0.000 HD 
BRANCH   9  12
HETATM   12  C   UNL     1      -9.347   5.783  71.514  1.00  0.00    -0.146 C  
HETATM   13  C   UNL     1     -10.419   6.407  72.442  1.00  0.00    -0.222 C  
HETATM   14  C   UNL     1     -10.576   5.570  73.724  1.00  0.00    -0.316 C  
HETATM   15  C   UNL     1     -11.020   4.148  73.352  1.00  0.00    -0.350 C  
HETATM   16  C   UNL     1      -9.972   3.491  72.437  1.00  0.00    -0.237 C  
HETATM   17  C   UNL     1      -8.628   3.427  73.178  1.00  0.00    -0.081 C  
HETATM   18  C   UNL     1      -9.809   4.342  71.163  1.00  0.00    -0.258 C  
HETATM   19  C   UNL     1      -8.167   4.842  73.554  1.00  0.00    -0.107 C  
HETATM   20  C   UNL     1      -8.003   5.677  72.275  1.00  0.00    -0.107 C  
HETATM   21  C   UNL     1      -9.224   5.506  74.455  1.00  0.00    -0.124 C  
ENDBRANCH   9  12
ENDBRANCH   7   8
ENDBRANCH   6   7
ENDBRANCH   5   6
ENDBRANCH   4   5
ENDBRANCH   2   4
TORSDOF 6
ENDMDL
MODEL      146
REMARK 921   NORMALIZED FREE ENERGY PREDICTED BY IDOCK:   -3.50 KCAL/MOL
REMARK 922        TOTAL FREE ENERGY PREDICTED BY IDOCK:   -4.57 KCAL/MOL
REMARK 923 INTER-LIGAND FREE ENERGY PREDICTED BY IDOCK:   -4.79 KCAL/MOL
REMARK 924 INTRA-LIGAND FREE ENERGY PREDICTED BY IDOCK:    0.23 KCAL/MOL
REMARK 927      BINDING AFFINITY PREDICTED BY RF-SCORE:    0.00 PKD
ROOT
HETATM    1  C   UNL     1     -11.831  15.842  71.137  1.00  0.00    -0.425 C  
HETATM    2  N   UNL     1     -12.569  14.995  72.080  1.00  0.00    -0.316 NA 
HETATM    3  C   UNL     1     -13.394  15.835  72.952  1.00  0.00    -0.569 C  
ENDROOT
BRANCH   2   4
HETATM    4  C   UNL     1     -13.374  14.010  71.331  1.00  0.00    -0.317 C  
BRANCH   4   5
HETATM    5  C   UNL     1     -13.756  12.755  72.131  1.00  0.00    -0.362 C  
BRANCH   5   6
HETATM    6  O   UNL     1     -13.498  11.594  71.333  1.00  0.00    -0.055 OA 
BRANCH   6   7
HETATM    7  C   UNL     1     -13.017  10.520  72.135  1.00  0.00    -0.263 C  
BRANCH   7   8
HETATM    8  C   UNL     1     -12.491   9.382  71.266  1.00  0.00    -0.335 C  
HETATM    9  N   UNL     1     -11.126   9.436  71.052  1.00  0.00    -0.313 N  
HETATM   10  O   UNL     1     -13.226   8.492  70.852  1.00  0.00     0.038 OA 
HETATM   11  H   UNL     1     -10.605  10.198  71.485  1.00  0.00     0.000 HD 
BRANCH   9  12
HETATM   12  C   UNL     1     -10.377   8.470  70.244  1.00  0.00    -0.205 C  
HETATM   13  C   UNL     1     -10.837   7.016  70.520  1.00  0.00    -0.279 C  
HETATM   14  C   UNL     1     -10.051   6.026  69.643  1.00  0.00    -0.244 C  
HETATM   15  C   UNL     1     -10.305   6.346  68.162  1.00  0.00    -0.231 C  
HETATM   16  C   UNL     1      -9.850   7.781  67.848  1.00  0.00    -0.194 C  
HETATM   17  C   UNL     1      -8.348   7.909  68.145  1.00  0.00    -0.124 C  
HETATM   18  C   UNL     1     -10.629   8.766  68.741  1.00  0.00    -0.174 C  
HETATM   19  C   UNL     1      -8.076   7.596  69.623  1.00  0.00    -0.126 C  
HETATM   20  C   UNL     1      -8.854   8.588  70.501  1.00  0.00    -0.168 C  
HETATM   21  C   UNL     1      -8.548   6.166  69.942  1.00  0.00    -0.132 C  
ENDBRANCH   9  12
ENDBRANCH   7   8
ENDBRANCH   6   7
ENDBRANCH   5   6
ENDBRANCH   4   5
ENDBRANCH   2   4
TORSDOF 6
ENDMDL
MODEL      147
REMARK 921   NORMALIZED FREE ENERGY PREDICTED BY IDOCK:   -3.49 KCAL/MOL
REMARK 922        TOTAL FREE ENERGY PREDICTED BY IDOCK:   -4.55 KCAL/MOL
REMARK 923 INTER-LIGAND FREE ENERGY PREDICTED BY IDOCK:   -4.39 KCAL/MOL
REMARK 924 INTRA-LIGAND FREE ENERGY PREDICTED BY IDOCK:   -0.16 KCAL/MOL
REMARK 927      BINDING AFFINITY PREDICTED BY RF-SCORE:    0.00 PKD
ROOT
HETATM    1  C   UNL     1      -5.690  10.622  66.135  1.00  0.00    -0.110 C  
HETATM    2  N   UNL     1      -7.023  10.019  66.228  1.00  0.00    -0.099 NA 
HETATM    3  C   UNL     1      -8.040  11.073  66.232  1.00  0.00    -0.159 C  
ENDROOT
BRANCH   2   4
HETATM    4  C   UNL     1      -7.212   9.067  65.115  1.00  0.00    -0.088 C  
BRANCH   4   5
HETATM    5  C   UNL     1      -6.853   7.611  65.449  1.00  0.00    -0.045 C  
BRANCH   5   6
HETATM    6  O   UNL     1      -7.551   7.217  66.636  1.00  0.00    -0.089 OA 
BRANCH   6   7
HETATM    7  C   UNL     1      -8.918   6.936  66.354  1.00  0.00    -0.153 C  
BRANCH   7   8
HETATM    8  C   UNL     1      -9.815   7.373  67.507  1.00  0.00    -0.158 C  
HETATM    9  N   UNL     1      -9.442   6.843  68.730  1.00  0.00    -0.136 N  
HETATM   10  O   UNL     1     -10.741   8.160  67.344  1.00  0.00    -0.269 OA 
HETATM   11  H   UNL     1      -8.624   6.234  68.755  1.00  0.00     0.000 HD 
BRANCH   9  12
HETATM   12  C   UNL     1     -10.144   7.098  69.990  1.00  0.00    -0.188 C  
HETATM   13  C   UNL     1     -11.613   6.610  69.935  1.00  0.00    -0.393 C  
HETATM   14  C   UNL     1     -12.319   6.869  71.277  1.00  0.00    -0.422 C  
HETATM   15  C   UNL     1     -11.591   6.101  72.391  1.00  0.00    -0.338 C  
HETATM   16  C   UNL     1     -10.128   6.567  72.483  1.00  0.00    -0.189 C  
HETATM   17  C   UNL     1     -10.099   8.071  72.799  1.00  0.00    -0.378 C  
HETATM   18  C   UNL     1      -9.432   6.320  71.130  1.00  0.00    -0.183 C  
HETATM   19  C   UNL     1     -10.819   8.855  71.693  1.00  0.00    -0.420 C  
HETATM   20  C   UNL     1     -10.112   8.603  70.352  1.00  0.00    -0.213 C  
HETATM   21  C   UNL     1     -12.278   8.375  71.588  1.00  0.00    -0.358 C  
ENDBRANCH   9  12
ENDBRANCH   7   8
ENDBRANCH   6   7
ENDBRANCH   5   6
ENDBRANCH   4   5
ENDBRANCH   2   4
TORSDOF 6
ENDMDL
MODEL      148
REMARK 921   NORMALIZED FREE ENERGY PREDICTED BY IDOCK:   -3.47 KCAL/MOL
REMARK 922        TOTAL FREE ENERGY PREDICTED BY IDOCK:   -4.52 KCAL/MOL
REMARK 923 INTER-LIGAND FREE ENERGY PREDICTED BY IDOCK:   -4.66 KCAL/MOL
REMARK 924 INTRA-LIGAND FREE ENERGY PREDICTED BY IDOCK:    0.14 KCAL/MOL
REMARK 927      BINDING AFFINITY PREDICTED BY RF-SCORE:    0.00 PKD
ROOT
HETATM    1  C   UNL     1      -8.984  19.950  66.328  1.00  0.00    -0.353 C  
HETATM    2  N   UNL     1      -9.083  19.158  67.558  1.00  0.00    -0.291 NA 
HETATM    3  C   UNL     1     -10.308  19.518  68.277  1.00  0.00    -0.411 C  
ENDROOT
BRANCH   2   4
HETATM    4  C   UNL     1      -9.035  17.721  67.223  1.00  0.00    -0.246 C  
BRANCH   4   5
HETATM    5  C   UNL     1      -7.840  17.306  66.352  1.00  0.00    -0.310 C  
BRANCH   5   6
HETATM    6  O   UNL     1      -7.404  16.000  66.745  1.00  0.00    -0.216 OA 
BRANCH   6   7
HETATM    7  C   UNL     1      -7.925  15.651  68.024  1.00  0.00    -0.132 C  
BRANCH   7   8
HETATM    8  C   UNL     1      -8.689  14.332  67.961  1.00  0.00    -0.177 C  
HETATM    9  N   UNL     1      -8.058  13.364  67.200  1.00  0.00    -0.353 N  
HETATM   10  O   UNL     1      -9.735  14.161  68.577  1.00  0.00    -0.219 OA 
HETATM   11  H   UNL     1      -7.165  13.603  66.770  1.00  0.00     0.000 HD 
BRANCH   9  12
HETATM   12  C   UNL     1      -8.588  12.017  66.972  1.00  0.00    -0.185 C  
HETATM   13  C   UNL     1      -7.558  11.112  66.251  1.00  0.00    -0.075 C  
HETATM   14  C   UNL     1      -8.132   9.699  66.046  1.00  0.00    -0.112 C  
HETATM   15  C   UNL     1      -8.456   9.078  67.413  1.00  0.00    -0.115 C  
HETATM   16  C   UNL     1      -9.486   9.946  68.155  1.00  0.00    -0.149 C  
HETATM   17  C   UNL     1     -10.771  10.028  67.316  1.00  0.00    -0.309 C  
HETATM   18  C   UNL     1      -8.912  11.363  68.343  1.00  0.00    -0.172 C  
HETATM   19  C   UNL     1     -10.466  10.652  65.947  1.00  0.00    -0.243 C  
HETATM   20  C   UNL     1      -9.899  12.065  66.149  1.00  0.00    -0.255 C  
HETATM   21  C   UNL     1      -9.421   9.793  65.212  1.00  0.00    -0.343 C  
ENDBRANCH   9  12
ENDBRANCH   7   8
ENDBRANCH   6   7
ENDBRANCH   5   6
ENDBRANCH   4   5
ENDBRANCH   2   4
TORSDOF 6
ENDMDL
MODEL      149
REMARK 921   NORMALIZED FREE ENERGY PREDICTED BY IDOCK:   -3.46 KCAL/MOL
REMARK 922        TOTAL FREE ENERGY PREDICTED BY IDOCK:   -4.51 KCAL/MOL
REMARK 923 INTER-LIGAND FREE ENERGY PREDICTED BY IDOCK:   -4.46 KCAL/MOL
REMARK 924 INTRA-LIGAND FREE ENERGY PREDICTED BY IDOCK:   -0.05 KCAL/MOL
REMARK 927      BINDING AFFINITY PREDICTED BY RF-SCORE:    0.00 PKD
ROOT
HETATM    1  C   UNL     1      -5.581   9.828  65.303  1.00  0.00    -0.059 C  
HETATM    2  N   UNL     1      -6.834  10.138  65.998  1.00  0.00    -0.104 NA 
HETATM    3  C   UNL     1      -6.739  11.464  66.613  1.00  0.00    -0.112 C  
ENDROOT
BRANCH   2   4
HETATM    4  C   UNL     1      -7.961  10.042  65.049  1.00  0.00    -0.143 C  
BRANCH   4   5
HETATM    5  C   UNL     1      -9.208   9.337  65.605  1.00  0.00    -0.231 C  
BRANCH   5   6
HETATM    6  O   UNL     1      -9.660  10.034  66.771  1.00  0.00    -0.169 OA 
BRANCH   6   7
HETATM    7  C   UNL     1     -10.570  11.073  66.425  1.00  0.00    -0.251 C  
BRANCH   7   8
HETATM    8  C   UNL     1     -10.201  12.378  67.123  1.00  0.00    -0.216 C  
HETATM    9  N   UNL     1     -10.257  13.484  66.295  1.00  0.00    -0.292 N  
HETATM   10  O   UNL     1      -9.932  12.417  68.319  1.00  0.00    -0.216 OA 
HETATM   11  H   UNL     1     -10.539  13.339  65.325  1.00  0.00     0.000 HD 
BRANCH   9  12
HETATM   12  C   UNL     1      -9.939  14.850  66.717  1.00  0.00    -0.246 C  
HETATM   13  C   UNL     1     -10.732  15.256  67.984  1.00  0.00    -0.268 C  
HETATM   14  C   UNL     1     -10.361  16.685  68.417  1.00  0.00    -0.299 C  
HETATM   15  C   UNL     1      -8.861  16.746  68.740  1.00  0.00    -0.258 C  
HETATM   16  C   UNL     1      -8.039  16.358  67.499  1.00  0.00    -0.166 C  
HETATM   17  C   UNL     1      -8.355  17.340  66.361  1.00  0.00    -0.315 C  
HETATM   18  C   UNL     1      -8.427  14.933  67.061  1.00  0.00    -0.260 C  
HETATM   19  C   UNL     1      -9.851  17.290  66.022  1.00  0.00    -0.219 C  
HETATM   20  C   UNL     1     -10.222  15.866  65.582  1.00  0.00    -0.406 C  
HETATM   21  C   UNL     1     -10.674  17.660  67.269  1.00  0.00    -0.234 C  
ENDBRANCH   9  12
ENDBRANCH   7   8
ENDBRANCH   6   7
ENDBRANCH   5   6
ENDBRANCH   4   5
ENDBRANCH   2   4
TORSDOF 6
ENDMDL
MODEL      150
REMARK 921   NORMALIZED FREE ENERGY PREDICTED BY IDOCK:   -3.45 KCAL/MOL
REMARK 922        TOTAL FREE ENERGY PREDICTED BY IDOCK:   -4.50 KCAL/MOL
REMARK 923 INTER-LIGAND FREE ENERGY PREDICTED BY IDOCK:   -4.25 KCAL/MOL
REMARK 924 INTRA-LIGAND FREE ENERGY PREDICTED BY IDOCK:   -0.25 KCAL/MOL
REMARK 927      BINDING AFFINITY PREDICTED BY RF-SCORE:    0.00 PKD
ROOT
HETATM    1  C   UNL     1      -8.225  10.093  64.661  1.00  0.00    -0.165 C  
HETATM    2  N   UNL     1      -8.637   8.688  64.747  1.00  0.00    -0.151 NA 
HETATM    3  C   UNL     1      -7.714   7.857  63.971  1.00  0.00    -0.133 C  
ENDROOT
BRANCH   2   4
HETATM    4  C   UNL     1      -8.700   8.279  66.164  1.00  0.00    -0.150 C  
BRANCH   4   5
HETATM    5  C   UNL     1      -7.494   8.713  67.010  1.00  0.00    -0.084 C  
BRANCH   5   6
HETATM    6  O   UNL     1      -7.963   9.348  68.204  1.00  0.00    -0.091 OA 
BRANCH   6   7
HETATM    7  C   UNL     1      -7.126  10.444  68.562  1.00  0.00    -0.074 C  
BRANCH   7   8
HETATM    8  C   UNL     1      -7.616  11.737  67.919  1.00  0.00    -0.121 C  
HETATM    9  N   UNL     1      -8.985  11.913  68.006  1.00  0.00    -0.178 N  
HETATM   10  O   UNL     1      -6.840  12.547  67.424  1.00  0.00    -0.137 OA 
HETATM   11  H   UNL     1      -9.529  11.194  68.483  1.00  0.00     0.000 HD 
BRANCH   9  12
HETATM   12  C   UNL     1      -9.707  13.065  67.459  1.00  0.00    -0.206 C  
HETATM   13  C   UNL     1      -9.587  13.134  65.916  1.00  0.00    -0.122 C  
HETATM   14  C   UNL     1     -10.371  14.339  65.367  1.00  0.00    -0.391 C  
HETATM   15  C   UNL     1     -11.855  14.189  65.734  1.00  0.00    -0.385 C  
HETATM   16  C   UNL     1     -12.015  14.127  67.263  1.00  0.00    -0.449 C  
HETATM   17  C   UNL     1     -11.467  15.424  67.879  1.00  0.00    -0.306 C  
HETATM   18  C   UNL     1     -11.214  12.929  67.808  1.00  0.00    -0.319 C  
HETATM   19  C   UNL     1      -9.982  15.588  67.524  1.00  0.00    -0.230 C  
HETATM   20  C   UNL     1      -9.195  14.390  68.077  1.00  0.00    -0.193 C  
HETATM   21  C   UNL     1      -9.820  15.631  65.994  1.00  0.00    -0.362 C  
ENDBRANCH   9  12
ENDBRANCH   7   8
ENDBRANCH   6   7
ENDBRANCH   5   6
ENDBRANCH   4   5
ENDBRANCH   2   4
TORSDOF 6
ENDMDL
MODEL      151
REMARK 921   NORMALIZED FREE ENERGY PREDICTED BY IDOCK:   -3.44 KCAL/MOL
REMARK 922        TOTAL FREE ENERGY PREDICTED BY IDOCK:   -4.49 KCAL/MOL
REMARK 923 INTER-LIGAND FREE ENERGY PREDICTED BY IDOCK:   -4.17 KCAL/MOL
REMARK 924 INTRA-LIGAND FREE ENERGY PREDICTED BY IDOCK:   -0.32 KCAL/MOL
REMARK 927      BINDING AFFINITY PREDICTED BY RF-SCORE:    0.00 PKD
ROOT
HETATM    1  C   UNL     1      -7.932  10.969  68.759  1.00  0.00    -0.144 C  
HETATM    2  N   UNL     1      -6.560  10.566  69.083  1.00  0.00    -0.052 NA 
HETATM    3  C   UNL     1      -6.544   9.864  70.369  1.00  0.00    -0.125 C  
ENDROOT
BRANCH   2   4
HETATM    4  C   UNL     1      -6.019   9.736  67.988  1.00  0.00    -0.043 C  
BRANCH   4   5
HETATM    5  C   UNL     1      -7.018   9.431  66.862  1.00  0.00    -0.081 C  
BRANCH   5   6
HETATM    6  O   UNL     1      -7.378   8.046  66.918  1.00  0.00    -0.086 OA 
BRANCH   6   7
HETATM    7  C   UNL     1      -8.714   7.847  66.465  1.00  0.00    -0.147 C  
BRANCH   7   8
HETATM    8  C   UNL     1      -9.703   7.955  67.621  1.00  0.00    -0.156 C  
HETATM    9  N   UNL     1      -9.260   7.358  68.787  1.00  0.00    -0.145 N  
HETATM   10  O   UNL     1     -10.762   8.564  67.510  1.00  0.00    -0.248 OA 
HETATM   11  H   UNL     1      -8.339   6.920  68.777  1.00  0.00     0.000 HD 
BRANCH   9  12
HETATM   12  C   UNL     1     -10.025   7.312  70.035  1.00  0.00    -0.184 C  
HETATM   13  C   UNL     1     -10.382   8.733  70.539  1.00  0.00    -0.241 C  
HETATM   14  C   UNL     1     -11.204   8.655  71.837  1.00  0.00    -0.413 C  
HETATM   15  C   UNL     1     -12.509   7.890  71.568  1.00  0.00    -0.341 C  
HETATM   16  C   UNL     1     -12.193   6.467  71.075  1.00  0.00    -0.239 C  
HETATM   17  C   UNL     1     -11.384   5.730  72.153  1.00  0.00    -0.317 C  
HETATM   18  C   UNL     1     -11.357   6.553  69.784  1.00  0.00    -0.456 C  
HETATM   19  C   UNL     1     -10.074   6.479  72.432  1.00  0.00    -0.187 C  
HETATM   20  C   UNL     1      -9.248   6.553  71.139  1.00  0.00    -0.156 C  
HETATM   21  C   UNL     1     -10.389   7.909  72.908  1.00  0.00    -0.413 C  
ENDBRANCH   9  12
ENDBRANCH   7   8
ENDBRANCH   6   7
ENDBRANCH   5   6
ENDBRANCH   4   5
ENDBRANCH   2   4
TORSDOF 6
ENDMDL
MODEL      152
REMARK 921   NORMALIZED FREE ENERGY PREDICTED BY IDOCK:   -3.42 KCAL/MOL
REMARK 922        TOTAL FREE ENERGY PREDICTED BY IDOCK:   -4.45 KCAL/MOL
REMARK 923 INTER-LIGAND FREE ENERGY PREDICTED BY IDOCK:   -4.83 KCAL/MOL
REMARK 924 INTRA-LIGAND FREE ENERGY PREDICTED BY IDOCK:    0.38 KCAL/MOL
REMARK 927      BINDING AFFINITY PREDICTED BY RF-SCORE:    0.00 PKD
ROOT
HETATM    1  C   UNL     1     -11.092  16.042  64.911  1.00  0.00    -0.370 C  
HETATM    2  N   UNL     1     -10.423  15.747  66.182  1.00  0.00    -0.305 NA 
HETATM    3  C   UNL     1     -10.017  16.998  66.826  1.00  0.00    -0.295 C  
ENDROOT
BRANCH   2   4
HETATM    4  C   UNL     1     -11.321  14.945  67.036  1.00  0.00    -0.342 C  
BRANCH   4   5
HETATM    5  C   UNL     1     -10.791  13.547  67.389  1.00  0.00    -0.269 C  
BRANCH   5   6
HETATM    6  O   UNL     1     -11.367  12.588  66.496  1.00  0.00    -0.297 OA 
BRANCH   6   7
HETATM    7  C   UNL     1     -10.481  11.495  66.280  1.00  0.00    -0.251 C  
BRANCH   7   8
HETATM    8  C   UNL     1     -10.761  10.362  67.262  1.00  0.00    -0.273 C  
HETATM    9  N   UNL     1      -9.937   9.265  67.091  1.00  0.00    -0.200 N  
HETATM   10  O   UNL     1     -11.610  10.464  68.141  1.00  0.00    -0.355 OA 
HETATM   11  H   UNL     1      -9.232   9.309  66.355  1.00  0.00     0.000 HD 
BRANCH   9  12
HETATM   12  C   UNL     1     -10.008   8.043  67.896  1.00  0.00    -0.180 C  
HETATM   13  C   UNL     1     -11.010   7.023  67.301  1.00  0.00    -0.372 C  
HETATM   14  C   UNL     1     -11.048   5.743  68.153  1.00  0.00     0.022 C  
HETATM   15  C   UNL     1      -9.652   5.102  68.170  1.00  0.00    -0.173 C  
HETATM   16  C   UNL     1      -8.630   6.084  68.766  1.00  0.00    -0.112 C  
HETATM   17  C   UNL     1      -9.047   6.433  70.203  1.00  0.00    -0.154 C  
HETATM   18  C   UNL     1      -8.609   7.370  67.918  1.00  0.00    -0.125 C  
HETATM   19  C   UNL     1     -10.440   7.079  70.204  1.00  0.00    -0.232 C  
HETATM   20  C   UNL     1     -10.403   8.362  69.360  1.00  0.00    -0.217 C  
HETATM   21  C   UNL     1     -11.460   6.103  69.591  1.00  0.00    -0.332 C  
ENDBRANCH   9  12
ENDBRANCH   7   8
ENDBRANCH   6   7
ENDBRANCH   5   6
ENDBRANCH   4   5
ENDBRANCH   2   4
TORSDOF 6
ENDMDL
MODEL      153
REMARK 921   NORMALIZED FREE ENERGY PREDICTED BY IDOCK:   -3.41 KCAL/MOL
REMARK 922        TOTAL FREE ENERGY PREDICTED BY IDOCK:   -4.45 KCAL/MOL
REMARK 923 INTER-LIGAND FREE ENERGY PREDICTED BY IDOCK:   -4.53 KCAL/MOL
REMARK 924 INTRA-LIGAND FREE ENERGY PREDICTED BY IDOCK:    0.08 KCAL/MOL
REMARK 927      BINDING AFFINITY PREDICTED BY RF-SCORE:    0.00 PKD
ROOT
HETATM    1  C   UNL     1      -7.326  18.716  66.372  1.00  0.00    -0.245 C  
HETATM    2  N   UNL     1      -7.310  18.362  67.795  1.00  0.00    -0.222 NA 
HETATM    3  C   UNL     1      -7.820  19.485  68.586  1.00  0.00    -0.348 C  
ENDROOT
BRANCH   2   4
HETATM    4  C   UNL     1      -8.096  17.130  68.004  1.00  0.00    -0.210 C  
BRANCH   4   5
HETATM    5  C   UNL     1      -7.536  16.188  69.081  1.00  0.00    -0.230 C  
BRANCH   5   6
HETATM    6  O   UNL     1      -8.521  15.198  69.396  1.00  0.00    -0.225 OA 
BRANCH   6   7
HETATM    7  C   UNL     1      -9.511  15.119  68.375  1.00  0.00    -0.208 C  
BRANCH   7   8
HETATM    8  C   UNL     1      -9.431  13.786  67.638  1.00  0.00    -0.217 C  
HETATM    9  N   UNL     1      -9.275  12.698  68.478  1.00  0.00    -0.379 N  
HETATM   10  O   UNL     1      -9.546  13.713  66.420  1.00  0.00    -0.277 OA 
HETATM   11  H   UNL     1      -9.238  12.874  69.482  1.00  0.00     0.000 HD 
BRANCH   9  12
HETATM   12  C   UNL     1      -9.161  11.311  68.022  1.00  0.00    -0.156 C  
HETATM   13  C   UNL     1      -8.952  10.335  69.207  1.00  0.00    -0.190 C  
HETATM   14  C   UNL     1      -8.858   8.885  68.701  1.00  0.00    -0.137 C  
HETATM   15  C   UNL     1     -10.165   8.510  67.985  1.00  0.00    -0.264 C  
HETATM   16  C   UNL     1     -10.401   9.454  66.793  1.00  0.00    -0.303 C  
HETATM   17  C   UNL     1      -9.226   9.326  65.810  1.00  0.00    -0.283 C  
HETATM   18  C   UNL     1     -10.477  10.905  67.304  1.00  0.00    -0.275 C  
HETATM   19  C   UNL     1      -7.912   9.700  66.510  1.00  0.00    -0.112 C  
HETATM   20  C   UNL     1      -8.000  11.150  67.009  1.00  0.00    -0.145 C  
HETATM   21  C   UNL     1      -7.685   8.768  67.713  1.00  0.00    -0.102 C  
ENDBRANCH   9  12
ENDBRANCH   7   8
ENDBRANCH   6   7
ENDBRANCH   5   6
ENDBRANCH   4   5
ENDBRANCH   2   4
TORSDOF 6
ENDMDL
MODEL      154
REMARK 921   NORMALIZED FREE ENERGY PREDICTED BY IDOCK:   -3.40 KCAL/MOL
REMARK 922        TOTAL FREE ENERGY PREDICTED BY IDOCK:   -4.43 KCAL/MOL
REMARK 923 INTER-LIGAND FREE ENERGY PREDICTED BY IDOCK:   -4.24 KCAL/MOL
REMARK 924 INTRA-LIGAND FREE ENERGY PREDICTED BY IDOCK:   -0.19 KCAL/MOL
REMARK 927      BINDING AFFINITY PREDICTED BY RF-SCORE:    0.00 PKD
ROOT
HETATM    1  C   UNL     1     -12.017  14.216  67.140  1.00  0.00    -0.426 C  
HETATM    2  N   UNL     1     -11.763  15.402  67.963  1.00  0.00    -0.296 NA 
HETATM    3  C   UNL     1     -11.986  15.078  69.374  1.00  0.00    -0.303 C  
ENDROOT
BRANCH   2   4
HETATM    4  C   UNL     1     -10.392  15.890  67.713  1.00  0.00    -0.278 C  
BRANCH   4   5
HETATM    5  C   UNL     1      -9.560  16.140  68.980  1.00  0.00    -0.251 C  
BRANCH   5   6
HETATM    6  O   UNL     1      -8.569  15.114  69.100  1.00  0.00    -0.201 OA 
BRANCH   6   7
HETATM    7  C   UNL     1      -8.089  14.715  67.819  1.00  0.00    -0.152 C  
BRANCH   7   8
HETATM    8  C   UNL     1      -7.978  13.197  67.727  1.00  0.00    -0.162 C  
HETATM    9  N   UNL     1      -9.054  12.528  68.282  1.00  0.00    -0.242 N  
HETATM   10  O   UNL     1      -7.035  12.651  67.163  1.00  0.00    -0.130 OA 
HETATM   11  H   UNL     1      -9.806  13.088  68.683  1.00  0.00     0.000 HD 
BRANCH   9  12
HETATM   12  C   UNL     1      -9.185  11.070  68.332  1.00  0.00    -0.175 C  
HETATM   13  C   UNL     1     -10.588  10.639  68.826  1.00  0.00    -0.234 C  
HETATM   14  C   UNL     1     -10.705   9.105  68.847  1.00  0.00    -0.167 C  
HETATM   15  C   UNL     1     -10.498   8.559  67.425  1.00  0.00    -0.351 C  
HETATM   16  C   UNL     1      -9.107   8.960  66.905  1.00  0.00    -0.163 C  
HETATM   17  C   UNL     1      -8.034   8.374  67.836  1.00  0.00    -0.115 C  
HETATM   18  C   UNL     1      -8.991  10.496  66.902  1.00  0.00    -0.151 C  
HETATM   19  C   UNL     1      -8.224   8.912  69.261  1.00  0.00    -0.114 C  
HETATM   20  C   UNL     1      -8.101  10.443  69.244  1.00  0.00    -0.159 C  
HETATM   21  C   UNL     1      -9.623   8.527  69.775  1.00  0.00    -0.170 C  
ENDBRANCH   9  12
ENDBRANCH   7   8
ENDBRANCH   6   7
ENDBRANCH   5   6
ENDBRANCH   4   5
ENDBRANCH   2   4
TORSDOF 6
ENDMDL
MODEL      155
REMARK 921   NORMALIZED FREE ENERGY PREDICTED BY IDOCK:   -3.40 KCAL/MOL
REMARK 922        TOTAL FREE ENERGY PREDICTED BY IDOCK:   -4.43 KCAL/MOL
REMARK 923 INTER-LIGAND FREE ENERGY PREDICTED BY IDOCK:   -4.29 KCAL/MOL
REMARK 924 INTRA-LIGAND FREE ENERGY PREDICTED BY IDOCK:   -0.14 KCAL/MOL
REMARK 927      BINDING AFFINITY PREDICTED BY RF-SCORE:    0.00 PKD
ROOT
HETATM    1  C   UNL     1     -10.918  15.064  64.867  1.00  0.00    -0.413 C  
HETATM    2  N   UNL     1     -11.757  14.680  66.007  1.00  0.00    -0.341 NA 
HETATM    3  C   UNL     1     -12.454  13.428  65.704  1.00  0.00    -0.464 C  
ENDROOT
BRANCH   2   4
HETATM    4  C   UNL     1     -10.922  14.575  67.220  1.00  0.00    -0.305 C  
BRANCH   4   5
HETATM    5  C   UNL     1     -11.627  13.941  68.429  1.00  0.00    -0.332 C  
BRANCH   5   6
HETATM    6  O   UNL     1     -10.851  12.832  68.895  1.00  0.00    -0.238 OA 
BRANCH   6   7
HETATM    7  C   UNL     1     -11.581  11.614  68.778  1.00  0.00    -0.313 C  
BRANCH   7   8
HETATM    8  C   UNL     1     -10.785  10.575  67.995  1.00  0.00    -0.245 C  
HETATM    9  N   UNL     1      -9.602  11.063  67.471  1.00  0.00    -0.163 N  
HETATM   10  O   UNL     1     -11.161   9.411  67.899  1.00  0.00    -0.136 OA 
HETATM   11  H   UNL     1      -9.367  12.039  67.654  1.00  0.00     0.000 HD 
BRANCH   9  12
HETATM   12  C   UNL     1      -8.664  10.273  66.671  1.00  0.00    -0.127 C  
HETATM   13  C   UNL     1      -7.363  11.059  66.372  1.00  0.00    -0.128 C  
HETATM   14  C   UNL     1      -6.388  10.198  65.551  1.00  0.00    -0.102 C  
HETATM   15  C   UNL     1      -6.023   8.938  66.352  1.00  0.00    -0.055 C  
HETATM   16  C   UNL     1      -7.292   8.124  66.658  1.00  0.00    -0.082 C  
HETATM   17  C   UNL     1      -7.957   7.712  65.336  1.00  0.00    -0.123 C  
HETATM   18  C   UNL     1      -8.271   8.998  67.467  1.00  0.00    -0.109 C  
HETATM   19  C   UNL     1      -8.331   8.960  64.524  1.00  0.00    -0.178 C  
HETATM   20  C   UNL     1      -9.310   9.819  65.339  1.00  0.00    -0.311 C  
HETATM   21  C   UNL     1      -7.064   9.784  64.233  1.00  0.00    -0.126 C  
ENDBRANCH   9  12
ENDBRANCH   7   8
ENDBRANCH   6   7
ENDBRANCH   5   6
ENDBRANCH   4   5
ENDBRANCH   2   4
TORSDOF 6
ENDMDL
MODEL      156
REMARK 921   NORMALIZED FREE ENERGY PREDICTED BY IDOCK:   -3.40 KCAL/MOL
REMARK 922        TOTAL FREE ENERGY PREDICTED BY IDOCK:   -4.42 KCAL/MOL
REMARK 923 INTER-LIGAND FREE ENERGY PREDICTED BY IDOCK:   -4.47 KCAL/MOL
REMARK 924 INTRA-LIGAND FREE ENERGY PREDICTED BY IDOCK:    0.05 KCAL/MOL
REMARK 927      BINDING AFFINITY PREDICTED BY RF-SCORE:    0.00 PKD
ROOT
HETATM    1  C   UNL     1      -6.316  13.871  68.534  1.00  0.00    -0.093 C  
HETATM    2  N   UNL     1      -7.185  13.589  67.387  1.00  0.00    -0.146 NA 
HETATM    3  C   UNL     1      -7.063  12.178  67.014  1.00  0.00    -0.064 C  
ENDROOT
BRANCH   2   4
HETATM    4  C   UNL     1      -8.575  13.959  67.720  1.00  0.00    -0.182 C  
BRANCH   4   5
HETATM    5  C   UNL     1      -9.470  14.244  66.504  1.00  0.00    -0.287 C  
BRANCH   5   6
HETATM    6  O   UNL     1     -10.697  13.518  66.645  1.00  0.00    -0.280 OA 
BRANCH   6   7
HETATM    7  C   UNL     1     -10.636  12.274  65.955  1.00  0.00    -0.254 C  
BRANCH   7   8
HETATM    8  C   UNL     1     -10.848  11.107  66.915  1.00  0.00    -0.279 C  
HETATM    9  N   UNL     1      -9.826  10.176  66.887  1.00  0.00    -0.187 N  
HETATM   10  O   UNL     1     -11.818  11.053  67.663  1.00  0.00    -0.599 OA 
HETATM   11  H   UNL     1      -9.042  10.347  66.258  1.00  0.00     0.000 HD 
BRANCH   9  12
HETATM   12  C   UNL     1      -9.793   8.960  67.703  1.00  0.00    -0.182 C  
HETATM   13  C   UNL     1     -10.443   9.185  69.091  1.00  0.00    -0.230 C  
HETATM   14  C   UNL     1     -10.416   7.887  69.917  1.00  0.00    -0.229 C  
HETATM   15  C   UNL     1     -11.208   6.797  69.179  1.00  0.00    -0.236 C  
HETATM   16  C   UNL     1     -10.584   6.538  67.796  1.00  0.00    -0.321 C  
HETATM   17  C   UNL     1      -9.131   6.074  67.980  1.00  0.00    -0.117 C  
HETATM   18  C   UNL     1     -10.600   7.846  66.981  1.00  0.00    -0.381 C  
HETATM   19  C   UNL     1      -8.323   7.154  68.714  1.00  0.00    -0.126 C  
HETATM   20  C   UNL     1      -8.343   8.449  67.888  1.00  0.00    -0.131 C  
HETATM   21  C   UNL     1      -8.958   7.426  70.089  1.00  0.00    -0.148 C  
ENDBRANCH   9  12
ENDBRANCH   7   8
ENDBRANCH   6   7
ENDBRANCH   5   6
ENDBRANCH   4   5
ENDBRANCH   2   4
TORSDOF 6
ENDMDL
MODEL      157
REMARK 921   NORMALIZED FREE ENERGY PREDICTED BY IDOCK:   -3.39 KCAL/MOL
REMARK 922        TOTAL FREE ENERGY PREDICTED BY IDOCK:   -4.42 KCAL/MOL
REMARK 923 INTER-LIGAND FREE ENERGY PREDICTED BY IDOCK:   -4.40 KCAL/MOL
REMARK 924 INTRA-LIGAND FREE ENERGY PREDICTED BY IDOCK:   -0.02 KCAL/MOL
REMARK 927      BINDING AFFINITY PREDICTED BY RF-SCORE:    0.00 PKD
ROOT
HETATM    1  C   UNL     1      -6.558   9.217  65.047  1.00  0.00    -0.077 C  
HETATM    2  N   UNL     1      -7.883   8.589  65.077  1.00  0.00    -0.105 NA 
HETATM    3  C   UNL     1      -8.902   9.573  64.703  1.00  0.00    -0.213 C  
ENDROOT
BRANCH   2   4
HETATM    4  C   UNL     1      -7.890   7.412  64.186  1.00  0.00    -0.120 C  
BRANCH   4   5
HETATM    5  C   UNL     1      -8.407   6.120  64.836  1.00  0.00    -0.092 C  
BRANCH   5   6
HETATM    6  O   UNL     1      -8.966   6.430  66.117  1.00  0.00    -0.154 OA 
BRANCH   6   7
HETATM    7  C   UNL     1      -9.793   5.368  66.584  1.00  0.00    -0.174 C  
BRANCH   7   8
HETATM    8  C   UNL     1      -9.995   5.457  68.093  1.00  0.00    -0.158 C  
HETATM    9  N   UNL     1     -10.277   6.735  68.539  1.00  0.00    -0.166 N  
HETATM   10  O   UNL     1      -9.953   4.463  68.810  1.00  0.00    -0.125 OA 
HETATM   11  H   UNL     1     -10.333   7.480  67.845  1.00  0.00     0.000 HD 
BRANCH   9  12
HETATM   12  C   UNL     1     -10.502   7.090  69.942  1.00  0.00    -0.217 C  
HETATM   13  C   UNL     1      -9.370   6.556  70.856  1.00  0.00    -0.165 C  
HETATM   14  C   UNL     1      -9.620   6.962  72.319  1.00  0.00    -0.159 C  
HETATM   15  C   UNL     1      -9.648   8.495  72.423  1.00  0.00    -0.356 C  
HETATM   16  C   UNL     1     -10.769   9.062  71.535  1.00  0.00    -0.421 C  
HETATM   17  C   UNL     1     -12.117   8.496  72.005  1.00  0.00    -0.428 C  
HETATM   18  C   UNL     1     -10.521   8.638  70.075  1.00  0.00    -0.229 C  
HETATM   19  C   UNL     1     -12.108   6.964  71.904  1.00  0.00    -0.370 C  
HETATM   20  C   UNL     1     -11.866   6.555  70.443  1.00  0.00    -0.378 C  
HETATM   21  C   UNL     1     -10.975   6.397  72.777  1.00  0.00    -0.289 C  
ENDBRANCH   9  12
ENDBRANCH   7   8
ENDBRANCH   6   7
ENDBRANCH   5   6
ENDBRANCH   4   5
ENDBRANCH   2   4
TORSDOF 6
ENDMDL
MODEL      158
REMARK 921   NORMALIZED FREE ENERGY PREDICTED BY IDOCK:   -3.38 KCAL/MOL
REMARK 922        TOTAL FREE ENERGY PREDICTED BY IDOCK:   -4.41 KCAL/MOL
REMARK 923 INTER-LIGAND FREE ENERGY PREDICTED BY IDOCK:   -3.82 KCAL/MOL
REMARK 924 INTRA-LIGAND FREE ENERGY PREDICTED BY IDOCK:   -0.59 KCAL/MOL
REMARK 927      BINDING AFFINITY PREDICTED BY RF-SCORE:    0.00 PKD
ROOT
HETATM    1  C   UNL     1      -8.787   6.269  66.616  1.00  0.00    -0.132 C  
HETATM    2  N   UNL     1     -10.058   5.675  67.044  1.00  0.00    -0.166 NA 
HETATM    3  C   UNL     1     -11.143   6.636  66.836  1.00  0.00    -0.249 C  
ENDROOT
BRANCH   2   4
HETATM    4  C   UNL     1     -10.283   4.413  66.311  1.00  0.00    -0.181 C  
BRANCH   4   5
HETATM    5  C   UNL     1      -9.452   3.223  66.815  1.00  0.00    -0.105 C  
BRANCH   5   6
HETATM    6  O   UNL     1      -9.670   3.061  68.221  1.00  0.00    -0.126 OA 
BRANCH   6   7
HETATM    7  C   UNL     1      -8.434   3.025  68.928  1.00  0.00    -0.067 C  
BRANCH   7   8
HETATM    8  C   UNL     1      -8.264   4.269  69.794  1.00  0.00    -0.062 C  
HETATM    9  N   UNL     1      -9.463   4.837  70.187  1.00  0.00    -0.158 N  
HETATM   10  O   UNL     1      -7.158   4.675  70.132  1.00  0.00    -0.047 OA 
HETATM   11  H   UNL     1     -10.326   4.386  69.884  1.00  0.00     0.000 HD 
BRANCH   9  12
HETATM   12  C   UNL     1      -9.575   6.042  71.012  1.00  0.00    -0.172 C  
HETATM   13  C   UNL     1      -9.213   7.319  70.211  1.00  0.00    -0.155 C  
HETATM   14  C   UNL     1      -9.362   8.570  71.094  1.00  0.00    -0.249 C  
HETATM   15  C   UNL     1     -10.818   8.688  71.569  1.00  0.00    -0.352 C  
HETATM   16  C   UNL     1     -11.210   7.440  72.379  1.00  0.00    -0.337 C  
HETATM   17  C   UNL     1     -10.285   7.322  73.600  1.00  0.00    -0.393 C  
HETATM   18  C   UNL     1     -11.044   6.190  71.494  1.00  0.00    -0.342 C  
HETATM   19  C   UNL     1      -8.824   7.199  73.143  1.00  0.00    -0.158 C  
HETATM   20  C   UNL     1      -8.672   5.947  72.267  1.00  0.00    -0.128 C  
HETATM   21  C   UNL     1      -8.437   8.439  72.317  1.00  0.00    -0.242 C  
ENDBRANCH   9  12
ENDBRANCH   7   8
ENDBRANCH   6   7
ENDBRANCH   5   6
ENDBRANCH   4   5
ENDBRANCH   2   4
TORSDOF 6
ENDMDL
MODEL      159
REMARK 921   NORMALIZED FREE ENERGY PREDICTED BY IDOCK:   -3.35 KCAL/MOL
REMARK 922        TOTAL FREE ENERGY PREDICTED BY IDOCK:   -4.36 KCAL/MOL
REMARK 923 INTER-LIGAND FREE ENERGY PREDICTED BY IDOCK:   -4.44 KCAL/MOL
REMARK 924 INTRA-LIGAND FREE ENERGY PREDICTED BY IDOCK:    0.07 KCAL/MOL
REMARK 927      BINDING AFFINITY PREDICTED BY RF-SCORE:    0.00 PKD
ROOT
HETATM    1  C   UNL     1      -8.207   9.819  64.798  1.00  0.00    -0.148 C  
HETATM    2  N   UNL     1      -7.794   8.491  64.333  1.00  0.00    -0.132 NA 
HETATM    3  C   UNL     1      -6.414   8.550  63.846  1.00  0.00    -0.072 C  
ENDROOT
BRANCH   2   4
HETATM    4  C   UNL     1      -7.958   7.513  65.427  1.00  0.00    -0.124 C  
BRANCH   4   5
HETATM    5  C   UNL     1      -8.317   8.129  66.787  1.00  0.00    -0.115 C  
BRANCH   5   6
HETATM    6  O   UNL     1      -9.657   7.758  67.131  1.00  0.00    -0.150 OA 
BRANCH   6   7
HETATM    7  C   UNL     1      -9.972   8.160  68.461  1.00  0.00    -0.190 C  
BRANCH   7   8
HETATM    8  C   UNL     1     -10.021   9.680  68.574  1.00  0.00    -0.165 C  
HETATM    9  N   UNL     1     -10.580  10.299  67.471  1.00  0.00    -0.248 N  
HETATM   10  O   UNL     1      -9.639  10.265  69.582  1.00  0.00    -0.215 OA 
HETATM   11  H   UNL     1     -10.908   9.708  66.708  1.00  0.00     0.000 HD 
BRANCH   9  12
HETATM   12  C   UNL     1     -10.733  11.749  67.326  1.00  0.00    -0.237 C  
HETATM   13  C   UNL     1     -11.209  12.134  65.903  1.00  0.00    -0.384 C  
HETATM   14  C   UNL     1     -11.383  13.659  65.787  1.00  0.00    -0.315 C  
HETATM   15  C   UNL     1     -12.438  14.130  66.799  1.00  0.00    -0.200 C  
HETATM   16  C   UNL     1     -11.994  13.772  68.227  1.00  0.00    -0.392 C  
HETATM   17  C   UNL     1     -10.656  14.468  68.526  1.00  0.00    -0.252 C  
HETATM   18  C   UNL     1     -11.806  12.247  68.333  1.00  0.00    -0.358 C  
HETATM   19  C   UNL     1      -9.588  14.006  67.525  1.00  0.00    -0.228 C  
HETATM   20  C   UNL     1      -9.408  12.485  67.644  1.00  0.00    -0.189 C  
HETATM   21  C   UNL     1     -10.042  14.346  66.094  1.00  0.00    -0.323 C  
ENDBRANCH   9  12
ENDBRANCH   7   8
ENDBRANCH   6   7
ENDBRANCH   5   6
ENDBRANCH   4   5
ENDBRANCH   2   4
TORSDOF 6
ENDMDL
MODEL      160
REMARK 921   NORMALIZED FREE ENERGY PREDICTED BY IDOCK:   -3.35 KCAL/MOL
REMARK 922        TOTAL FREE ENERGY PREDICTED BY IDOCK:   -4.36 KCAL/MOL
REMARK 923 INTER-LIGAND FREE ENERGY PREDICTED BY IDOCK:   -4.52 KCAL/MOL
REMARK 924 INTRA-LIGAND FREE ENERGY PREDICTED BY IDOCK:    0.15 KCAL/MOL
REMARK 927      BINDING AFFINITY PREDICTED BY RF-SCORE:    0.00 PKD
ROOT
HETATM    1  C   UNL     1      -8.461   3.623  65.031  1.00  0.00    -0.104 C  
HETATM    2  N   UNL     1      -8.188   3.998  66.422  1.00  0.00    -0.101 NA 
HETATM    3  C   UNL     1      -6.803   3.660  66.759  1.00  0.00    -0.054 C  
ENDROOT
BRANCH   2   4
HETATM    4  C   UNL     1      -8.473   5.434  66.610  1.00  0.00    -0.108 C  
BRANCH   4   5
HETATM    5  C   UNL     1      -8.489   6.259  65.313  1.00  0.00    -0.111 C  
BRANCH   5   6
HETATM    6  O   UNL     1      -8.752   7.629  65.633  1.00  0.00    -0.151 OA 
BRANCH   6   7
HETATM    7  C   UNL     1      -7.796   8.489  65.020  1.00  0.00    -0.112 C  
BRANCH   7   8
HETATM    8  C   UNL     1      -8.383   9.876  64.780  1.00  0.00    -0.160 C  
HETATM    9  N   UNL     1      -9.282  10.272  65.755  1.00  0.00    -0.166 N  
HETATM   10  O   UNL     1      -8.035  10.570  63.832  1.00  0.00    -0.112 OA 
HETATM   11  H   UNL     1      -9.461   9.629  66.526  1.00  0.00     0.000 HD 
BRANCH   9  12
HETATM   12  C   UNL     1      -9.992  11.553  65.752  1.00  0.00    -0.233 C  
HETATM   13  C   UNL     1     -10.495  11.925  64.335  1.00  0.00    -0.356 C  
HETATM   14  C   UNL     1     -11.256  13.262  64.366  1.00  0.00    -0.409 C  
HETATM   15  C   UNL     1     -12.472  13.133  65.297  1.00  0.00    -0.550 C  
HETATM   16  C   UNL     1     -12.010  12.773  66.719  1.00  0.00    -0.389 C  
HETATM   17  C   UNL     1     -11.084  13.882  67.243  1.00  0.00    -0.312 C  
HETATM   18  C   UNL     1     -11.235  11.443  66.678  1.00  0.00    -0.298 C  
HETATM   19  C   UNL     1      -9.861  14.022  66.326  1.00  0.00    -0.318 C  
HETATM   20  C   UNL     1      -9.095  12.690  66.298  1.00  0.00    -0.053 C  
HETATM   21  C   UNL     1     -10.324  14.364  64.898  1.00  0.00    -0.419 C  
ENDBRANCH   9  12
ENDBRANCH   7   8
ENDBRANCH   6   7
ENDBRANCH   5   6
ENDBRANCH   4   5
ENDBRANCH   2   4
TORSDOF 6
ENDMDL
MODEL      161
REMARK 921   NORMALIZED FREE ENERGY PREDICTED BY IDOCK:   -3.33 KCAL/MOL
REMARK 922        TOTAL FREE ENERGY PREDICTED BY IDOCK:   -4.33 KCAL/MOL
REMARK 923 INTER-LIGAND FREE ENERGY PREDICTED BY IDOCK:   -4.50 KCAL/MOL
REMARK 924 INTRA-LIGAND FREE ENERGY PREDICTED BY IDOCK:    0.16 KCAL/MOL
REMARK 927      BINDING AFFINITY PREDICTED BY RF-SCORE:    0.00 PKD
ROOT
HETATM    1  C   UNL     1     -10.321  16.971  68.044  1.00  0.00    -0.341 C  
HETATM    2  N   UNL     1     -10.946  16.200  66.964  1.00  0.00    -0.197 NA 
HETATM    3  C   UNL     1     -10.244  16.462  65.705  1.00  0.00    -0.324 C  
ENDROOT
BRANCH   2   4
HETATM    4  C   UNL     1     -10.943  14.767  67.316  1.00  0.00    -0.318 C  
BRANCH   4   5
HETATM    5  C   UNL     1     -10.823  13.813  66.118  1.00  0.00    -0.279 C  
BRANCH   5   6
HETATM    6  O   UNL     1     -10.028  12.684  66.496  1.00  0.00    -0.239 OA 
BRANCH   6   7
HETATM    7  C   UNL     1     -10.823  11.691  67.137  1.00  0.00    -0.261 C  
BRANCH   7   8
HETATM    8  C   UNL     1     -10.324  10.290  66.800  1.00  0.00    -0.227 C  
HETATM    9  N   UNL     1     -10.320   9.429  67.883  1.00  0.00    -0.212 N  
HETATM   10  O   UNL     1     -10.010   9.973  65.658  1.00  0.00    -0.272 OA 
HETATM   11  H   UNL     1     -10.648   9.789  68.779  1.00  0.00     0.000 HD 
BRANCH   9  12
HETATM   12  C   UNL     1      -9.876   8.034  67.828  1.00  0.00    -0.165 C  
HETATM   13  C   UNL     1      -9.800   7.402  69.240  1.00  0.00    -0.168 C  
HETATM   14  C   UNL     1      -9.354   5.932  69.151  1.00  0.00    -0.137 C  
HETATM   15  C   UNL     1     -10.373   5.141  68.317  1.00  0.00    -0.140 C  
HETATM   16  C   UNL     1     -10.469   5.735  66.901  1.00  0.00    -0.348 C  
HETATM   17  C   UNL     1      -9.089   5.655  66.228  1.00  0.00    -0.153 C  
HETATM   18  C   UNL     1     -10.900   7.211  66.999  1.00  0.00    -0.382 C  
HETATM   19  C   UNL     1      -8.058   6.444  67.047  1.00  0.00    -0.112 C  
HETATM   20  C   UNL     1      -8.498   7.913  67.132  1.00  0.00    -0.117 C  
HETATM   21  C   UNL     1      -7.976   5.862  68.470  1.00  0.00    -0.102 C  
ENDBRANCH   9  12
ENDBRANCH   7   8
ENDBRANCH   6   7
ENDBRANCH   5   6
ENDBRANCH   4   5
ENDBRANCH   2   4
TORSDOF 6
ENDMDL
MODEL      162
REMARK 921   NORMALIZED FREE ENERGY PREDICTED BY IDOCK:   -3.30 KCAL/MOL
REMARK 922        TOTAL FREE ENERGY PREDICTED BY IDOCK:   -4.29 KCAL/MOL
REMARK 923 INTER-LIGAND FREE ENERGY PREDICTED BY IDOCK:   -4.67 KCAL/MOL
REMARK 924 INTRA-LIGAND FREE ENERGY PREDICTED BY IDOCK:    0.38 KCAL/MOL
REMARK 927      BINDING AFFINITY PREDICTED BY RF-SCORE:    0.00 PKD
ROOT
HETATM    1  C   UNL     1      -7.756  11.081  68.673  1.00  0.00    -0.132 C  
HETATM    2  N   UNL     1      -6.326  11.375  68.808  1.00  0.00    -0.050 NA 
HETATM    3  C   UNL     1      -5.887  11.065  70.171  1.00  0.00    -0.117 C  
ENDROOT
BRANCH   2   4
HETATM    4  C   UNL     1      -5.569  10.617  67.792  1.00  0.00    -0.043 C  
BRANCH   4   5
HETATM    5  C   UNL     1      -6.053  10.820  66.349  1.00  0.00    -0.118 C  
BRANCH   5   6
HETATM    6  O   UNL     1      -7.071   9.856  66.055  1.00  0.00    -0.096 OA 
BRANCH   6   7
HETATM    7  C   UNL     1      -7.624  10.076  64.761  1.00  0.00    -0.143 C  
BRANCH   7   8
HETATM    8  C   UNL     1      -8.988  10.751  64.858  1.00  0.00    -0.184 C  
HETATM    9  N   UNL     1      -8.927  12.061  65.299  1.00  0.00    -0.316 N  
HETATM   10  O   UNL     1     -10.018  10.177  64.522  1.00  0.00    -0.326 OA 
HETATM   11  H   UNL     1      -8.008  12.451  65.505  1.00  0.00     0.000 HD 
BRANCH   9  12
HETATM   12  C   UNL     1     -10.096  12.924  65.489  1.00  0.00    -0.257 C  
HETATM   13  C   UNL     1     -10.823  13.205  64.151  1.00  0.00    -0.407 C  
HETATM   14  C   UNL     1     -12.057  14.094  64.383  1.00  0.00    -0.486 C  
HETATM   15  C   UNL     1     -13.032  13.374  65.326  1.00  0.00    -0.258 C  
HETATM   16  C   UNL     1     -12.347  13.086  66.673  1.00  0.00    -0.131 C  
HETATM   17  C   UNL     1     -11.913  14.415  67.310  1.00  0.00    -0.409 C  
HETATM   18  C   UNL     1     -11.103  12.209  66.431  1.00  0.00    -0.358 C  
HETATM   19  C   UNL     1     -10.933  15.147  66.382  1.00  0.00    -0.329 C  
HETATM   20  C   UNL     1      -9.697  14.265  66.153  1.00  0.00    -0.325 C  
HETATM   21  C   UNL     1     -11.613  15.419  65.027  1.00  0.00    -0.189 C  
ENDBRANCH   9  12
ENDBRANCH   7   8
ENDBRANCH   6   7
ENDBRANCH   5   6
ENDBRANCH   4   5
ENDBRANCH   2   4
TORSDOF 6
ENDMDL
MODEL      163
REMARK 921   NORMALIZED FREE ENERGY PREDICTED BY IDOCK:   -3.29 KCAL/MOL
REMARK 922        TOTAL FREE ENERGY PREDICTED BY IDOCK:   -4.29 KCAL/MOL
REMARK 923 INTER-LIGAND FREE ENERGY PREDICTED BY IDOCK:   -4.22 KCAL/MOL
REMARK 924 INTRA-LIGAND FREE ENERGY PREDICTED BY IDOCK:   -0.06 KCAL/MOL
REMARK 927      BINDING AFFINITY PREDICTED BY RF-SCORE:    0.00 PKD
ROOT
HETATM    1  C   UNL     1      -8.816   5.545  71.671  1.00  0.00    -0.136 C  
HETATM    2  N   UNL     1      -8.468   4.628  70.581  1.00  0.00    -0.093 NA 
HETATM    3  C   UNL     1      -9.472   3.565  70.493  1.00  0.00    -0.179 C  
ENDROOT
BRANCH   2   4
HETATM    4  C   UNL     1      -8.348   5.386  69.320  1.00  0.00    -0.096 C  
BRANCH   4   5
HETATM    5  C   UNL     1      -7.417   6.606  69.393  1.00  0.00    -0.094 C  
BRANCH   5   6
HETATM    6  O   UNL     1      -8.125   7.764  68.934  1.00  0.00    -0.122 OA 
BRANCH   6   7
HETATM    7  C   UNL     1      -9.263   7.394  68.163  1.00  0.00    -0.133 C  
BRANCH   7   8
HETATM    8  C   UNL     1      -9.967   8.625  67.602  1.00  0.00    -0.194 C  
HETATM    9  N   UNL     1      -9.448   9.819  68.070  1.00  0.00    -0.131 N  
HETATM   10  O   UNL     1     -10.870   8.534  66.778  1.00  0.00    -0.153 OA 
HETATM   11  H   UNL     1      -8.663   9.775  68.719  1.00  0.00     0.000 HD 
BRANCH   9  12
HETATM   12  C   UNL     1      -9.952  11.142  67.695  1.00  0.00    -0.174 C  
HETATM   13  C   UNL     1     -11.378  11.389  68.248  1.00  0.00    -0.354 C  
HETATM   14  C   UNL     1     -11.873  12.793  67.859  1.00  0.00    -0.392 C  
HETATM   15  C   UNL     1     -10.929  13.848  68.456  1.00  0.00    -0.277 C  
HETATM   16  C   UNL     1      -9.502  13.641  67.920  1.00  0.00    -0.213 C  
HETATM   17  C   UNL     1      -9.515  13.777  66.389  1.00  0.00    -0.259 C  
HETATM   18  C   UNL     1      -9.019  12.228  68.299  1.00  0.00    -0.182 C  
HETATM   19  C   UNL     1     -10.451  12.727  65.776  1.00  0.00    -0.294 C  
HETATM   20  C   UNL     1      -9.956  11.324  66.157  1.00  0.00    -0.268 C  
HETATM   21  C   UNL     1     -11.876  12.923  66.326  1.00  0.00    -0.477 C  
ENDBRANCH   9  12
ENDBRANCH   7   8
ENDBRANCH   6   7
ENDBRANCH   5   6
ENDBRANCH   4   5
ENDBRANCH   2   4
TORSDOF 6
ENDMDL
MODEL      164
REMARK 921   NORMALIZED FREE ENERGY PREDICTED BY IDOCK:   -3.28 KCAL/MOL
REMARK 922        TOTAL FREE ENERGY PREDICTED BY IDOCK:   -4.27 KCAL/MOL
REMARK 923 INTER-LIGAND FREE ENERGY PREDICTED BY IDOCK:   -4.45 KCAL/MOL
REMARK 924 INTRA-LIGAND FREE ENERGY PREDICTED BY IDOCK:    0.18 KCAL/MOL
REMARK 927      BINDING AFFINITY PREDICTED BY RF-SCORE:    0.00 PKD
ROOT
HETATM    1  C   UNL     1     -12.191  16.068  72.245  1.00  0.00    -0.519 C  
HETATM    2  N   UNL     1     -12.319  14.956  71.298  1.00  0.00    -0.299 NA 
HETATM    3  C   UNL     1     -13.730  14.589  71.159  1.00  0.00    -0.272 C  
ENDROOT
BRANCH   2   4
HETATM    4  C   UNL     1     -11.712  15.336  70.007  1.00  0.00    -0.315 C  
BRANCH   4   5
HETATM    5  C   UNL     1     -10.808  14.261  69.384  1.00  0.00    -0.168 C  
BRANCH   5   6
HETATM    6  O   UNL     1     -11.579  13.076  69.153  1.00  0.00    -0.279 OA 
BRANCH   6   7
HETATM    7  C   UNL     1     -11.536  12.699  67.780  1.00  0.00    -0.348 C  
BRANCH   7   8
HETATM    8  C   UNL     1     -10.452  11.655  67.535  1.00  0.00    -0.200 C  
HETATM    9  N   UNL     1     -10.840  10.368  67.858  1.00  0.00    -0.259 N  
HETATM   10  O   UNL     1      -9.366  11.953  67.049  1.00  0.00    -0.179 OA 
HETATM   11  H   UNL     1     -11.786  10.231  68.212  1.00  0.00     0.000 HD 
BRANCH   9  12
HETATM   12  C   UNL     1      -9.982   9.188  67.727  1.00  0.00    -0.189 C  
HETATM   13  C   UNL     1     -10.584   7.959  68.451  1.00  0.00    -0.154 C  
HETATM   14  C   UNL     1      -9.675   6.730  68.277  1.00  0.00    -0.126 C  
HETATM   15  C   UNL     1      -9.545   6.400  66.782  1.00  0.00    -0.189 C  
HETATM   16  C   UNL     1      -8.939   7.597  66.030  1.00  0.00    -0.178 C  
HETATM   17  C   UNL     1      -7.547   7.900  66.607  1.00  0.00    -0.093 C  
HETATM   18  C   UNL     1      -9.846   8.828  66.222  1.00  0.00    -0.342 C  
HETATM   19  C   UNL     1      -7.658   8.236  68.101  1.00  0.00    -0.098 C  
HETATM   20  C   UNL     1      -8.561   9.467  68.277  1.00  0.00    -0.120 C  
HETATM   21  C   UNL     1      -8.282   7.045  68.851  1.00  0.00    -0.122 C  
ENDBRANCH   9  12
ENDBRANCH   7   8
ENDBRANCH   6   7
ENDBRANCH   5   6
ENDBRANCH   4   5
ENDBRANCH   2   4
TORSDOF 6
ENDMDL
MODEL      165
REMARK 921   NORMALIZED FREE ENERGY PREDICTED BY IDOCK:   -3.28 KCAL/MOL
REMARK 922        TOTAL FREE ENERGY PREDICTED BY IDOCK:   -4.27 KCAL/MOL
REMARK 923 INTER-LIGAND FREE ENERGY PREDICTED BY IDOCK:   -4.45 KCAL/MOL
REMARK 924 INTRA-LIGAND FREE ENERGY PREDICTED BY IDOCK:    0.18 KCAL/MOL
REMARK 927      BINDING AFFINITY PREDICTED BY RF-SCORE:    0.00 PKD
ROOT
HETATM    1  C   UNL     1      -9.123   1.986  63.236  1.00  0.00    -0.092 C  
HETATM    2  N   UNL     1      -8.404   2.615  64.349  1.00  0.00    -0.086 NA 
HETATM    3  C   UNL     1      -7.413   3.556  63.823  1.00  0.00    -0.059 C  
ENDROOT
BRANCH   2   4
HETATM    4  C   UNL     1      -9.371   3.270  65.252  1.00  0.00    -0.146 C  
BRANCH   4   5
HETATM    5  C   UNL     1      -8.872   3.464  66.692  1.00  0.00    -0.137 C  
BRANCH   5   6
HETATM    6  O   UNL     1      -9.957   3.919  67.508  1.00  0.00    -0.095 OA 
BRANCH   6   7
HETATM    7  C   UNL     1     -10.594   5.052  66.925  1.00  0.00    -0.117 C  
BRANCH   7   8
HETATM    8  C   UNL     1     -10.691   6.198  67.926  1.00  0.00    -0.296 C  
HETATM    9  N   UNL     1     -10.428   5.818  69.229  1.00  0.00    -0.258 N  
HETATM   10  O   UNL     1     -10.934   7.347  67.571  1.00  0.00    -0.204 OA 
HETATM   11  H   UNL     1     -10.191   4.842  69.402  1.00  0.00     0.000 HD 
BRANCH   9  12
HETATM   12  C   UNL     1     -10.467   6.726  70.379  1.00  0.00    -0.206 C  
HETATM   13  C   UNL     1      -9.754   6.117  71.612  1.00  0.00    -0.177 C  
HETATM   14  C   UNL     1      -9.790   7.099  72.796  1.00  0.00    -0.212 C  
HETATM   15  C   UNL     1      -9.065   8.395  72.404  1.00  0.00    -0.326 C  
HETATM   16  C   UNL     1      -9.752   9.035  71.185  1.00  0.00    -0.369 C  
HETATM   17  C   UNL     1     -11.211   9.358  71.544  1.00  0.00    -0.457 C  
HETATM   18  C   UNL     1      -9.727   8.040  70.009  1.00  0.00    -0.173 C  
HETATM   19  C   UNL     1     -11.953   8.072  71.935  1.00  0.00    -0.359 C  
HETATM   20  C   UNL     1     -11.924   7.092  70.752  1.00  0.00    -0.392 C  
HETATM   21  C   UNL     1     -11.254   7.421  73.142  1.00  0.00    -0.294 C  
ENDBRANCH   9  12
ENDBRANCH   7   8
ENDBRANCH   6   7
ENDBRANCH   5   6
ENDBRANCH   4   5
ENDBRANCH   2   4
TORSDOF 6
ENDMDL
MODEL      166
REMARK 921   NORMALIZED FREE ENERGY PREDICTED BY IDOCK:   -3.27 KCAL/MOL
REMARK 922        TOTAL FREE ENERGY PREDICTED BY IDOCK:   -4.26 KCAL/MOL
REMARK 923 INTER-LIGAND FREE ENERGY PREDICTED BY IDOCK:   -4.34 KCAL/MOL
REMARK 924 INTRA-LIGAND FREE ENERGY PREDICTED BY IDOCK:    0.08 KCAL/MOL
REMARK 927      BINDING AFFINITY PREDICTED BY RF-SCORE:    0.00 PKD
ROOT
HETATM    1  C   UNL     1     -12.441  10.473  70.551  1.00  0.00    -0.347 C  
HETATM    2  N   UNL     1     -12.323   9.697  71.790  1.00  0.00    -0.387 NA 
HETATM    3  C   UNL     1     -13.658   9.341  72.275  1.00  0.00    -0.480 C  
ENDROOT
BRANCH   2   4
HETATM    4  C   UNL     1     -11.482   8.508  71.548  1.00  0.00    -0.287 C  
BRANCH   4   5
HETATM    5  C   UNL     1     -12.184   7.165  71.798  1.00  0.00    -0.344 C  
BRANCH   5   6
HETATM    6  O   UNL     1     -11.466   6.127  71.122  1.00  0.00    -0.302 OA 
BRANCH   6   7
HETATM    7  C   UNL     1     -11.310   6.431  69.740  1.00  0.00    -0.427 C  
BRANCH   7   8
HETATM    8  C   UNL     1     -10.226   5.563  69.109  1.00  0.00    -0.239 C  
HETATM    9  N   UNL     1     -10.449   5.284  67.773  1.00  0.00    -0.139 N  
HETATM   10  O   UNL     1      -9.237   5.205  69.739  1.00  0.00    -0.111 OA 
HETATM   11  H   UNL     1     -11.284   5.675  67.337  1.00  0.00     0.000 HD 
BRANCH   9  12
HETATM   12  C   UNL     1      -9.565   4.464  66.941  1.00  0.00    -0.199 C  
HETATM   13  C   UNL     1      -8.135   5.055  66.871  1.00  0.00    -0.107 C  
HETATM   14  C   UNL     1      -7.224   4.162  66.011  1.00  0.00    -0.068 C  
HETATM   15  C   UNL     1      -7.143   2.762  66.639  1.00  0.00    -0.053 C  
HETATM   16  C   UNL     1      -8.547   2.138  66.716  1.00  0.00    -0.116 C  
HETATM   17  C   UNL     1      -9.125   2.026  65.297  1.00  0.00    -0.107 C  
HETATM   18  C   UNL     1      -9.458   3.045  67.565  1.00  0.00    -0.170 C  
HETATM   19  C   UNL     1      -9.216   3.417  64.655  1.00  0.00    -0.140 C  
HETATM   20  C   UNL     1     -10.132   4.309  65.508  1.00  0.00    -0.235 C  
HETATM   21  C   UNL     1      -7.814   4.050  64.595  1.00  0.00    -0.085 C  
ENDBRANCH   9  12
ENDBRANCH   7   8
ENDBRANCH   6   7
ENDBRANCH   5   6
ENDBRANCH   4   5
ENDBRANCH   2   4
TORSDOF 6
ENDMDL
MODEL      167
REMARK 921   NORMALIZED FREE ENERGY PREDICTED BY IDOCK:   -3.27 KCAL/MOL
REMARK 922        TOTAL FREE ENERGY PREDICTED BY IDOCK:   -4.26 KCAL/MOL
REMARK 923 INTER-LIGAND FREE ENERGY PREDICTED BY IDOCK:   -3.80 KCAL/MOL
REMARK 924 INTRA-LIGAND FREE ENERGY PREDICTED BY IDOCK:   -0.46 KCAL/MOL
REMARK 927      BINDING AFFINITY PREDICTED BY RF-SCORE:    0.00 PKD
ROOT
HETATM    1  C   UNL     1      -7.185  11.122  69.333  1.00  0.00    -0.091 C  
HETATM    2  N   UNL     1      -6.882  12.191  68.376  1.00  0.00    -0.067 NA 
HETATM    3  C   UNL     1      -6.627  11.610  67.055  1.00  0.00    -0.144 C  
ENDROOT
BRANCH   2   4
HETATM    4  C   UNL     1      -7.994  13.161  68.353  1.00  0.00    -0.130 C  
BRANCH   4   5
HETATM    5  C   UNL     1      -8.826  13.151  67.062  1.00  0.00    -0.210 C  
BRANCH   5   6
HETATM    6  O   UNL     1     -10.121  12.609  67.343  1.00  0.00    -0.215 OA 
BRANCH   6   7
HETATM    7  C   UNL     1     -10.635  11.905  66.217  1.00  0.00    -0.253 C  
BRANCH   7   8
HETATM    8  C   UNL     1     -10.161  10.455  66.217  1.00  0.00    -0.231 C  
HETATM    9  N   UNL     1     -10.217   9.855  67.462  1.00  0.00    -0.201 N  
HETATM   10  O   UNL     1      -9.815   9.888  65.186  1.00  0.00    -0.306 OA 
HETATM   11  H   UNL     1     -10.566  10.410  68.243  1.00  0.00     0.000 HD 
BRANCH   9  12
HETATM   12  C   UNL     1      -9.808   8.475  67.733  1.00  0.00    -0.175 C  
HETATM   13  C   UNL     1      -8.341   8.219  67.305  1.00  0.00    -0.124 C  
HETATM   14  C   UNL     1      -7.932   6.770  67.622  1.00  0.00    -0.113 C  
HETATM   15  C   UNL     1      -8.048   6.528  69.135  1.00  0.00    -0.112 C  
HETATM   16  C   UNL     1      -9.496   6.764  69.596  1.00  0.00    -0.146 C  
HETATM   17  C   UNL     1     -10.425   5.791  68.853  1.00  0.00    -0.326 C  
HETATM   18  C   UNL     1      -9.905   8.211  69.261  1.00  0.00    -0.182 C  
HETATM   19  C   UNL     1     -10.324   6.021  67.338  1.00  0.00    -0.268 C  
HETATM   20  C   UNL     1     -10.739   7.465  67.018  1.00  0.00    -0.389 C  
HETATM   21  C   UNL     1      -8.871   5.804  66.880  1.00  0.00    -0.114 C  
ENDBRANCH   9  12
ENDBRANCH   7   8
ENDBRANCH   6   7
ENDBRANCH   5   6
ENDBRANCH   4   5
ENDBRANCH   2   4
TORSDOF 6
ENDMDL
MODEL      168
REMARK 921   NORMALIZED FREE ENERGY PREDICTED BY IDOCK:   -3.27 KCAL/MOL
REMARK 922        TOTAL FREE ENERGY PREDICTED BY IDOCK:   -4.25 KCAL/MOL
REMARK 923 INTER-LIGAND FREE ENERGY PREDICTED BY IDOCK:   -4.59 KCAL/MOL
REMARK 924 INTRA-LIGAND FREE ENERGY PREDICTED BY IDOCK:    0.33 KCAL/MOL
REMARK 927      BINDING AFFINITY PREDICTED BY RF-SCORE:    0.00 PKD
ROOT
HETATM    1  C   UNL     1      -7.858  10.381  65.493  1.00  0.00    -0.152 C  
HETATM    2  N   UNL     1      -9.304  10.547  65.311  1.00  0.00    -0.197 NA 
HETATM    3  C   UNL     1      -9.621  10.547  63.881  1.00  0.00    -0.309 C  
ENDROOT
BRANCH   2   4
HETATM    4  C   UNL     1     -10.018   9.480  66.040  1.00  0.00    -0.278 C  
BRANCH   4   5
HETATM    5  C   UNL     1     -10.855   9.969  67.232  1.00  0.00    -0.217 C  
BRANCH   5   6
HETATM    6  O   UNL     1     -10.516  11.331  67.516  1.00  0.00    -0.187 OA 
BRANCH   6   7
HETATM    7  C   UNL     1      -9.717  11.424  68.691  1.00  0.00    -0.176 C  
BRANCH   7   8
HETATM    8  C   UNL     1     -10.185  10.430  69.749  1.00  0.00    -0.184 C  
HETATM    9  N   UNL     1      -9.428   9.273  69.795  1.00  0.00    -0.179 N  
HETATM   10  O   UNL     1     -11.117  10.681  70.505  1.00  0.00    -0.276 OA 
HETATM   11  H   UNL     1      -8.644   9.191  69.147  1.00  0.00     0.000 HD 
BRANCH   9  12
HETATM   12  C   UNL     1      -9.676   8.158  70.712  1.00  0.00    -0.170 C  
HETATM   13  C   UNL     1      -8.585   7.065  70.592  1.00  0.00    -0.147 C  
HETATM   14  C   UNL     1      -8.858   5.919  71.581  1.00  0.00    -0.139 C  
HETATM   15  C   UNL     1      -8.840   6.469  73.015  1.00  0.00    -0.135 C  
HETATM   16  C   UNL     1      -9.920   7.553  73.176  1.00  0.00    -0.344 C  
HETATM   17  C   UNL     1     -11.297   6.937  72.884  1.00  0.00    -0.199 C  
HETATM   18  C   UNL     1      -9.650   8.690  72.171  1.00  0.00    -0.378 C  
HETATM   19  C   UNL     1     -11.334   6.385  71.452  1.00  0.00    -0.354 C  
HETATM   20  C   UNL     1     -11.069   7.529  70.462  1.00  0.00    -0.275 C  
HETATM   21  C   UNL     1     -10.241   5.313  71.286  1.00  0.00    -0.291 C  
ENDBRANCH   9  12
ENDBRANCH   7   8
ENDBRANCH   6   7
ENDBRANCH   5   6
ENDBRANCH   4   5
ENDBRANCH   2   4
TORSDOF 6
ENDMDL
MODEL      169
REMARK 921   NORMALIZED FREE ENERGY PREDICTED BY IDOCK:   -3.25 KCAL/MOL
REMARK 922        TOTAL FREE ENERGY PREDICTED BY IDOCK:   -4.22 KCAL/MOL
REMARK 923 INTER-LIGAND FREE ENERGY PREDICTED BY IDOCK:   -4.31 KCAL/MOL
REMARK 924 INTRA-LIGAND FREE ENERGY PREDICTED BY IDOCK:    0.09 KCAL/MOL
REMARK 927      BINDING AFFINITY PREDICTED BY RF-SCORE:    0.00 PKD
ROOT
HETATM    1  C   UNL     1     -12.326   7.179  71.791  1.00  0.00    -0.350 C  
HETATM    2  N   UNL     1     -11.253   6.339  71.249  1.00  0.00    -0.288 NA 
HETATM    3  C   UNL     1     -11.056   6.648  69.831  1.00  0.00    -0.348 C  
ENDROOT
BRANCH   2   4
HETATM    4  C   UNL     1     -10.023   6.541  72.040  1.00  0.00    -0.169 C  
BRANCH   4   5
HETATM    5  C   UNL     1     -10.070   7.735  73.005  1.00  0.00    -0.320 C  
BRANCH   5   6
HETATM    6  O   UNL     1      -9.177   8.752  72.538  1.00  0.00    -0.347 OA 
BRANCH   6   7
HETATM    7  C   UNL     1      -8.352   8.262  71.486  1.00  0.00    -0.138 C  
BRANCH   7   8
HETATM    8  C   UNL     1      -8.227   9.289  70.366  1.00  0.00    -0.178 C  
HETATM    9  N   UNL     1      -9.069   9.046  69.296  1.00  0.00    -0.143 N  
HETATM   10  O   UNL     1      -7.478  10.256  70.456  1.00  0.00    -0.250 OA 
HETATM   11  H   UNL     1      -9.685   8.235  69.349  1.00  0.00     0.000 HD 
BRANCH   9  12
HETATM   12  C   UNL     1      -9.135   9.876  68.090  1.00  0.00    -0.121 C  
HETATM   13  C   UNL     1      -9.598  11.318  68.414  1.00  0.00    -0.195 C  
HETATM   14  C   UNL     1      -9.636  12.172  67.135  1.00  0.00    -0.195 C  
HETATM   15  C   UNL     1      -8.228  12.237  66.524  1.00  0.00     0.110 C  
HETATM   16  C   UNL     1      -7.738  10.820  66.179  1.00  0.00    -0.149 C  
HETATM   17  C   UNL     1      -8.703  10.188  65.165  1.00  0.00    -0.189 C  
HETATM   18  C   UNL     1      -7.718   9.966  67.461  1.00  0.00    -0.091 C  
HETATM   19  C   UNL     1     -10.116  10.111  65.761  1.00  0.00    -0.324 C  
HETATM   20  C   UNL     1     -10.082   9.253  67.035  1.00  0.00    -0.313 C  
HETATM   21  C   UNL     1     -10.599  11.527  66.123  1.00  0.00    -0.314 C  
ENDBRANCH   9  12
ENDBRANCH   7   8
ENDBRANCH   6   7
ENDBRANCH   5   6
ENDBRANCH   4   5
ENDBRANCH   2   4
TORSDOF 6
ENDMDL
MODEL      170
REMARK 921   NORMALIZED FREE ENERGY PREDICTED BY IDOCK:   -3.24 KCAL/MOL
REMARK 922        TOTAL FREE ENERGY PREDICTED BY IDOCK:   -4.22 KCAL/MOL
REMARK 923 INTER-LIGAND FREE ENERGY PREDICTED BY IDOCK:   -4.32 KCAL/MOL
REMARK 924 INTRA-LIGAND FREE ENERGY PREDICTED BY IDOCK:    0.10 KCAL/MOL
REMARK 927      BINDING AFFINITY PREDICTED BY RF-SCORE:    0.00 PKD
ROOT
HETATM    1  C   UNL     1      -9.895   1.574  63.816  1.00  0.00    -0.130 C  
HETATM    2  N   UNL     1      -8.680   2.209  64.338  1.00  0.00    -0.094 NA 
HETATM    3  C   UNL     1      -7.921   2.799  63.233  1.00  0.00    -0.069 C  
ENDROOT
BRANCH   2   4
HETATM    4  C   UNL     1      -9.048   3.210  65.359  1.00  0.00    -0.150 C  
BRANCH   4   5
HETATM    5  C   UNL     1      -9.152   4.650  64.835  1.00  0.00    -0.154 C  
BRANCH   5   6
HETATM    6  O   UNL     1      -9.097   5.557  65.942  1.00  0.00    -0.155 OA 
BRANCH   6   7
HETATM    7  C   UNL     1      -8.396   4.980  67.040  1.00  0.00    -0.107 C  
BRANCH   7   8
HETATM    8  C   UNL     1      -9.194   5.121  68.331  1.00  0.00    -0.117 C  
HETATM    9  N   UNL     1      -9.323   6.429  68.762  1.00  0.00    -0.126 N  
HETATM   10  O   UNL     1      -9.703   4.152  68.886  1.00  0.00    -0.166 OA 
HETATM   11  H   UNL     1      -8.897   7.161  68.195  1.00  0.00     0.000 HD 
BRANCH   9  12
HETATM   12  C   UNL     1     -10.032   6.832  69.979  1.00  0.00    -0.176 C  
HETATM   13  C   UNL     1     -11.529   6.436  69.927  1.00  0.00    -0.483 C  
HETATM   14  C   UNL     1     -12.243   6.851  71.226  1.00  0.00    -0.427 C  
HETATM   15  C   UNL     1     -11.589   6.134  72.417  1.00  0.00    -0.338 C  
HETATM   16  C   UNL     1     -10.101   6.512  72.507  1.00  0.00    -0.189 C  
HETATM   17  C   UNL     1      -9.979   8.031  72.699  1.00  0.00    -0.358 C  
HETATM   18  C   UNL     1      -9.396   6.108  71.197  1.00  0.00    -0.175 C  
HETATM   19  C   UNL     1     -10.625   8.765  71.515  1.00  0.00    -0.379 C  
HETATM   20  C   UNL     1      -9.909   8.357  70.218  1.00  0.00    -0.188 C  
HETATM   21  C   UNL     1     -12.109   8.372  71.413  1.00  0.00    -0.337 C  
ENDBRANCH   9  12
ENDBRANCH   7   8
ENDBRANCH   6   7
ENDBRANCH   5   6
ENDBRANCH   4   5
ENDBRANCH   2   4
TORSDOF 6
ENDMDL
MODEL      171
REMARK 921   NORMALIZED FREE ENERGY PREDICTED BY IDOCK:   -3.23 KCAL/MOL
REMARK 922        TOTAL FREE ENERGY PREDICTED BY IDOCK:   -4.20 KCAL/MOL
REMARK 923 INTER-LIGAND FREE ENERGY PREDICTED BY IDOCK:   -4.15 KCAL/MOL
REMARK 924 INTRA-LIGAND FREE ENERGY PREDICTED BY IDOCK:   -0.06 KCAL/MOL
REMARK 927      BINDING AFFINITY PREDICTED BY RF-SCORE:    0.00 PKD
ROOT
HETATM    1  C   UNL     1      -6.672  13.991  68.891  1.00  0.00    -0.105 C  
HETATM    2  N   UNL     1      -6.327  15.379  69.214  1.00  0.00    -0.121 NA 
HETATM    3  C   UNL     1      -5.321  15.400  70.278  1.00  0.00    -0.127 C  
ENDROOT
BRANCH   2   4
HETATM    4  C   UNL     1      -5.863  16.068  67.994  1.00  0.00    -0.124 C  
BRANCH   4   5
HETATM    5  C   UNL     1      -6.386  17.503  67.831  1.00  0.00    -0.165 C  
BRANCH   5   6
HETATM    6  O   UNL     1      -7.680  17.603  68.436  1.00  0.00    -0.249 OA 
BRANCH   6   7
HETATM    7  C   UNL     1      -8.657  18.020  67.488  1.00  0.00    -0.244 C  
BRANCH   7   8
HETATM    8  C   UNL     1      -9.743  16.962  67.321  1.00  0.00    -0.251 C  
HETATM    9  N   UNL     1      -9.321  15.840  66.630  1.00  0.00    -0.239 N  
HETATM   10  O   UNL     1     -10.859  17.100  67.808  1.00  0.00    -0.348 OA 
HETATM   11  H   UNL     1      -8.353  15.814  66.310  1.00  0.00     0.000 HD 
BRANCH   9  12
HETATM   12  C   UNL     1     -10.172  14.688  66.326  1.00  0.00    -0.292 C  
HETATM   13  C   UNL     1     -11.648  15.107  66.115  1.00  0.00    -0.080 C  
HETATM   14  C   UNL     1     -12.514  13.881  65.776  1.00  0.00    -0.530 C  
HETATM   15  C   UNL     1     -12.000  13.238  64.479  1.00  0.00    -0.449 C  
HETATM   16  C   UNL     1     -10.536  12.798  64.654  1.00  0.00    -0.371 C  
HETATM   17  C   UNL     1     -10.452  11.775  65.798  1.00  0.00    -0.302 C  
HETATM   18  C   UNL     1      -9.678  14.027  65.010  1.00  0.00     0.109 C  
HETATM   19  C   UNL     1     -10.960  12.403  67.104  1.00  0.00    -0.304 C  
HETATM   20  C   UNL     1     -10.092  13.623  67.448  1.00  0.00    -0.241 C  
HETATM   21  C   UNL     1     -12.418  12.860  66.923  1.00  0.00     0.288 C  
ENDBRANCH   9  12
ENDBRANCH   7   8
ENDBRANCH   6   7
ENDBRANCH   5   6
ENDBRANCH   4   5
ENDBRANCH   2   4
TORSDOF 6
ENDMDL
MODEL      172
REMARK 921   NORMALIZED FREE ENERGY PREDICTED BY IDOCK:   -3.21 KCAL/MOL
REMARK 922        TOTAL FREE ENERGY PREDICTED BY IDOCK:   -4.18 KCAL/MOL
REMARK 923 INTER-LIGAND FREE ENERGY PREDICTED BY IDOCK:   -3.78 KCAL/MOL
REMARK 924 INTRA-LIGAND FREE ENERGY PREDICTED BY IDOCK:   -0.40 KCAL/MOL
REMARK 927      BINDING AFFINITY PREDICTED BY RF-SCORE:    0.00 PKD
ROOT
HETATM    1  C   UNL     1      -7.525  10.956  69.192  1.00  0.00    -0.130 C  
HETATM    2  N   UNL     1      -7.103  11.957  68.207  1.00  0.00    -0.075 NA 
HETATM    3  C   UNL     1      -6.943  11.321  66.898  1.00  0.00    -0.137 C  
ENDROOT
BRANCH   2   4
HETATM    4  C   UNL     1      -8.082  13.061  68.175  1.00  0.00    -0.155 C  
BRANCH   4   5
HETATM    5  C   UNL     1      -8.994  13.072  66.938  1.00  0.00    -0.209 C  
BRANCH   5   6
HETATM    6  O   UNL     1     -10.291  12.592  67.307  1.00  0.00    -0.218 OA 
BRANCH   6   7
HETATM    7  C   UNL     1     -10.701  11.526  66.456  1.00  0.00    -0.273 C  
BRANCH   7   8
HETATM    8  C   UNL     1     -10.575  10.181  67.165  1.00  0.00    -0.246 C  
HETATM    9  N   UNL     1      -9.932   9.217  66.410  1.00  0.00    -0.281 N  
HETATM   10  O   UNL     1     -10.971  10.016  68.313  1.00  0.00    -0.248 OA 
HETATM   11  H   UNL     1      -9.601   9.480  65.482  1.00  0.00     0.000 HD 
BRANCH   9  12
HETATM   12  C   UNL     1      -9.693   7.842  66.856  1.00  0.00    -0.216 C  
HETATM   13  C   UNL     1     -11.010   7.029  66.932  1.00  0.00    -0.271 C  
HETATM   14  C   UNL     1     -10.727   5.584  67.380  1.00  0.00    -0.224 C  
HETATM   15  C   UNL     1      -9.795   4.909  66.362  1.00  0.00    -0.226 C  
HETATM   16  C   UNL     1      -8.470   5.685  66.267  1.00  0.00    -0.124 C  
HETATM   17  C   UNL     1      -7.794   5.696  67.647  1.00  0.00    -0.097 C  
HETATM   18  C   UNL     1      -8.762   7.134  65.834  1.00  0.00    -0.146 C  
HETATM   19  C   UNL     1      -8.711   6.371  68.677  1.00  0.00    -0.122 C  
HETATM   20  C   UNL     1      -8.989   7.816  68.235  1.00  0.00    -0.131 C  
HETATM   21  C   UNL     1     -10.045   5.606  68.758  1.00  0.00    -0.245 C  
ENDBRANCH   9  12
ENDBRANCH   7   8
ENDBRANCH   6   7
ENDBRANCH   5   6
ENDBRANCH   4   5
ENDBRANCH   2   4
TORSDOF 6
ENDMDL
MODEL      173
REMARK 921   NORMALIZED FREE ENERGY PREDICTED BY IDOCK:   -3.21 KCAL/MOL
REMARK 922        TOTAL FREE ENERGY PREDICTED BY IDOCK:   -4.18 KCAL/MOL
REMARK 923 INTER-LIGAND FREE ENERGY PREDICTED BY IDOCK:   -4.31 KCAL/MOL
REMARK 924 INTRA-LIGAND FREE ENERGY PREDICTED BY IDOCK:    0.13 KCAL/MOL
REMARK 927      BINDING AFFINITY PREDICTED BY RF-SCORE:    0.00 PKD
ROOT
HETATM    1  C   UNL     1      -8.330  19.596  66.209  1.00  0.00    -0.352 C  
HETATM    2  N   UNL     1      -9.040  18.717  67.143  1.00  0.00    -0.280 NA 
HETATM    3  C   UNL     1     -10.472  19.020  67.110  1.00  0.00    -0.441 C  
ENDROOT
BRANCH   2   4
HETATM    4  C   UNL     1      -8.760  17.308  66.804  1.00  0.00    -0.251 C  
BRANCH   4   5
HETATM    5  C   UNL     1      -7.279  16.910  66.894  1.00  0.00    -0.216 C  
BRANCH   5   6
HETATM    6  O   UNL     1      -7.181  15.588  67.436  1.00  0.00    -0.176 OA 
BRANCH   6   7
HETATM    7  C   UNL     1      -8.344  14.825  67.134  1.00  0.00    -0.214 C  
BRANCH   7   8
HETATM    8  C   UNL     1      -8.097  13.338  67.364  1.00  0.00    -0.175 C  
HETATM    9  N   UNL     1      -9.254  12.579  67.373  1.00  0.00    -0.179 N  
HETATM   10  O   UNL     1      -6.965  12.881  67.478  1.00  0.00    -0.136 OA 
HETATM   11  H   UNL     1     -10.140  13.061  67.221  1.00  0.00     0.000 HD 
BRANCH   9  12
HETATM   12  C   UNL     1      -9.291  11.130  67.585  1.00  0.00    -0.165 C  
HETATM   13  C   UNL     1     -10.744  10.596  67.630  1.00  0.00    -0.315 C  
HETATM   14  C   UNL     1     -10.752   9.070  67.831  1.00  0.00    -0.200 C  
HETATM   15  C   UNL     1     -10.021   8.399  66.658  1.00  0.00    -0.354 C  
HETATM   16  C   UNL     1      -8.568   8.899  66.588  1.00  0.00    -0.130 C  
HETATM   17  C   UNL     1      -7.852   8.548  67.902  1.00  0.00    -0.103 C  
HETATM   18  C   UNL     1      -8.567  10.428  66.403  1.00  0.00    -0.137 C  
HETATM   19  C   UNL     1      -8.568   9.214  69.085  1.00  0.00    -0.133 C  
HETATM   20  C   UNL     1      -8.555  10.738  68.890  1.00  0.00    -0.155 C  
HETATM   21  C   UNL     1     -10.028   8.729  69.144  1.00  0.00    -0.193 C  
ENDBRANCH   9  12
ENDBRANCH   7   8
ENDBRANCH   6   7
ENDBRANCH   5   6
ENDBRANCH   4   5
ENDBRANCH   2   4
TORSDOF 6
ENDMDL
MODEL      174
REMARK 921   NORMALIZED FREE ENERGY PREDICTED BY IDOCK:   -3.21 KCAL/MOL
REMARK 922        TOTAL FREE ENERGY PREDICTED BY IDOCK:   -4.17 KCAL/MOL
REMARK 923 INTER-LIGAND FREE ENERGY PREDICTED BY IDOCK:   -4.33 KCAL/MOL
REMARK 924 INTRA-LIGAND FREE ENERGY PREDICTED BY IDOCK:    0.16 KCAL/MOL
REMARK 927      BINDING AFFINITY PREDICTED BY RF-SCORE:    0.00 PKD
ROOT
HETATM    1  C   UNL     1      -9.378  11.462  66.082  1.00  0.00    -0.215 C  
HETATM    2  N   UNL     1      -8.820  10.121  66.281  1.00  0.00    -0.146 NA 
HETATM    3  C   UNL     1      -8.370   9.977  67.667  1.00  0.00    -0.114 C  
ENDROOT
BRANCH   2   4
HETATM    4  C   UNL     1      -9.830   9.108  65.915  1.00  0.00    -0.235 C  
BRANCH   4   5
HETATM    5  C   UNL     1     -10.546   8.457  67.108  1.00  0.00    -0.256 C  
BRANCH   5   6
HETATM    6  O   UNL     1     -11.044   7.174  66.713  1.00  0.00    -0.254 OA 
BRANCH   6   7
HETATM    7  C   UNL     1     -10.045   6.170  66.864  1.00  0.00    -0.183 C  
BRANCH   7   8
HETATM    8  C   UNL     1      -9.571   6.084  68.311  1.00  0.00    -0.119 C  
HETATM    9  N   UNL     1     -10.603   5.971  69.225  1.00  0.00    -0.264 N  
HETATM   10  O   UNL     1      -8.380   6.070  68.601  1.00  0.00    -0.112 OA 
HETATM   11  H   UNL     1     -11.557   5.947  68.866  1.00  0.00     0.000 HD 
BRANCH   9  12
HETATM   12  C   UNL     1     -10.417   5.885  70.675  1.00  0.00    -0.253 C  
HETATM   13  C   UNL     1      -9.919   4.482  71.105  1.00  0.00    -0.257 C  
HETATM   14  C   UNL     1      -9.711   4.426  72.628  1.00  0.00    -0.197 C  
HETATM   15  C   UNL     1      -8.654   5.465  73.036  1.00  0.00    -0.122 C  
HETATM   16  C   UNL     1      -9.120   6.875  72.633  1.00  0.00    -0.150 C  
HETATM   17  C   UNL     1     -10.444   7.189  73.347  1.00  0.00    -0.410 C  
HETATM   18  C   UNL     1      -9.343   6.919  71.109  1.00  0.00    -0.162 C  
HETATM   19  C   UNL     1     -11.513   6.162  72.948  1.00  0.00    -0.148 C  
HETATM   20  C   UNL     1     -11.728   6.220  71.428  1.00  0.00    -0.316 C  
HETATM   21  C   UNL     1     -11.039   4.749  73.334  1.00  0.00    -0.422 C  
ENDBRANCH   9  12
ENDBRANCH   7   8
ENDBRANCH   6   7
ENDBRANCH   5   6
ENDBRANCH   4   5
ENDBRANCH   2   4
TORSDOF 6
ENDMDL
MODEL      175
REMARK 921   NORMALIZED FREE ENERGY PREDICTED BY IDOCK:   -3.18 KCAL/MOL
REMARK 922        TOTAL FREE ENERGY PREDICTED BY IDOCK:   -4.13 KCAL/MOL
REMARK 923 INTER-LIGAND FREE ENERGY PREDICTED BY IDOCK:   -4.18 KCAL/MOL
REMARK 924 INTRA-LIGAND FREE ENERGY PREDICTED BY IDOCK:    0.05 KCAL/MOL
REMARK 927      BINDING AFFINITY PREDICTED BY RF-SCORE:    0.00 PKD
ROOT
HETATM    1  C   UNL     1     -10.870  11.657  64.856  1.00  0.00    -0.301 C  
HETATM    2  N   UNL     1     -10.246  10.534  64.150  1.00  0.00    -0.303 NA 
HETATM    3  C   UNL     1      -9.466  11.039  63.017  1.00  0.00    -0.363 C  
ENDROOT
BRANCH   2   4
HETATM    4  C   UNL     1      -9.419   9.756  65.093  1.00  0.00    -0.273 C  
BRANCH   4   5
HETATM    5  C   UNL     1      -9.415  10.293  66.533  1.00  0.00    -0.171 C  
BRANCH   5   6
HETATM    6  O   UNL     1      -9.215   9.202  67.439  1.00  0.00    -0.129 OA 
BRANCH   6   7
HETATM    7  C   UNL     1     -10.461   8.691  67.904  1.00  0.00    -0.209 C  
BRANCH   7   8
HETATM    8  C   UNL     1     -10.278   7.895  69.192  1.00  0.00    -0.216 C  
HETATM    9  N   UNL     1      -9.315   8.420  70.035  1.00  0.00    -0.158 N  
HETATM   10  O   UNL     1     -10.968   6.914  69.449  1.00  0.00    -0.247 OA 
HETATM   11  H   UNL     1      -8.834   9.268  69.738  1.00  0.00     0.000 HD 
BRANCH   9  12
HETATM   12  C   UNL     1      -8.940   7.838  71.325  1.00  0.00    -0.134 C  
HETATM   13  C   UNL     1      -8.700   6.311  71.217  1.00  0.00    -0.135 C  
HETATM   14  C   UNL     1      -8.287   5.731  72.580  1.00  0.00    -0.116 C  
HETATM   15  C   UNL     1      -6.982   6.398  73.042  1.00  0.00    -0.074 C  
HETATM   16  C   UNL     1      -7.185   7.917  73.172  1.00  0.00    -0.121 C  
HETATM   17  C   UNL     1      -8.289   8.190  74.205  1.00  0.00    -0.286 C  
HETATM   18  C   UNL     1      -7.615   8.489  71.807  1.00  0.00    -0.147 C  
HETATM   19  C   UNL     1      -9.603   7.533  73.757  1.00  0.00    -0.321 C  
HETATM   20  C   UNL     1     -10.022   8.116  72.399  1.00  0.00    -0.345 C  
HETATM   21  C   UNL     1      -9.395   6.015  73.609  1.00  0.00    -0.135 C  
ENDBRANCH   9  12
ENDBRANCH   7   8
ENDBRANCH   6   7
ENDBRANCH   5   6
ENDBRANCH   4   5
ENDBRANCH   2   4
TORSDOF 6
ENDMDL
MODEL      176
REMARK 921   NORMALIZED FREE ENERGY PREDICTED BY IDOCK:   -3.18 KCAL/MOL
REMARK 922        TOTAL FREE ENERGY PREDICTED BY IDOCK:   -4.13 KCAL/MOL
REMARK 923 INTER-LIGAND FREE ENERGY PREDICTED BY IDOCK:   -4.18 KCAL/MOL
REMARK 924 INTRA-LIGAND FREE ENERGY PREDICTED BY IDOCK:    0.05 KCAL/MOL
REMARK 927      BINDING AFFINITY PREDICTED BY RF-SCORE:    0.00 PKD
ROOT
HETATM    1  C   UNL     1      -8.242   2.718  66.605  1.00  0.00    -0.084 C  
HETATM    2  N   UNL     1      -8.363   3.677  65.503  1.00  0.00    -0.104 NA 
HETATM    3  C   UNL     1      -9.640   3.477  64.815  1.00  0.00    -0.168 C  
ENDROOT
BRANCH   2   4
HETATM    4  C   UNL     1      -8.222   5.050  66.027  1.00  0.00    -0.113 C  
BRANCH   4   5
HETATM    5  C   UNL     1      -6.776   5.478  66.321  1.00  0.00    -0.057 C  
BRANCH   5   6
HETATM    6  O   UNL     1      -6.787   6.749  66.980  1.00  0.00    -0.064 OA 
BRANCH   6   7
HETATM    7  C   UNL     1      -8.116   7.243  67.113  1.00  0.00    -0.114 C  
BRANCH   7   8
HETATM    8  C   UNL     1      -8.482   7.440  68.580  1.00  0.00    -0.125 C  
HETATM    9  N   UNL     1      -9.720   6.920  68.915  1.00  0.00    -0.142 N  
HETATM   10  O   UNL     1      -7.711   7.968  69.374  1.00  0.00    -0.099 OA 
HETATM   11  H   UNL     1     -10.258   6.460  68.182  1.00  0.00     0.000 HD 
BRANCH   9  12
HETATM   12  C   UNL     1     -10.309   6.988  70.255  1.00  0.00    -0.203 C  
HETATM   13  C   UNL     1      -9.488   6.170  71.283  1.00  0.00    -0.177 C  
HETATM   14  C   UNL     1     -10.116   6.278  72.683  1.00  0.00    -0.192 C  
HETATM   15  C   UNL     1     -10.125   7.749  73.126  1.00  0.00    -0.390 C  
HETATM   16  C   UNL     1     -10.942   8.593  72.132  1.00  0.00    -0.434 C  
HETATM   17  C   UNL     1     -12.384   8.065  72.092  1.00  0.00    -0.358 C  
HETATM   18  C   UNL     1     -10.317   8.467  70.729  1.00  0.00    -0.238 C  
HETATM   19  C   UNL     1     -12.395   6.595  71.648  1.00  0.00    -0.382 C  
HETATM   20  C   UNL     1     -11.774   6.486  70.246  1.00  0.00    -0.430 C  
HETATM   21  C   UNL     1     -11.562   5.754  72.632  1.00  0.00    -0.304 C  
ENDBRANCH   9  12
ENDBRANCH   7   8
ENDBRANCH   6   7
ENDBRANCH   5   6
ENDBRANCH   4   5
ENDBRANCH   2   4
TORSDOF 6
ENDMDL
MODEL      177
REMARK 921   NORMALIZED FREE ENERGY PREDICTED BY IDOCK:   -3.15 KCAL/MOL
REMARK 922        TOTAL FREE ENERGY PREDICTED BY IDOCK:   -4.10 KCAL/MOL
REMARK 923 INTER-LIGAND FREE ENERGY PREDICTED BY IDOCK:   -4.15 KCAL/MOL
REMARK 924 INTRA-LIGAND FREE ENERGY PREDICTED BY IDOCK:    0.05 KCAL/MOL
REMARK 927      BINDING AFFINITY PREDICTED BY RF-SCORE:    0.00 PKD
ROOT
HETATM    1  C   UNL     1     -10.634  15.309  65.242  1.00  0.00    -0.417 C  
HETATM    2  N   UNL     1     -10.688  14.869  66.639  1.00  0.00    -0.306 NA 
HETATM    3  C   UNL     1     -10.557  16.028  67.525  1.00  0.00    -0.313 C  
ENDROOT
BRANCH   2   4
HETATM    4  C   UNL     1     -11.943  14.127  66.874  1.00  0.00    -0.449 C  
BRANCH   4   5
HETATM    5  C   UNL     1     -11.829  12.981  67.891  1.00  0.00    -0.343 C  
BRANCH   5   6
HETATM    6  O   UNL     1     -12.113  11.741  67.234  1.00  0.00    -0.595 OA 
BRANCH   6   7
HETATM    7  C   UNL     1     -11.200  10.727  67.641  1.00  0.00    -0.299 C  
BRANCH   7   8
HETATM    8  C   UNL     1     -10.208  10.408  66.527  1.00  0.00    -0.229 C  
HETATM    9  N   UNL     1      -9.046   9.807  66.977  1.00  0.00    -0.137 N  
HETATM   10  O   UNL     1     -10.465  10.629  65.349  1.00  0.00    -0.258 OA 
HETATM   11  H   UNL     1      -8.959   9.628  67.978  1.00  0.00     0.000 HD 
BRANCH   9  12
HETATM   12  C   UNL     1      -7.931   9.412  66.113  1.00  0.00    -0.110 C  
HETATM   13  C   UNL     1      -6.694   8.977  66.938  1.00  0.00    -0.072 C  
HETATM   14  C   UNL     1      -5.548   8.545  66.005  1.00  0.00    -0.042 C  
HETATM   15  C   UNL     1      -6.008   7.354  65.151  1.00  0.00    -0.038 C  
HETATM   16  C   UNL     1      -7.232   7.753  64.308  1.00  0.00    -0.079 C  
HETATM   17  C   UNL     1      -6.849   8.922  63.387  1.00  0.00    -0.089 C  
HETATM   18  C   UNL     1      -8.370   8.199  65.247  1.00  0.00    -0.160 C  
HETATM   19  C   UNL     1      -6.390  10.123  64.226  1.00  0.00    -0.126 C  
HETATM   20  C   UNL     1      -7.535  10.560  65.152  1.00  0.00    -0.036 C  
HETATM   21  C   UNL     1      -5.177   9.719  65.083  1.00  0.00    -0.047 C  
ENDBRANCH   9  12
ENDBRANCH   7   8
ENDBRANCH   6   7
ENDBRANCH   5   6
ENDBRANCH   4   5
ENDBRANCH   2   4
TORSDOF 6
ENDMDL
MODEL      178
REMARK 921   NORMALIZED FREE ENERGY PREDICTED BY IDOCK:   -3.15 KCAL/MOL
REMARK 922        TOTAL FREE ENERGY PREDICTED BY IDOCK:   -4.09 KCAL/MOL
REMARK 923 INTER-LIGAND FREE ENERGY PREDICTED BY IDOCK:   -3.85 KCAL/MOL
REMARK 924 INTRA-LIGAND FREE ENERGY PREDICTED BY IDOCK:   -0.24 KCAL/MOL
REMARK 927      BINDING AFFINITY PREDICTED BY RF-SCORE:    0.00 PKD
ROOT
HETATM    1  C   UNL     1      -7.238  11.227  69.291  1.00  0.00    -0.094 C  
HETATM    2  N   UNL     1      -7.473  12.087  68.127  1.00  0.00    -0.103 NA 
HETATM    3  C   UNL     1      -7.699  11.258  66.941  1.00  0.00    -0.152 C  
ENDROOT
BRANCH   2   4
HETATM    4  C   UNL     1      -8.610  12.988  68.403  1.00  0.00    -0.116 C  
BRANCH   4   5
HETATM    5  C   UNL     1      -9.916  12.607  67.690  1.00  0.00    -0.216 C  
BRANCH   5   6
HETATM    6  O   UNL     1     -10.862  12.145  68.660  1.00  0.00    -0.219 OA 
BRANCH   6   7
HETATM    7  C   UNL     1     -11.477  10.932  68.235  1.00  0.00    -0.305 C  
BRANCH   7   8
HETATM    8  C   UNL     1     -10.939   9.742  69.022  1.00  0.00    -0.163 C  
HETATM    9  N   UNL     1     -10.542   8.685  68.223  1.00  0.00    -0.390 N  
HETATM   10  O   UNL     1     -10.834   9.769  70.243  1.00  0.00    -0.254 OA 
HETATM   11  H   UNL     1     -10.632   8.791  67.213  1.00  0.00     0.000 HD 
BRANCH   9  12
HETATM   12  C   UNL     1     -10.001   7.422  68.731  1.00  0.00    -0.169 C  
HETATM   13  C   UNL     1      -9.533   6.496  67.581  1.00  0.00    -0.126 C  
HETATM   14  C   UNL     1      -8.949   5.189  68.145  1.00  0.00    -0.118 C  
HETATM   15  C   UNL     1      -7.739   5.513  69.034  1.00  0.00    -0.087 C  
HETATM   16  C   UNL     1      -8.169   6.425  70.196  1.00  0.00    -0.129 C  
HETATM   17  C   UNL     1      -9.236   5.702  71.033  1.00  0.00    -0.173 C  
HETATM   18  C   UNL     1      -8.767   7.724  69.625  1.00  0.00    -0.135 C  
HETATM   19  C   UNL     1     -10.455   5.373  70.160  1.00  0.00    -0.361 C  
HETATM   20  C   UNL     1     -11.044   6.678  69.602  1.00  0.00    -0.390 C  
HETATM   21  C   UNL     1     -10.022   4.476  68.986  1.00  0.00    -0.151 C  
ENDBRANCH   9  12
ENDBRANCH   7   8
ENDBRANCH   6   7
ENDBRANCH   5   6
ENDBRANCH   4   5
ENDBRANCH   2   4
TORSDOF 6
ENDMDL
MODEL      179
REMARK 921   NORMALIZED FREE ENERGY PREDICTED BY IDOCK:   -3.15 KCAL/MOL
REMARK 922        TOTAL FREE ENERGY PREDICTED BY IDOCK:   -4.08 KCAL/MOL
REMARK 923 INTER-LIGAND FREE ENERGY PREDICTED BY IDOCK:   -4.25 KCAL/MOL
REMARK 924 INTRA-LIGAND FREE ENERGY PREDICTED BY IDOCK:    0.17 KCAL/MOL
REMARK 927      BINDING AFFINITY PREDICTED BY RF-SCORE:    0.00 PKD
ROOT
HETATM    1  C   UNL     1      -9.399   2.771  68.627  1.00  0.00    -0.176 C  
HETATM    2  N   UNL     1      -8.342   3.142  67.680  1.00  0.00    -0.080 NA 
HETATM    3  C   UNL     1      -8.350   2.213  66.548  1.00  0.00    -0.094 C  
ENDROOT
BRANCH   2   4
HETATM    4  C   UNL     1      -8.532   4.542  67.254  1.00  0.00    -0.104 C  
BRANCH   4   5
HETATM    5  C   UNL     1      -9.968   5.069  67.404  1.00  0.00    -0.177 C  
BRANCH   5   6
HETATM    6  O   UNL     1      -9.925   6.421  67.873  1.00  0.00    -0.123 OA 
BRANCH   6   7
HETATM    7  C   UNL     1      -9.948   7.339  66.784  1.00  0.00    -0.217 C  
BRANCH   7   8
HETATM    8  C   UNL     1      -9.729   8.768  67.271  1.00  0.00    -0.183 C  
HETATM    9  N   UNL     1     -10.495   9.704  66.600  1.00  0.00    -0.197 N  
HETATM   10  O   UNL     1      -8.976   9.025  68.204  1.00  0.00    -0.133 OA 
HETATM   11  H   UNL     1     -11.124   9.370  65.870  1.00  0.00     0.000 HD 
BRANCH   9  12
HETATM   12  C   UNL     1     -10.463  11.144  66.868  1.00  0.00    -0.246 C  
HETATM   13  C   UNL     1     -11.512  11.907  66.021  1.00  0.00    -0.344 C  
HETATM   14  C   UNL     1     -11.471  13.412  66.339  1.00  0.00    -0.359 C  
HETATM   15  C   UNL     1     -11.796  13.626  67.825  1.00  0.00    -0.403 C  
HETATM   16  C   UNL     1     -10.767  12.890  68.700  1.00  0.00    -0.273 C  
HETATM   17  C   UNL     1      -9.365  13.443  68.400  1.00  0.00    -0.165 C  
HETATM   18  C   UNL     1     -10.801  11.386  68.365  1.00  0.00    -0.248 C  
HETATM   19  C   UNL     1      -9.023  13.233  66.918  1.00  0.00    -0.212 C  
HETATM   20  C   UNL     1      -9.055  11.731  66.600  1.00  0.00    -0.194 C  
HETATM   21  C   UNL     1     -10.063  13.954  66.043  1.00  0.00    -0.324 C  
ENDBRANCH   9  12
ENDBRANCH   7   8
ENDBRANCH   6   7
ENDBRANCH   5   6
ENDBRANCH   4   5
ENDBRANCH   2   4
TORSDOF 6
ENDMDL
MODEL      180
REMARK 921   NORMALIZED FREE ENERGY PREDICTED BY IDOCK:   -3.14 KCAL/MOL
REMARK 922        TOTAL FREE ENERGY PREDICTED BY IDOCK:   -4.08 KCAL/MOL
REMARK 923 INTER-LIGAND FREE ENERGY PREDICTED BY IDOCK:   -3.97 KCAL/MOL
REMARK 924 INTRA-LIGAND FREE ENERGY PREDICTED BY IDOCK:   -0.12 KCAL/MOL
REMARK 927      BINDING AFFINITY PREDICTED BY RF-SCORE:    0.00 PKD
ROOT
HETATM    1  C   UNL     1     -10.533   7.298  68.923  1.00  0.00    -0.206 C  
HETATM    2  N   UNL     1      -9.516   7.856  69.820  1.00  0.00    -0.163 NA 
HETATM    3  C   UNL     1      -8.332   8.234  69.047  1.00  0.00    -0.120 C  
ENDROOT
BRANCH   2   4
HETATM    4  C   UNL     1     -10.087   8.999  70.560  1.00  0.00    -0.215 C  
BRANCH   4   5
HETATM    5  C   UNL     1     -11.615   8.963  70.715  1.00  0.00    -0.259 C  
BRANCH   5   6
HETATM    6  O   UNL     1     -11.953   8.135  71.834  1.00  0.00    -0.286 OA 
BRANCH   6   7
HETATM    7  C   UNL     1     -10.922   8.158  72.816  1.00  0.00    -0.330 C  
BRANCH   7   8
HETATM    8  C   UNL     1     -10.542   6.744  73.241  1.00  0.00    -0.309 C  
HETATM    9  N   UNL     1     -10.225   5.914  72.181  1.00  0.00    -0.191 N  
HETATM   10  O   UNL     1     -10.485   6.417  74.421  1.00  0.00    -0.304 OA 
HETATM   11  H   UNL     1     -10.262   6.307  71.241  1.00  0.00     0.000 HD 
BRANCH   9  12
HETATM   12  C   UNL     1      -9.838   4.508  72.319  1.00  0.00    -0.170 C  
HETATM   13  C   UNL     1      -9.879   3.768  70.958  1.00  0.00    -0.204 C  
HETATM   14  C   UNL     1      -9.447   2.301  71.129  1.00  0.00    -0.218 C  
HETATM   15  C   UNL     1      -8.009   2.253  71.668  1.00  0.00    -0.044 C  
HETATM   16  C   UNL     1      -7.932   2.971  73.026  1.00  0.00    -0.060 C  
HETATM   17  C   UNL     1      -8.871   2.269  74.019  1.00  0.00    -0.073 C  
HETATM   18  C   UNL     1      -8.381   4.434  72.851  1.00  0.00    -0.099 C  
HETATM   19  C   UNL     1     -10.314   2.311  73.498  1.00  0.00    -0.204 C  
HETATM   20  C   UNL     1     -10.750   3.775  73.333  1.00  0.00    -0.297 C  
HETATM   21  C   UNL     1     -10.388   1.609  72.130  1.00  0.00    -0.214 C  
ENDBRANCH   9  12
ENDBRANCH   7   8
ENDBRANCH   6   7
ENDBRANCH   5   6
ENDBRANCH   4   5
ENDBRANCH   2   4
TORSDOF 6
ENDMDL
MODEL      181
REMARK 921   NORMALIZED FREE ENERGY PREDICTED BY IDOCK:   -3.14 KCAL/MOL
REMARK 922        TOTAL FREE ENERGY PREDICTED BY IDOCK:   -4.08 KCAL/MOL
REMARK 923 INTER-LIGAND FREE ENERGY PREDICTED BY IDOCK:   -4.08 KCAL/MOL
REMARK 924 INTRA-LIGAND FREE ENERGY PREDICTED BY IDOCK:    0.00 KCAL/MOL
REMARK 927      BINDING AFFINITY PREDICTED BY RF-SCORE:    0.00 PKD
ROOT
HETATM    1  C   UNL     1      -8.641   5.656  74.177  1.00  0.00    -0.116 C  
HETATM    2  N   UNL     1      -8.404   5.362  72.761  1.00  0.00    -0.113 NA 
HETATM    3  C   UNL     1      -7.567   4.165  72.641  1.00  0.00    -0.075 C  
ENDROOT
BRANCH   2   4
HETATM    4  C   UNL     1      -9.698   5.209  72.067  1.00  0.00    -0.159 C  
BRANCH   4   5
HETATM    5  C   UNL     1     -10.643   6.413  72.201  1.00  0.00    -0.220 C  
BRANCH   5   6
HETATM    6  O   UNL     1     -11.453   6.507  71.024  1.00  0.00    -0.302 OA 
BRANCH   6   7
HETATM    7  C   UNL     1     -10.861   5.799  69.939  1.00  0.00    -0.347 C  
BRANCH   7   8
HETATM    8  C   UNL     1     -10.658   6.714  68.736  1.00  0.00    -0.236 C  
HETATM    9  N   UNL     1      -9.837   7.796  68.997  1.00  0.00    -0.165 N  
HETATM   10  O   UNL     1     -11.150   6.462  67.642  1.00  0.00    -0.339 OA 
HETATM   11  H   UNL     1      -9.444   7.881  69.934  1.00  0.00     0.000 HD 
BRANCH   9  12
HETATM   12  C   UNL     1      -9.493   8.828  68.015  1.00  0.00    -0.143 C  
HETATM   13  C   UNL     1      -8.939   8.211  66.707  1.00  0.00    -0.172 C  
HETATM   14  C   UNL     1      -8.608   9.315  65.688  1.00  0.00    -0.172 C  
HETATM   15  C   UNL     1      -9.886  10.099  65.354  1.00  0.00    -0.375 C  
HETATM   16  C   UNL     1     -10.461  10.737  66.631  1.00  0.00    -0.302 C  
HETATM   17  C   UNL     1      -9.418  11.694  67.228  1.00  0.00    -0.173 C  
HETATM   18  C   UNL     1     -10.775   9.627  67.653  1.00  0.00    -0.324 C  
HETATM   19  C   UNL     1      -8.134  10.926  67.571  1.00  0.00    -0.116 C  
HETATM   20  C   UNL     1      -8.460   9.827  68.594  1.00  0.00    -0.116 C  
HETATM   21  C   UNL     1      -7.569  10.272  66.297  1.00  0.00    -0.117 C  
ENDBRANCH   9  12
ENDBRANCH   7   8
ENDBRANCH   6   7
ENDBRANCH   5   6
ENDBRANCH   4   5
ENDBRANCH   2   4
TORSDOF 6
ENDMDL
MODEL      182
REMARK 921   NORMALIZED FREE ENERGY PREDICTED BY IDOCK:   -3.13 KCAL/MOL
REMARK 922        TOTAL FREE ENERGY PREDICTED BY IDOCK:   -4.06 KCAL/MOL
REMARK 923 INTER-LIGAND FREE ENERGY PREDICTED BY IDOCK:   -4.27 KCAL/MOL
REMARK 924 INTRA-LIGAND FREE ENERGY PREDICTED BY IDOCK:    0.21 KCAL/MOL
REMARK 927      BINDING AFFINITY PREDICTED BY RF-SCORE:    0.00 PKD
ROOT
HETATM    1  C   UNL     1     -10.251  12.236  65.172  1.00  0.00    -0.279 C  
HETATM    2  N   UNL     1      -9.339  11.163  65.582  1.00  0.00    -0.214 NA 
HETATM    3  C   UNL     1      -8.988  11.330  66.994  1.00  0.00    -0.154 C  
ENDROOT
BRANCH   2   4
HETATM    4  C   UNL     1      -9.967   9.854  65.314  1.00  0.00    -0.249 C  
BRANCH   4   5
HETATM    5  C   UNL     1     -10.321   9.045  66.571  1.00  0.00    -0.193 C  
BRANCH   5   6
HETATM    6  O   UNL     1      -9.642   7.786  66.525  1.00  0.00    -0.202 OA 
BRANCH   6   7
HETATM    7  C   UNL     1      -8.392   7.855  67.206  1.00  0.00    -0.122 C  
BRANCH   7   8
HETATM    8  C   UNL     1      -8.597   8.054  68.704  1.00  0.00    -0.128 C  
HETATM    9  N   UNL     1      -9.313   7.034  69.305  1.00  0.00    -0.146 N  
HETATM   10  O   UNL     1      -8.118   9.013  69.299  1.00  0.00    -0.100 OA 
HETATM   11  H   UNL     1      -9.623   6.260  68.718  1.00  0.00     0.000 HD 
BRANCH   9  12
HETATM   12  C   UNL     1      -9.654   6.992  70.729  1.00  0.00    -0.164 C  
HETATM   13  C   UNL     1      -9.791   8.415  71.326  1.00  0.00    -0.255 C  
HETATM   14  C   UNL     1     -10.172   8.340  72.815  1.00  0.00    -0.325 C  
HETATM   15  C   UNL     1     -11.520   7.619  72.960  1.00  0.00    -0.265 C  
HETATM   16  C   UNL     1     -11.420   6.196  72.385  1.00  0.00    -0.349 C  
HETATM   17  C   UNL     1     -10.342   5.417  73.155  1.00  0.00    -0.231 C  
HETATM   18  C   UNL     1     -11.023   6.277  70.899  1.00  0.00    -0.344 C  
HETATM   19  C   UNL     1      -8.985   6.123  73.018  1.00  0.00    -0.131 C  
HETATM   20  C   UNL     1      -8.599   6.193  71.533  1.00  0.00    -0.131 C  
HETATM   21  C   UNL     1      -9.091   7.554  73.576  1.00  0.00    -0.286 C  
ENDBRANCH   9  12
ENDBRANCH   7   8
ENDBRANCH   6   7
ENDBRANCH   5   6
ENDBRANCH   4   5
ENDBRANCH   2   4
TORSDOF 6
ENDMDL
MODEL      183
REMARK 921   NORMALIZED FREE ENERGY PREDICTED BY IDOCK:   -3.12 KCAL/MOL
REMARK 922        TOTAL FREE ENERGY PREDICTED BY IDOCK:   -4.06 KCAL/MOL
REMARK 923 INTER-LIGAND FREE ENERGY PREDICTED BY IDOCK:   -3.95 KCAL/MOL
REMARK 924 INTRA-LIGAND FREE ENERGY PREDICTED BY IDOCK:   -0.10 KCAL/MOL
REMARK 927      BINDING AFFINITY PREDICTED BY RF-SCORE:    0.00 PKD
ROOT
HETATM    1  C   UNL     1     -10.188  18.618  67.390  1.00  0.00    -0.384 C  
HETATM    2  N   UNL     1      -8.800  18.485  66.934  1.00  0.00    -0.275 NA 
HETATM    3  C   UNL     1      -8.387  19.716  66.255  1.00  0.00    -0.352 C  
ENDROOT
BRANCH   2   4
HETATM    4  C   UNL     1      -7.933  18.165  68.085  1.00  0.00    -0.283 C  
BRANCH   4   5
HETATM    5  C   UNL     1      -7.007  16.958  67.873  1.00  0.00    -0.148 C  
BRANCH   5   6
HETATM    6  O   UNL     1      -7.762  15.753  68.041  1.00  0.00    -0.124 OA 
BRANCH   6   7
HETATM    7  C   UNL     1      -8.115  15.558  69.407  1.00  0.00    -0.241 C  
BRANCH   7   8
HETATM    8  C   UNL     1      -9.607  15.278  69.551  1.00  0.00    -0.215 C  
HETATM    9  N   UNL     1     -10.040  15.248  70.865  1.00  0.00    -0.117 N  
HETATM   10  O   UNL     1     -10.338  15.147  68.575  1.00  0.00    -0.221 OA 
HETATM   11  H   UNL     1      -9.351  15.417  71.597  1.00  0.00     0.000 HD 
BRANCH   9  12
HETATM   12  C   UNL     1     -11.422  14.988  71.274  1.00  0.00    -0.311 C  
HETATM   13  C   UNL     1     -12.416  15.949  70.575  1.00  0.00    -0.241 C  
HETATM   14  C   UNL     1     -13.860  15.639  71.006  1.00  0.00    -0.027 C  
HETATM   15  C   UNL     1     -14.212  14.198  70.605  1.00  0.00     1.049 C  
HETATM   16  C   UNL     1     -13.250  13.212  71.290  1.00  0.00    -0.202 C  
HETATM   17  C   UNL     1     -13.378  13.362  72.814  1.00  0.00    -0.323 C  
HETATM   18  C   UNL     1     -11.805  13.538  70.868  1.00  0.00    -0.015 C  
HETATM   19  C   UNL     1     -13.026  14.797  73.233  1.00  0.00    -0.608 C  
HETATM   20  C   UNL     1     -11.582  15.106  72.810  1.00  0.00    -0.380 C  
HETATM   21  C   UNL     1     -13.976  15.785  72.533  1.00  0.00    -0.535 C  
ENDBRANCH   9  12
ENDBRANCH   7   8
ENDBRANCH   6   7
ENDBRANCH   5   6
ENDBRANCH   4   5
ENDBRANCH   2   4
TORSDOF 6
ENDMDL
MODEL      184
REMARK 921   NORMALIZED FREE ENERGY PREDICTED BY IDOCK:   -3.12 KCAL/MOL
REMARK 922        TOTAL FREE ENERGY PREDICTED BY IDOCK:   -4.06 KCAL/MOL
REMARK 923 INTER-LIGAND FREE ENERGY PREDICTED BY IDOCK:   -4.06 KCAL/MOL
REMARK 924 INTRA-LIGAND FREE ENERGY PREDICTED BY IDOCK:    0.00 KCAL/MOL
REMARK 927      BINDING AFFINITY PREDICTED BY RF-SCORE:    0.00 PKD
ROOT
HETATM    1  C   UNL     1      -6.949   2.213  63.775  1.00  0.00    -0.036 C  
HETATM    2  N   UNL     1      -7.704   2.650  64.953  1.00  0.00    -0.076 NA 
HETATM    3  C   UNL     1      -9.076   2.143  64.874  1.00  0.00    -0.130 C  
ENDROOT
BRANCH   2   4
HETATM    4  C   UNL     1      -7.012   2.198  66.177  1.00  0.00    -0.044 C  
BRANCH   4   5
HETATM    5  C   UNL     1      -7.945   1.837  67.343  1.00  0.00    -0.065 C  
BRANCH   5   6
HETATM    6  O   UNL     1      -8.029   2.951  68.239  1.00  0.00    -0.061 OA 
BRANCH   6   7
HETATM    7  C   UNL     1      -9.369   3.154  68.677  1.00  0.00    -0.171 C  
BRANCH   7   8
HETATM    8  C   UNL     1      -9.605   4.612  69.055  1.00  0.00    -0.172 C  
HETATM    9  N   UNL     1      -9.886   4.798  70.396  1.00  0.00    -0.220 N  
HETATM   10  O   UNL     1      -9.501   5.518  68.234  1.00  0.00    -0.109 OA 
HETATM   11  H   UNL     1      -9.901   3.974  70.998  1.00  0.00     0.000 HD 
BRANCH   9  12
HETATM   12  C   UNL     1     -10.162   6.098  71.011  1.00  0.00    -0.196 C  
HETATM   13  C   UNL     1     -11.320   6.836  70.293  1.00  0.00    -0.404 C  
HETATM   14  C   UNL     1     -11.603   8.187  70.973  1.00  0.00    -0.301 C  
HETATM   15  C   UNL     1     -12.011   7.945  72.434  1.00  0.00    -0.373 C  
HETATM   16  C   UNL     1     -10.878   7.222  73.183  1.00  0.00    -0.401 C  
HETATM   17  C   UNL     1      -9.614   8.094  73.145  1.00  0.00    -0.307 C  
HETATM   18  C   UNL     1     -10.589   5.878  72.488  1.00  0.00    -0.256 C  
HETATM   19  C   UNL     1      -9.190   8.343  71.690  1.00  0.00    -0.271 C  
HETATM   20  C   UNL     1      -8.900   6.995  71.012  1.00  0.00    -0.146 C  
HETATM   21  C   UNL     1     -10.330   9.049  70.936  1.00  0.00    -0.323 C  
ENDBRANCH   9  12
ENDBRANCH   7   8
ENDBRANCH   6   7
ENDBRANCH   5   6
ENDBRANCH   4   5
ENDBRANCH   2   4
TORSDOF 6
ENDMDL
MODEL      185
REMARK 921   NORMALIZED FREE ENERGY PREDICTED BY IDOCK:   -3.08 KCAL/MOL
REMARK 922        TOTAL FREE ENERGY PREDICTED BY IDOCK:   -4.00 KCAL/MOL
REMARK 923 INTER-LIGAND FREE ENERGY PREDICTED BY IDOCK:   -4.13 KCAL/MOL
REMARK 924 INTRA-LIGAND FREE ENERGY PREDICTED BY IDOCK:    0.13 KCAL/MOL
REMARK 927      BINDING AFFINITY PREDICTED BY RF-SCORE:    0.00 PKD
ROOT
HETATM    1  C   UNL     1     -11.728  14.588  64.871  1.00  0.00    -0.402 C  
HETATM    2  N   UNL     1     -10.369  14.296  65.339  1.00  0.00    -0.348 NA 
HETATM    3  C   UNL     1      -9.698  15.545  65.709  1.00  0.00    -0.348 C  
ENDROOT
BRANCH   2   4
HETATM    4  C   UNL     1     -10.430  13.342  66.464  1.00  0.00    -0.283 C  
BRANCH   4   5
HETATM    5  C   UNL     1      -9.551  12.094  66.294  1.00  0.00    -0.237 C  
BRANCH   5   6
HETATM    6  O   UNL     1     -10.371  10.996  65.880  1.00  0.00    -0.249 OA 
BRANCH   6   7
HETATM    7  C   UNL     1      -9.580   9.845  65.600  1.00  0.00    -0.256 C  
BRANCH   7   8
HETATM    8  C   UNL     1      -9.826   8.749  66.631  1.00  0.00    -0.265 C  
HETATM    9  N   UNL     1      -8.723   7.944  66.856  1.00  0.00    -0.127 N  
HETATM   10  O   UNL     1     -10.894   8.648  67.225  1.00  0.00    -0.217 OA 
HETATM   11  H   UNL     1      -7.870   8.151  66.337  1.00  0.00     0.000 HD 
BRANCH   9  12
HETATM   12  C   UNL     1      -8.701   6.815  67.788  1.00  0.00    -0.120 C  
HETATM   13  C   UNL     1      -7.337   6.080  67.764  1.00  0.00    -0.077 C  
HETATM   14  C   UNL     1      -7.334   4.915  68.768  1.00  0.00    -0.061 C  
HETATM   15  C   UNL     1      -7.568   5.462  70.184  1.00  0.00    -0.073 C  
HETATM   16  C   UNL     1      -8.921   6.191  70.250  1.00  0.00    -0.154 C  
HETATM   17  C   UNL     1     -10.042   5.202  69.895  1.00  0.00    -0.342 C  
HETATM   18  C   UNL     1      -8.923   7.347  69.231  1.00  0.00    -0.136 C  
HETATM   19  C   UNL     1      -9.826   4.647  68.480  1.00  0.00    -0.181 C  
HETATM   20  C   UNL     1      -9.836   5.809  67.475  1.00  0.00    -0.145 C  
HETATM   21  C   UNL     1      -8.464   3.934  68.409  1.00  0.00    -0.107 C  
ENDBRANCH   9  12
ENDBRANCH   7   8
ENDBRANCH   6   7
ENDBRANCH   5   6
ENDBRANCH   4   5
ENDBRANCH   2   4
TORSDOF 6
ENDMDL
MODEL      186
REMARK 921   NORMALIZED FREE ENERGY PREDICTED BY IDOCK:   -3.07 KCAL/MOL
REMARK 922        TOTAL FREE ENERGY PREDICTED BY IDOCK:   -3.99 KCAL/MOL
REMARK 923 INTER-LIGAND FREE ENERGY PREDICTED BY IDOCK:   -3.91 KCAL/MOL
REMARK 924 INTRA-LIGAND FREE ENERGY PREDICTED BY IDOCK:   -0.08 KCAL/MOL
REMARK 927      BINDING AFFINITY PREDICTED BY RF-SCORE:    0.00 PKD
ROOT
HETATM    1  C   UNL     1     -11.662   9.699  70.843  1.00  0.00    -0.334 C  
HETATM    2  N   UNL     1     -12.548   9.391  71.969  1.00  0.00    -0.383 NA 
HETATM    3  C   UNL     1     -13.942   9.432  71.523  1.00  0.00    -0.158 C  
ENDROOT
BRANCH   2   4
HETATM    4  C   UNL     1     -12.183   8.078  72.538  1.00  0.00    -0.242 C  
BRANCH   4   5
HETATM    5  C   UNL     1     -10.716   7.956  72.978  1.00  0.00    -0.342 C  
BRANCH   5   6
HETATM    6  O   UNL     1     -10.404   6.575  73.190  1.00  0.00    -0.200 OA 
BRANCH   6   7
HETATM    7  C   UNL     1     -11.032   5.753  72.211  1.00  0.00    -0.262 C  
BRANCH   7   8
HETATM    8  C   UNL     1     -10.058   5.394  71.094  1.00  0.00    -0.212 C  
HETATM    9  N   UNL     1     -10.555   5.640  69.827  1.00  0.00    -0.307 N  
HETATM   10  O   UNL     1      -8.930   4.974  71.329  1.00  0.00    -0.133 OA 
HETATM   11  H   UNL     1     -11.492   6.035  69.751  1.00  0.00     0.000 HD 
BRANCH   9  12
HETATM   12  C   UNL     1      -9.824   5.372  68.586  1.00  0.00    -0.148 C  
HETATM   13  C   UNL     1      -9.806   3.861  68.248  1.00  0.00    -0.028 C  
HETATM   14  C   UNL     1      -9.052   3.611  66.930  1.00  0.00    -0.182 C  
HETATM   15  C   UNL     1      -9.761   4.357  65.789  1.00  0.00    -0.213 C  
HETATM   16  C   UNL     1      -9.790   5.867  66.086  1.00  0.00    -0.058 C  
HETATM   17  C   UNL     1      -8.347   6.381  66.211  1.00  0.00    -0.123 C  
HETATM   18  C   UNL     1     -10.531   6.108  67.415  1.00  0.00    -0.309 C  
HETATM   19  C   UNL     1      -7.624   5.648  67.349  1.00  0.00    -0.089 C  
HETATM   20  C   UNL     1      -8.371   5.901  68.668  1.00  0.00    -0.109 C  
HETATM   21  C   UNL     1      -7.612   4.136  67.062  1.00  0.00    -0.077 C  
ENDBRANCH   9  12
ENDBRANCH   7   8
ENDBRANCH   6   7
ENDBRANCH   5   6
ENDBRANCH   4   5
ENDBRANCH   2   4
TORSDOF 6
ENDMDL
MODEL      187
REMARK 921   NORMALIZED FREE ENERGY PREDICTED BY IDOCK:   -3.07 KCAL/MOL
REMARK 922        TOTAL FREE ENERGY PREDICTED BY IDOCK:   -3.99 KCAL/MOL
REMARK 923 INTER-LIGAND FREE ENERGY PREDICTED BY IDOCK:   -4.36 KCAL/MOL
REMARK 924 INTRA-LIGAND FREE ENERGY PREDICTED BY IDOCK:    0.37 KCAL/MOL
REMARK 927      BINDING AFFINITY PREDICTED BY RF-SCORE:    0.00 PKD
ROOT
HETATM    1  C   UNL     1      -8.319  15.167  67.420  1.00  0.00    -0.186 C  
HETATM    2  N   UNL     1      -8.671  13.799  67.029  1.00  0.00    -0.221 NA 
HETATM    3  C   UNL     1      -7.627  12.875  67.479  1.00  0.00    -0.164 C  
ENDROOT
BRANCH   2   4
HETATM    4  C   UNL     1      -9.996  13.454  67.580  1.00  0.00    -0.230 C  
BRANCH   4   5
HETATM    5  C   UNL     1     -10.605  12.158  67.023  1.00  0.00    -0.228 C  
BRANCH   5   6
HETATM    6  O   UNL     1     -11.837  11.890  67.699  1.00  0.00    -0.534 OA 
BRANCH   6   7
HETATM    7  C   UNL     1     -11.630  11.749  69.101  1.00  0.00    -0.310 C  
BRANCH   7   8
HETATM    8  C   UNL     1     -10.802  10.506  69.409  1.00  0.00    -0.249 C  
HETATM    9  N   UNL     1     -10.970   9.488  68.487  1.00  0.00    -0.441 N  
HETATM   10  O   UNL     1     -10.033  10.461  70.363  1.00  0.00     0.071 OA 
HETATM   11  H   UNL     1     -11.603   9.654  67.705  1.00  0.00     0.000 HD 
BRANCH   9  12
HETATM   12  C   UNL     1     -10.299   8.188  68.560  1.00  0.00    -0.198 C  
HETATM   13  C   UNL     1      -8.785   8.341  68.849  1.00  0.00    -0.137 C  
HETATM   14  C   UNL     1      -8.111   6.961  68.943  1.00  0.00    -0.120 C  
HETATM   15  C   UNL     1      -8.747   6.161  70.089  1.00  0.00    -0.141 C  
HETATM   16  C   UNL     1     -10.253   5.979  69.832  1.00  0.00    -0.265 C  
HETATM   17  C   UNL     1     -10.449   5.219  68.511  1.00  0.00    -0.147 C  
HETATM   18  C   UNL     1     -10.919   7.365  69.722  1.00  0.00    -0.215 C  
HETATM   19  C   UNL     1      -9.821   6.007  67.352  1.00  0.00    -0.147 C  
HETATM   20  C   UNL     1     -10.497   7.383  67.252  1.00  0.00    -0.385 C  
HETATM   21  C   UNL     1      -8.318   6.205  67.619  1.00  0.00    -0.112 C  
ENDBRANCH   9  12
ENDBRANCH   7   8
ENDBRANCH   6   7
ENDBRANCH   5   6
ENDBRANCH   4   5
ENDBRANCH   2   4
TORSDOF 6
ENDMDL
MODEL      188
REMARK 921   NORMALIZED FREE ENERGY PREDICTED BY IDOCK:   -3.07 KCAL/MOL
REMARK 922        TOTAL FREE ENERGY PREDICTED BY IDOCK:   -3.98 KCAL/MOL
REMARK 923 INTER-LIGAND FREE ENERGY PREDICTED BY IDOCK:   -4.12 KCAL/MOL
REMARK 924 INTRA-LIGAND FREE ENERGY PREDICTED BY IDOCK:    0.13 KCAL/MOL
REMARK 927      BINDING AFFINITY PREDICTED BY RF-SCORE:    0.00 PKD
ROOT
HETATM    1  C   UNL     1     -11.755  14.612  64.847  1.00  0.00    -0.403 C  
HETATM    2  N   UNL     1     -10.413  14.323  65.361  1.00  0.00    -0.342 NA 
HETATM    3  C   UNL     1      -9.688  15.578  65.576  1.00  0.00    -0.272 C  
ENDROOT
BRANCH   2   4
HETATM    4  C   UNL     1     -10.520  13.523  66.597  1.00  0.00    -0.274 C  
BRANCH   4   5
HETATM    5  C   UNL     1      -9.762  12.187  66.564  1.00  0.00    -0.223 C  
BRANCH   5   6
HETATM    6  O   UNL     1     -10.701  11.119  66.404  1.00  0.00    -0.261 OA 
BRANCH   6   7
HETATM    7  C   UNL     1     -10.039   9.858  66.371  1.00  0.00    -0.240 C  
BRANCH   7   8
HETATM    8  C   UNL     1     -10.256   9.093  67.672  1.00  0.00    -0.236 C  
HETATM    9  N   UNL     1      -9.198   8.269  68.012  1.00  0.00    -0.137 N  
HETATM   10  O   UNL     1     -11.262   9.251  68.355  1.00  0.00     0.043 OA 
HETATM   11  H   UNL     1      -8.389   8.252  67.391  1.00  0.00     0.000 HD 
BRANCH   9  12
HETATM   12  C   UNL     1      -9.162   7.420  69.205  1.00  0.00    -0.147 C  
HETATM   13  C   UNL     1      -9.551   8.209  70.481  1.00  0.00    -0.177 C  
HETATM   14  C   UNL     1      -9.526   7.288  71.713  1.00  0.00    -0.162 C  
HETATM   15  C   UNL     1     -10.537   6.149  71.517  1.00  0.00    -0.288 C  
HETATM   16  C   UNL     1     -10.176   5.335  70.263  1.00  0.00    -0.345 C  
HETATM   17  C   UNL     1      -8.769   4.742  70.436  1.00  0.00    -0.125 C  
HETATM   18  C   UNL     1     -10.187   6.266  69.035  1.00  0.00    -0.224 C  
HETATM   19  C   UNL     1      -7.744   5.869  70.630  1.00  0.00    -0.097 C  
HETATM   20  C   UNL     1      -7.762   6.785  69.397  1.00  0.00    -0.105 C  
HETATM   21  C   UNL     1      -8.116   6.695  71.874  1.00  0.00    -0.103 C  
ENDBRANCH   9  12
ENDBRANCH   7   8
ENDBRANCH   6   7
ENDBRANCH   5   6
ENDBRANCH   4   5
ENDBRANCH   2   4
TORSDOF 6
ENDMDL
MODEL      189
REMARK 921   NORMALIZED FREE ENERGY PREDICTED BY IDOCK:   -3.05 KCAL/MOL
REMARK 922        TOTAL FREE ENERGY PREDICTED BY IDOCK:   -3.95 KCAL/MOL
REMARK 923 INTER-LIGAND FREE ENERGY PREDICTED BY IDOCK:   -3.86 KCAL/MOL
REMARK 924 INTRA-LIGAND FREE ENERGY PREDICTED BY IDOCK:   -0.10 KCAL/MOL
REMARK 927      BINDING AFFINITY PREDICTED BY RF-SCORE:    0.00 PKD
ROOT
HETATM    1  C   UNL     1      -7.510   4.466  72.203  1.00  0.00    -0.072 C  
HETATM    2  N   UNL     1      -8.966   4.353  72.338  1.00  0.00    -0.118 NA 
HETATM    3  C   UNL     1      -9.366   2.952  72.188  1.00  0.00    -0.107 C  
ENDROOT
BRANCH   2   4
HETATM    4  C   UNL     1      -9.386   4.917  73.636  1.00  0.00    -0.125 C  
BRANCH   4   5
HETATM    5  C   UNL     1     -10.613   5.839  73.567  1.00  0.00    -0.269 C  
BRANCH   5   6
HETATM    6  O   UNL     1     -10.908   6.125  72.196  1.00  0.00    -0.226 OA 
BRANCH   6   7
HETATM    7  C   UNL     1     -11.844   7.193  72.087  1.00  0.00    -0.277 C  
BRANCH   7   8
HETATM    8  C   UNL     1     -11.287   8.322  71.226  1.00  0.00    -0.267 C  
HETATM    9  N   UNL     1     -10.750   7.890  70.027  1.00  0.00    -0.243 N  
HETATM   10  O   UNL     1     -11.367   9.496  71.570  1.00  0.00    -0.372 OA 
HETATM   11  H   UNL     1     -10.780   6.891  69.825  1.00  0.00     0.000 HD 
BRANCH   9  12
HETATM   12  C   UNL     1     -10.142   8.772  69.028  1.00  0.00    -0.198 C  
HETATM   13  C   UNL     1      -9.017   9.642  69.643  1.00  0.00    -0.215 C  
HETATM   14  C   UNL     1      -8.382  10.541  68.568  1.00  0.00    -0.129 C  
HETATM   15  C   UNL     1      -7.771   9.662  67.466  1.00  0.00    -0.095 C  
HETATM   16  C   UNL     1      -8.863   8.789  66.824  1.00  0.00    -0.147 C  
HETATM   17  C   UNL     1      -9.938   9.699  66.211  1.00  0.00    -0.335 C  
HETATM   18  C   UNL     1      -9.506   7.904  67.908  1.00  0.00    -0.160 C  
HETATM   19  C   UNL     1     -10.563  10.583  67.300  1.00  0.00    -0.317 C  
HETATM   20  C   UNL     1     -11.204   9.688  68.371  1.00  0.00    -0.004 C  
HETATM   21  C   UNL     1      -9.467  11.443  67.956  1.00  0.00    -0.181 C  
ENDBRANCH   9  12
ENDBRANCH   7   8
ENDBRANCH   6   7
ENDBRANCH   5   6
ENDBRANCH   4   5
ENDBRANCH   2   4
TORSDOF 6
ENDMDL
MODEL      190
REMARK 921   NORMALIZED FREE ENERGY PREDICTED BY IDOCK:   -3.03 KCAL/MOL
REMARK 922        TOTAL FREE ENERGY PREDICTED BY IDOCK:   -3.93 KCAL/MOL
REMARK 923 INTER-LIGAND FREE ENERGY PREDICTED BY IDOCK:   -4.43 KCAL/MOL
REMARK 924 INTRA-LIGAND FREE ENERGY PREDICTED BY IDOCK:    0.49 KCAL/MOL
REMARK 927      BINDING AFFINITY PREDICTED BY RF-SCORE:    0.00 PKD
ROOT
HETATM    1  C   UNL     1      -9.395   4.741  67.047  1.00  0.00    -0.134 C  
HETATM    2  N   UNL     1      -8.638   5.493  68.052  1.00  0.00    -0.101 NA 
HETATM    3  C   UNL     1      -7.206   5.406  67.755  1.00  0.00    -0.072 C  
ENDROOT
BRANCH   2   4
HETATM    4  C   UNL     1      -9.117   6.890  68.085  1.00  0.00    -0.124 C  
BRANCH   4   5
HETATM    5  C   UNL     1     -10.245   7.204  67.091  1.00  0.00    -0.257 C  
BRANCH   5   6
HETATM    6  O   UNL     1     -10.516   8.609  67.118  1.00  0.00    -0.285 OA 
BRANCH   6   7
HETATM    7  C   UNL     1      -9.934   9.262  65.994  1.00  0.00    -0.255 C  
BRANCH   7   8
HETATM    8  C   UNL     1     -10.258  10.753  66.001  1.00  0.00    -0.251 C  
HETATM    9  N   UNL     1      -9.930  11.384  67.187  1.00  0.00    -0.190 N  
HETATM   10  O   UNL     1     -10.718  11.319  65.016  1.00  0.00    -0.293 OA 
HETATM   11  H   UNL     1      -9.507  10.821  67.925  1.00  0.00     0.000 HD 
BRANCH   9  12
HETATM   12  C   UNL     1     -10.149  12.808  67.454  1.00  0.00    -0.219 C  
HETATM   13  C   UNL     1     -11.165  13.426  66.461  1.00  0.00    -0.327 C  
HETATM   14  C   UNL     1     -11.393  14.914  66.779  1.00  0.00    -0.328 C  
HETATM   15  C   UNL     1     -11.956  15.050  68.201  1.00  0.00    -0.195 C  
HETATM   16  C   UNL     1     -10.967  14.455  69.218  1.00  0.00    -0.281 C  
HETATM   17  C   UNL     1      -9.633  15.212  69.124  1.00  0.00    -0.232 C  
HETATM   18  C   UNL     1     -10.731  12.970  68.885  1.00  0.00    -0.201 C  
HETATM   19  C   UNL     1      -9.054  15.084  67.708  1.00  0.00    -0.180 C  
HETATM   20  C   UNL     1      -8.819  13.599  67.391  1.00  0.00    -0.221 C  
HETATM   21  C   UNL     1     -10.052  15.662  66.689  1.00  0.00    -0.280 C  
ENDBRANCH   9  12
ENDBRANCH   7   8
ENDBRANCH   6   7
ENDBRANCH   5   6
ENDBRANCH   4   5
ENDBRANCH   2   4
TORSDOF 6
ENDMDL
MODEL      191
REMARK 921   NORMALIZED FREE ENERGY PREDICTED BY IDOCK:   -3.01 KCAL/MOL
REMARK 922        TOTAL FREE ENERGY PREDICTED BY IDOCK:   -3.90 KCAL/MOL
REMARK 923 INTER-LIGAND FREE ENERGY PREDICTED BY IDOCK:   -4.02 KCAL/MOL
REMARK 924 INTRA-LIGAND FREE ENERGY PREDICTED BY IDOCK:    0.13 KCAL/MOL
REMARK 927      BINDING AFFINITY PREDICTED BY RF-SCORE:    0.00 PKD
ROOT
HETATM    1  C   UNL     1     -10.303   6.000  74.016  1.00  0.00    -0.291 C  
HETATM    2  N   UNL     1     -10.801   6.395  72.695  1.00  0.00    -0.230 NA 
HETATM    3  C   UNL     1     -11.221   7.797  72.727  1.00  0.00    -0.398 C  
ENDROOT
BRANCH   2   4
HETATM    4  C   UNL     1      -9.756   6.149  71.681  1.00  0.00    -0.158 C  
BRANCH   4   5
HETATM    5  C   UNL     1     -10.217   5.315  70.476  1.00  0.00    -0.264 C  
BRANCH   5   6
HETATM    6  O   UNL     1     -11.214   6.046  69.753  1.00  0.00    -0.394 OA 
BRANCH   6   7
HETATM    7  C   UNL     1     -10.976   5.982  68.350  1.00  0.00    -0.251 C  
BRANCH   7   8
HETATM    8  C   UNL     1     -10.428   7.307  67.829  1.00  0.00    -0.228 C  
HETATM    9  N   UNL     1      -9.537   7.162  66.781  1.00  0.00    -0.170 N  
HETATM   10  O   UNL     1     -10.798   8.384  68.284  1.00  0.00    -0.077 OA 
HETATM   11  H   UNL     1      -9.337   6.218  66.452  1.00  0.00     0.000 HD 
BRANCH   9  12
HETATM   12  C   UNL     1      -8.861   8.276  66.111  1.00  0.00    -0.167 C  
HETATM   13  C   UNL     1      -8.202   7.829  64.782  1.00  0.00    -0.100 C  
HETATM   14  C   UNL     1      -7.521   9.022  64.089  1.00  0.00    -0.110 C  
HETATM   15  C   UNL     1      -8.572  10.097  63.775  1.00  0.00    -0.203 C  
HETATM   16  C   UNL     1      -9.242  10.574  65.075  1.00  0.00    -0.245 C  
HETATM   17  C   UNL     1      -8.171  11.166  66.005  1.00  0.00    -0.094 C  
HETATM   18  C   UNL     1      -9.909   9.372  65.772  1.00  0.00    -0.345 C  
HETATM   19  C   UNL     1      -7.113  10.103  66.332  1.00  0.00    -0.107 C  
HETATM   20  C   UNL     1      -7.790   8.914  67.030  1.00  0.00    -0.102 C  
HETATM   21  C   UNL     1      -6.456   9.612  65.029  1.00  0.00    -0.090 C  
ENDBRANCH   9  12
ENDBRANCH   7   8
ENDBRANCH   6   7
ENDBRANCH   5   6
ENDBRANCH   4   5
ENDBRANCH   2   4
TORSDOF 6
ENDMDL
MODEL      192
REMARK 921   NORMALIZED FREE ENERGY PREDICTED BY IDOCK:   -2.98 KCAL/MOL
REMARK 922        TOTAL FREE ENERGY PREDICTED BY IDOCK:   -3.86 KCAL/MOL
REMARK 923 INTER-LIGAND FREE ENERGY PREDICTED BY IDOCK:   -3.84 KCAL/MOL
REMARK 924 INTRA-LIGAND FREE ENERGY PREDICTED BY IDOCK:   -0.02 KCAL/MOL
REMARK 927      BINDING AFFINITY PREDICTED BY RF-SCORE:    0.00 PKD
ROOT
HETATM    1  C   UNL     1      -8.542   5.815  73.669  1.00  0.00    -0.119 C  
HETATM    2  N   UNL     1      -9.452   6.933  73.939  1.00  0.00    -0.201 NA 
HETATM    3  C   UNL     1      -8.826   8.189  73.516  1.00  0.00    -0.241 C  
ENDROOT
BRANCH   2   4
HETATM    4  C   UNL     1     -10.740   6.695  73.257  1.00  0.00    -0.287 C  
BRANCH   4   5
HETATM    5  C   UNL     1     -11.317   7.921  72.533  1.00  0.00    -0.390 C  
BRANCH   5   6
HETATM    6  O   UNL     1     -11.798   7.520  71.245  1.00  0.00    -0.279 OA 
BRANCH   6   7
HETATM    7  C   UNL     1     -10.869   7.867  70.223  1.00  0.00    -0.241 C  
BRANCH   7   8
HETATM    8  C   UNL     1     -10.535   6.658  69.355  1.00  0.00    -0.219 C  
HETATM    9  N   UNL     1      -9.691   6.951  68.299  1.00  0.00    -0.132 N  
HETATM   10  O   UNL     1     -10.951   5.536  69.622  1.00  0.00    -0.306 OA 
HETATM   11  H   UNL     1      -9.369   7.913  68.200  1.00  0.00     0.000 HD 
BRANCH   9  12
HETATM   12  C   UNL     1      -9.230   5.971  67.313  1.00  0.00    -0.114 C  
HETATM   13  C   UNL     1      -8.180   6.579  66.350  1.00  0.00    -0.116 C  
HETATM   14  C   UNL     1      -7.697   5.523  65.341  1.00  0.00    -0.089 C  
HETATM   15  C   UNL     1      -7.045   4.356  66.099  1.00  0.00    -0.071 C  
HETATM   16  C   UNL     1      -8.062   3.719  67.061  1.00  0.00    -0.095 C  
HETATM   17  C   UNL     1      -9.258   3.194  66.251  1.00  0.00    -0.140 C  
HETATM   18  C   UNL     1      -8.554   4.786  68.057  1.00  0.00    -0.105 C  
HETATM   19  C   UNL     1      -9.925   4.348  65.489  1.00  0.00    -0.242 C  
HETATM   20  C   UNL     1     -10.414   5.401  66.494  1.00  0.00    -0.352 C  
HETATM   21  C   UNL     1      -8.901   4.998  64.540  1.00  0.00    -0.099 C  
ENDBRANCH   9  12
ENDBRANCH   7   8
ENDBRANCH   6   7
ENDBRANCH   5   6
ENDBRANCH   4   5
ENDBRANCH   2   4
TORSDOF 6
ENDMDL
MODEL      193
REMARK 921   NORMALIZED FREE ENERGY PREDICTED BY IDOCK:   -2.96 KCAL/MOL
REMARK 922        TOTAL FREE ENERGY PREDICTED BY IDOCK:   -3.84 KCAL/MOL
REMARK 923 INTER-LIGAND FREE ENERGY PREDICTED BY IDOCK:   -3.44 KCAL/MOL
REMARK 924 INTRA-LIGAND FREE ENERGY PREDICTED BY IDOCK:   -0.40 KCAL/MOL
REMARK 927      BINDING AFFINITY PREDICTED BY RF-SCORE:    0.00 PKD
ROOT
HETATM    1  C   UNL     1      -7.469   3.878  67.762  1.00  0.00    -0.067 C  
HETATM    2  N   UNL     1      -8.845   3.573  67.358  1.00  0.00    -0.118 NA 
HETATM    3  C   UNL     1      -8.875   3.231  65.934  1.00  0.00    -0.137 C  
ENDROOT
BRANCH   2   4
HETATM    4  C   UNL     1      -9.377   2.486  68.203  1.00  0.00    -0.207 C  
BRANCH   4   5
HETATM    5  C   UNL     1      -9.102   2.650  69.706  1.00  0.00    -0.121 C  
BRANCH   5   6
HETATM    6  O   UNL     1      -9.889   3.734  70.211  1.00  0.00    -0.190 OA 
BRANCH   6   7
HETATM    7  C   UNL     1      -9.137   4.529  71.123  1.00  0.00    -0.133 C  
BRANCH   7   8
HETATM    8  C   UNL     1      -8.908   5.930  70.566  1.00  0.00    -0.144 C  
HETATM    9  N   UNL     1      -9.602   6.181  69.397  1.00  0.00    -0.137 N  
HETATM   10  O   UNL     1      -8.208   6.751  71.149  1.00  0.00    -0.117 OA 
HETATM   11  H   UNL     1     -10.193   5.437  69.025  1.00  0.00     0.000 HD 
BRANCH   9  12
HETATM   12  C   UNL     1      -9.545   7.443  68.656  1.00  0.00    -0.146 C  
HETATM   13  C   UNL     1     -10.450   7.410  67.398  1.00  0.00    -0.366 C  
HETATM   14  C   UNL     1     -10.388   8.754  66.653  1.00  0.00    -0.298 C  
HETATM   15  C   UNL     1     -10.884   9.874  67.581  1.00  0.00    -0.318 C  
HETATM   16  C   UNL     1     -10.001   9.944  68.839  1.00  0.00    -0.188 C  
HETATM   17  C   UNL     1      -8.552  10.235  68.420  1.00  0.00    -0.125 C  
HETATM   18  C   UNL     1     -10.055   8.589  69.572  1.00  0.00    -0.200 C  
HETATM   19  C   UNL     1      -8.038   9.124  67.494  1.00  0.00    -0.104 C  
HETATM   20  C   UNL     1      -8.092   7.781  68.239  1.00  0.00    -0.124 C  
HETATM   21  C   UNL     1      -8.933   9.041  66.244  1.00  0.00    -0.199 C  
ENDBRANCH   9  12
ENDBRANCH   7   8
ENDBRANCH   6   7
ENDBRANCH   5   6
ENDBRANCH   4   5
ENDBRANCH   2   4
TORSDOF 6
ENDMDL
MODEL      194
REMARK 921   NORMALIZED FREE ENERGY PREDICTED BY IDOCK:   -2.93 KCAL/MOL
REMARK 922        TOTAL FREE ENERGY PREDICTED BY IDOCK:   -3.80 KCAL/MOL
REMARK 923 INTER-LIGAND FREE ENERGY PREDICTED BY IDOCK:   -3.89 KCAL/MOL
REMARK 924 INTRA-LIGAND FREE ENERGY PREDICTED BY IDOCK:    0.09 KCAL/MOL
REMARK 927      BINDING AFFINITY PREDICTED BY RF-SCORE:    0.00 PKD
ROOT
HETATM    1  C   UNL     1     -11.096  15.112  64.845  1.00  0.00    -0.414 C  
HETATM    2  N   UNL     1     -12.006  14.346  65.703  1.00  0.00    -0.367 NA 
HETATM    3  C   UNL     1     -12.468  13.154  64.988  1.00  0.00    -0.460 C  
ENDROOT
BRANCH   2   4
HETATM    4  C   UNL     1     -11.322  14.007  66.967  1.00  0.00    -0.330 C  
BRANCH   4   5
HETATM    5  C   UNL     1     -11.665  12.620  67.530  1.00  0.00    -0.368 C  
BRANCH   5   6
HETATM    6  O   UNL     1     -10.457  11.964  67.931  1.00  0.00    -0.195 OA 
BRANCH   6   7
HETATM    7  C   UNL     1     -10.113  10.926  67.019  1.00  0.00    -0.205 C  
BRANCH   7   8
HETATM    8  C   UNL     1      -9.555   9.714  67.757  1.00  0.00    -0.139 C  
HETATM    9  N   UNL     1      -9.356   8.614  66.942  1.00  0.00    -0.159 N  
HETATM   10  O   UNL     1      -9.274   9.756  68.950  1.00  0.00    -0.144 OA 
HETATM   11  H   UNL     1      -9.582   8.707  65.952  1.00  0.00     0.000 HD 
BRANCH   9  12
HETATM   12  C   UNL     1      -8.841   7.323  67.407  1.00  0.00    -0.119 C  
HETATM   13  C   UNL     1      -8.782   6.285  66.259  1.00  0.00    -0.143 C  
HETATM   14  C   UNL     1      -8.217   4.948  66.770  1.00  0.00    -0.107 C  
HETATM   15  C   UNL     1      -6.793   5.167  67.303  1.00  0.00    -0.060 C  
HETATM   16  C   UNL     1      -6.814   6.188  68.454  1.00  0.00    -0.074 C  
HETATM   17  C   UNL     1      -7.703   5.651  69.586  1.00  0.00    -0.083 C  
HETATM   18  C   UNL     1      -7.395   7.519  67.940  1.00  0.00    -0.099 C  
HETATM   19  C   UNL     1      -9.133   5.429  69.071  1.00  0.00    -0.136 C  
HETATM   20  C   UNL     1      -9.701   6.764  68.567  1.00  0.00    -0.133 C  
HETATM   21  C   UNL     1      -9.110   4.422  67.907  1.00  0.00    -0.154 C  
ENDBRANCH   9  12
ENDBRANCH   7   8
ENDBRANCH   6   7
ENDBRANCH   5   6
ENDBRANCH   4   5
ENDBRANCH   2   4
TORSDOF 6
ENDMDL
MODEL      195
REMARK 921   NORMALIZED FREE ENERGY PREDICTED BY IDOCK:   -2.82 KCAL/MOL
REMARK 922        TOTAL FREE ENERGY PREDICTED BY IDOCK:   -3.64 KCAL/MOL
REMARK 923 INTER-LIGAND FREE ENERGY PREDICTED BY IDOCK:   -3.98 KCAL/MOL
REMARK 924 INTRA-LIGAND FREE ENERGY PREDICTED BY IDOCK:    0.33 KCAL/MOL
REMARK 927      BINDING AFFINITY PREDICTED BY RF-SCORE:    0.00 PKD
ROOT
HETATM    1  C   UNL     1      -8.661   6.091  72.862  1.00  0.00    -0.123 C  
HETATM    2  N   UNL     1      -8.950   4.876  72.094  1.00  0.00    -0.130 NA 
HETATM    3  C   UNL     1      -9.527   3.861  72.978  1.00  0.00    -0.114 C  
ENDROOT
BRANCH   2   4
HETATM    4  C   UNL     1      -9.844   5.208  70.966  1.00  0.00    -0.196 C  
BRANCH   4   5
HETATM    5  C   UNL     1      -9.152   5.262  69.596  1.00  0.00    -0.116 C  
BRANCH   5   6
HETATM    6  O   UNL     1      -9.378   6.547  69.007  1.00  0.00    -0.130 OA 
BRANCH   6   7
HETATM    7  C   UNL     1      -8.439   6.805  67.968  1.00  0.00    -0.120 C  
BRANCH   7   8
HETATM    8  C   UNL     1      -8.665   8.183  67.356  1.00  0.00    -0.124 C  
HETATM    9  N   UNL     1      -9.500   8.991  68.108  1.00  0.00    -0.142 N  
HETATM   10  O   UNL     1      -8.108   8.531  66.321  1.00  0.00    -0.102 OA 
HETATM   11  H   UNL     1      -9.871   8.613  68.979  1.00  0.00     0.000 HD 
BRANCH   9  12
HETATM   12  C   UNL     1      -9.885  10.355  67.735  1.00  0.00    -0.168 C  
HETATM   13  C   UNL     1      -8.844  11.395  68.217  1.00  0.00    -0.167 C  
HETATM   14  C   UNL     1      -9.262  12.814  67.793  1.00  0.00    -0.199 C  
HETATM   15  C   UNL     1      -9.348  12.883  66.261  1.00  0.00    -0.148 C  
HETATM   16  C   UNL     1     -10.383  11.867  65.745  1.00  0.00    -0.285 C  
HETATM   17  C   UNL     1     -11.757  12.201  66.347  1.00  0.00    -0.394 C  
HETATM   18  C   UNL     1      -9.966  10.451  66.187  1.00  0.00    -0.290 C  
HETATM   19  C   UNL     1     -11.690  12.134  67.880  1.00  0.00    -0.403 C  
HETATM   20  C   UNL     1     -11.279  10.716  68.306  1.00  0.00    -0.362 C  
HETATM   21  C   UNL     1     -10.641  13.136  68.394  1.00  0.00    -0.264 C  
ENDBRANCH   9  12
ENDBRANCH   7   8
ENDBRANCH   6   7
ENDBRANCH   5   6
ENDBRANCH   4   5
ENDBRANCH   2   4
TORSDOF 6
ENDMDL
MODEL      196
REMARK 921   NORMALIZED FREE ENERGY PREDICTED BY IDOCK:   -2.76 KCAL/MOL
REMARK 922        TOTAL FREE ENERGY PREDICTED BY IDOCK:   -3.57 KCAL/MOL
REMARK 923 INTER-LIGAND FREE ENERGY PREDICTED BY IDOCK:   -3.32 KCAL/MOL
REMARK 924 INTRA-LIGAND FREE ENERGY PREDICTED BY IDOCK:   -0.25 KCAL/MOL
REMARK 927      BINDING AFFINITY PREDICTED BY RF-SCORE:    0.00 PKD
ROOT
HETATM    1  C   UNL     1     -12.130   7.567  71.094  1.00  0.00    -0.307 C  
HETATM    2  N   UNL     1     -11.663   6.303  70.515  1.00  0.00    -0.305 NA 
HETATM    3  C   UNL     1     -11.419   6.481  69.082  1.00  0.00    -0.171 C  
ENDROOT
BRANCH   2   4
HETATM    4  C   UNL     1     -10.456   5.848  71.234  1.00  0.00    -0.233 C  
BRANCH   4   5
HETATM    5  C   UNL     1     -10.032   6.747  72.406  1.00  0.00    -0.169 C  
BRANCH   5   6
HETATM    6  O   UNL     1      -8.883   7.509  72.020  1.00  0.00    -0.115 OA 
BRANCH   6   7
HETATM    7  C   UNL     1      -8.115   6.815  71.041  1.00  0.00    -0.115 C  
BRANCH   7   8
HETATM    8  C   UNL     1      -7.797   7.721  69.856  1.00  0.00    -0.105 C  
HETATM    9  N   UNL     1      -8.827   8.583  69.526  1.00  0.00    -0.139 N  
HETATM   10  O   UNL     1      -6.704   7.698  69.300  1.00  0.00    -0.042 OA 
HETATM   11  H   UNL     1      -9.677   8.546  70.088  1.00  0.00     0.000 HD 
BRANCH   9  12
HETATM   12  C   UNL     1      -8.779   9.544  68.422  1.00  0.00    -0.124 C  
HETATM   13  C   UNL     1      -8.425   8.857  67.079  1.00  0.00    -0.112 C  
HETATM   14  C   UNL     1      -8.404   9.885  65.935  1.00  0.00    -0.126 C  
HETATM   15  C   UNL     1      -9.793  10.528  65.803  1.00  0.00    -0.295 C  
HETATM   16  C   UNL     1     -10.175  11.231  67.116  1.00  0.00    -0.235 C  
HETATM   17  C   UNL     1      -9.137  12.321  67.423  1.00  0.00    -0.184 C  
HETATM   18  C   UNL     1     -10.179  10.199  68.260  1.00  0.00    -0.192 C  
HETATM   19  C   UNL     1      -7.742  11.696  67.562  1.00  0.00    -0.136 C  
HETATM   20  C   UNL     1      -7.759  10.674  68.709  1.00  0.00    -0.117 C  
HETATM   21  C   UNL     1      -7.368  10.976  66.254  1.00  0.00    -0.097 C  
ENDBRANCH   9  12
ENDBRANCH   7   8
ENDBRANCH   6   7
ENDBRANCH   5   6
ENDBRANCH   4   5
ENDBRANCH   2   4
TORSDOF 6
ENDMDL
MODEL      197
REMARK 921   NORMALIZED FREE ENERGY PREDICTED BY IDOCK:   -2.71 KCAL/MOL
REMARK 922        TOTAL FREE ENERGY PREDICTED BY IDOCK:   -3.50 KCAL/MOL
REMARK 923 INTER-LIGAND FREE ENERGY PREDICTED BY IDOCK:   -3.26 KCAL/MOL
REMARK 924 INTRA-LIGAND FREE ENERGY PREDICTED BY IDOCK:   -0.24 KCAL/MOL
REMARK 927      BINDING AFFINITY PREDICTED BY RF-SCORE:    0.00 PKD
ROOT
HETATM    1  C   UNL     1     -11.477   6.832  70.006  1.00  0.00    -0.334 C  
HETATM    2  N   UNL     1     -10.866   6.684  71.331  1.00  0.00    -0.236 NA 
HETATM    3  C   UNL     1     -10.540   8.005  71.872  1.00  0.00    -0.245 C  
ENDROOT
BRANCH   2   4
HETATM    4  C   UNL     1     -11.779   5.930  72.213  1.00  0.00    -0.252 C  
BRANCH   4   5
HETATM    5  C   UNL     1     -11.078   5.077  73.281  1.00  0.00    -0.337 C  
BRANCH   5   6
HETATM    6  O   UNL     1      -9.898   4.496  72.716  1.00  0.00    -0.137 OA 
BRANCH   6   7
HETATM    7  C   UNL     1     -10.203   3.288  72.026  1.00  0.00    -0.039 C  
BRANCH   7   8
HETATM    8  C   UNL     1      -9.384   3.169  70.745  1.00  0.00    -0.153 C  
HETATM    9  N   UNL     1      -9.885   3.922  69.697  1.00  0.00    -0.139 N  
HETATM   10  O   UNL     1      -8.357   2.501  70.694  1.00  0.00    -0.048 OA 
HETATM   11  H   UNL     1     -10.722   4.478  69.868  1.00  0.00     0.000 HD 
BRANCH   9  12
HETATM   12  C   UNL     1      -9.291   3.973  68.359  1.00  0.00    -0.160 C  
HETATM   13  C   UNL     1      -7.847   4.531  68.395  1.00  0.00    -0.079 C  
HETATM   14  C   UNL     1      -7.241   4.552  66.981  1.00  0.00    -0.073 C  
HETATM   15  C   UNL     1      -7.196   3.121  66.425  1.00  0.00    -0.070 C  
HETATM   16  C   UNL     1      -8.617   2.535  66.365  1.00  0.00    -0.113 C  
HETATM   17  C   UNL     1      -9.483   3.411  65.446  1.00  0.00    -0.136 C  
HETATM   18  C   UNL     1      -9.224   2.533  67.781  1.00  0.00    -0.240 C  
HETATM   19  C   UNL     1      -9.541   4.846  65.989  1.00  0.00    -0.185 C  
HETATM   20  C   UNL     1     -10.153   4.829  67.398  1.00  0.00    -0.177 C  
HETATM   21  C   UNL     1      -8.117   5.425  66.067  1.00  0.00    -0.107 C  
ENDBRANCH   9  12
ENDBRANCH   7   8
ENDBRANCH   6   7
ENDBRANCH   5   6
ENDBRANCH   4   5
ENDBRANCH   2   4
TORSDOF 6
ENDMDL
MODEL      198
REMARK 921   NORMALIZED FREE ENERGY PREDICTED BY IDOCK:   -2.59 KCAL/MOL
REMARK 922        TOTAL FREE ENERGY PREDICTED BY IDOCK:   -3.34 KCAL/MOL
REMARK 923 INTER-LIGAND FREE ENERGY PREDICTED BY IDOCK:   -3.37 KCAL/MOL
REMARK 924 INTRA-LIGAND FREE ENERGY PREDICTED BY IDOCK:    0.03 KCAL/MOL
REMARK 927      BINDING AFFINITY PREDICTED BY RF-SCORE:    0.00 PKD
ROOT
HETATM    1  C   UNL     1      -9.065   6.187  72.923  1.00  0.00    -0.131 C  
HETATM    2  N   UNL     1     -10.406   6.588  73.358  1.00  0.00    -0.236 NA 
HETATM    3  C   UNL     1     -10.527   8.046  73.295  1.00  0.00    -0.051 C  
ENDROOT
BRANCH   2   4
HETATM    4  C   UNL     1     -11.418   5.908  72.525  1.00  0.00    -0.298 C  
BRANCH   4   5
HETATM    5  C   UNL     1     -12.302   6.850  71.695  1.00  0.00    -0.371 C  
BRANCH   5   6
HETATM    6  O   UNL     1     -12.126   6.556  70.305  1.00  0.00    -0.348 OA 
BRANCH   6   7
HETATM    7  C   UNL     1     -11.098   7.363  69.738  1.00  0.00    -0.152 C  
BRANCH   7   8
HETATM    8  C   UNL     1     -10.489   6.691  68.513  1.00  0.00    -0.213 C  
HETATM    9  N   UNL     1      -9.773   5.544  68.810  1.00  0.00    -0.135 N  
HETATM   10  O   UNL     1     -10.673   7.121  67.380  1.00  0.00    -0.265 OA 
HETATM   11  H   UNL     1      -9.725   5.253  69.786  1.00  0.00     0.000 HD 
BRANCH   9  12
HETATM   12  C   UNL     1      -9.082   4.721  67.815  1.00  0.00    -0.116 C  
HETATM   13  C   UNL     1      -8.768   3.306  68.362  1.00  0.00    -0.139 C  
HETATM   14  C   UNL     1      -8.063   2.457  67.290  1.00  0.00    -0.071 C  
HETATM   15  C   UNL     1      -8.983   2.314  66.068  1.00  0.00    -0.107 C  
HETATM   16  C   UNL     1      -9.308   3.702  65.490  1.00  0.00    -0.160 C  
HETATM   17  C   UNL     1      -8.001   4.389  65.065  1.00  0.00    -0.097 C  
HETATM   18  C   UNL     1      -9.999   4.552  66.573  1.00  0.00    -0.263 C  
HETATM   19  C   UNL     1      -7.070   4.543  66.277  1.00  0.00    -0.075 C  
HETATM   20  C   UNL     1      -7.769   5.396  67.346  1.00  0.00    -0.096 C  
HETATM   21  C   UNL     1      -6.760   3.155  66.867  1.00  0.00    -0.045 C  
ENDBRANCH   9  12
ENDBRANCH   7   8
ENDBRANCH   6   7
ENDBRANCH   5   6
ENDBRANCH   4   5
ENDBRANCH   2   4
TORSDOF 6
ENDMDL
MODEL      199
REMARK 921   NORMALIZED FREE ENERGY PREDICTED BY IDOCK:   -2.46 KCAL/MOL
REMARK 922        TOTAL FREE ENERGY PREDICTED BY IDOCK:   -3.15 KCAL/MOL
REMARK 923 INTER-LIGAND FREE ENERGY PREDICTED BY IDOCK:   -2.98 KCAL/MOL
REMARK 924 INTRA-LIGAND FREE ENERGY PREDICTED BY IDOCK:   -0.18 KCAL/MOL
REMARK 927      BINDING AFFINITY PREDICTED BY RF-SCORE:    0.00 PKD
ROOT
HETATM    1  C   UNL     1      -7.012  10.303  68.519  1.00  0.00    -0.066 C  
HETATM    2  N   UNL     1      -7.075  11.695  68.061  1.00  0.00    -0.076 NA 
HETATM    3  C   UNL     1      -6.478  11.800  66.728  1.00  0.00    -0.069 C  
ENDROOT
BRANCH   2   4
HETATM    4  C   UNL     1      -8.477  12.158  68.082  1.00  0.00    -0.175 C  
BRANCH   4   5
HETATM    5  C   UNL     1      -9.456  11.270  67.299  1.00  0.00    -0.173 C  
BRANCH   5   6
HETATM    6  O   UNL     1     -10.477  10.802  68.187  1.00  0.00    -0.169 OA 
BRANCH   6   7
HETATM    7  C   UNL     1     -10.588   9.383  68.134  1.00  0.00    -0.212 C  
BRANCH   7   8
HETATM    8  C   UNL     1     -10.414   8.769  69.520  1.00  0.00    -0.220 C  
HETATM    9  N   UNL     1      -9.403   7.827  69.584  1.00  0.00    -0.153 N  
HETATM   10  O   UNL     1     -11.088   9.133  70.477  1.00  0.00    -0.242 OA 
HETATM   11  H   UNL     1      -8.875   7.636  68.733  1.00  0.00     0.000 HD 
BRANCH   9  12
HETATM   12  C   UNL     1      -9.042   7.084  70.794  1.00  0.00    -0.154 C  
HETATM   13  C   UNL     1     -10.268   6.370  71.415  1.00  0.00    -0.228 C  
HETATM   14  C   UNL     1      -9.855   5.580  72.669  1.00  0.00    -0.185 C  
HETATM   15  C   UNL     1      -8.816   4.517  72.282  1.00  0.00    -0.133 C  
HETATM   16  C   UNL     1      -7.576   5.191  71.669  1.00  0.00    -0.101 C  
HETATM   17  C   UNL     1      -6.963   6.149  72.703  1.00  0.00    -0.075 C  
HETATM   18  C   UNL     1      -7.999   5.993  70.424  1.00  0.00    -0.107 C  
HETATM   19  C   UNL     1      -7.988   7.221  73.099  1.00  0.00    -0.120 C  
HETATM   20  C   UNL     1      -8.397   8.016  71.849  1.00  0.00    -0.167 C  
HETATM   21  C   UNL     1      -9.237   6.546  73.694  1.00  0.00    -0.150 C  
ENDBRANCH   9  12
ENDBRANCH   7   8
ENDBRANCH   6   7
ENDBRANCH   5   6
ENDBRANCH   4   5
ENDBRANCH   2   4
TORSDOF 6
ENDMDL
MODEL      200
REMARK 921   NORMALIZED FREE ENERGY PREDICTED BY IDOCK:   -2.41 KCAL/MOL
REMARK 922        TOTAL FREE ENERGY PREDICTED BY IDOCK:   -3.10 KCAL/MOL
REMARK 923 INTER-LIGAND FREE ENERGY PREDICTED BY IDOCK:   -3.04 KCAL/MOL
REMARK 924 INTRA-LIGAND FREE ENERGY PREDICTED BY IDOCK:   -0.06 KCAL/MOL
REMARK 927      BINDING AFFINITY PREDICTED BY RF-SCORE:    0.00 PKD
ROOT
HETATM    1  C   UNL     1      -8.034  10.194  69.716  1.00  0.00    -0.161 C  
HETATM    2  N   UNL     1      -8.852   8.977  69.722  1.00  0.00    -0.144 NA 
HETATM    3  C   UNL     1      -9.344   8.722  71.078  1.00  0.00    -0.222 C  
ENDROOT
BRANCH   2   4
HETATM    4  C   UNL     1      -9.952   9.117  68.747  1.00  0.00    -0.176 C  
BRANCH   4   5
HETATM    5  C   UNL     1      -9.683   8.469  67.380  1.00  0.00    -0.170 C  
BRANCH   5   6
HETATM    6  O   UNL     1     -10.888   7.859  66.905  1.00  0.00    -0.288 OA 
BRANCH   6   7
HETATM    7  C   UNL     1     -11.123   6.617  67.560  1.00  0.00    -0.292 C  
BRANCH   7   8
HETATM    8  C   UNL     1     -10.139   5.554  67.083  1.00  0.00    -0.188 C  
HETATM    9  N   UNL     1     -10.258   5.252  65.738  1.00  0.00    -0.422 N  
HETATM   10  O   UNL     1      -9.300   5.067  67.833  1.00  0.00    -0.115 OA 
HETATM   11  H   UNL     1     -10.962   5.755  65.199  1.00  0.00     0.000 HD 
BRANCH   9  12
HETATM   12  C   UNL     1      -9.440   4.259  65.038  1.00  0.00    -0.171 C  
HETATM   13  C   UNL     1      -9.494   2.878  65.738  1.00  0.00     0.011 C  
HETATM   14  C   UNL     1      -8.646   1.850  64.969  1.00  0.00    -0.105 C  
HETATM   15  C   UNL     1      -9.199   1.697  63.544  1.00  0.00    -0.095 C  
HETATM   16  C   UNL     1      -9.151   3.050  62.813  1.00  0.00    -0.091 C  
HETATM   17  C   UNL     1      -7.694   3.533  62.744  1.00  0.00    -0.059 C  
HETATM   18  C   UNL     1      -9.989   4.078  63.597  1.00  0.00    -0.144 C  
HETATM   19  C   UNL     1      -7.126   3.695  64.161  1.00  0.00    -0.050 C  
HETATM   20  C   UNL     1      -7.968   4.726  64.928  1.00  0.00    -0.098 C  
HETATM   21  C   UNL     1      -7.191   2.345  64.899  1.00  0.00    -0.058 C  
ENDBRANCH   9  12
ENDBRANCH   7   8
ENDBRANCH   6   7
ENDBRANCH   5   6
ENDBRANCH   4   5
ENDBRANCH   2   4
TORSDOF 6
ENDMDL
MODEL      201
REMARK 921   NORMALIZED FREE ENERGY PREDICTED BY IDOCK:   -2.41 KCAL/MOL
REMARK 922        TOTAL FREE ENERGY PREDICTED BY IDOCK:   -3.09 KCAL/MOL
REMARK 923 INTER-LIGAND FREE ENERGY PREDICTED BY IDOCK:   -3.29 KCAL/MOL
REMARK 924 INTRA-LIGAND FREE ENERGY PREDICTED BY IDOCK:    0.20 KCAL/MOL
REMARK 927      BINDING AFFINITY PREDICTED BY RF-SCORE:    0.00 PKD
ROOT
HETATM    1  C   UNL     1      -7.267  10.402  67.901  1.00  0.00    -0.085 C  
HETATM    2  N   UNL     1      -6.017  10.968  67.385  1.00  0.00    -0.046 NA 
HETATM    3  C   UNL     1      -5.898  10.674  65.955  1.00  0.00    -0.127 C  
ENDROOT
BRANCH   2   4
HETATM    4  C   UNL     1      -5.981  12.418  67.661  1.00  0.00    -0.128 C  
BRANCH   4   5
HETATM    5  C   UNL     1      -7.197  13.199  67.142  1.00  0.00     0.093 C  
BRANCH   5   6
HETATM    6  O   UNL     1      -8.047  13.532  68.246  1.00  0.00    -0.143 OA 
BRANCH   6   7
HETATM    7  C   UNL     1      -7.403  14.446  69.127  1.00  0.00    -0.113 C  
BRANCH   7   8
HETATM    8  C   UNL     1      -7.279  15.825  68.488  1.00  0.00    -0.122 C  
HETATM    9  N   UNL     1      -8.422  16.595  68.607  1.00  0.00    -0.243 N  
HETATM   10  O   UNL     1      -6.235  16.205  67.968  1.00  0.00    -0.111 OA 
HETATM   11  H   UNL     1      -9.217  16.192  69.102  1.00  0.00     0.000 HD 
BRANCH   9  12
HETATM   12  C   UNL     1      -8.566  17.950  68.070  1.00  0.00    -0.256 C  
HETATM   13  C   UNL     1      -7.417  18.877  68.540  1.00  0.00    -0.339 C  
HETATM   14  C   UNL     1      -7.581  20.285  67.943  1.00  0.00    -0.279 C  
HETATM   15  C   UNL     1      -7.539  20.196  66.410  1.00  0.00    -0.309 C  
HETATM   16  C   UNL     1      -8.675  19.290  65.904  1.00  0.00     0.019 C  
HETATM   17  C   UNL     1     -10.023  19.882  66.343  1.00  0.00    -0.593 C  
HETATM   18  C   UNL     1      -8.514  17.886  66.518  1.00  0.00    -0.284 C  
HETATM   19  C   UNL     1     -10.084  19.975  67.874  1.00  0.00    -0.559 C  
HETATM   20  C   UNL     1      -9.927  18.569  68.472  1.00  0.00    -0.419 C  
HETATM   21  C   UNL     1      -8.936  20.867  68.381  1.00  0.00     0.752 C  
ENDBRANCH   9  12
ENDBRANCH   7   8
ENDBRANCH   6   7
ENDBRANCH   5   6
ENDBRANCH   4   5
ENDBRANCH   2   4
TORSDOF 6
ENDMDL
MODEL      202
REMARK 921   NORMALIZED FREE ENERGY PREDICTED BY IDOCK:   -2.40 KCAL/MOL
REMARK 922        TOTAL FREE ENERGY PREDICTED BY IDOCK:   -3.08 KCAL/MOL
REMARK 923 INTER-LIGAND FREE ENERGY PREDICTED BY IDOCK:   -3.07 KCAL/MOL
REMARK 924 INTRA-LIGAND FREE ENERGY PREDICTED BY IDOCK:   -0.02 KCAL/MOL
REMARK 927      BINDING AFFINITY PREDICTED BY RF-SCORE:    0.00 PKD
ROOT
HETATM    1  C   UNL     1      -5.849  11.557  67.860  1.00  0.00    -0.045 C  
HETATM    2  N   UNL     1      -6.387  10.317  68.429  1.00  0.00    -0.048 NA 
HETATM    3  C   UNL     1      -7.560  10.622  69.251  1.00  0.00    -0.138 C  
ENDROOT
BRANCH   2   4
HETATM    4  C   UNL     1      -6.701   9.372  67.339  1.00  0.00    -0.068 C  
BRANCH   4   5
HETATM    5  C   UNL     1      -8.187   9.001  67.220  1.00  0.00    -0.103 C  
BRANCH   5   6
HETATM    6  O   UNL     1      -8.317   7.575  67.222  1.00  0.00    -0.116 OA 
BRANCH   6   7
HETATM    7  C   UNL     1      -7.157   6.958  67.773  1.00  0.00    -0.085 C  
BRANCH   7   8
HETATM    8  C   UNL     1      -7.384   6.575  69.232  1.00  0.00    -0.093 C  
HETATM    9  N   UNL     1      -8.700   6.696  69.638  1.00  0.00    -0.139 N  
HETATM   10  O   UNL     1      -6.474   6.155  69.938  1.00  0.00    -0.039 OA 
HETATM   11  H   UNL     1      -9.383   7.012  68.949  1.00  0.00     0.000 HD 
BRANCH   9  12
HETATM   12  C   UNL     1      -9.179   6.402  70.990  1.00  0.00    -0.154 C  
HETATM   13  C   UNL     1      -8.651   7.431  72.021  1.00  0.00    -0.120 C  
HETATM   14  C   UNL     1      -9.187   7.111  73.427  1.00  0.00    -0.206 C  
HETATM   15  C   UNL     1     -10.722   7.177  73.413  1.00  0.00    -0.410 C  
HETATM   16  C   UNL     1     -11.284   6.158  72.407  1.00  0.00    -0.329 C  
HETATM   17  C   UNL     1     -10.839   4.746  72.819  1.00  0.00    -0.280 C  
HETATM   18  C   UNL     1     -10.730   6.475  71.004  1.00  0.00    -0.289 C  
HETATM   19  C   UNL     1      -9.306   4.662  72.834  1.00  0.00    -0.144 C  
HETATM   20  C   UNL     1      -8.768   4.974  71.430  1.00  0.00    -0.141 C  
HETATM   21  C   UNL     1      -8.743   5.694  73.828  1.00  0.00    -0.121 C  
ENDBRANCH   9  12
ENDBRANCH   7   8
ENDBRANCH   6   7
ENDBRANCH   5   6
ENDBRANCH   4   5
ENDBRANCH   2   4
TORSDOF 6
ENDMDL
MODEL      203
REMARK 921   NORMALIZED FREE ENERGY PREDICTED BY IDOCK:   -2.29 KCAL/MOL
REMARK 922        TOTAL FREE ENERGY PREDICTED BY IDOCK:   -2.93 KCAL/MOL
REMARK 923 INTER-LIGAND FREE ENERGY PREDICTED BY IDOCK:   -3.02 KCAL/MOL
REMARK 924 INTRA-LIGAND FREE ENERGY PREDICTED BY IDOCK:    0.09 KCAL/MOL
REMARK 927      BINDING AFFINITY PREDICTED BY RF-SCORE:    0.00 PKD
ROOT
HETATM    1  C   UNL     1     -12.247  15.808  72.293  1.00  0.00    -0.462 C  
HETATM    2  N   UNL     1     -12.980  14.829  71.484  1.00  0.00    -0.315 NA 
HETATM    3  C   UNL     1     -14.403  14.876  71.826  1.00  0.00    -0.578 C  
ENDROOT
BRANCH   2   4
HETATM    4  C   UNL     1     -12.741  15.095  70.052  1.00  0.00    -0.164 C  
BRANCH   4   5
HETATM    5  C   UNL     1     -11.654  14.221  69.410  1.00  0.00    -0.306 C  
BRANCH   5   6
HETATM    6  O   UNL     1     -11.879  12.853  69.769  1.00  0.00    -0.312 OA 
BRANCH   6   7
HETATM    7  C   UNL     1     -11.241  11.972  68.850  1.00  0.00    -0.261 C  
BRANCH   7   8
HETATM    8  C   UNL     1     -10.474  10.878  69.585  1.00  0.00    -0.088 C  
HETATM    9  N   UNL     1      -9.227  10.619  69.045  1.00  0.00    -0.223 N  
HETATM   10  O   UNL     1     -10.925  10.333  70.586  1.00  0.00    -0.308 OA 
HETATM   11  H   UNL     1      -8.934  11.168  68.237  1.00  0.00     0.000 HD 
BRANCH   9  12
HETATM   12  C   UNL     1      -8.298   9.609  69.557  1.00  0.00    -0.152 C  
HETATM   13  C   UNL     1      -8.761   8.174  69.202  1.00  0.00    -0.140 C  
HETATM   14  C   UNL     1      -7.757   7.136  69.731  1.00  0.00    -0.108 C  
HETATM   15  C   UNL     1      -6.384   7.380  69.085  1.00  0.00    -0.036 C  
HETATM   16  C   UNL     1      -5.886   8.795  69.426  1.00  0.00    -0.034 C  
HETATM   17  C   UNL     1      -5.761   8.930  70.951  1.00  0.00    -0.036 C  
HETATM   18  C   UNL     1      -6.904   9.828  68.907  1.00  0.00    -0.054 C  
HETATM   19  C   UNL     1      -7.126   8.692  71.614  1.00  0.00    -0.105 C  
HETATM   20  C   UNL     1      -8.129   9.732  71.092  1.00  0.00     0.745 C  
HETATM   21  C   UNL     1      -7.633   7.283  71.258  1.00  0.00    -0.083 C  
ENDBRANCH   9  12
ENDBRANCH   7   8
ENDBRANCH   6   7
ENDBRANCH   5   6
ENDBRANCH   4   5
ENDBRANCH   2   4
TORSDOF 6
ENDMDL
MODEL      204
REMARK 921   NORMALIZED FREE ENERGY PREDICTED BY IDOCK:   -2.29 KCAL/MOL
REMARK 922        TOTAL FREE ENERGY PREDICTED BY IDOCK:   -2.93 KCAL/MOL
REMARK 923 INTER-LIGAND FREE ENERGY PREDICTED BY IDOCK:   -3.62 KCAL/MOL
REMARK 924 INTRA-LIGAND FREE ENERGY PREDICTED BY IDOCK:    0.69 KCAL/MOL
REMARK 927      BINDING AFFINITY PREDICTED BY RF-SCORE:    0.00 PKD
ROOT
HETATM    1  C   UNL     1      -5.968  10.210  69.485  1.00  0.00    -0.042 C  
HETATM    2  N   UNL     1      -6.204   8.797  69.798  1.00  0.00    -0.035 NA 
HETATM    3  C   UNL     1      -5.569   8.465  71.076  1.00  0.00    -0.032 C  
ENDROOT
BRANCH   2   4
HETATM    4  C   UNL     1      -7.656   8.531  69.811  1.00  0.00    -0.083 C  
BRANCH   4   5
HETATM    5  C   UNL     1      -8.510   9.605  69.121  1.00  0.00    -0.143 C  
BRANCH   5   6
HETATM    6  O   UNL     1      -9.594   8.972  68.432  1.00  0.00    -0.149 OA 
BRANCH   6   7
HETATM    7  C   UNL     1      -9.426   9.067  67.021  1.00  0.00    -0.163 C  
BRANCH   7   8
HETATM    8  C   UNL     1      -9.642  10.498  66.540  1.00  0.00    -0.174 C  
HETATM    9  N   UNL     1      -9.963  11.380  67.557  1.00  0.00    -0.181 N  
HETATM   10  O   UNL     1      -9.490  10.816  65.366  1.00  0.00    -0.190 OA 
HETATM   11  H   UNL     1     -10.016  11.013  68.507  1.00  0.00     0.000 HD 
BRANCH   9  12
HETATM   12  C   UNL     1     -10.231  12.806  67.359  1.00  0.00    -0.222 C  
HETATM   13  C   UNL     1      -9.023  13.531  66.715  1.00  0.00    -0.188 C  
HETATM   14  C   UNL     1      -9.340  15.021  66.498  1.00  0.00    -0.309 C  
HETATM   15  C   UNL     1     -10.547  15.153  65.557  1.00  0.00    -0.383 C  
HETATM   16  C   UNL     1     -11.772  14.452  66.170  1.00  0.00    -0.384 C  
HETATM   17  C   UNL     1     -12.104  15.110  67.519  1.00  0.00     0.172 C  
HETATM   18  C   UNL     1     -11.441  12.965  66.399  1.00  0.00    -0.389 C  
HETATM   19  C   UNL     1     -10.908  14.984  68.474  1.00  0.00    -0.250 C  
HETATM   20  C   UNL     1     -10.594  13.497  68.697  1.00  0.00    -0.259 C  
HETATM   21  C   UNL     1      -9.678  15.669  67.852  1.00  0.00    -0.211 C  
ENDBRANCH   9  12
ENDBRANCH   7   8
ENDBRANCH   6   7
ENDBRANCH   5   6
ENDBRANCH   4   5
ENDBRANCH   2   4
TORSDOF 6
ENDMDL
MODEL      205
REMARK 921   NORMALIZED FREE ENERGY PREDICTED BY IDOCK:   -2.28 KCAL/MOL
REMARK 922        TOTAL FREE ENERGY PREDICTED BY IDOCK:   -2.91 KCAL/MOL
REMARK 923 INTER-LIGAND FREE ENERGY PREDICTED BY IDOCK:   -2.81 KCAL/MOL
REMARK 924 INTRA-LIGAND FREE ENERGY PREDICTED BY IDOCK:   -0.10 KCAL/MOL
REMARK 927      BINDING AFFINITY PREDICTED BY RF-SCORE:    0.00 PKD
ROOT
HETATM    1  C   UNL     1      -9.842  12.889  66.831  1.00  0.00    -0.235 C  
HETATM    2  N   UNL     1      -9.857  11.435  66.639  1.00  0.00    -0.201 NA 
HETATM    3  C   UNL     1      -8.674  11.029  65.876  1.00  0.00    -0.178 C  
ENDROOT
BRANCH   2   4
HETATM    4  C   UNL     1      -9.930  10.766  67.952  1.00  0.00    -0.174 C  
BRANCH   4   5
HETATM    5  C   UNL     1     -10.765   9.476  67.968  1.00  0.00    -0.212 C  
BRANCH   5   6
HETATM    6  O   UNL     1     -10.289   8.622  69.013  1.00  0.00    -0.208 OA 
BRANCH   6   7
HETATM    7  C   UNL     1      -8.867   8.536  68.994  1.00  0.00    -0.145 C  
BRANCH   7   8
HETATM    8  C   UNL     1      -8.395   7.532  67.947  1.00  0.00    -0.123 C  
HETATM    9  N   UNL     1      -8.978   6.285  68.074  1.00  0.00    -0.115 N  
HETATM   10  O   UNL     1      -7.609   7.846  67.060  1.00  0.00    -0.096 OA 
HETATM   11  H   UNL     1      -9.656   6.150  68.824  1.00  0.00     0.000 HD 
BRANCH   9  12
HETATM   12  C   UNL     1      -8.687   5.144  67.203  1.00  0.00    -0.103 C  
HETATM   13  C   UNL     1      -9.039   5.448  65.726  1.00  0.00    -0.160 C  
HETATM   14  C   UNL     1      -8.702   4.242  64.832  1.00  0.00    -0.130 C  
HETATM   15  C   UNL     1      -7.198   3.944  64.924  1.00  0.00    -0.067 C  
HETATM   16  C   UNL     1      -6.812   3.627  66.379  1.00  0.00    -0.054 C  
HETATM   17  C   UNL     1      -7.604   2.397  66.851  1.00  0.00    -0.070 C  
HETATM   18  C   UNL     1      -7.167   4.832  67.271  1.00  0.00    -0.073 C  
HETATM   19  C   UNL     1      -9.111   2.679  66.769  1.00  0.00    -0.149 C  
HETATM   20  C   UNL     1      -9.451   3.878  67.667  1.00  0.00    -0.233 C  
HETATM   21  C   UNL     1      -9.494   3.015  65.316  1.00  0.00    -0.084 C  
ENDBRANCH   9  12
ENDBRANCH   7   8
ENDBRANCH   6   7
ENDBRANCH   5   6
ENDBRANCH   4   5
ENDBRANCH   2   4
TORSDOF 6
ENDMDL
MODEL      206
REMARK 921   NORMALIZED FREE ENERGY PREDICTED BY IDOCK:   -2.22 KCAL/MOL
REMARK 922        TOTAL FREE ENERGY PREDICTED BY IDOCK:   -2.83 KCAL/MOL
REMARK 923 INTER-LIGAND FREE ENERGY PREDICTED BY IDOCK:   -2.80 KCAL/MOL
REMARK 924 INTRA-LIGAND FREE ENERGY PREDICTED BY IDOCK:   -0.03 KCAL/MOL
REMARK 927      BINDING AFFINITY PREDICTED BY RF-SCORE:    0.00 PKD
ROOT
HETATM    1  C   UNL     1      -9.869   9.691  70.140  1.00  0.00    -0.262 C  
HETATM    2  N   UNL     1      -9.877   8.381  69.481  1.00  0.00    -0.178 NA 
HETATM    3  C   UNL     1     -10.525   7.397  70.351  1.00  0.00    -0.221 C  
ENDROOT
BRANCH   2   4
HETATM    4  C   UNL     1     -10.548   8.493  68.170  1.00  0.00    -0.124 C  
BRANCH   4   5
HETATM    5  C   UNL     1      -9.932   9.535  67.223  1.00  0.00    -0.189 C  
BRANCH   5   6
HETATM    6  O   UNL     1      -9.550   8.891  66.003  1.00  0.00    -0.245 OA 
BRANCH   6   7
HETATM    7  C   UNL     1      -8.202   8.434  66.068  1.00  0.00    -0.112 C  
BRANCH   7   8
HETATM    8  C   UNL     1      -7.994   7.220  65.169  1.00  0.00    -0.128 C  
HETATM    9  N   UNL     1      -8.922   6.214  65.373  1.00  0.00    -0.362 N  
HETATM   10  O   UNL     1      -7.109   7.188  64.321  1.00  0.00    -0.056 OA 
HETATM   11  H   UNL     1      -9.644   6.369  66.076  1.00  0.00     0.000 HD 
BRANCH   9  12
HETATM   12  C   UNL     1      -8.935   4.942  64.648  1.00  0.00    -0.111 C  
HETATM   13  C   UNL     1      -7.800   4.001  65.122  1.00  0.00    -0.089 C  
HETATM   14  C   UNL     1      -7.852   2.665  64.360  1.00  0.00    -0.077 C  
HETATM   15  C   UNL     1      -9.199   1.978  64.629  1.00  0.00    -0.133 C  
HETATM   16  C   UNL     1     -10.353   2.881  64.160  1.00  0.00    -0.047 C  
HETATM   17  C   UNL     1     -10.207   3.141  62.653  1.00  0.00    -0.130 C  
HETATM   18  C   UNL     1     -10.285   4.222  64.915  1.00  0.00    -0.193 C  
HETATM   19  C   UNL     1      -8.866   3.831  62.366  1.00  0.00    -0.087 C  
HETATM   20  C   UNL     1      -8.814   5.169  63.120  1.00  0.00     0.010 C  
HETATM   21  C   UNL     1      -7.712   2.936  62.853  1.00  0.00    -0.063 C  
ENDBRANCH   9  12
ENDBRANCH   7   8
ENDBRANCH   6   7
ENDBRANCH   5   6
ENDBRANCH   4   5
ENDBRANCH   2   4
TORSDOF 6
ENDMDL
MODEL      207
REMARK 921   NORMALIZED FREE ENERGY PREDICTED BY IDOCK:   -2.17 KCAL/MOL
REMARK 922        TOTAL FREE ENERGY PREDICTED BY IDOCK:   -2.76 KCAL/MOL
REMARK 923 INTER-LIGAND FREE ENERGY PREDICTED BY IDOCK:   -2.91 KCAL/MOL
REMARK 924 INTRA-LIGAND FREE ENERGY PREDICTED BY IDOCK:    0.14 KCAL/MOL
REMARK 927      BINDING AFFINITY PREDICTED BY RF-SCORE:    0.00 PKD
ROOT
HETATM    1  C   UNL     1      -8.489  12.236  68.644  1.00  0.00     0.007 C  
HETATM    2  N   UNL     1      -7.536  11.139  68.449  1.00  0.00    -0.096 NA 
HETATM    3  C   UNL     1      -6.188  11.684  68.268  1.00  0.00    -0.049 C  
ENDROOT
BRANCH   2   4
HETATM    4  C   UNL     1      -7.612  10.211  69.595  1.00  0.00    -0.156 C  
BRANCH   4   5
HETATM    5  C   UNL     1      -7.135   8.782  69.296  1.00  0.00    -0.062 C  
BRANCH   5   6
HETATM    6  O   UNL     1      -8.273   7.951  69.041  1.00  0.00    -0.122 OA 
BRANCH   6   7
HETATM    7  C   UNL     1      -9.426   8.445  69.715  1.00  0.00    -0.162 C  
BRANCH   7   8
HETATM    8  C   UNL     1      -9.832   7.518  70.855  1.00  0.00    -0.177 C  
HETATM    9  N   UNL     1      -9.077   6.360  70.922  1.00  0.00    -0.150 N  
HETATM   10  O   UNL     1     -10.714   7.820  71.652  1.00  0.00    -0.216 OA 
HETATM   11  H   UNL     1      -8.336   6.235  70.233  1.00  0.00     0.000 HD 
BRANCH   9  12
HETATM   12  C   UNL     1      -9.272   5.302  71.916  1.00  0.00    -0.138 C  
HETATM   13  C   UNL     1      -8.590   3.980  71.485  1.00  0.00    -0.127 C  
HETATM   14  C   UNL     1      -8.792   2.894  72.556  1.00  0.00    -0.101 C  
HETATM   15  C   UNL     1      -8.161   3.360  73.877  1.00  0.00    -0.074 C  
HETATM   16  C   UNL     1      -8.822   4.669  74.343  1.00  0.00    -0.108 C  
HETATM   17  C   UNL     1     -10.325   4.426  74.554  1.00  0.00    -0.300 C  
HETATM   18  C   UNL     1      -8.631   5.747  73.259  1.00  0.00    -0.118 C  
HETATM   19  C   UNL     1     -10.972   3.962  73.242  1.00  0.00    -0.294 C  
HETATM   20  C   UNL     1     -10.778   5.047  72.172  1.00  0.00    -0.227 C  
HETATM   21  C   UNL     1     -10.298   2.663  72.766  1.00  0.00    -0.236 C  
ENDBRANCH   9  12
ENDBRANCH   7   8
ENDBRANCH   6   7
ENDBRANCH   5   6
ENDBRANCH   4   5
ENDBRANCH   2   4
TORSDOF 6
ENDMDL
MODEL      208
REMARK 921   NORMALIZED FREE ENERGY PREDICTED BY IDOCK:   -2.10 KCAL/MOL
REMARK 922        TOTAL FREE ENERGY PREDICTED BY IDOCK:   -2.67 KCAL/MOL
REMARK 923 INTER-LIGAND FREE ENERGY PREDICTED BY IDOCK:   -3.06 KCAL/MOL
REMARK 924 INTRA-LIGAND FREE ENERGY PREDICTED BY IDOCK:    0.39 KCAL/MOL
REMARK 927      BINDING AFFINITY PREDICTED BY RF-SCORE:    0.00 PKD
ROOT
HETATM    1  C   UNL     1      -8.803   6.126  72.333  1.00  0.00    -0.136 C  
HETATM    2  N   UNL     1     -10.059   6.771  72.730  1.00  0.00    -0.173 NA 
HETATM    3  C   UNL     1     -10.008   8.195  72.391  1.00  0.00    -0.275 C  
ENDROOT
BRANCH   2   4
HETATM    4  C   UNL     1     -11.193   6.084  72.080  1.00  0.00    -0.291 C  
BRANCH   4   5
HETATM    5  C   UNL     1     -11.806   6.842  70.893  1.00  0.00    -0.385 C  
BRANCH   5   6
HETATM    6  O   UNL     1     -11.579   6.095  69.693  1.00  0.00    -0.407 OA 
BRANCH   6   7
HETATM    7  C   UNL     1     -10.388   6.525  69.041  1.00  0.00    -0.195 C  
BRANCH   7   8
HETATM    8  C   UNL     1      -9.733   5.374  68.284  1.00  0.00    -0.135 C  
HETATM    9  N   UNL     1      -9.215   5.743  67.056  1.00  0.00    -0.116 N  
HETATM   10  O   UNL     1      -9.646   4.250  68.766  1.00  0.00    -0.158 OA 
HETATM   11  H   UNL     1      -9.304   6.720  66.776  1.00  0.00     0.000 HD 
BRANCH   9  12
HETATM   12  C   UNL     1      -8.547   4.825  66.131  1.00  0.00    -0.115 C  
HETATM   13  C   UNL     1      -9.421   4.532  64.886  1.00  0.00    -0.143 C  
HETATM   14  C   UNL     1      -8.686   3.584  63.922  1.00  0.00    -0.094 C  
HETATM   15  C   UNL     1      -7.379   4.245  63.456  1.00  0.00    -0.054 C  
HETATM   16  C   UNL     1      -6.479   4.542  64.668  1.00  0.00    -0.039 C  
HETATM   17  C   UNL     1      -6.154   3.225  65.388  1.00  0.00    -0.023 C  
HETATM   18  C   UNL     1      -7.227   5.478  65.636  1.00  0.00    -0.068 C  
HETATM   19  C   UNL     1      -7.450   2.552  65.864  1.00  0.00    -0.068 C  
HETATM   20  C   UNL     1      -8.182   3.493  66.832  1.00  0.00    -0.095 C  
HETATM   21  C   UNL     1      -8.358   2.271  64.654  1.00  0.00    -0.087 C  
ENDBRANCH   9  12
ENDBRANCH   7   8
ENDBRANCH   6   7
ENDBRANCH   5   6
ENDBRANCH   4   5
ENDBRANCH   2   4
TORSDOF 6
ENDMDL
MODEL      209
REMARK 921   NORMALIZED FREE ENERGY PREDICTED BY IDOCK:   -1.92 KCAL/MOL
REMARK 922        TOTAL FREE ENERGY PREDICTED BY IDOCK:   -2.43 KCAL/MOL
REMARK 923 INTER-LIGAND FREE ENERGY PREDICTED BY IDOCK:   -2.63 KCAL/MOL
REMARK 924 INTRA-LIGAND FREE ENERGY PREDICTED BY IDOCK:    0.20 KCAL/MOL
REMARK 927      BINDING AFFINITY PREDICTED BY RF-SCORE:    0.00 PKD
ROOT
HETATM    1  C   UNL     1      -8.383  13.001  68.062  1.00  0.00    -0.169 C  
HETATM    2  N   UNL     1      -7.691  11.745  67.752  1.00  0.00    -0.124 NA 
HETATM    3  C   UNL     1      -6.385  12.038  67.158  1.00  0.00    -0.149 C  
ENDROOT
BRANCH   2   4
HETATM    4  C   UNL     1      -7.576  10.932  68.979  1.00  0.00    -0.135 C  
BRANCH   4   5
HETATM    5  C   UNL     1      -7.954   9.453  68.804  1.00  0.00    -0.092 C  
BRANCH   5   6
HETATM    6  O   UNL     1      -9.261   9.236  69.349  1.00  0.00    -0.149 OA 
BRANCH   6   7
HETATM    7  C   UNL     1      -9.189   8.512  70.574  1.00  0.00    -0.156 C  
BRANCH   7   8
HETATM    8  C   UNL     1      -8.600   7.123  70.353  1.00  0.00    -0.142 C  
HETATM    9  N   UNL     1      -9.157   6.450  69.282  1.00  0.00    -0.136 N  
HETATM   10  O   UNL     1      -7.685   6.691  71.047  1.00  0.00    -0.094 OA 
HETATM   11  H   UNL     1      -9.882   6.926  68.745  1.00  0.00     0.000 HD 
BRANCH   9  12
HETATM   12  C   UNL     1      -8.776   5.098  68.866  1.00  0.00    -0.089 C  
HETATM   13  C   UNL     1      -7.258   4.995  68.577  1.00  0.00    -0.062 C  
HETATM   14  C   UNL     1      -6.883   3.561  68.165  1.00  0.00    -0.050 C  
HETATM   15  C   UNL     1      -7.228   2.596  69.310  1.00  0.00    -0.044 C  
HETATM   16  C   UNL     1      -8.733   2.663  69.619  1.00  0.00    -0.130 C  
HETATM   17  C   UNL     1      -9.522   2.264  68.362  1.00  0.00    -0.226 C  
HETATM   18  C   UNL     1      -9.105   4.105  70.014  1.00  0.00    -0.182 C  
HETATM   19  C   UNL     1      -9.192   3.221  67.208  1.00  0.00    -0.221 C  
HETATM   20  C   UNL     1      -9.572   4.653  67.614  1.00  0.00    -0.200 C  
HETATM   21  C   UNL     1      -7.683   3.168  66.911  1.00  0.00    -0.076 C  
ENDBRANCH   9  12
ENDBRANCH   7   8
ENDBRANCH   6   7
ENDBRANCH   5   6
ENDBRANCH   4   5
ENDBRANCH   2   4
TORSDOF 6
ENDMDL
MODEL      210
REMARK 921   NORMALIZED FREE ENERGY PREDICTED BY IDOCK:   -1.89 KCAL/MOL
REMARK 922        TOTAL FREE ENERGY PREDICTED BY IDOCK:   -2.39 KCAL/MOL
REMARK 923 INTER-LIGAND FREE ENERGY PREDICTED BY IDOCK:   -2.38 KCAL/MOL
REMARK 924 INTRA-LIGAND FREE ENERGY PREDICTED BY IDOCK:   -0.01 KCAL/MOL
REMARK 927      BINDING AFFINITY PREDICTED BY RF-SCORE:    0.00 PKD
ROOT
HETATM    1  C   UNL     1     -10.407   9.485  70.810  1.00  0.00    -0.306 C  
HETATM    2  N   UNL     1     -10.228   8.150  70.229  1.00  0.00    -0.197 NA 
HETATM    3  C   UNL     1     -10.929   7.160  71.050  1.00  0.00    -0.252 C  
ENDROOT
BRANCH   2   4
HETATM    4  C   UNL     1     -10.704   8.153  68.832  1.00  0.00    -0.064 C  
BRANCH   4   5
HETATM    5  C   UNL     1     -10.027   9.194  67.927  1.00  0.00    -0.186 C  
BRANCH   5   6
HETATM    6  O   UNL     1      -9.380   8.522  66.841  1.00  0.00    -0.153 OA 
BRANCH   6   7
HETATM    7  C   UNL     1      -8.033   8.197  67.172  1.00  0.00    -0.105 C  
BRANCH   7   8
HETATM    8  C   UNL     1      -7.562   6.971  66.398  1.00  0.00    -0.088 C  
HETATM    9  N   UNL     1      -8.446   5.908  66.452  1.00  0.00    -0.117 N  
HETATM   10  O   UNL     1      -6.516   6.974  65.757  1.00  0.00    -0.048 OA 
HETATM   11  H   UNL     1      -9.310   6.035  66.978  1.00  0.00     0.000 HD 
BRANCH   9  12
HETATM   12  C   UNL     1      -8.224   4.614  65.802  1.00  0.00    -0.111 C  
HETATM   13  C   UNL     1      -8.079   4.762  64.267  1.00  0.00    -0.111 C  
HETATM   14  C   UNL     1      -7.824   3.392  63.615  1.00  0.00    -0.080 C  
HETATM   15  C   UNL     1      -6.523   2.797  64.173  1.00  0.00    -0.030 C  
HETATM   16  C   UNL     1      -6.633   2.626  65.697  1.00  0.00    -0.032 C  
HETATM   17  C   UNL     1      -7.801   1.679  66.013  1.00  0.00    -0.068 C  
HETATM   18  C   UNL     1      -6.904   3.998  66.342  1.00  0.00    -0.058 C  
HETATM   19  C   UNL     1      -9.112   2.260  65.466  1.00  0.00    -0.096 C  
HETATM   20  C   UNL     1      -9.373   3.625  66.121  1.00  0.00    -0.181 C  
HETATM   21  C   UNL     1      -8.995   2.449  63.942  1.00  0.00    -0.097 C  
ENDBRANCH   9  12
ENDBRANCH   7   8
ENDBRANCH   6   7
ENDBRANCH   5   6
ENDBRANCH   4   5
ENDBRANCH   2   4
TORSDOF 6
ENDMDL
MODEL      211
REMARK 921   NORMALIZED FREE ENERGY PREDICTED BY IDOCK:   -1.88 KCAL/MOL
REMARK 922        TOTAL FREE ENERGY PREDICTED BY IDOCK:   -2.38 KCAL/MOL
REMARK 923 INTER-LIGAND FREE ENERGY PREDICTED BY IDOCK:   -2.35 KCAL/MOL
REMARK 924 INTRA-LIGAND FREE ENERGY PREDICTED BY IDOCK:   -0.03 KCAL/MOL
REMARK 927      BINDING AFFINITY PREDICTED BY RF-SCORE:    0.00 PKD
ROOT
HETATM    1  C   UNL     1      -6.237   9.614  68.679  1.00  0.00    -0.043 C  
HETATM    2  N   UNL     1      -7.009   8.728  69.557  1.00  0.00    -0.054 NA 
HETATM    3  C   UNL     1      -7.057   9.295  70.907  1.00  0.00    -0.103 C  
ENDROOT
BRANCH   2   4
HETATM    4  C   UNL     1      -8.357   8.525  68.989  1.00  0.00    -0.118 C  
BRANCH   4   5
HETATM    5  C   UNL     1      -8.657   9.362  67.737  1.00  0.00    -0.116 C  
BRANCH   5   6
HETATM    6  O   UNL     1      -9.430   8.577  66.822  1.00  0.00    -0.165 OA 
BRANCH   6   7
HETATM    7  C   UNL     1      -8.743   8.412  65.585  1.00  0.00    -0.172 C  
BRANCH   7   8
HETATM    8  C   UNL     1      -8.144   7.014  65.474  1.00  0.00    -0.132 C  
HETATM    9  N   UNL     1      -9.032   6.069  64.993  1.00  0.00    -0.366 N  
HETATM   10  O   UNL     1      -6.970   6.790  65.748  1.00  0.00    -0.061 OA 
HETATM   11  H   UNL     1      -9.974   6.379  64.753  1.00  0.00     0.000 HD 
BRANCH   9  12
HETATM   12  C   UNL     1      -8.709   4.653  64.804  1.00  0.00    -0.150 C  
HETATM   13  C   UNL     1      -7.665   4.449  63.678  1.00  0.00    -0.071 C  
HETATM   14  C   UNL     1      -7.329   2.956  63.517  1.00  0.00    -0.057 C  
HETATM   15  C   UNL     1      -6.739   2.423  64.831  1.00  0.00    -0.039 C  
HETATM   16  C   UNL     1      -7.754   2.599  65.973  1.00  0.00    -0.080 C  
HETATM   17  C   UNL     1      -9.032   1.816  65.634  1.00  0.00    -0.109 C  
HETATM   18  C   UNL     1      -8.099   4.094  66.118  1.00  0.00    -0.098 C  
HETATM   19  C   UNL     1      -9.638   2.339  64.324  1.00  0.00    -0.132 C  
HETATM   20  C   UNL     1      -9.981   3.828  64.484  1.00  0.00    -0.201 C  
HETATM   21  C   UNL     1      -8.614   2.180  63.185  1.00  0.00    -0.084 C  
ENDBRANCH   9  12
ENDBRANCH   7   8
ENDBRANCH   6   7
ENDBRANCH   5   6
ENDBRANCH   4   5
ENDBRANCH   2   4
TORSDOF 6
ENDMDL
MODEL      212
REMARK 921   NORMALIZED FREE ENERGY PREDICTED BY IDOCK:    0.38 KCAL/MOL
REMARK 922        TOTAL FREE ENERGY PREDICTED BY IDOCK:    0.68 KCAL/MOL
REMARK 923 INTER-LIGAND FREE ENERGY PREDICTED BY IDOCK:   -2.26 KCAL/MOL
REMARK 924 INTRA-LIGAND FREE ENERGY PREDICTED BY IDOCK:    2.94 KCAL/MOL
REMARK 927      BINDING AFFINITY PREDICTED BY RF-SCORE:    0.00 PKD
ROOT
HETATM    1  C   UNL     1     -10.634   7.731  69.797  1.00  0.00    -0.241 C  
HETATM    2  N   UNL     1     -10.763   6.274  69.694  1.00  0.00    -0.270 NA 
HETATM    3  C   UNL     1     -10.689   5.873  68.287  1.00  0.00    -0.243 C  
ENDROOT
BRANCH   2   4
HETATM    4  C   UNL     1      -9.718   5.628  70.513  1.00  0.00    -0.180 C  
BRANCH   4   5
HETATM    5  C   UNL     1      -8.977   6.575  71.469  1.00  0.00    -0.140 C  
BRANCH   5   6
HETATM    6  O   UNL     1      -7.879   5.875  72.065  1.00  0.00    -0.104 OA 
BRANCH   6   7
HETATM    7  C   UNL     1      -7.199   5.077  71.101  1.00  0.00    -0.064 C  
BRANCH   7   8
HETATM    8  C   UNL     1      -7.117   5.795  69.758  1.00  0.00    -0.068 C  
HETATM    9  N   UNL     1      -7.206   7.172  69.860  1.00  0.00    -0.077 N  
HETATM   10  O   UNL     1      -6.939   5.185  68.709  1.00  0.00    -0.050 OA 
HETATM   11  H   UNL     1      -7.306   7.574  70.792  1.00  0.00     0.000 HD 
BRANCH   9  12
HETATM   12  C   UNL     1      -7.166   8.089  68.719  1.00  0.00    -0.083 C  
HETATM   13  C   UNL     1      -5.713   8.484  68.353  1.00  0.00    -0.038 C  
HETATM   14  C   UNL     1      -5.700   9.429  67.139  1.00  0.00    -0.044 C  
HETATM   15  C   UNL     1      -6.330   8.717  65.933  1.00  0.00    -0.056 C  
HETATM   16  C   UNL     1      -7.781   8.318  66.256  1.00  0.00    -0.097 C  
HETATM   17  C   UNL     1      -8.589   9.584  66.579  1.00  0.00    -0.142 C  
HETATM   18  C   UNL     1      -7.788   7.385  67.482  1.00  0.00    -0.112 C  
HETATM   19  C   UNL     1      -7.975  10.307  67.786  1.00  0.00    -0.102 C  
HETATM   20  C   UNL     1      -7.993   9.368  69.002  1.00  0.00    -0.091 C  
HETATM   21  C   UNL     1      -6.517  10.690  67.470  1.00  0.00    -0.058 C  
ENDBRANCH   9  12
ENDBRANCH   7   8
ENDBRANCH   6   7
ENDBRANCH   5   6
ENDBRANCH   4   5
ENDBRANCH   2   4
TORSDOF 6
ENDMDL
MODEL      213
REMARK 921   NORMALIZED FREE ENERGY PREDICTED BY IDOCK:   25.57 KCAL/MOL
REMARK 922        TOTAL FREE ENERGY PREDICTED BY IDOCK:   34.71 KCAL/MOL
REMARK 923 INTER-LIGAND FREE ENERGY PREDICTED BY IDOCK:   34.34 KCAL/MOL
REMARK 924 INTRA-LIGAND FREE ENERGY PREDICTED BY IDOCK:    0.36 KCAL/MOL
REMARK 927      BINDING AFFINITY PREDICTED BY RF-SCORE:    0.00 PKD
ROOT
HETATM    1  C   UNL     1      -8.560   8.380  65.393  1.00  0.00    -0.167 C  
HETATM    2  N   UNL     1      -8.354   9.487  66.333  1.00  0.00    -0.118 NA 
HETATM    3  C   UNL     1      -7.079  10.146  66.043  1.00  0.00    -0.118 C  
ENDROOT
BRANCH   2   4
HETATM    4  C   UNL     1      -9.495  10.420  66.252  1.00  0.00    -0.171 C  
BRANCH   4   5
HETATM    5  C   UNL     1      -9.156  11.877  66.602  1.00  0.00    -0.203 C  
BRANCH   5   6
HETATM    6  O   UNL     1     -10.325  12.519  67.123  1.00  0.00    -0.219 OA 
BRANCH   6   7
HETATM    7  C   UNL     1     -10.129  13.925  67.236  1.00  0.00    -0.242 C  
BRANCH   7   8
HETATM    8  C   UNL     1     -10.681  14.449  68.557  1.00  0.00    -0.253 C  
HETATM    9  N   UNL     1     -10.029  15.578  69.020  1.00  0.00    -0.219 N  
HETATM   10  O   UNL     1     -11.644  13.927  69.107  1.00  0.00    -0.269 OA 
HETATM   11  H   UNL     1      -9.268  15.954  68.454  1.00  0.00     0.000 HD 
BRANCH   9  12
HETATM   12  C   UNL     1     -10.358  16.269  70.269  1.00  0.00     0.160 C  
HETATM   13  C   UNL     1     -11.871  16.179  70.590  1.00  0.00    -0.241 C  
HETATM   14  C   UNL     1     -12.184  16.893  71.917  1.00  0.00     1.230 C  
HETATM   15  C   UNL     1     -11.403  16.218  73.054  1.00  0.00     0.582 C  
HETATM   16  C   UNL     1      -9.892  16.297  72.774  1.00  0.00     8.204 C  
HETATM   17  C   UNL     1      -9.476  17.773  72.677  1.00  0.00    11.859 C  
HETATM   18  C   UNL     1      -9.588  15.595  71.437  1.00  0.00     2.921 C  
HETATM   19  C   UNL     1     -10.245  18.463  71.541  1.00  0.00     3.939 C  
HETATM   20  C   UNL     1      -9.929  17.756  70.214  1.00  0.00     1.576 C  
HETATM   21  C   UNL     1     -11.757  18.367  71.812  1.00  0.00     6.093 C  
ENDBRANCH   9  12
ENDBRANCH   7   8
ENDBRANCH   6   7
ENDBRANCH   5   6
ENDBRANCH   4   5
ENDBRANCH   2   4
TORSDOF 6
ENDMDL
