MODEL        1
REMARK 921   NORMALIZED FREE ENERGY PREDICTED BY IDOCK:   -6.33 KCAL/MOL
REMARK 922        TOTAL FREE ENERGY PREDICTED BY IDOCK:   -8.46 KCAL/MOL
REMARK 923 INTER-LIGAND FREE ENERGY PREDICTED BY IDOCK:   -7.44 KCAL/MOL
REMARK 924 INTRA-LIGAND FREE ENERGY PREDICTED BY IDOCK:   -1.02 KCAL/MOL
REMARK 927      BINDING AFFINITY PREDICTED BY RF-SCORE:    0.00 PKD
ROOT
HETATM    1  C   UNL     1     -11.104  11.770  65.880  1.00  0.00    -0.355 C  
HETATM    2  C   UNL     1     -12.014  12.478  66.880  1.00  0.00    -0.236 C  
ENDROOT
BRANCH   2   3
HETATM    3  N   UNL     1     -11.415  12.976  68.135  1.00  0.00    -0.297 N  
HETATM    4  C   UNL     1     -13.121  15.245  70.355  1.00  0.00    -0.240 A  
HETATM    5  C   UNL     1     -11.184  14.355  68.278  1.00  0.00    -0.275 C  
HETATM    6  C   UNL     1     -10.679  14.901  69.631  1.00  0.00    -0.245 C  
HETATM    7  C   UNL     1     -14.084  15.446  71.348  1.00  0.00    -0.539 A  
HETATM    8  O   UNL     1     -11.427  15.159  67.371  1.00  0.00    -0.332 OA 
HETATM    9  C   UNL     1     -13.714  15.470  72.690  1.00  0.00    -0.667 A  
HETATM   10  C   UNL     1     -11.770  15.056  70.688  1.00  0.00    -0.357 A  
HETATM   11  C   UNL     1      -9.952  16.246  69.391  1.00  0.00    -0.232 C  
HETATM   12  H   UNL     1     -10.361  18.109  68.765  1.00  0.00     0.000 HD 
HETATM   13  O   UNL     1     -10.806  17.283  68.912  1.00  0.00    -0.261 OA 
HETATM   14  C   UNL     1     -11.413  15.094  72.048  1.00  0.00    -0.450 A  
HETATM   15  C   UNL     1     -12.377  15.300  73.040  1.00  0.00    -0.525 A  
BRANCH   3  16
HETATM   16  C   UNL     1     -10.557  12.039  68.885  1.00  0.00    -0.159 C  
BRANCH  16  17
HETATM   17  C   UNL     1     -11.222  11.183  69.937  1.00  0.00    -0.293 A  
HETATM   18  C   UNL     1     -12.352  11.637  70.630  1.00  0.00    -0.437 A  
HETATM   19  C   UNL     1     -11.335   9.189  71.259  1.00  0.00    -0.336 A  
HETATM   20  C   UNL     1     -12.902  10.831  71.615  1.00  0.00    -0.457 A  
HETATM   21  C   UNL     1     -10.711   9.926  70.264  1.00  0.00    -0.367 A  
HETATM   22  N   UNL     1     -12.418   9.617  71.945  1.00  0.00    -0.384 NA 
ENDBRANCH  16  17
ENDBRANCH   3  16
ENDBRANCH   2   3
TORSDOF 3
ENDMDL
MODEL        2
REMARK 921   NORMALIZED FREE ENERGY PREDICTED BY IDOCK:   -6.30 KCAL/MOL
REMARK 922        TOTAL FREE ENERGY PREDICTED BY IDOCK:   -8.43 KCAL/MOL
REMARK 923 INTER-LIGAND FREE ENERGY PREDICTED BY IDOCK:   -7.37 KCAL/MOL
REMARK 924 INTRA-LIGAND FREE ENERGY PREDICTED BY IDOCK:   -1.06 KCAL/MOL
REMARK 927      BINDING AFFINITY PREDICTED BY RF-SCORE:    0.00 PKD
ROOT
HETATM    1  C   UNL     1     -11.873  15.908  72.178  1.00  0.00    -0.615 C  
HETATM    2  C   UNL     1     -12.332  15.779  70.728  1.00  0.00    -0.390 C  
ENDROOT
BRANCH   2   3
HETATM    3  N   UNL     1     -11.414  15.143  69.762  1.00  0.00    -0.276 N  
HETATM    4  C   UNL     1     -12.516  13.808  66.600  1.00  0.00    -0.307 A  
HETATM    5  C   UNL     1     -11.604  13.790  69.433  1.00  0.00    -0.310 C  
HETATM    6  C   UNL     1     -10.733  13.150  68.331  1.00  0.00    -0.270 C  
HETATM    7  C   UNL     1     -12.910  14.039  65.279  1.00  0.00    -0.418 A  
HETATM    8  O   UNL     1     -12.488  13.104  69.959  1.00  0.00    -0.203 OA 
HETATM    9  C   UNL     1     -11.987  13.932  64.243  1.00  0.00    -0.477 A  
HETATM   10  C   UNL     1     -11.187  13.475  66.909  1.00  0.00    -0.329 A  
HETATM   11  C   UNL     1     -10.683  11.619  68.554  1.00  0.00    -0.218 C  
HETATM   12  H   UNL     1     -11.914  10.034  68.534  1.00  0.00     0.000 HD 
HETATM   13  O   UNL     1     -11.944  10.973  68.398  1.00  0.00    -0.565 OA 
HETATM   14  C   UNL     1     -10.271  13.361  65.848  1.00  0.00    -0.302 A  
HETATM   15  C   UNL     1     -10.668  13.586  64.526  1.00  0.00    -0.431 A  
BRANCH   3  16
HETATM   16  C   UNL     1     -10.055  15.706  69.659  1.00  0.00    -0.291 C  
BRANCH  16  17
HETATM   17  C   UNL     1      -9.697  16.418  68.375  1.00  0.00    -0.229 A  
HETATM   18  C   UNL     1      -8.508  16.126  67.693  1.00  0.00    -0.178 A  
HETATM   19  C   UNL     1     -10.146  18.056  66.686  1.00  0.00    -0.372 A  
HETATM   20  C   UNL     1      -8.204  16.836  66.541  1.00  0.00    -0.290 A  
HETATM   21  C   UNL     1     -10.531  17.406  67.849  1.00  0.00    -0.383 A  
HETATM   22  N   UNL     1      -8.997  17.795  66.023  1.00  0.00    -0.514 NA 
ENDBRANCH  16  17
ENDBRANCH   3  16
ENDBRANCH   2   3
TORSDOF 3
ENDMDL
MODEL        3
REMARK 921   NORMALIZED FREE ENERGY PREDICTED BY IDOCK:   -6.25 KCAL/MOL
REMARK 922        TOTAL FREE ENERGY PREDICTED BY IDOCK:   -8.37 KCAL/MOL
REMARK 923 INTER-LIGAND FREE ENERGY PREDICTED BY IDOCK:   -7.36 KCAL/MOL
REMARK 924 INTRA-LIGAND FREE ENERGY PREDICTED BY IDOCK:   -1.01 KCAL/MOL
REMARK 927      BINDING AFFINITY PREDICTED BY RF-SCORE:    0.00 PKD
ROOT
HETATM    1  C   UNL     1     -11.896  15.851  72.149  1.00  0.00    -0.615 C  
HETATM    2  C   UNL     1     -12.385  15.602  70.725  1.00  0.00    -0.419 C  
ENDROOT
BRANCH   2   3
HETATM    3  N   UNL     1     -11.431  15.034  69.751  1.00  0.00    -0.277 N  
HETATM    4  C   UNL     1     -12.449  13.683  66.568  1.00  0.00    -0.337 A  
HETATM    5  C   UNL     1     -11.541  13.677  69.402  1.00  0.00    -0.312 C  
HETATM    6  C   UNL     1     -10.632  13.105  68.293  1.00  0.00    -0.260 C  
HETATM    7  C   UNL     1     -12.854  13.910  65.250  1.00  0.00    -0.437 A  
HETATM    8  O   UNL     1     -12.383  12.933  69.917  1.00  0.00    -0.209 OA 
HETATM    9  C   UNL     1     -11.925  13.872  64.214  1.00  0.00    -0.477 A  
HETATM   10  C   UNL     1     -11.103  13.424  66.875  1.00  0.00    -0.309 A  
HETATM   11  C   UNL     1     -10.493  11.577  68.494  1.00  0.00    -0.208 C  
HETATM   12  H   UNL     1     -11.630   9.923  68.449  1.00  0.00     0.000 HD 
HETATM   13  O   UNL     1     -11.715  10.861  68.326  1.00  0.00    -0.472 OA 
HETATM   14  C   UNL     1     -10.180  13.378  65.814  1.00  0.00    -0.300 A  
HETATM   15  C   UNL     1     -10.588  13.600  64.495  1.00  0.00    -0.428 A  
BRANCH   3  16
HETATM   16  C   UNL     1     -10.106  15.677  69.659  1.00  0.00    -0.291 C  
BRANCH  16  17
HETATM   17  C   UNL     1      -9.815  16.486  68.416  1.00  0.00    -0.237 A  
HETATM   18  C   UNL     1     -10.629  17.565  68.049  1.00  0.00    -0.384 A  
HETATM   19  C   UNL     1      -8.532  16.909  66.438  1.00  0.00    -0.290 A  
HETATM   20  C   UNL     1     -10.345  18.251  66.878  1.00  0.00    -0.385 A  
HETATM   21  C   UNL     1      -8.742  16.159  67.585  1.00  0.00    -0.184 A  
HETATM   22  N   UNL     1      -9.315  17.946  66.064  1.00  0.00    -0.527 NA 
ENDBRANCH  16  17
ENDBRANCH   3  16
ENDBRANCH   2   3
TORSDOF 3
ENDMDL
MODEL        4
REMARK 921   NORMALIZED FREE ENERGY PREDICTED BY IDOCK:   -6.07 KCAL/MOL
REMARK 922        TOTAL FREE ENERGY PREDICTED BY IDOCK:   -8.15 KCAL/MOL
REMARK 923 INTER-LIGAND FREE ENERGY PREDICTED BY IDOCK:   -7.12 KCAL/MOL
REMARK 924 INTRA-LIGAND FREE ENERGY PREDICTED BY IDOCK:   -1.03 KCAL/MOL
REMARK 927      BINDING AFFINITY PREDICTED BY RF-SCORE:    0.00 PKD
ROOT
HETATM    1  C   UNL     1     -11.793  16.022  71.612  1.00  0.00    -0.582 C  
HETATM    2  C   UNL     1     -12.286  15.625  70.223  1.00  0.00    -0.370 C  
ENDROOT
BRANCH   2   3
HETATM    3  N   UNL     1     -11.305  15.072  69.268  1.00  0.00    -0.278 N  
HETATM    4  C   UNL     1     -12.260  13.163  66.363  1.00  0.00    -0.396 A  
HETATM    5  C   UNL     1     -11.224  13.678  69.105  1.00  0.00    -0.261 C  
HETATM    6  C   UNL     1     -10.295  13.096  68.019  1.00  0.00    -0.240 C  
HETATM    7  C   UNL     1     -12.758  13.145  65.058  1.00  0.00    -0.456 A  
HETATM    8  O   UNL     1     -11.918  12.899  69.769  1.00  0.00    -0.313 OA 
HETATM    9  C   UNL     1     -11.886  13.098  63.974  1.00  0.00    -0.514 A  
HETATM   10  C   UNL     1     -10.877  13.145  66.608  1.00  0.00    -0.292 A  
HETATM   11  C   UNL     1      -9.915  11.646  68.406  1.00  0.00    -0.201 C  
HETATM   12  H   UNL     1     -10.787   9.856  68.653  1.00  0.00     0.000 HD 
HETATM   13  O   UNL     1     -11.020  10.745  68.416  1.00  0.00    -0.210 OA 
HETATM   14  C   UNL     1     -10.010  13.087  65.501  1.00  0.00    -0.226 A  
HETATM   15  C   UNL     1     -10.511  13.063  64.196  1.00  0.00    -0.395 A  
BRANCH   3  16
HETATM   16  C   UNL     1     -10.100  15.880  69.002  1.00  0.00    -0.228 C  
BRANCH  16  17
HETATM   17  C   UNL     1     -10.251  17.064  68.075  1.00  0.00    -0.319 A  
HETATM   18  C   UNL     1     -10.377  16.887  66.691  1.00  0.00    -0.299 A  
HETATM   19  C   UNL     1     -10.352  19.424  67.681  1.00  0.00    -0.437 A  
HETATM   20  C   UNL     1     -10.472  18.006  65.878  1.00  0.00    -0.264 A  
HETATM   21  C   UNL     1     -10.243  18.368  68.573  1.00  0.00    -0.394 A  
HETATM   22  N   UNL     1     -10.461  19.271  66.343  1.00  0.00    -0.449 NA 
ENDBRANCH  16  17
ENDBRANCH   3  16
ENDBRANCH   2   3
TORSDOF 3
ENDMDL
MODEL        5
REMARK 921   NORMALIZED FREE ENERGY PREDICTED BY IDOCK:   -5.72 KCAL/MOL
REMARK 922        TOTAL FREE ENERGY PREDICTED BY IDOCK:   -7.75 KCAL/MOL
REMARK 923 INTER-LIGAND FREE ENERGY PREDICTED BY IDOCK:   -6.74 KCAL/MOL
REMARK 924 INTRA-LIGAND FREE ENERGY PREDICTED BY IDOCK:   -1.01 KCAL/MOL
REMARK 927      BINDING AFFINITY PREDICTED BY RF-SCORE:    0.00 PKD
ROOT
HETATM    1  C   UNL     1     -12.381  12.167  63.370  1.00  0.00    -0.648 C  
HETATM    2  C   UNL     1     -12.153  13.573  63.919  1.00  0.00    -0.438 C  
ENDROOT
BRANCH   2   3
HETATM    3  N   UNL     1     -11.084  13.763  64.920  1.00  0.00    -0.344 N  
HETATM    4  C   UNL     1     -11.519  15.749  67.897  1.00  0.00    -0.221 A  
HETATM    5  C   UNL     1     -10.593  15.059  65.154  1.00  0.00    -0.418 C  
HETATM    6  C   UNL     1      -9.569  15.288  66.286  1.00  0.00    -0.331 C  
HETATM    7  C   UNL     1     -12.033  15.863  69.191  1.00  0.00    -0.268 A  
HETATM    8  O   UNL     1     -10.997  16.039  64.516  1.00  0.00    -0.592 OA 
HETATM    9  C   UNL     1     -11.224  15.598  70.293  1.00  0.00    -0.357 A  
HETATM   10  C   UNL     1     -10.187  15.359  67.681  1.00  0.00    -0.246 A  
HETATM   11  C   UNL     1      -8.758  16.570  65.980  1.00  0.00    -0.220 C  
HETATM   12  H   UNL     1      -9.042  18.549  65.805  1.00  0.00     0.000 HD 
HETATM   13  O   UNL     1      -9.539  17.762  65.993  1.00  0.00    -0.499 OA 
HETATM   14  C   UNL     1      -9.382  15.106  68.807  1.00  0.00    -0.200 A  
HETATM   15  C   UNL     1      -9.896  15.225  70.101  1.00  0.00     0.030 A  
BRANCH   3  16
HETATM   16  C   UNL     1     -10.188  12.618  65.169  1.00  0.00    -0.280 C  
BRANCH  16  17
HETATM   17  C   UNL     1     -10.537  11.704  66.321  1.00  0.00    -0.301 A  
HETATM   18  C   UNL     1     -10.006  10.411  66.404  1.00  0.00    -0.277 A  
HETATM   19  C   UNL     1     -11.737  11.234  68.339  1.00  0.00    -0.294 A  
HETATM   20  C   UNL     1     -10.389   9.595  67.458  1.00  0.00    -0.241 A  
HETATM   21  C   UNL     1     -11.420  12.118  67.319  1.00  0.00    -0.413 A  
HETATM   22  N   UNL     1     -11.244   9.979  68.427  1.00  0.00    -0.182 NA 
ENDBRANCH  16  17
ENDBRANCH   3  16
ENDBRANCH   2   3
TORSDOF 3
ENDMDL
MODEL        6
REMARK 921   NORMALIZED FREE ENERGY PREDICTED BY IDOCK:   -5.69 KCAL/MOL
REMARK 922        TOTAL FREE ENERGY PREDICTED BY IDOCK:   -7.70 KCAL/MOL
REMARK 923 INTER-LIGAND FREE ENERGY PREDICTED BY IDOCK:   -7.14 KCAL/MOL
REMARK 924 INTRA-LIGAND FREE ENERGY PREDICTED BY IDOCK:   -0.57 KCAL/MOL
REMARK 927      BINDING AFFINITY PREDICTED BY RF-SCORE:    0.00 PKD
ROOT
HETATM    1  C   UNL     1     -11.701  13.471  64.414  1.00  0.00    -0.443 C  
HETATM    2  C   UNL     1     -10.430  13.851  65.168  1.00  0.00    -0.393 C  
ENDROOT
BRANCH   2   3
HETATM    3  N   UNL     1     -10.560  14.710  66.362  1.00  0.00    -0.295 N  
HETATM    4  C   UNL     1      -9.081  17.989  66.587  1.00  0.00    -0.290 A  
HETATM    5  C   UNL     1      -9.402  15.070  67.071  1.00  0.00    -0.224 C  
HETATM    6  C   UNL     1      -9.512  16.070  68.242  1.00  0.00    -0.206 C  
HETATM    7  C   UNL     1      -9.126  19.345  66.249  1.00  0.00    -0.380 A  
HETATM    8  O   UNL     1      -8.281  14.655  66.753  1.00  0.00    -0.146 OA 
HETATM    9  C   UNL     1      -9.683  20.269  67.129  1.00  0.00    -0.592 A  
HETATM   10  C   UNL     1      -9.602  17.532  67.808  1.00  0.00    -0.269 A  
HETATM   11  C   UNL     1      -8.316  15.856  69.201  1.00  0.00    -0.253 C  
HETATM   12  H   UNL     1      -6.317  16.031  69.208  1.00  0.00     0.000 HD 
HETATM   13  O   UNL     1      -7.051  16.162  68.620  1.00  0.00    -0.133 OA 
HETATM   14  C   UNL     1     -10.152  18.481  68.689  1.00  0.00    -0.406 A  
HETATM   15  C   UNL     1     -10.191  19.838  68.352  1.00  0.00    -0.568 A  
BRANCH   3  16
HETATM   16  C   UNL     1     -11.841  14.651  67.093  1.00  0.00    -0.345 C  
BRANCH  16  17
HETATM   17  C   UNL     1     -11.944  13.657  68.226  1.00  0.00    -0.385 A  
HETATM   18  C   UNL     1     -12.177  14.080  69.541  1.00  0.00    -0.355 A  
HETATM   19  C   UNL     1     -11.854  11.416  69.070  1.00  0.00    -0.348 A  
HETATM   20  C   UNL     1     -12.222  13.133  70.553  1.00  0.00    -0.328 A  
HETATM   21  C   UNL     1     -11.784  12.289  67.995  1.00  0.00    -0.417 A  
HETATM   22  N   UNL     1     -12.066  11.810  70.345  1.00  0.00    -0.365 NA 
ENDBRANCH  16  17
ENDBRANCH   3  16
ENDBRANCH   2   3
TORSDOF 3
ENDMDL
MODEL        7
REMARK 921   NORMALIZED FREE ENERGY PREDICTED BY IDOCK:   -5.56 KCAL/MOL
REMARK 922        TOTAL FREE ENERGY PREDICTED BY IDOCK:   -7.56 KCAL/MOL
REMARK 923 INTER-LIGAND FREE ENERGY PREDICTED BY IDOCK:   -7.75 KCAL/MOL
REMARK 924 INTRA-LIGAND FREE ENERGY PREDICTED BY IDOCK:    0.19 KCAL/MOL
REMARK 927      BINDING AFFINITY PREDICTED BY RF-SCORE:    0.00 PKD
ROOT
HETATM    1  C   UNL     1     -12.408  14.062  65.964  1.00  0.00    -0.504 C  
HETATM    2  C   UNL     1     -12.151  13.844  67.453  1.00  0.00    -0.345 C  
ENDROOT
BRANCH   2   3
HETATM    3  N   UNL     1     -11.532  14.943  68.221  1.00  0.00    -0.311 N  
HETATM    4  C   UNL     1     -10.104  17.862  66.660  1.00  0.00    -0.362 A  
HETATM    5  C   UNL     1     -10.167  15.221  68.031  1.00  0.00    -0.230 C  
HETATM    6  C   UNL     1      -9.540  16.446  68.730  1.00  0.00    -0.249 C  
HETATM    7  C   UNL     1     -10.298  19.100  66.043  1.00  0.00    -0.538 A  
HETATM    8  O   UNL     1      -9.459  14.546  67.274  1.00  0.00    -0.206 OA 
HETATM    9  C   UNL     1     -10.207  20.275  66.784  1.00  0.00    -0.497 A  
HETATM   10  C   UNL     1      -9.825  17.775  68.033  1.00  0.00    -0.317 A  
HETATM   11  C   UNL     1      -8.017  16.217  68.876  1.00  0.00    -0.230 C  
HETATM   12  H   UNL     1      -6.388  16.014  67.720  1.00  0.00     0.000 HD 
HETATM   13  O   UNL     1      -7.323  16.154  67.631  1.00  0.00    -0.123 OA 
HETATM   14  C   UNL     1      -9.725  18.973  68.764  1.00  0.00    -0.473 A  
HETATM   15  C   UNL     1      -9.914  20.212  68.144  1.00  0.00    -0.486 A  
BRANCH   3  16
HETATM   16  C   UNL     1     -12.142  15.278  69.522  1.00  0.00    -0.290 C  
BRANCH  16  17
HETATM   17  C   UNL     1     -12.518  14.127  70.425  1.00  0.00    -0.424 A  
HETATM   18  C   UNL     1     -12.091  12.821  70.150  1.00  0.00    -0.370 A  
HETATM   19  C   UNL     1     -13.673  13.241  72.328  1.00  0.00    -0.589 A  
HETATM   20  C   UNL     1     -12.497  11.792  70.986  1.00  0.00    -0.309 A  
HETATM   21  C   UNL     1     -13.326  14.331  71.545  1.00  0.00    -0.429 A  
HETATM   22  N   UNL     1     -13.279  11.974  72.069  1.00  0.00    -0.465 NA 
ENDBRANCH  16  17
ENDBRANCH   3  16
ENDBRANCH   2   3
TORSDOF 3
ENDMDL
MODEL        8
REMARK 921   NORMALIZED FREE ENERGY PREDICTED BY IDOCK:   -5.56 KCAL/MOL
REMARK 922        TOTAL FREE ENERGY PREDICTED BY IDOCK:   -7.55 KCAL/MOL
REMARK 923 INTER-LIGAND FREE ENERGY PREDICTED BY IDOCK:   -7.08 KCAL/MOL
REMARK 924 INTRA-LIGAND FREE ENERGY PREDICTED BY IDOCK:   -0.47 KCAL/MOL
REMARK 927      BINDING AFFINITY PREDICTED BY RF-SCORE:    0.00 PKD
ROOT
HETATM    1  C   UNL     1     -12.532  10.791  69.963  1.00  0.00    -0.317 C  
HETATM    2  C   UNL     1     -12.070  12.188  70.367  1.00  0.00    -0.309 C  
ENDROOT
BRANCH   2   3
HETATM    3  N   UNL     1     -11.832  13.179  69.297  1.00  0.00    -0.320 N  
HETATM    4  C   UNL     1     -11.450  12.265  65.831  1.00  0.00    -0.428 A  
HETATM    5  C   UNL     1     -10.635  13.115  68.565  1.00  0.00    -0.259 C  
HETATM    6  C   UNL     1     -10.432  14.062  67.362  1.00  0.00    -0.263 C  
HETATM    7  C   UNL     1     -12.044  11.881  64.626  1.00  0.00    -0.221 A  
HETATM    8  O   UNL     1      -9.754  12.284  68.816  1.00  0.00    -0.112 OA 
HETATM    9  C   UNL     1     -12.331  12.832  63.650  1.00  0.00    -0.553 A  
HETATM   10  C   UNL     1     -11.142  13.611  66.087  1.00  0.00    -0.299 A  
HETATM   11  C   UNL     1      -8.915  14.242  67.113  1.00  0.00    -0.225 C  
HETATM   12  H   UNL     1      -7.323  13.155  66.555  1.00  0.00     0.000 HD 
HETATM   13  O   UNL     1      -8.254  13.045  66.708  1.00  0.00    -0.046 OA 
HETATM   14  C   UNL     1     -11.429  14.557  65.085  1.00  0.00    -0.368 A  
HETATM   15  C   UNL     1     -12.017  14.170  63.878  1.00  0.00    -0.278 A  
BRANCH   3  16
HETATM   16  C   UNL     1     -12.503  14.486  69.434  1.00  0.00    -0.078 C  
BRANCH  16  17
HETATM   17  C   UNL     1     -12.721  15.007  70.835  1.00  0.00    -0.437 A  
HETATM   18  C   UNL     1     -13.987  14.970  71.432  1.00  0.00    -0.565 A  
HETATM   19  C   UNL     1     -11.921  16.063  72.831  1.00  0.00    -0.506 A  
HETATM   20  C   UNL     1     -14.145  15.499  72.704  1.00  0.00    -0.450 A  
HETATM   21  C   UNL     1     -11.668  15.567  71.562  1.00  0.00    -0.479 A  
HETATM   22  N   UNL     1     -13.140  16.045  73.417  1.00  0.00    -0.570 NA 
ENDBRANCH  16  17
ENDBRANCH   3  16
ENDBRANCH   2   3
TORSDOF 3
ENDMDL
MODEL        9
REMARK 921   NORMALIZED FREE ENERGY PREDICTED BY IDOCK:   -5.53 KCAL/MOL
REMARK 922        TOTAL FREE ENERGY PREDICTED BY IDOCK:   -7.51 KCAL/MOL
REMARK 923 INTER-LIGAND FREE ENERGY PREDICTED BY IDOCK:   -6.54 KCAL/MOL
REMARK 924 INTRA-LIGAND FREE ENERGY PREDICTED BY IDOCK:   -0.98 KCAL/MOL
REMARK 927      BINDING AFFINITY PREDICTED BY RF-SCORE:    0.00 PKD
ROOT
HETATM    1  C   UNL     1     -10.034  18.595  68.478  1.00  0.00    -0.430 C  
HETATM    2  C   UNL     1      -9.669  17.159  68.845  1.00  0.00    -0.256 C  
ENDROOT
BRANCH   2   3
HETATM    3  N   UNL     1     -10.618  16.086  68.486  1.00  0.00    -0.255 N  
HETATM    4  C   UNL     1      -9.616  12.654  68.030  1.00  0.00    -0.213 A  
HETATM    5  C   UNL     1     -10.449  15.407  67.267  1.00  0.00    -0.282 C  
HETATM    6  C   UNL     1     -11.356  14.201  66.940  1.00  0.00    -0.343 C  
HETATM    7  C   UNL     1      -9.257  11.429  68.599  1.00  0.00    -0.149 A  
HETATM    8  O   UNL     1      -9.557  15.709  66.465  1.00  0.00    -0.237 OA 
HETATM    9  C   UNL     1     -10.209  10.429  68.770  1.00  0.00    -0.201 A  
HETATM   10  C   UNL     1     -10.938  12.903  67.628  1.00  0.00    -0.274 A  
HETATM   11  C   UNL     1     -11.413  14.016  65.405  1.00  0.00    -0.315 C  
HETATM   12  H   UNL     1     -10.196  13.544  63.880  1.00  0.00     0.000 HD 
HETATM   13  O   UNL     1     -10.162  13.658  64.822  1.00  0.00    -0.392 OA 
HETATM   14  C   UNL     1     -11.885  11.876  67.797  1.00  0.00    -0.289 A  
HETATM   15  C   UNL     1     -11.523  10.650  68.363  1.00  0.00    -0.330 A  
BRANCH   3  16
HETATM   16  C   UNL     1     -11.975  16.174  69.057  1.00  0.00    -0.053 C  
BRANCH  16  17
HETATM   17  C   UNL     1     -12.194  15.553  70.417  1.00  0.00    -0.443 A  
HETATM   18  C   UNL     1     -11.788  16.210  71.586  1.00  0.00    -0.557 A  
HETATM   19  C   UNL     1     -12.934  13.749  71.808  1.00  0.00    -0.355 A  
HETATM   20  C   UNL     1     -11.973  15.581  72.808  1.00  0.00    -0.466 A  
HETATM   21  C   UNL     1     -12.783  14.294  70.542  1.00  0.00    -0.391 A  
HETATM   22  N   UNL     1     -12.537  14.364  72.944  1.00  0.00    -0.307 NA 
ENDBRANCH  16  17
ENDBRANCH   3  16
ENDBRANCH   2   3
TORSDOF 3
ENDMDL
MODEL       10
REMARK 921   NORMALIZED FREE ENERGY PREDICTED BY IDOCK:   -5.46 KCAL/MOL
REMARK 922        TOTAL FREE ENERGY PREDICTED BY IDOCK:   -7.44 KCAL/MOL
REMARK 923 INTER-LIGAND FREE ENERGY PREDICTED BY IDOCK:   -6.91 KCAL/MOL
REMARK 924 INTRA-LIGAND FREE ENERGY PREDICTED BY IDOCK:   -0.52 KCAL/MOL
REMARK 927      BINDING AFFINITY PREDICTED BY RF-SCORE:    0.00 PKD
ROOT
HETATM    1  C   UNL     1      -7.834  15.416  66.880  1.00  0.00    -0.196 C  
HETATM    2  C   UNL     1      -8.458  15.807  68.217  1.00  0.00    -0.164 C  
ENDROOT
BRANCH   2   3
HETATM    3  N   UNL     1      -9.911  15.607  68.392  1.00  0.00    -0.204 N  
HETATM    4  C   UNL     1     -11.417  14.858  71.580  1.00  0.00    -0.307 A  
HETATM    5  C   UNL     1     -10.378  14.358  68.836  1.00  0.00    -0.231 C  
HETATM    6  C   UNL     1     -11.880  14.178  69.144  1.00  0.00    -0.380 C  
HETATM    7  C   UNL     1     -11.858  15.308  72.827  1.00  0.00    -0.521 A  
HETATM    8  O   UNL     1      -9.614  13.407  69.043  1.00  0.00     0.089 OA 
HETATM    9  C   UNL     1     -13.197  15.630  73.023  1.00  0.00    -0.664 A  
HETATM   10  C   UNL     1     -12.308  14.730  70.502  1.00  0.00    -0.398 A  
HETATM   11  C   UNL     1     -12.242  12.678  69.022  1.00  0.00     0.018 C  
HETATM   12  H   UNL     1     -11.824  10.931  69.917  1.00  0.00     0.000 HD 
HETATM   13  O   UNL     1     -11.602  11.851  69.992  1.00  0.00    -0.291 OA 
HETATM   14  C   UNL     1     -13.661  15.049  70.722  1.00  0.00    -0.266 A  
HETATM   15  C   UNL     1     -14.101  15.495  71.972  1.00  0.00    -0.598 A  
BRANCH   3  16
HETATM   16  C   UNL     1     -10.805  16.435  67.560  1.00  0.00    -0.249 C  
BRANCH  16  17
HETATM   17  C   UNL     1     -10.465  17.901  67.429  1.00  0.00    -0.390 A  
HETATM   18  C   UNL     1     -10.256  18.700  68.560  1.00  0.00    -0.398 A  
HETATM   19  C   UNL     1     -10.093  19.860  66.101  1.00  0.00    -0.504 A  
HETATM   20  C   UNL     1      -9.987  20.050  68.388  1.00  0.00    -0.359 A  
HETATM   21  C   UNL     1     -10.376  18.505  66.173  1.00  0.00    -0.457 A  
HETATM   22  N   UNL     1      -9.902  20.647  67.183  1.00  0.00    -0.442 NA 
ENDBRANCH  16  17
ENDBRANCH   3  16
ENDBRANCH   2   3
TORSDOF 3
ENDMDL
MODEL       11
REMARK 921   NORMALIZED FREE ENERGY PREDICTED BY IDOCK:   -5.41 KCAL/MOL
REMARK 922        TOTAL FREE ENERGY PREDICTED BY IDOCK:   -7.38 KCAL/MOL
REMARK 923 INTER-LIGAND FREE ENERGY PREDICTED BY IDOCK:   -6.34 KCAL/MOL
REMARK 924 INTRA-LIGAND FREE ENERGY PREDICTED BY IDOCK:   -1.03 KCAL/MOL
REMARK 927      BINDING AFFINITY PREDICTED BY RF-SCORE:    0.00 PKD
ROOT
HETATM    1  C   UNL     1     -13.560  13.772  72.239  1.00  0.00    -0.656 C  
HETATM    2  C   UNL     1     -12.289  13.891  71.402  1.00  0.00    -0.296 C  
ENDROOT
BRANCH   2   3
HETATM    3  N   UNL     1     -12.202  13.107  70.154  1.00  0.00    -0.318 N  
HETATM    4  C   UNL     1      -9.244  13.020  68.097  1.00  0.00    -0.212 A  
HETATM    5  C   UNL     1     -11.995  13.782  68.939  1.00  0.00    -0.359 C  
HETATM    6  C   UNL     1     -11.774  12.965  67.648  1.00  0.00    -0.422 C  
HETATM    7  C   UNL     1      -7.954  12.527  67.881  1.00  0.00    -0.157 A  
HETATM    8  O   UNL     1     -11.926  15.015  68.877  1.00  0.00    -0.304 OA 
HETATM    9  C   UNL     1      -7.752  11.429  67.050  1.00  0.00    -0.154 A  
HETATM   10  C   UNL     1     -10.357  12.416  67.491  1.00  0.00    -0.223 A  
HETATM   11  C   UNL     1     -12.163  13.836  66.429  1.00  0.00    -0.436 C  
HETATM   12  H   UNL     1     -11.566  15.512  65.500  1.00  0.00     0.000 HD 
HETATM   13  O   UNL     1     -11.328  14.977  66.247  1.00  0.00    -0.341 OA 
HETATM   14  C   UNL     1     -10.134  11.314  66.645  1.00  0.00    -0.251 A  
HETATM   15  C   UNL     1      -8.842  10.826  66.426  1.00  0.00    -0.174 A  
BRANCH   3  16
HETATM   16  C   UNL     1     -12.910  11.813  70.126  1.00  0.00     0.291 C  
BRANCH  16  17
HETATM   17  C   UNL     1     -12.266  10.656  70.854  1.00  0.00    -0.497 A  
HETATM   18  C   UNL     1     -12.958   9.950  71.846  1.00  0.00    -0.545 A  
HETATM   19  C   UNL     1     -10.389   9.233  71.290  1.00  0.00    -0.327 A  
HETATM   20  C   UNL     1     -12.309   8.923  72.514  1.00  0.00    -0.255 A  
HETATM   21  C   UNL     1     -10.951  10.279  70.574  1.00  0.00    -0.343 A  
HETATM   22  N   UNL     1     -11.039   8.549  72.258  1.00  0.00    -0.362 NA 
ENDBRANCH  16  17
ENDBRANCH   3  16
ENDBRANCH   2   3
TORSDOF 3
ENDMDL
MODEL       12
REMARK 921   NORMALIZED FREE ENERGY PREDICTED BY IDOCK:   -5.36 KCAL/MOL
REMARK 922        TOTAL FREE ENERGY PREDICTED BY IDOCK:   -7.31 KCAL/MOL
REMARK 923 INTER-LIGAND FREE ENERGY PREDICTED BY IDOCK:   -6.32 KCAL/MOL
REMARK 924 INTRA-LIGAND FREE ENERGY PREDICTED BY IDOCK:   -0.99 KCAL/MOL
REMARK 927      BINDING AFFINITY PREDICTED BY RF-SCORE:    0.00 PKD
ROOT
HETATM    1  C   UNL     1     -12.520  15.800  71.564  1.00  0.00    -0.515 C  
HETATM    2  C   UNL     1     -11.419  14.912  70.990  1.00  0.00    -0.261 C  
ENDROOT
BRANCH   2   3
HETATM    3  N   UNL     1     -11.756  14.034  69.851  1.00  0.00    -0.296 N  
HETATM    4  C   UNL     1      -9.315  12.925  67.442  1.00  0.00    -0.194 A  
HETATM    5  C   UNL     1     -11.577  14.516  68.543  1.00  0.00    -0.313 C  
HETATM    6  C   UNL     1     -11.804  13.564  67.349  1.00  0.00    -0.423 C  
HETATM    7  C   UNL     1      -8.262  12.066  67.119  1.00  0.00    -0.181 A  
HETATM    8  O   UNL     1     -11.188  15.667  68.315  1.00  0.00    -0.320 OA 
HETATM    9  C   UNL     1      -8.506  10.890  66.415  1.00  0.00    -0.163 A  
HETATM   10  C   UNL     1     -10.635  12.619  67.074  1.00  0.00    -0.255 A  
HETATM   11  C   UNL     1     -12.138  14.404  66.093  1.00  0.00    -0.357 C  
HETATM   12  H   UNL     1     -11.270  15.752  64.885  1.00  0.00     0.000 HD 
HETATM   13  O   UNL     1     -11.066  15.237  65.656  1.00  0.00    -0.334 OA 
HETATM   14  C   UNL     1     -10.863  11.432  66.353  1.00  0.00    -0.323 A  
HETATM   15  C   UNL     1      -9.807  10.576  66.026  1.00  0.00    -0.277 A  
BRANCH   3  16
HETATM   16  C   UNL     1     -12.783  13.001  70.084  1.00  0.00     0.169 C  
BRANCH  16  17
HETATM   17  C   UNL     1     -12.315  11.669  70.623  1.00  0.00    -0.437 A  
HETATM   18  C   UNL     1     -11.177  11.038  70.104  1.00  0.00    -0.264 A  
HETATM   19  C   UNL     1     -12.574   9.783  72.077  1.00  0.00    -0.347 A  
HETATM   20  C   UNL     1     -10.811   9.797  70.603  1.00  0.00    -0.329 A  
HETATM   21  C   UNL     1     -13.022  11.019  71.637  1.00  0.00    -0.561 A  
HETATM   22  N   UNL     1     -11.485   9.156  71.578  1.00  0.00    -0.339 NA 
ENDBRANCH  16  17
ENDBRANCH   3  16
ENDBRANCH   2   3
TORSDOF 3
ENDMDL
MODEL       13
REMARK 921   NORMALIZED FREE ENERGY PREDICTED BY IDOCK:   -5.34 KCAL/MOL
REMARK 922        TOTAL FREE ENERGY PREDICTED BY IDOCK:   -7.30 KCAL/MOL
REMARK 923 INTER-LIGAND FREE ENERGY PREDICTED BY IDOCK:   -7.28 KCAL/MOL
REMARK 924 INTRA-LIGAND FREE ENERGY PREDICTED BY IDOCK:   -0.02 KCAL/MOL
REMARK 927      BINDING AFFINITY PREDICTED BY RF-SCORE:    0.00 PKD
ROOT
HETATM    1  C   UNL     1      -9.277  16.382  69.003  1.00  0.00    -0.247 C  
HETATM    2  C   UNL     1     -10.771  16.103  69.142  1.00  0.00    -0.292 C  
ENDROOT
BRANCH   2   3
HETATM    3  N   UNL     1     -11.278  14.787  68.703  1.00  0.00    -0.260 N  
HETATM    4  C   UNL     1      -9.350  12.529  66.659  1.00  0.00    -0.236 A  
HETATM    5  C   UNL     1     -11.437  14.543  67.328  1.00  0.00    -0.365 C  
HETATM    6  C   UNL     1     -11.842  13.132  66.852  1.00  0.00    -0.444 C  
HETATM    7  C   UNL     1      -8.326  11.583  66.565  1.00  0.00    -0.147 A  
HETATM    8  O   UNL     1     -11.208  15.410  66.477  1.00  0.00    -0.278 OA 
HETATM    9  C   UNL     1      -8.620  10.223  66.614  1.00  0.00    -0.130 A  
HETATM   10  C   UNL     1     -10.688  12.131  66.814  1.00  0.00    -0.269 A  
HETATM   11  C   UNL     1     -12.519  13.243  65.465  1.00  0.00    -0.474 C  
HETATM   12  H   UNL     1     -12.061  13.772  63.584  1.00  0.00     0.000 HD 
HETATM   13  O   UNL     1     -11.647  13.703  64.435  1.00  0.00    -0.369 OA 
HETATM   14  C   UNL     1     -10.968  10.753  66.851  1.00  0.00    -0.255 A  
HETATM   15  C   UNL     1      -9.943   9.808  66.751  1.00  0.00    -0.278 A  
BRANCH   3  16
HETATM   16  C   UNL     1     -12.135  14.050  69.651  1.00  0.00    -0.355 C  
BRANCH  16  17
HETATM   17  C   UNL     1     -12.548  14.770  70.913  1.00  0.00    -0.401 A  
HETATM   18  C   UNL     1     -11.605  15.124  71.886  1.00  0.00    -0.490 A  
HETATM   19  C   UNL     1     -14.226  15.709  72.342  1.00  0.00    -0.434 A  
HETATM   20  C   UNL     1     -12.039  15.747  73.046  1.00  0.00    -0.495 A  
HETATM   21  C   UNL     1     -13.889  15.077  71.155  1.00  0.00    -0.468 A  
HETATM   22  N   UNL     1     -13.330  16.047  73.295  1.00  0.00    -0.588 NA 
ENDBRANCH  16  17
ENDBRANCH   3  16
ENDBRANCH   2   3
TORSDOF 3
ENDMDL
MODEL       14
REMARK 921   NORMALIZED FREE ENERGY PREDICTED BY IDOCK:   -5.31 KCAL/MOL
REMARK 922        TOTAL FREE ENERGY PREDICTED BY IDOCK:   -7.26 KCAL/MOL
REMARK 923 INTER-LIGAND FREE ENERGY PREDICTED BY IDOCK:   -6.23 KCAL/MOL
REMARK 924 INTRA-LIGAND FREE ENERGY PREDICTED BY IDOCK:   -1.03 KCAL/MOL
REMARK 927      BINDING AFFINITY PREDICTED BY RF-SCORE:    0.00 PKD
ROOT
HETATM    1  C   UNL     1     -12.828  13.772  71.445  1.00  0.00    -0.449 C  
HETATM    2  C   UNL     1     -11.849  13.937  70.285  1.00  0.00    -0.290 C  
ENDROOT
BRANCH   2   3
HETATM    3  N   UNL     1     -11.857  12.916  69.218  1.00  0.00    -0.314 N  
HETATM    4  C   UNL     1      -9.098  12.431  66.950  1.00  0.00    -0.211 A  
HETATM    5  C   UNL     1     -11.778  13.332  67.878  1.00  0.00    -0.357 C  
HETATM    6  C   UNL     1     -11.657  12.272  66.763  1.00  0.00    -0.434 C  
HETATM    7  C   UNL     1      -7.821  11.913  66.718  1.00  0.00    -0.070 A  
HETATM    8  O   UNL     1     -11.747  14.528  67.562  1.00  0.00    -0.360 OA 
HETATM    9  C   UNL     1      -7.669  10.670  66.109  1.00  0.00    -0.145 A  
HETATM   10  C   UNL     1     -10.247  11.711  66.587  1.00  0.00    -0.249 A  
HETATM   11  C   UNL     1     -12.177  12.875  65.436  1.00  0.00    -0.478 C  
HETATM   12  H   UNL     1     -11.709  14.331  64.136  1.00  0.00     0.000 HD 
HETATM   13  O   UNL     1     -11.390  13.960  64.950  1.00  0.00    -0.322 OA 
HETATM   14  C   UNL     1     -10.074  10.462  65.963  1.00  0.00    -0.307 A  
HETATM   15  C   UNL     1      -8.796   9.947  65.726  1.00  0.00    -0.171 A  
BRANCH   3  16
HETATM   16  C   UNL     1     -12.533  11.639  69.518  1.00  0.00     0.046 C  
BRANCH  16  17
HETATM   17  C   UNL     1     -11.743  10.604  70.284  1.00  0.00    -0.433 A  
HETATM   18  C   UNL     1     -10.440  10.260  69.903  1.00  0.00    -0.304 A  
HETATM   19  C   UNL     1     -11.556   8.975  72.031  1.00  0.00    -0.343 A  
HETATM   20  C   UNL     1      -9.772   9.273  70.614  1.00  0.00    -0.272 A  
HETATM   21  C   UNL     1     -12.305   9.942  71.378  1.00  0.00    -0.498 A  
HETATM   22  N   UNL     1     -10.302   8.623  71.669  1.00  0.00    -0.267 NA 
ENDBRANCH  16  17
ENDBRANCH   3  16
ENDBRANCH   2   3
TORSDOF 3
ENDMDL
MODEL       15
REMARK 921   NORMALIZED FREE ENERGY PREDICTED BY IDOCK:   -5.30 KCAL/MOL
REMARK 922        TOTAL FREE ENERGY PREDICTED BY IDOCK:   -7.25 KCAL/MOL
REMARK 923 INTER-LIGAND FREE ENERGY PREDICTED BY IDOCK:   -6.79 KCAL/MOL
REMARK 924 INTRA-LIGAND FREE ENERGY PREDICTED BY IDOCK:   -0.46 KCAL/MOL
REMARK 927      BINDING AFFINITY PREDICTED BY RF-SCORE:    0.00 PKD
ROOT
HETATM    1  C   UNL     1     -10.633  15.715  70.119  1.00  0.00    -0.348 C  
HETATM    2  C   UNL     1     -11.066  15.744  68.656  1.00  0.00    -0.327 C  
ENDROOT
BRANCH   2   3
HETATM    3  N   UNL     1     -10.147  16.349  67.670  1.00  0.00    -0.257 N  
HETATM    4  C   UNL     1      -7.648  18.789  68.562  1.00  0.00    -0.357 A  
HETATM    5  C   UNL     1     -10.201  17.736  67.452  1.00  0.00    -0.353 C  
HETATM    6  C   UNL     1      -9.161  18.397  66.521  1.00  0.00    -0.300 C  
HETATM    7  C   UNL     1      -6.397  19.067  69.120  1.00  0.00    -0.303 A  
HETATM    8  O   UNL     1     -11.023  18.460  68.026  1.00  0.00    -0.236 OA 
HETATM    9  C   UNL     1      -5.279  19.205  68.302  1.00  0.00    -0.180 A  
HETATM   10  C   UNL     1      -7.801  18.634  67.175  1.00  0.00    -0.241 A  
HETATM   11  C   UNL     1      -9.746  19.721  65.973  1.00  0.00    -0.370 C  
HETATM   12  H   UNL     1     -10.328  21.522  66.640  1.00  0.00     0.000 HD 
HETATM   13  O   UNL     1      -9.970  20.709  66.976  1.00  0.00    -0.441 OA 
HETATM   14  C   UNL     1      -6.663  18.788  66.363  1.00  0.00    -0.234 A  
HETATM   15  C   UNL     1      -5.413  19.073  66.922  1.00  0.00    -0.156 A  
BRANCH   3  16
HETATM   16  C   UNL     1      -9.680  15.483  66.571  1.00  0.00    -0.270 C  
BRANCH  16  17
HETATM   17  C   UNL     1     -10.714  14.626  65.879  1.00  0.00    -0.312 A  
HETATM   18  C   UNL     1     -10.976  13.319  66.309  1.00  0.00    -0.296 A  
HETATM   19  C   UNL     1     -12.332  14.274  64.148  1.00  0.00    -0.327 A  
HETATM   20  C   UNL     1     -11.904  12.558  65.615  1.00  0.00    -0.438 A  
HETATM   21  C   UNL     1     -11.416  15.107  64.772  1.00  0.00    -0.383 A  
HETATM   22  N   UNL     1     -12.587  13.007  64.544  1.00  0.00    -0.659 NA 
ENDBRANCH  16  17
ENDBRANCH   3  16
ENDBRANCH   2   3
TORSDOF 3
ENDMDL
MODEL       16
REMARK 921   NORMALIZED FREE ENERGY PREDICTED BY IDOCK:   -5.27 KCAL/MOL
REMARK 922        TOTAL FREE ENERGY PREDICTED BY IDOCK:   -7.21 KCAL/MOL
REMARK 923 INTER-LIGAND FREE ENERGY PREDICTED BY IDOCK:   -6.51 KCAL/MOL
REMARK 924 INTRA-LIGAND FREE ENERGY PREDICTED BY IDOCK:   -0.69 KCAL/MOL
REMARK 927      BINDING AFFINITY PREDICTED BY RF-SCORE:    0.00 PKD
ROOT
HETATM    1  C   UNL     1     -10.155  10.972  68.711  1.00  0.00    -0.214 C  
HETATM    2  C   UNL     1     -11.572  11.449  68.406  1.00  0.00    -0.315 C  
ENDROOT
BRANCH   2   3
HETATM    3  N   UNL     1     -11.803  12.902  68.271  1.00  0.00    -0.342 N  
HETATM    4  C   UNL     1      -9.425  15.375  69.375  1.00  0.00    -0.267 A  
HETATM    5  C   UNL     1     -11.878  13.690  69.432  1.00  0.00    -0.339 C  
HETATM    6  C   UNL     1     -11.990  15.224  69.299  1.00  0.00    -0.327 C  
HETATM    7  C   UNL     1      -8.235  16.072  69.148  1.00  0.00    -0.241 A  
HETATM    8  O   UNL     1     -11.800  13.200  70.564  1.00  0.00    -0.256 OA 
HETATM    9  C   UNL     1      -8.262  17.332  68.558  1.00  0.00    -0.267 A  
HETATM   10  C   UNL     1     -10.664  15.924  69.007  1.00  0.00    -0.251 A  
HETATM   11  C   UNL     1     -12.641  15.794  70.582  1.00  0.00    -0.326 C  
HETATM   12  H   UNL     1     -12.248  15.970  72.542  1.00  0.00     0.000 HD 
HETATM   13  O   UNL     1     -11.849  15.620  71.754  1.00  0.00    -0.356 OA 
HETATM   14  C   UNL     1     -10.673  17.203  68.421  1.00  0.00    -0.347 A  
HETATM   15  C   UNL     1      -9.482  17.901  68.200  1.00  0.00    -0.288 A  
BRANCH   3  16
HETATM   16  C   UNL     1     -12.525  13.355  67.067  1.00  0.00    -0.017 C  
BRANCH  16  17
HETATM   17  C   UNL     1     -11.924  13.001  65.726  1.00  0.00    -0.482 A  
HETATM   18  C   UNL     1     -10.552  13.147  65.488  1.00  0.00    -0.299 A  
HETATM   19  C   UNL     1     -12.138  12.262  63.458  1.00  0.00    -0.553 A  
HETATM   20  C   UNL     1     -10.054  12.848  64.228  1.00  0.00    -0.226 A  
HETATM   21  C   UNL     1     -12.728  12.543  64.680  1.00  0.00    -0.434 A  
HETATM   22  N   UNL     1     -10.818  12.409  63.208  1.00  0.00    -0.369 NA 
ENDBRANCH  16  17
ENDBRANCH   3  16
ENDBRANCH   2   3
TORSDOF 3
ENDMDL
MODEL       17
REMARK 921   NORMALIZED FREE ENERGY PREDICTED BY IDOCK:   -5.25 KCAL/MOL
REMARK 922        TOTAL FREE ENERGY PREDICTED BY IDOCK:   -7.19 KCAL/MOL
REMARK 923 INTER-LIGAND FREE ENERGY PREDICTED BY IDOCK:   -6.56 KCAL/MOL
REMARK 924 INTRA-LIGAND FREE ENERGY PREDICTED BY IDOCK:   -0.63 KCAL/MOL
REMARK 927      BINDING AFFINITY PREDICTED BY RF-SCORE:    0.00 PKD
ROOT
HETATM    1  C   UNL     1      -8.378  13.785  68.319  1.00  0.00    -0.161 C  
HETATM    2  C   UNL     1      -9.448  14.874  68.323  1.00  0.00    -0.210 C  
ENDROOT
BRANCH   2   3
HETATM    3  N   UNL     1      -9.268  16.029  67.421  1.00  0.00    -0.206 N  
HETATM    4  C   UNL     1      -7.514  19.023  68.398  1.00  0.00    -0.334 A  
HETATM    5  C   UNL     1      -9.834  17.265  67.777  1.00  0.00    -0.281 C  
HETATM    6  C   UNL     1      -9.545  18.508  66.908  1.00  0.00    -0.314 C  
HETATM    7  C   UNL     1      -6.299  19.674  68.624  1.00  0.00    -0.304 A  
HETATM    8  O   UNL     1     -10.515  17.405  68.799  1.00  0.00    -0.348 OA 
HETATM    9  C   UNL     1      -5.734  20.470  67.631  1.00  0.00    -0.251 A  
HETATM   10  C   UNL     1      -8.183  19.149  67.169  1.00  0.00    -0.290 A  
HETATM   11  C   UNL     1     -10.683  19.537  67.107  1.00  0.00    -0.482 C  
HETATM   12  H   UNL     1     -11.454  20.697  68.552  1.00  0.00     0.000 HD 
HETATM   13  O   UNL     1     -10.756  20.066  68.429  1.00  0.00    -0.232 OA 
HETATM   14  C   UNL     1      -7.603  19.966  66.182  1.00  0.00    -0.338 A  
HETATM   15  C   UNL     1      -6.390  20.621  66.411  1.00  0.00    -0.292 A  
BRANCH   3  16
HETATM   16  C   UNL     1      -9.066  15.736  65.989  1.00  0.00    -0.326 C  
BRANCH  16  17
HETATM   17  C   UNL     1     -10.250  15.199  65.220  1.00  0.00    -0.400 A  
HETATM   18  C   UNL     1     -10.343  13.841  64.888  1.00  0.00    -0.420 A  
HETATM   19  C   UNL     1     -12.324  15.520  64.063  1.00  0.00     0.171 A  
HETATM   20  C   UNL     1     -11.429  13.405  64.145  1.00  0.00    -0.383 A  
HETATM   21  C   UNL     1     -11.272  16.051  64.795  1.00  0.00    -0.348 A  
HETATM   22  N   UNL     1     -12.421  14.215  63.725  1.00  0.00    -0.806 NA 
ENDBRANCH  16  17
ENDBRANCH   3  16
ENDBRANCH   2   3
TORSDOF 3
ENDMDL
MODEL       18
REMARK 921   NORMALIZED FREE ENERGY PREDICTED BY IDOCK:   -5.20 KCAL/MOL
REMARK 922        TOTAL FREE ENERGY PREDICTED BY IDOCK:   -7.13 KCAL/MOL
REMARK 923 INTER-LIGAND FREE ENERGY PREDICTED BY IDOCK:   -6.10 KCAL/MOL
REMARK 924 INTRA-LIGAND FREE ENERGY PREDICTED BY IDOCK:   -1.03 KCAL/MOL
REMARK 927      BINDING AFFINITY PREDICTED BY RF-SCORE:    0.00 PKD
ROOT
HETATM    1  C   UNL     1      -9.618  13.592  67.365  1.00  0.00    -0.226 C  
HETATM    2  C   UNL     1      -9.165  12.515  68.347  1.00  0.00    -0.139 C  
ENDROOT
BRANCH   2   3
HETATM    3  N   UNL     1     -10.108  11.426  68.669  1.00  0.00    -0.209 N  
HETATM    4  C   UNL     1      -9.394   8.872  71.110  1.00  0.00    -0.326 A  
HETATM    5  C   UNL     1      -9.725  10.097  68.418  1.00  0.00    -0.147 C  
HETATM    6  C   UNL     1     -10.649   8.945  68.868  1.00  0.00    -0.188 C  
HETATM    7  C   UNL     1      -9.313   8.493  72.453  1.00  0.00    -0.349 A  
HETATM    8  O   UNL     1      -8.640   9.814  67.896  1.00  0.00    -0.124 OA 
HETATM    9  C   UNL     1     -10.378   7.837  73.062  1.00  0.00    -0.410 A  
HETATM   10  C   UNL     1     -10.548   8.608  70.354  1.00  0.00    -0.244 A  
HETATM   11  C   UNL     1     -10.356   7.697  68.001  1.00  0.00    -0.205 C  
HETATM   12  H   UNL     1      -8.867   6.398  67.653  1.00  0.00     0.000 HD 
HETATM   13  O   UNL     1      -9.047   7.164  68.184  1.00  0.00    -0.134 OA 
HETATM   14  C   UNL     1     -11.610   7.934  70.983  1.00  0.00    -0.299 A  
HETATM   15  C   UNL     1     -11.525   7.551  72.326  1.00  0.00    -0.348 A  
BRANCH   3  16
HETATM   16  C   UNL     1     -11.546  11.757  68.648  1.00  0.00    -0.309 C  
BRANCH  16  17
HETATM   17  C   UNL     1     -12.146  12.310  69.920  1.00  0.00    -0.319 A  
HETATM   18  C   UNL     1     -12.657  11.459  70.908  1.00  0.00    -0.453 A  
HETATM   19  C   UNL     1     -12.819  14.151  71.298  1.00  0.00    -0.359 A  
HETATM   20  C   UNL     1     -13.235  12.016  72.039  1.00  0.00    -0.375 A  
HETATM   21  C   UNL     1     -12.231  13.688  70.131  1.00  0.00    -0.413 A  
HETATM   22  N   UNL     1     -13.328  13.343  72.255  1.00  0.00    -0.524 NA 
ENDBRANCH  16  17
ENDBRANCH   3  16
ENDBRANCH   2   3
TORSDOF 3
ENDMDL
MODEL       19
REMARK 921   NORMALIZED FREE ENERGY PREDICTED BY IDOCK:   -5.20 KCAL/MOL
REMARK 922        TOTAL FREE ENERGY PREDICTED BY IDOCK:   -7.13 KCAL/MOL
REMARK 923 INTER-LIGAND FREE ENERGY PREDICTED BY IDOCK:   -5.96 KCAL/MOL
REMARK 924 INTRA-LIGAND FREE ENERGY PREDICTED BY IDOCK:   -1.17 KCAL/MOL
REMARK 927      BINDING AFFINITY PREDICTED BY RF-SCORE:    0.00 PKD
ROOT
HETATM    1  C   UNL     1      -6.536  14.664  68.752  1.00  0.00    -0.088 C  
HETATM    2  C   UNL     1      -7.205  14.828  67.389  1.00  0.00    -0.173 C  
ENDROOT
BRANCH   2   3
HETATM    3  N   UNL     1      -8.675  14.709  67.318  1.00  0.00    -0.196 N  
HETATM    4  C   UNL     1     -10.410  13.616  64.352  1.00  0.00    -0.242 A  
HETATM    5  C   UNL     1      -9.379  15.511  66.404  1.00  0.00    -0.298 C  
HETATM    6  C   UNL     1     -10.899  15.303  66.229  1.00  0.00    -0.312 C  
HETATM    7  C   UNL     1     -10.806  12.566  63.520  1.00  0.00    -0.443 A  
HETATM    8  O   UNL     1      -8.812  16.345  65.689  1.00  0.00    -0.406 OA 
HETATM    9  C   UNL     1     -12.070  12.000  63.658  1.00  0.00    -0.627 A  
HETATM   10  C   UNL     1     -11.269  14.114  65.345  1.00  0.00    -0.325 A  
HETATM   11  C   UNL     1     -11.526  16.609  65.683  1.00  0.00     0.741 C  
HETATM   12  H   UNL     1     -11.470  17.755  64.037  1.00  0.00     0.000 HD 
HETATM   13  O   UNL     1     -11.085  16.954  64.372  1.00  0.00    -1.128 OA 
HETATM   14  C   UNL     1     -12.547  13.537  65.463  1.00  0.00    -0.531 A  
HETATM   15  C   UNL     1     -12.944  12.490  64.626  1.00  0.00    -0.176 A  
BRANCH   3  16
HETATM   16  C   UNL     1      -9.371  14.259  68.539  1.00  0.00    -0.200 C  
BRANCH  16  17
HETATM   17  C   UNL     1     -10.094  12.935  68.475  1.00  0.00    -0.193 A  
HETATM   18  C   UNL     1      -9.623  11.892  67.667  1.00  0.00    -0.185 A  
HETATM   19  C   UNL     1     -11.917  11.505  69.085  1.00  0.00    -0.320 A  
HETATM   20  C   UNL     1     -10.345  10.709  67.610  1.00  0.00    -0.209 A  
HETATM   21  C   UNL     1     -11.269  12.725  69.200  1.00  0.00    -0.294 A  
HETATM   22  N   UNL     1     -11.482  10.493  68.301  1.00  0.00    -0.352 NA 
ENDBRANCH  16  17
ENDBRANCH   3  16
ENDBRANCH   2   3
TORSDOF 3
ENDMDL
MODEL       20
REMARK 921   NORMALIZED FREE ENERGY PREDICTED BY IDOCK:   -5.19 KCAL/MOL
REMARK 922        TOTAL FREE ENERGY PREDICTED BY IDOCK:   -7.12 KCAL/MOL
REMARK 923 INTER-LIGAND FREE ENERGY PREDICTED BY IDOCK:   -6.99 KCAL/MOL
REMARK 924 INTRA-LIGAND FREE ENERGY PREDICTED BY IDOCK:   -0.13 KCAL/MOL
REMARK 927      BINDING AFFINITY PREDICTED BY RF-SCORE:    0.00 PKD
ROOT
HETATM    1  C   UNL     1     -14.387   8.473  72.066  1.00  0.00    -0.537 C  
HETATM    2  C   UNL     1     -13.362   9.596  72.201  1.00  0.00    -0.454 C  
ENDROOT
BRANCH   2   3
HETATM    3  N   UNL     1     -12.410   9.806  71.092  1.00  0.00    -0.337 N  
HETATM    4  C   UNL     1     -10.875   7.090  69.286  1.00  0.00    -0.241 A  
HETATM    5  C   UNL     1     -11.093   9.336  71.227  1.00  0.00    -0.357 C  
HETATM    6  C   UNL     1     -10.127   9.436  70.027  1.00  0.00    -0.259 C  
HETATM    7  C   UNL     1     -10.981   6.092  68.314  1.00  0.00    -0.397 A  
HETATM    8  O   UNL     1     -10.693   8.791  72.262  1.00  0.00    -0.344 OA 
HETATM    9  C   UNL     1     -10.530   6.325  67.018  1.00  0.00    -0.341 A  
HETATM   10  C   UNL     1     -10.322   8.343  68.976  1.00  0.00    -0.231 A  
HETATM   11  C   UNL     1      -8.671   9.439  70.551  1.00  0.00    -0.231 C  
HETATM   12  H   UNL     1      -7.393   8.223  71.509  1.00  0.00     0.000 HD 
HETATM   13  O   UNL     1      -8.286   8.222  71.187  1.00  0.00    -0.110 OA 
HETATM   14  C   UNL     1      -9.861   8.557  67.665  1.00  0.00    -0.222 A  
HETATM   15  C   UNL     1      -9.963   7.555  66.694  1.00  0.00    -0.270 A  
BRANCH   3  16
HETATM   16  C   UNL     1     -12.656  10.962  70.209  1.00  0.00    -0.265 C  
BRANCH  16  17
HETATM   17  C   UNL     1     -12.641  12.333  70.845  1.00  0.00    -0.334 A  
HETATM   18  C   UNL     1     -11.853  13.365  70.320  1.00  0.00    -0.316 A  
HETATM   19  C   UNL     1     -13.323  13.860  72.560  1.00  0.00    -0.554 A  
HETATM   20  C   UNL     1     -11.842  14.594  70.964  1.00  0.00    -0.322 A  
HETATM   21  C   UNL     1     -13.393  12.597  71.991  1.00  0.00    -0.555 A  
HETATM   22  N   UNL     1     -12.559  14.863  72.073  1.00  0.00    -0.312 NA 
ENDBRANCH  16  17
ENDBRANCH   3  16
ENDBRANCH   2   3
TORSDOF 3
ENDMDL
MODEL       21
REMARK 921   NORMALIZED FREE ENERGY PREDICTED BY IDOCK:   -5.18 KCAL/MOL
REMARK 922        TOTAL FREE ENERGY PREDICTED BY IDOCK:   -7.11 KCAL/MOL
REMARK 923 INTER-LIGAND FREE ENERGY PREDICTED BY IDOCK:   -6.52 KCAL/MOL
REMARK 924 INTRA-LIGAND FREE ENERGY PREDICTED BY IDOCK:   -0.59 KCAL/MOL
REMARK 927      BINDING AFFINITY PREDICTED BY RF-SCORE:    0.00 PKD
ROOT
HETATM    1  C   UNL     1      -6.466  15.427  67.754  1.00  0.00    -0.183 C  
HETATM    2  C   UNL     1      -7.735  15.425  66.905  1.00  0.00    -0.124 C  
ENDROOT
BRANCH   2   3
HETATM    3  N   UNL     1      -9.018  15.128  67.573  1.00  0.00    -0.176 N  
HETATM    4  C   UNL     1     -10.098  11.776  68.342  1.00  0.00    -0.201 A  
HETATM    5  C   UNL     1      -9.983  14.370  66.887  1.00  0.00    -0.261 C  
HETATM    6  C   UNL     1     -11.274  13.946  67.622  1.00  0.00    -0.316 C  
HETATM    7  C   UNL     1     -10.007  10.653  69.168  1.00  0.00    -0.228 A  
HETATM    8  O   UNL     1      -9.809  13.981  65.727  1.00  0.00    -0.301 OA 
HETATM    9  C   UNL     1     -10.919  10.468  70.204  1.00  0.00    -0.338 A  
HETATM   10  C   UNL     1     -11.099  12.741  68.543  1.00  0.00    -0.300 A  
HETATM   11  C   UNL     1     -12.384  13.682  66.576  1.00  0.00    -0.361 C  
HETATM   12  H   UNL     1     -12.793  12.415  65.074  1.00  0.00     0.000 HD 
HETATM   13  O   UNL     1     -12.112  12.578  65.716  1.00  0.00    -0.511 OA 
HETATM   14  C   UNL     1     -12.019  12.532  69.587  1.00  0.00    -0.339 A  
HETATM   15  C   UNL     1     -11.929  11.404  70.410  1.00  0.00    -0.465 A  
BRANCH   3  16
HETATM   16  C   UNL     1      -9.476  16.085  68.599  1.00  0.00    -0.224 C  
BRANCH  16  17
HETATM   17  C   UNL     1      -9.532  17.543  68.207  1.00  0.00    -0.296 A  
HETATM   18  C   UNL     1     -10.591  18.047  67.442  1.00  0.00    -0.378 A  
HETATM   19  C   UNL     1      -8.588  19.745  68.168  1.00  0.00    -0.287 A  
HETATM   20  C   UNL     1     -10.576  19.384  67.073  1.00  0.00    -0.478 A  
HETATM   21  C   UNL     1      -8.512  18.422  68.577  1.00  0.00    -0.346 A  
HETATM   22  N   UNL     1      -9.597  20.243  67.419  1.00  0.00    -0.410 NA 
ENDBRANCH  16  17
ENDBRANCH   3  16
ENDBRANCH   2   3
TORSDOF 3
ENDMDL
MODEL       22
REMARK 921   NORMALIZED FREE ENERGY PREDICTED BY IDOCK:   -5.14 KCAL/MOL
REMARK 922        TOTAL FREE ENERGY PREDICTED BY IDOCK:   -7.06 KCAL/MOL
REMARK 923 INTER-LIGAND FREE ENERGY PREDICTED BY IDOCK:   -6.00 KCAL/MOL
REMARK 924 INTRA-LIGAND FREE ENERGY PREDICTED BY IDOCK:   -1.06 KCAL/MOL
REMARK 927      BINDING AFFINITY PREDICTED BY RF-SCORE:    0.00 PKD
ROOT
HETATM    1  C   UNL     1      -8.489  16.231  69.158  1.00  0.00    -0.218 C  
HETATM    2  C   UNL     1      -9.791  16.403  68.381  1.00  0.00    -0.233 C  
ENDROOT
BRANCH   2   3
HETATM    3  N   UNL     1     -10.770  15.298  68.409  1.00  0.00    -0.243 N  
HETATM    4  C   UNL     1      -9.808  11.836  68.703  1.00  0.00    -0.153 A  
HETATM    5  C   UNL     1     -10.741  14.336  67.385  1.00  0.00    -0.282 C  
HETATM    6  C   UNL     1     -11.673  13.109  67.473  1.00  0.00    -0.414 C  
HETATM    7  C   UNL     1      -9.378  10.782  69.513  1.00  0.00     0.085 A  
HETATM    8  O   UNL     1      -9.951  14.411  66.437  1.00  0.00    -0.272 OA 
HETATM    9  C   UNL     1     -10.298   9.876  70.033  1.00  0.00    -0.320 A  
HETATM   10  C   UNL     1     -11.170  12.010  68.407  1.00  0.00    -0.313 A  
HETATM   11  C   UNL     1     -11.909  12.552  66.048  1.00  0.00    -0.418 C  
HETATM   12  H   UNL     1     -10.876  11.692  64.557  1.00  0.00     0.000 HD 
HETATM   13  O   UNL     1     -10.732  12.033  65.432  1.00  0.00    -0.269 OA 
HETATM   14  C   UNL     1     -12.085  11.079  68.933  1.00  0.00    -0.239 A  
HETATM   15  C   UNL     1     -11.652  10.021  69.738  1.00  0.00    -0.193 A  
BRANCH   3  16
HETATM   16  C   UNL     1     -12.051  15.556  69.094  1.00  0.00    -0.240 C  
BRANCH  16  17
HETATM   17  C   UNL     1     -12.169  15.108  70.532  1.00  0.00    -0.389 A  
HETATM   18  C   UNL     1     -12.937  13.989  70.880  1.00  0.00    -0.347 A  
HETATM   19  C   UNL     1     -11.699  15.387  72.864  1.00  0.00    -0.401 A  
HETATM   20  C   UNL     1     -13.048  13.642  72.218  1.00  0.00    -0.395 A  
HETATM   21  C   UNL     1     -11.536  15.815  71.556  1.00  0.00    -0.531 A  
HETATM   22  N   UNL     1     -12.446  14.317  73.218  1.00  0.00    -0.209 NA 
ENDBRANCH  16  17
ENDBRANCH   3  16
ENDBRANCH   2   3
TORSDOF 3
ENDMDL
MODEL       23
REMARK 921   NORMALIZED FREE ENERGY PREDICTED BY IDOCK:   -5.12 KCAL/MOL
REMARK 922        TOTAL FREE ENERGY PREDICTED BY IDOCK:   -7.03 KCAL/MOL
REMARK 923 INTER-LIGAND FREE ENERGY PREDICTED BY IDOCK:   -5.89 KCAL/MOL
REMARK 924 INTRA-LIGAND FREE ENERGY PREDICTED BY IDOCK:   -1.14 KCAL/MOL
REMARK 927      BINDING AFFINITY PREDICTED BY RF-SCORE:    0.00 PKD
ROOT
HETATM    1  C   UNL     1     -10.624  10.690  69.364  1.00  0.00    -0.270 C  
HETATM    2  C   UNL     1     -10.398  10.495  67.867  1.00  0.00    -0.192 C  
ENDROOT
BRANCH   2   3
HETATM    3  N   UNL     1     -10.049  11.680  67.056  1.00  0.00    -0.207 N  
HETATM    4  C   UNL     1     -11.311  14.981  67.765  1.00  0.00    -0.340 A  
HETATM    5  C   UNL     1     -11.070  12.361  66.372  1.00  0.00    -0.301 C  
HETATM    6  C   UNL     1     -10.737  13.672  65.628  1.00  0.00    -0.283 C  
HETATM    7  C   UNL     1     -11.249  16.141  68.540  1.00  0.00    -0.365 A  
HETATM    8  O   UNL     1     -12.245  11.976  66.392  1.00  0.00    -0.551 OA 
HETATM    9  C   UNL     1     -10.521  17.242  68.098  1.00  0.00    -0.382 A  
HETATM   10  C   UNL     1     -10.638  14.897  66.535  1.00  0.00    -0.306 A  
HETATM   11  C   UNL     1     -11.786  13.898  64.513  1.00  0.00    -0.426 C  
HETATM   12  H   UNL     1     -13.751  14.259  64.319  1.00  0.00     0.000 HD 
HETATM   13  O   UNL     1     -13.107  14.120  65.002  1.00  0.00    -0.728 OA 
HETATM   14  C   UNL     1      -9.917  16.023  66.098  1.00  0.00    -0.347 A  
HETATM   15  C   UNL     1      -9.860  17.186  66.873  1.00  0.00    -0.285 A  
BRANCH   3  16
HETATM   16  C   UNL     1      -8.679  11.738  66.511  1.00  0.00    -0.173 C  
BRANCH  16  17
HETATM   17  C   UNL     1      -7.628  12.421  67.355  1.00  0.00    -0.160 A  
HETATM   18  C   UNL     1      -7.985  13.340  68.349  1.00  0.00    -0.132 A  
HETATM   19  C   UNL     1      -5.340  12.847  67.921  1.00  0.00    -0.110 A  
HETATM   20  C   UNL     1      -6.982  13.972  69.069  1.00  0.00    -0.112 A  
HETATM   21  C   UNL     1      -6.270  12.173  67.145  1.00  0.00    -0.143 A  
HETATM   22  N   UNL     1      -5.667  13.746  68.876  1.00  0.00    -0.079 NA 
ENDBRANCH  16  17
ENDBRANCH   3  16
ENDBRANCH   2   3
TORSDOF 3
ENDMDL
MODEL       24
REMARK 921   NORMALIZED FREE ENERGY PREDICTED BY IDOCK:   -5.03 KCAL/MOL
REMARK 922        TOTAL FREE ENERGY PREDICTED BY IDOCK:   -6.93 KCAL/MOL
REMARK 923 INTER-LIGAND FREE ENERGY PREDICTED BY IDOCK:   -5.98 KCAL/MOL
REMARK 924 INTRA-LIGAND FREE ENERGY PREDICTED BY IDOCK:   -0.95 KCAL/MOL
REMARK 927      BINDING AFFINITY PREDICTED BY RF-SCORE:    0.00 PKD
ROOT
HETATM    1  C   UNL     1     -11.025   6.226  68.702  1.00  0.00    -0.423 C  
HETATM    2  C   UNL     1     -11.014   7.299  67.617  1.00  0.00    -0.110 C  
ENDROOT
BRANCH   2   3
HETATM    3  N   UNL     1     -10.346   8.583  67.915  1.00  0.00    -0.222 N  
HETATM    4  C   UNL     1     -11.094  11.636  66.151  1.00  0.00    -0.335 A  
HETATM    5  C   UNL     1      -9.572   9.195  66.915  1.00  0.00    -0.178 C  
HETATM    6  C   UNL     1      -8.975  10.595  67.171  1.00  0.00    -0.143 C  
HETATM    7  C   UNL     1     -11.949  12.724  65.958  1.00  0.00    -0.491 A  
HETATM    8  O   UNL     1      -9.396   8.672  65.808  1.00  0.00    -0.214 OA 
HETATM    9  C   UNL     1     -11.692  13.938  66.589  1.00  0.00    -0.417 A  
HETATM   10  C   UNL     1      -9.970  11.740  66.987  1.00  0.00    -0.224 A  
HETATM   11  C   UNL     1      -7.740  10.791  66.259  1.00  0.00    -0.146 C  
HETATM   12  H   UNL     1      -7.292  10.930  64.308  1.00  0.00     0.000 HD 
HETATM   13  O   UNL     1      -8.049  10.810  64.868  1.00  0.00    -0.075 OA 
HETATM   14  C   UNL     1      -9.721  12.978  67.608  1.00  0.00    -0.212 A  
HETATM   15  C   UNL     1     -10.574  14.067  67.409  1.00  0.00    -0.278 A  
BRANCH   3  16
HETATM   16  C   UNL     1     -10.009   8.850  69.326  1.00  0.00    -0.192 C  
BRANCH  16  17
HETATM   17  C   UNL     1     -11.089   9.456  70.192  1.00  0.00    -0.277 A  
HETATM   18  C   UNL     1     -11.516  10.776  69.997  1.00  0.00    -0.412 A  
HETATM   19  C   UNL     1     -12.633   9.331  72.019  1.00  0.00    -0.390 A  
HETATM   20  C   UNL     1     -12.481  11.300  70.844  1.00  0.00    -0.394 A  
HETATM   21  C   UNL     1     -11.670   8.723  71.229  1.00  0.00    -0.356 A  
HETATM   22  N   UNL     1     -13.048  10.606  71.851  1.00  0.00    -0.487 NA 
ENDBRANCH  16  17
ENDBRANCH   3  16
ENDBRANCH   2   3
TORSDOF 3
ENDMDL
MODEL       25
REMARK 921   NORMALIZED FREE ENERGY PREDICTED BY IDOCK:   -4.97 KCAL/MOL
REMARK 922        TOTAL FREE ENERGY PREDICTED BY IDOCK:   -6.86 KCAL/MOL
REMARK 923 INTER-LIGAND FREE ENERGY PREDICTED BY IDOCK:   -6.27 KCAL/MOL
REMARK 924 INTRA-LIGAND FREE ENERGY PREDICTED BY IDOCK:   -0.59 KCAL/MOL
REMARK 927      BINDING AFFINITY PREDICTED BY RF-SCORE:    0.00 PKD
ROOT
HETATM    1  C   UNL     1      -6.887  13.181  67.554  1.00  0.00    -0.156 C  
HETATM    2  C   UNL     1      -8.340  13.067  67.101  1.00  0.00    -0.150 C  
ENDROOT
BRANCH   2   3
HETATM    3  N   UNL     1      -9.120  14.312  66.947  1.00  0.00    -0.245 N  
HETATM    4  C   UNL     1      -8.303  17.363  68.684  1.00  0.00    -0.264 A  
HETATM    5  C   UNL     1      -9.773  14.849  68.071  1.00  0.00    -0.212 C  
HETATM    6  C   UNL     1     -10.483  16.214  67.952  1.00  0.00    -0.290 C  
HETATM    7  C   UNL     1      -7.495  18.498  68.786  1.00  0.00    -0.309 A  
HETATM    8  O   UNL     1      -9.751  14.289  69.173  1.00  0.00    -0.098 OA 
HETATM    9  C   UNL     1      -7.914  19.709  68.241  1.00  0.00    -0.356 A  
HETATM   10  C   UNL     1      -9.542  17.415  68.026  1.00  0.00    -0.276 A  
HETATM   11  C   UNL     1     -11.579  16.308  69.040  1.00  0.00    -0.231 C  
HETATM   12  H   UNL     1     -11.741  16.371  71.040  1.00  0.00     0.000 HD 
HETATM   13  O   UNL     1     -11.068  16.313  70.372  1.00  0.00    -0.359 OA 
HETATM   14  C   UNL     1      -9.954  18.649  67.490  1.00  0.00    -0.371 A  
HETATM   15  C   UNL     1      -9.147  19.786  67.598  1.00  0.00    -0.416 A  
BRANCH   3  16
HETATM   16  C   UNL     1      -9.678  14.592  65.611  1.00  0.00    -0.266 C  
BRANCH  16  17
HETATM   17  C   UNL     1     -10.809  13.709  65.135  1.00  0.00    -0.338 A  
HETATM   18  C   UNL     1     -10.572  12.637  64.266  1.00  0.00    -0.408 A  
HETATM   19  C   UNL     1     -13.134  13.142  65.041  1.00  0.00     0.048 A  
HETATM   20  C   UNL     1     -11.648  11.881  63.824  1.00  0.00    -0.462 A  
HETATM   21  C   UNL     1     -12.125  13.958  65.529  1.00  0.00    -0.425 A  
HETATM   22  N   UNL     1     -12.923  12.111  64.193  1.00  0.00    -0.687 NA 
ENDBRANCH  16  17
ENDBRANCH   3  16
ENDBRANCH   2   3
TORSDOF 3
ENDMDL
MODEL       26
REMARK 921   NORMALIZED FREE ENERGY PREDICTED BY IDOCK:   -4.96 KCAL/MOL
REMARK 922        TOTAL FREE ENERGY PREDICTED BY IDOCK:   -6.85 KCAL/MOL
REMARK 923 INTER-LIGAND FREE ENERGY PREDICTED BY IDOCK:   -5.80 KCAL/MOL
REMARK 924 INTRA-LIGAND FREE ENERGY PREDICTED BY IDOCK:   -1.05 KCAL/MOL
REMARK 927      BINDING AFFINITY PREDICTED BY RF-SCORE:    0.00 PKD
ROOT
HETATM    1  C   UNL     1      -9.153  14.717  68.921  1.00  0.00    -0.148 C  
HETATM    2  C   UNL     1     -10.578  14.476  68.430  1.00  0.00    -0.244 C  
ENDROOT
BRANCH   2   3
HETATM    3  N   UNL     1     -10.881  13.186  67.779  1.00  0.00    -0.240 N  
HETATM    4  C   UNL     1      -8.386  11.214  66.082  1.00  0.00    -0.144 A  
HETATM    5  C   UNL     1     -10.696  13.065  66.391  1.00  0.00    -0.282 C  
HETATM    6  C   UNL     1     -10.887  11.687  65.720  1.00  0.00    -0.334 C  
HETATM    7  C   UNL     1      -7.310  10.326  66.161  1.00  0.00    -0.122 A  
HETATM    8  O   UNL     1     -10.330  14.016  65.691  1.00  0.00    -0.303 OA 
HETATM    9  C   UNL     1      -7.519   8.956  66.029  1.00  0.00    -0.090 A  
HETATM   10  C   UNL     1      -9.694  10.746  65.879  1.00  0.00    -0.272 A  
HETATM   11  C   UNL     1     -11.223  11.898  64.224  1.00  0.00    -0.357 C  
HETATM   12  H   UNL     1     -10.371  12.620  62.556  1.00  0.00     0.000 HD 
HETATM   13  O   UNL     1     -10.165  12.490  63.474  1.00  0.00    -0.390 OA 
HETATM   14  C   UNL     1      -9.886   9.359  65.737  1.00  0.00    -0.345 A  
HETATM   15  C   UNL     1      -8.807   8.473  65.811  1.00  0.00    -0.229 A  
BRANCH   3  16
HETATM   16  C   UNL     1     -11.888  12.327  68.430  1.00  0.00    -0.304 C  
BRANCH  16  17
HETATM   17  C   UNL     1     -11.386  11.302  69.420  1.00  0.00    -0.360 A  
HETATM   18  C   UNL     1     -10.144  10.677  69.247  1.00  0.00    -0.227 A  
HETATM   19  C   UNL     1     -11.674   9.962  71.385  1.00  0.00    -0.371 A  
HETATM   20  C   UNL     1      -9.745   9.713  70.161  1.00  0.00    -0.254 A  
HETATM   21  C   UNL     1     -12.161  10.930  70.521  1.00  0.00    -0.464 A  
HETATM   22  N   UNL     1     -10.483   9.342  71.225  1.00  0.00    -0.325 NA 
ENDBRANCH  16  17
ENDBRANCH   3  16
ENDBRANCH   2   3
TORSDOF 3
ENDMDL
MODEL       27
REMARK 921   NORMALIZED FREE ENERGY PREDICTED BY IDOCK:   -4.95 KCAL/MOL
REMARK 922        TOTAL FREE ENERGY PREDICTED BY IDOCK:   -6.84 KCAL/MOL
REMARK 923 INTER-LIGAND FREE ENERGY PREDICTED BY IDOCK:   -5.77 KCAL/MOL
REMARK 924 INTRA-LIGAND FREE ENERGY PREDICTED BY IDOCK:   -1.07 KCAL/MOL
REMARK 927      BINDING AFFINITY PREDICTED BY RF-SCORE:    0.00 PKD
ROOT
HETATM    1  C   UNL     1     -13.762   9.510  72.450  1.00  0.00    -0.408 C  
HETATM    2  C   UNL     1     -13.361   8.405  71.477  1.00  0.00    -0.286 C  
ENDROOT
BRANCH   2   3
HETATM    3  N   UNL     1     -11.950   8.335  71.046  1.00  0.00    -0.278 N  
HETATM    4  C   UNL     1     -10.805   6.130  68.435  1.00  0.00    -0.382 A  
HETATM    5  C   UNL     1     -11.249   7.127  71.204  1.00  0.00    -0.262 C  
HETATM    6  C   UNL     1      -9.817   7.005  70.642  1.00  0.00    -0.187 C  
HETATM    7  C   UNL     1     -10.691   5.855  67.070  1.00  0.00    -0.396 A  
HETATM    8  O   UNL     1     -11.763   6.134  71.732  1.00  0.00    -0.300 OA 
HETATM    9  C   UNL     1      -9.526   6.184  66.383  1.00  0.00    -0.172 A  
HETATM   10  C   UNL     1      -9.757   6.749  69.137  1.00  0.00    -0.147 A  
HETATM   11  C   UNL     1      -9.065   5.896  71.417  1.00  0.00    -0.140 C  
HETATM   12  H   UNL     1      -9.147   3.912  71.704  1.00  0.00     0.000 HD 
HETATM   13  O   UNL     1      -9.609   4.592  71.228  1.00  0.00    -0.152 OA 
HETATM   14  C   UNL     1      -8.583   7.064  68.429  1.00  0.00    -0.126 A  
HETATM   15  C   UNL     1      -8.469   6.783  67.064  1.00  0.00    -0.114 A  
BRANCH   3  16
HETATM   16  C   UNL     1     -11.185   9.596  71.053  1.00  0.00    -0.375 C  
BRANCH  16  17
HETATM   17  C   UNL     1     -11.336  10.503  69.854  1.00  0.00    -0.380 A  
HETATM   18  C   UNL     1     -11.743  11.835  70.001  1.00  0.00    -0.386 A  
HETATM   19  C   UNL     1     -11.283  10.885  67.490  1.00  0.00    -0.293 A  
HETATM   20  C   UNL     1     -11.907  12.616  68.867  1.00  0.00    -0.302 A  
HETATM   21  C   UNL     1     -11.099  10.027  68.563  1.00  0.00    -0.219 A  
HETATM   22  N   UNL     1     -11.686  12.169  67.614  1.00  0.00    -0.472 NA 
ENDBRANCH  16  17
ENDBRANCH   3  16
ENDBRANCH   2   3
TORSDOF 3
ENDMDL
MODEL       28
REMARK 921   NORMALIZED FREE ENERGY PREDICTED BY IDOCK:   -4.94 KCAL/MOL
REMARK 922        TOTAL FREE ENERGY PREDICTED BY IDOCK:   -6.82 KCAL/MOL
REMARK 923 INTER-LIGAND FREE ENERGY PREDICTED BY IDOCK:   -6.27 KCAL/MOL
REMARK 924 INTRA-LIGAND FREE ENERGY PREDICTED BY IDOCK:   -0.55 KCAL/MOL
REMARK 927      BINDING AFFINITY PREDICTED BY RF-SCORE:    0.00 PKD
ROOT
HETATM    1  C   UNL     1      -8.039  13.062  67.640  1.00  0.00    -0.172 C  
HETATM    2  C   UNL     1      -8.795  12.182  66.649  1.00  0.00    -0.182 C  
ENDROOT
BRANCH   2   3
HETATM    3  N   UNL     1      -9.835  11.276  67.176  1.00  0.00    -0.188 N  
HETATM    4  C   UNL     1      -9.289   9.093  69.991  1.00  0.00    -0.218 A  
HETATM    5  C   UNL     1      -9.610   9.889  67.141  1.00  0.00    -0.162 C  
HETATM    6  C   UNL     1     -10.632   8.940  67.804  1.00  0.00    -0.266 C  
HETATM    7  C   UNL     1      -9.187   8.933  71.376  1.00  0.00    -0.328 A  
HETATM    8  O   UNL     1      -8.588   9.402  66.645  1.00  0.00    -0.128 OA 
HETATM    9  C   UNL     1     -10.287   8.513  72.116  1.00  0.00    -0.409 A  
HETATM   10  C   UNL     1     -10.498   8.843  69.323  1.00  0.00    -0.234 A  
HETATM   11  C   UNL     1     -10.517   7.542  67.152  1.00  0.00    -0.336 C  
HETATM   12  H   UNL     1      -9.195   6.041  66.987  1.00  0.00     0.000 HD 
HETATM   13  O   UNL     1      -9.266   6.899  67.387  1.00  0.00    -0.123 OA 
HETATM   14  C   UNL     1     -11.597   8.408  70.086  1.00  0.00     0.103 A  
HETATM   15  C   UNL     1     -11.492   8.244  71.471  1.00  0.00    -0.325 A  
BRANCH   3  16
HETATM   16  C   UNL     1     -11.228  11.762  67.140  1.00  0.00    -0.316 C  
BRANCH  16  17
HETATM   17  C   UNL     1     -11.675  12.486  65.891  1.00  0.00    -0.480 A  
HETATM   18  C   UNL     1     -11.603  11.872  64.634  1.00  0.00    -0.320 A  
HETATM   19  C   UNL     1     -12.517  14.434  64.780  1.00  0.00    -0.357 A  
HETATM   20  C   UNL     1     -11.986  12.592  63.513  1.00  0.00    -0.548 A  
HETATM   21  C   UNL     1     -12.148  13.798  65.955  1.00  0.00    -0.470 A  
HETATM   22  N   UNL     1     -12.441  13.860  63.559  1.00  0.00    -0.812 NA 
ENDBRANCH  16  17
ENDBRANCH   3  16
ENDBRANCH   2   3
TORSDOF 3
ENDMDL
MODEL       29
REMARK 921   NORMALIZED FREE ENERGY PREDICTED BY IDOCK:   -4.93 KCAL/MOL
REMARK 922        TOTAL FREE ENERGY PREDICTED BY IDOCK:   -6.81 KCAL/MOL
REMARK 923 INTER-LIGAND FREE ENERGY PREDICTED BY IDOCK:   -5.64 KCAL/MOL
REMARK 924 INTRA-LIGAND FREE ENERGY PREDICTED BY IDOCK:   -1.18 KCAL/MOL
REMARK 927      BINDING AFFINITY PREDICTED BY RF-SCORE:    0.00 PKD
ROOT
HETATM    1  C   UNL     1      -5.586  19.729  70.427  1.00  0.00    -0.292 C  
HETATM    2  C   UNL     1      -5.646  18.214  70.248  1.00  0.00    -0.231 C  
ENDROOT
BRANCH   2   3
HETATM    3  N   UNL     1      -6.489  17.674  69.162  1.00  0.00    -0.228 N  
HETATM    4  C   UNL     1      -9.423  15.672  69.770  1.00  0.00    -0.154 A  
HETATM    5  C   UNL     1      -6.608  16.281  69.021  1.00  0.00    -0.169 C  
HETATM    6  C   UNL     1      -7.585  15.708  67.973  1.00  0.00    -0.132 C  
HETATM    7  C   UNL     1     -10.769  15.608  70.139  1.00  0.00    -0.355 A  
HETATM    8  O   UNL     1      -5.995  15.493  69.750  1.00  0.00    -0.129 OA 
HETATM    9  C   UNL     1     -11.763  15.569  69.165  1.00  0.00    -0.380 A  
HETATM   10  C   UNL     1      -9.047  15.706  68.417  1.00  0.00    -0.190 A  
HETATM   11  C   UNL     1      -7.128  14.281  67.585  1.00  0.00    -0.183 C  
HETATM   12  H   UNL     1      -6.921  12.467  68.420  1.00  0.00     0.000 HD 
HETATM   13  O   UNL     1      -7.202  13.343  68.657  1.00  0.00    -0.101 OA 
HETATM   14  C   UNL     1     -10.063  15.655  67.446  1.00  0.00    -0.251 A  
HETATM   15  C   UNL     1     -11.410  15.586  67.817  1.00  0.00    -0.286 A  
BRANCH   3  16
HETATM   16  C   UNL     1      -6.657  18.518  67.963  1.00  0.00    -0.215 C  
BRANCH  16  17
HETATM   17  C   UNL     1      -8.053  19.000  67.648  1.00  0.00    -0.296 A  
HETATM   18  C   UNL     1      -8.988  19.227  68.667  1.00  0.00    -0.419 A  
HETATM   19  C   UNL     1      -9.760  19.617  66.083  1.00  0.00    -0.406 A  
HETATM   20  C   UNL     1     -10.270  19.630  68.324  1.00  0.00    -0.452 A  
HETATM   21  C   UNL     1      -8.458  19.206  66.328  1.00  0.00    -0.311 A  
HETATM   22  N   UNL     1     -10.676  19.829  67.054  1.00  0.00    -0.460 NA 
ENDBRANCH  16  17
ENDBRANCH   3  16
ENDBRANCH   2   3
TORSDOF 3
ENDMDL
MODEL       30
REMARK 921   NORMALIZED FREE ENERGY PREDICTED BY IDOCK:   -4.93 KCAL/MOL
REMARK 922        TOTAL FREE ENERGY PREDICTED BY IDOCK:   -6.81 KCAL/MOL
REMARK 923 INTER-LIGAND FREE ENERGY PREDICTED BY IDOCK:   -5.74 KCAL/MOL
REMARK 924 INTRA-LIGAND FREE ENERGY PREDICTED BY IDOCK:   -1.08 KCAL/MOL
REMARK 927      BINDING AFFINITY PREDICTED BY RF-SCORE:    0.00 PKD
ROOT
HETATM    1  C   UNL     1      -8.804  16.211  66.553  1.00  0.00    -0.331 C  
HETATM    2  C   UNL     1     -10.165  15.902  65.934  1.00  0.00    -0.352 C  
ENDROOT
BRANCH   2   3
HETATM    3  N   UNL     1     -10.798  14.607  66.257  1.00  0.00    -0.315 N  
HETATM    4  C   UNL     1      -8.906  11.614  66.932  1.00  0.00    -0.190 A  
HETATM    5  C   UNL     1     -10.599  13.518  65.392  1.00  0.00    -0.308 C  
HETATM    6  C   UNL     1     -11.149  12.130  65.786  1.00  0.00    -0.362 C  
HETATM    7  C   UNL     1      -8.134  10.866  67.825  1.00  0.00    -0.115 A  
HETATM    8  O   UNL     1      -9.947  13.620  64.347  1.00  0.00    -0.268 OA 
HETATM    9  C   UNL     1      -8.722   9.865  68.592  1.00  0.00    -0.124 A  
HETATM   10  C   UNL     1     -10.284  11.380  66.798  1.00  0.00    -0.258 A  
HETATM   11  C   UNL     1     -11.349  11.286  64.504  1.00  0.00    -0.021 C  
HETATM   12  H   UNL     1     -10.258  10.464  63.034  1.00  0.00     0.000 HD 
HETATM   13  O   UNL     1     -10.136  10.982  63.820  1.00  0.00    -0.302 OA 
HETATM   14  C   UNL     1     -10.860  10.357  67.573  1.00  0.00    -0.358 A  
HETATM   15  C   UNL     1     -10.085   9.605  68.462  1.00  0.00    -0.195 A  
BRANCH   3  16
HETATM   16  C   UNL     1     -12.035  14.649  67.060  1.00  0.00    -0.276 C  
BRANCH  16  17
HETATM   17  C   UNL     1     -11.883  14.682  68.563  1.00  0.00    -0.346 A  
HETATM   18  C   UNL     1     -11.946  13.507  69.322  1.00  0.00    -0.378 A  
HETATM   19  C   UNL     1     -11.601  15.877  70.620  1.00  0.00    -0.400 A  
HETATM   20  C   UNL     1     -11.842  13.593  70.703  1.00  0.00    -0.154 A  
HETATM   21  C   UNL     1     -11.703  15.891  69.237  1.00  0.00    -0.360 A  
HETATM   22  N   UNL     1     -11.671  14.753  71.368  1.00  0.00    -0.323 NA 
ENDBRANCH  16  17
ENDBRANCH   3  16
ENDBRANCH   2   3
TORSDOF 3
ENDMDL
MODEL       31
REMARK 921   NORMALIZED FREE ENERGY PREDICTED BY IDOCK:   -4.91 KCAL/MOL
REMARK 922        TOTAL FREE ENERGY PREDICTED BY IDOCK:   -6.79 KCAL/MOL
REMARK 923 INTER-LIGAND FREE ENERGY PREDICTED BY IDOCK:   -6.26 KCAL/MOL
REMARK 924 INTRA-LIGAND FREE ENERGY PREDICTED BY IDOCK:   -0.53 KCAL/MOL
REMARK 927      BINDING AFFINITY PREDICTED BY RF-SCORE:    0.00 PKD
ROOT
HETATM    1  C   UNL     1     -11.178   9.853  69.999  1.00  0.00    -0.327 C  
HETATM    2  C   UNL     1     -10.321  11.086  69.730  1.00  0.00     0.159 C  
ENDROOT
BRANCH   2   3
HETATM    3  N   UNL     1     -10.905  12.177  68.923  1.00  0.00    -0.218 N  
HETATM    4  C   UNL     1     -10.444  12.442  65.358  1.00  0.00    -0.306 A  
HETATM    5  C   UNL     1     -10.045  13.056  68.243  1.00  0.00    -0.239 C  
HETATM    6  C   UNL     1     -10.643  14.119  67.297  1.00  0.00    -0.277 C  
HETATM    7  C   UNL     1     -10.791  12.012  64.075  1.00  0.00    -0.433 A  
HETATM    8  O   UNL     1      -8.814  12.972  68.333  1.00  0.00    -0.183 OA 
HETATM    9  C   UNL     1     -11.735  12.713  63.331  1.00  0.00    -0.571 A  
HETATM   10  C   UNL     1     -11.044  13.578  65.925  1.00  0.00    -0.292 A  
HETATM   11  C   UNL     1      -9.640  15.288  67.154  1.00  0.00    -0.217 C  
HETATM   12  H   UNL     1      -7.803  15.641  66.427  1.00  0.00     0.000 HD 
HETATM   13  O   UNL     1      -8.419  14.924  66.514  1.00  0.00    -0.188 OA 
HETATM   14  C   UNL     1     -11.988  14.281  65.155  1.00  0.00    -0.395 A  
HETATM   15  C   UNL     1     -12.330  13.852  63.869  1.00  0.00    -0.323 A  
BRANCH   3  16
HETATM   16  C   UNL     1     -12.235  12.670  69.328  1.00  0.00    -0.038 C  
BRANCH  16  17
HETATM   17  C   UNL     1     -12.317  13.467  70.608  1.00  0.00    -0.432 A  
HETATM   18  C   UNL     1     -13.167  13.075  71.651  1.00  0.00    -0.426 A  
HETATM   19  C   UNL     1     -11.700  15.351  71.953  1.00  0.00    -0.434 A  
HETATM   20  C   UNL     1     -13.238  13.863  72.790  1.00  0.00    -0.441 A  
HETATM   21  C   UNL     1     -11.567  14.633  70.774  1.00  0.00    -0.289 A  
HETATM   22  N   UNL     1     -12.523  14.992  72.964  1.00  0.00    -0.390 NA 
ENDBRANCH  16  17
ENDBRANCH   3  16
ENDBRANCH   2   3
TORSDOF 3
ENDMDL
MODEL       32
REMARK 921   NORMALIZED FREE ENERGY PREDICTED BY IDOCK:   -4.88 KCAL/MOL
REMARK 922        TOTAL FREE ENERGY PREDICTED BY IDOCK:   -6.75 KCAL/MOL
REMARK 923 INTER-LIGAND FREE ENERGY PREDICTED BY IDOCK:   -5.65 KCAL/MOL
REMARK 924 INTRA-LIGAND FREE ENERGY PREDICTED BY IDOCK:   -1.10 KCAL/MOL
REMARK 927      BINDING AFFINITY PREDICTED BY RF-SCORE:    0.00 PKD
ROOT
HETATM    1  C   UNL     1      -5.396  13.983  68.152  1.00  0.00    -0.120 C  
HETATM    2  C   UNL     1      -5.581  15.417  67.663  1.00  0.00    -0.057 C  
ENDROOT
BRANCH   2   3
HETATM    3  N   UNL     1      -6.545  16.277  68.379  1.00  0.00    -0.131 N  
HETATM    4  C   UNL     1      -8.089  19.165  66.873  1.00  0.00    -0.277 A  
HETATM    5  C   UNL     1      -6.219  17.625  68.603  1.00  0.00    -0.187 C  
HETATM    6  C   UNL     1      -7.271  18.563  69.234  1.00  0.00    -0.130 C  
HETATM    7  C   UNL     1      -9.058  19.688  66.012  1.00  0.00    -0.288 A  
HETATM    8  O   UNL     1      -5.133  18.104  68.258  1.00  0.00    -0.157 OA 
HETATM    9  C   UNL     1     -10.278  20.129  66.515  1.00  0.00    -0.558 A  
HETATM   10  C   UNL     1      -8.328  19.065  68.253  1.00  0.00    -0.369 A  
HETATM   11  C   UNL     1      -6.545  19.749  69.914  1.00  0.00    -0.290 C  
HETATM   12  H   UNL     1      -5.403  21.323  69.418  1.00  0.00     0.000 HD 
HETATM   13  O   UNL     1      -5.849  20.596  69.001  1.00  0.00    -0.320 OA 
HETATM   14  C   UNL     1      -9.563  19.527  68.745  1.00  0.00    -0.479 A  
HETATM   15  C   UNL     1     -10.529  20.055  67.883  1.00  0.00    -0.459 A  
BRANCH   3  16
HETATM   16  C   UNL     1      -7.464  15.611  69.322  1.00  0.00    -0.216 C  
BRANCH  16  17
HETATM   17  C   UNL     1      -8.896  15.425  68.876  1.00  0.00    -0.211 A  
HETATM   18  C   UNL     1      -9.212  15.208  67.529  1.00  0.00    -0.188 A  
HETATM   19  C   UNL     1     -11.246  15.348  69.336  1.00  0.00    -0.296 A  
HETATM   20  C   UNL     1     -10.544  15.084  67.164  1.00  0.00    -0.295 A  
HETATM   21  C   UNL     1      -9.946  15.491  69.795  1.00  0.00    -0.281 A  
HETATM   22  N   UNL     1     -11.568  15.150  68.038  1.00  0.00    -0.341 NA 
ENDBRANCH  16  17
ENDBRANCH   3  16
ENDBRANCH   2   3
TORSDOF 3
ENDMDL
MODEL       33
REMARK 921   NORMALIZED FREE ENERGY PREDICTED BY IDOCK:   -4.83 KCAL/MOL
REMARK 922        TOTAL FREE ENERGY PREDICTED BY IDOCK:   -6.69 KCAL/MOL
REMARK 923 INTER-LIGAND FREE ENERGY PREDICTED BY IDOCK:   -6.18 KCAL/MOL
REMARK 924 INTRA-LIGAND FREE ENERGY PREDICTED BY IDOCK:   -0.51 KCAL/MOL
REMARK 927      BINDING AFFINITY PREDICTED BY RF-SCORE:    0.00 PKD
ROOT
HETATM    1  C   UNL     1     -12.001  13.295  63.346  1.00  0.00    -0.491 C  
HETATM    2  C   UNL     1     -11.650  14.274  64.463  1.00  0.00    -0.387 C  
ENDROOT
BRANCH   2   3
HETATM    3  N   UNL     1     -10.823  13.784  65.584  1.00  0.00    -0.283 N  
HETATM    4  C   UNL     1     -10.155  10.286  66.141  1.00  0.00    -0.307 A  
HETATM    5  C   UNL     1     -11.412  12.952  66.551  1.00  0.00    -0.341 C  
HETATM    6  C   UNL     1     -10.528  12.331  67.654  1.00  0.00    -0.230 C  
HETATM    7  C   UNL     1      -9.438   9.138  65.795  1.00  0.00    -0.322 A  
HETATM    8  O   UNL     1     -12.612  12.654  66.518  1.00  0.00    -0.252 OA 
HETATM    9  C   UNL     1      -8.295   8.783  66.507  1.00  0.00    -0.112 A  
HETATM   10  C   UNL     1      -9.736  11.106  67.202  1.00  0.00    -0.199 A  
HETATM   11  C   UNL     1     -11.414  11.991  68.877  1.00  0.00    -0.301 C  
HETATM   12  H   UNL     1     -12.929  10.770  69.369  1.00  0.00     0.000 HD 
HETATM   13  O   UNL     1     -12.385  10.979  68.619  1.00  0.00    -0.539 OA 
HETATM   14  C   UNL     1      -8.585  10.726  67.917  1.00  0.00    -0.125 A  
HETATM   15  C   UNL     1      -7.872   9.574  67.572  1.00  0.00    -0.102 A  
BRANCH   3  16
HETATM   16  C   UNL     1      -9.672  14.617  65.981  1.00  0.00    -0.312 C  
BRANCH  16  17
HETATM   17  C   UNL     1      -9.973  15.979  66.562  1.00  0.00    -0.293 A  
HETATM   18  C   UNL     1     -10.279  16.134  67.920  1.00  0.00    -0.261 A  
HETATM   19  C   UNL     1     -10.294  18.341  66.322  1.00  0.00    -0.405 A  
HETATM   20  C   UNL     1     -10.588  17.399  68.398  1.00  0.00    -0.355 A  
HETATM   21  C   UNL     1      -9.980  17.117  65.752  1.00  0.00    -0.142 A  
HETATM   22  N   UNL     1     -10.603  18.506  67.628  1.00  0.00    -0.424 NA 
ENDBRANCH  16  17
ENDBRANCH   3  16
ENDBRANCH   2   3
TORSDOF 3
ENDMDL
MODEL       34
REMARK 921   NORMALIZED FREE ENERGY PREDICTED BY IDOCK:   -4.81 KCAL/MOL
REMARK 922        TOTAL FREE ENERGY PREDICTED BY IDOCK:   -6.67 KCAL/MOL
REMARK 923 INTER-LIGAND FREE ENERGY PREDICTED BY IDOCK:   -6.08 KCAL/MOL
REMARK 924 INTRA-LIGAND FREE ENERGY PREDICTED BY IDOCK:   -0.59 KCAL/MOL
REMARK 927      BINDING AFFINITY PREDICTED BY RF-SCORE:    0.00 PKD
ROOT
HETATM    1  C   UNL     1     -10.876  14.804  69.240  1.00  0.00    -0.275 C  
HETATM    2  C   UNL     1      -9.986  14.020  68.279  1.00  0.00    -0.236 C  
ENDROOT
BRANCH   2   3
HETATM    3  N   UNL     1     -10.366  12.630  67.955  1.00  0.00    -0.221 N  
HETATM    4  C   UNL     1      -9.250   9.795  69.882  1.00  0.00    -0.263 A  
HETATM    5  C   UNL     1      -9.360  11.713  67.608  1.00  0.00    -0.178 C  
HETATM    6  C   UNL     1      -9.730  10.229  67.393  1.00  0.00    -0.189 C  
HETATM    7  C   UNL     1      -9.374   9.010  71.030  1.00  0.00    -0.339 A  
HETATM    8  O   UNL     1      -8.172  12.043  67.522  1.00  0.00    -0.142 OA 
HETATM    9  C   UNL     1     -10.136   7.845  71.005  1.00  0.00    -0.212 A  
HETATM   10  C   UNL     1      -9.895   9.434  68.688  1.00  0.00    -0.174 A  
HETATM   11  C   UNL     1      -8.669   9.573  66.478  1.00  0.00    -0.134 C  
HETATM   12  H   UNL     1      -6.717   9.108  66.496  1.00  0.00     0.000 HD 
HETATM   13  O   UNL     1      -7.368   9.511  67.058  1.00  0.00    -0.087 OA 
HETATM   14  C   UNL     1     -10.652   8.249  68.677  1.00  0.00    -0.144 A  
HETATM   15  C   UNL     1     -10.770   7.461  69.826  1.00  0.00    -0.252 A  
BRANCH   3  16
HETATM   16  C   UNL     1     -11.727  12.414  67.426  1.00  0.00    -0.347 C  
BRANCH  16  17
HETATM   17  C   UNL     1     -11.993  12.850  66.005  1.00  0.00    -0.505 A  
HETATM   18  C   UNL     1     -11.910  11.940  64.942  1.00  0.00    -0.236 A  
HETATM   19  C   UNL     1     -12.506  14.540  64.387  1.00  0.00    -0.309 A  
HETATM   20  C   UNL     1     -12.122  12.398  63.650  1.00  0.00    -0.556 A  
HETATM   21  C   UNL     1     -12.302  14.179  65.710  1.00  0.00    -0.481 A  
HETATM   22  N   UNL     1     -12.418  13.678  63.349  1.00  0.00    -0.800 NA 
ENDBRANCH  16  17
ENDBRANCH   3  16
ENDBRANCH   2   3
TORSDOF 3
ENDMDL
MODEL       35
REMARK 921   NORMALIZED FREE ENERGY PREDICTED BY IDOCK:   -4.81 KCAL/MOL
REMARK 922        TOTAL FREE ENERGY PREDICTED BY IDOCK:   -6.67 KCAL/MOL
REMARK 923 INTER-LIGAND FREE ENERGY PREDICTED BY IDOCK:   -5.66 KCAL/MOL
REMARK 924 INTRA-LIGAND FREE ENERGY PREDICTED BY IDOCK:   -1.01 KCAL/MOL
REMARK 927      BINDING AFFINITY PREDICTED BY RF-SCORE:    0.00 PKD
ROOT
HETATM    1  C   UNL     1      -7.753   7.558  67.890  1.00  0.00    -0.116 C  
HETATM    2  C   UNL     1      -7.897   9.077  67.927  1.00  0.00    -0.101 C  
ENDROOT
BRANCH   2   3
HETATM    3  N   UNL     1      -9.209   9.660  67.583  1.00  0.00    -0.130 N  
HETATM    4  C   UNL     1     -10.028  13.121  68.166  1.00  0.00    -0.234 A  
HETATM    5  C   UNL     1     -10.014  10.179  68.612  1.00  0.00    -0.170 C  
HETATM    6  C   UNL     1     -11.328  10.905  68.252  1.00  0.00    -0.374 C  
HETATM    7  C   UNL     1      -9.917  14.457  67.771  1.00  0.00    -0.226 A  
HETATM    8  O   UNL     1      -9.677  10.123  69.801  1.00  0.00    -0.230 OA 
HETATM    9  C   UNL     1     -10.913  15.046  66.997  1.00  0.00    -0.318 A  
HETATM   10  C   UNL     1     -11.136  12.347  67.785  1.00  0.00    -0.292 A  
HETATM   11  C   UNL     1     -12.286  10.844  69.465  1.00  0.00    -0.261 C  
HETATM   12  H   UNL     1     -12.402  11.520  71.352  1.00  0.00     0.000 HD 
HETATM   13  O   UNL     1     -11.814  11.557  70.607  1.00  0.00    -0.328 OA 
HETATM   14  C   UNL     1     -12.138  12.961  67.012  1.00  0.00    -0.296 A  
HETATM   15  C   UNL     1     -12.027  14.299  66.622  1.00  0.00    -0.454 A  
BRANCH   3  16
HETATM   16  C   UNL     1      -9.868   9.153  66.365  1.00  0.00    -0.280 C  
BRANCH  16  17
HETATM   17  C   UNL     1      -9.537   9.843  65.062  1.00  0.00    -0.364 A  
HETATM   18  C   UNL     1     -10.299  10.925  64.603  1.00  0.00    -0.407 A  
HETATM   19  C   UNL     1      -8.231  10.043  63.064  1.00  0.00    -0.156 A  
HETATM   20  C   UNL     1      -9.981  11.499  63.381  1.00  0.00    -0.417 A  
HETATM   21  C   UNL     1      -8.478   9.401  64.267  1.00  0.00    -0.198 A  
HETATM   22  N   UNL     1      -8.964  11.081  62.601  1.00  0.00    -0.309 NA 
ENDBRANCH  16  17
ENDBRANCH   3  16
ENDBRANCH   2   3
TORSDOF 3
ENDMDL
MODEL       36
REMARK 921   NORMALIZED FREE ENERGY PREDICTED BY IDOCK:   -4.81 KCAL/MOL
REMARK 922        TOTAL FREE ENERGY PREDICTED BY IDOCK:   -6.67 KCAL/MOL
REMARK 923 INTER-LIGAND FREE ENERGY PREDICTED BY IDOCK:   -5.53 KCAL/MOL
REMARK 924 INTRA-LIGAND FREE ENERGY PREDICTED BY IDOCK:   -1.14 KCAL/MOL
REMARK 927      BINDING AFFINITY PREDICTED BY RF-SCORE:    0.00 PKD
ROOT
HETATM    1  C   UNL     1     -10.799  15.190  64.901  1.00  0.00    -0.437 C  
HETATM    2  C   UNL     1     -10.724  14.862  66.390  1.00  0.00    -0.316 C  
ENDROOT
BRANCH   2   3
HETATM    3  N   UNL     1      -9.981  15.787  67.270  1.00  0.00    -0.235 N  
HETATM    4  C   UNL     1      -6.709  17.061  66.456  1.00  0.00    -0.267 A  
HETATM    5  C   UNL     1      -8.752  15.372  67.810  1.00  0.00    -0.164 C  
HETATM    6  C   UNL     1      -7.907  16.376  68.625  1.00  0.00    -0.211 C  
HETATM    7  C   UNL     1      -5.925  17.956  65.724  1.00  0.00    -0.223 A  
HETATM    8  O   UNL     1      -8.294  14.242  67.609  1.00  0.00    -0.155 OA 
HETATM    9  C   UNL     1      -5.517  19.159  66.294  1.00  0.00    -0.172 A  
HETATM   10  C   UNL     1      -7.107  17.357  67.769  1.00  0.00    -0.180 A  
HETATM   11  C   UNL     1      -6.973  15.591  69.577  1.00  0.00    -0.190 C  
HETATM   12  H   UNL     1      -5.422  14.321  69.487  1.00  0.00     0.000 HD 
HETATM   13  O   UNL     1      -5.995  14.802  68.903  1.00  0.00    -0.084 OA 
HETATM   14  C   UNL     1      -6.677  18.572  68.333  1.00  0.00    -0.251 A  
HETATM   15  C   UNL     1      -5.888  19.465  67.601  1.00  0.00    -0.203 A  
BRANCH   3  16
HETATM   16  C   UNL     1     -10.773  16.786  68.012  1.00  0.00    -0.355 C  
BRANCH  16  17
HETATM   17  C   UNL     1     -10.452  18.242  67.768  1.00  0.00    -0.430 A  
HETATM   18  C   UNL     1     -10.336  18.750  66.468  1.00  0.00    -0.475 A  
HETATM   19  C   UNL     1      -9.911  20.436  68.565  1.00  0.00    -0.019 A  
HETATM   20  C   UNL     1      -9.999  20.084  66.296  1.00  0.00    -0.481 A  
HETATM   21  C   UNL     1     -10.236  19.116  68.836  1.00  0.00    -0.306 A  
HETATM   22  N   UNL     1      -9.784  20.938  67.316  1.00  0.00    -0.377 NA 
ENDBRANCH  16  17
ENDBRANCH   3  16
ENDBRANCH   2   3
TORSDOF 3
ENDMDL
MODEL       37
REMARK 921   NORMALIZED FREE ENERGY PREDICTED BY IDOCK:   -4.76 KCAL/MOL
REMARK 922        TOTAL FREE ENERGY PREDICTED BY IDOCK:   -6.62 KCAL/MOL
REMARK 923 INTER-LIGAND FREE ENERGY PREDICTED BY IDOCK:   -6.04 KCAL/MOL
REMARK 924 INTRA-LIGAND FREE ENERGY PREDICTED BY IDOCK:   -0.58 KCAL/MOL
REMARK 927      BINDING AFFINITY PREDICTED BY RF-SCORE:    0.00 PKD
ROOT
HETATM    1  C   UNL     1     -10.049  10.753  69.211  1.00  0.00    -0.200 C  
HETATM    2  C   UNL     1     -10.121  10.488  67.709  1.00  0.00    -0.175 C  
ENDROOT
BRANCH   2   3
HETATM    3  N   UNL     1      -9.977  11.637  66.793  1.00  0.00    -0.202 N  
HETATM    4  C   UNL     1     -11.101  14.960  67.624  1.00  0.00    -0.315 A  
HETATM    5  C   UNL     1     -11.134  12.283  66.323  1.00  0.00    -0.302 C  
HETATM    6  C   UNL     1     -10.993  13.561  65.469  1.00  0.00    -0.295 C  
HETATM    7  C   UNL     1     -10.886  16.154  68.317  1.00  0.00    -0.326 A  
HETATM    8  O   UNL     1     -12.269  11.892  66.618  1.00  0.00    -0.493 OA 
HETATM    9  C   UNL     1     -10.290  17.238  67.679  1.00  0.00    -0.350 A  
HETATM   10  C   UNL     1     -10.714  14.826  66.281  1.00  0.00    -0.313 A  
HETATM   11  C   UNL     1     -12.265  13.733  64.605  1.00  0.00    -0.406 C  
HETATM   12  H   UNL     1     -14.229  14.074  64.835  1.00  0.00     0.000 HD 
HETATM   13  O   UNL     1     -13.448  13.969  65.365  1.00  0.00    -0.679 OA 
HETATM   14  C   UNL     1     -10.124  15.935  65.649  1.00  0.00    -0.388 A  
HETATM   15  C   UNL     1      -9.915  17.131  66.342  1.00  0.00    -0.315 A  
BRANCH   3  16
HETATM   16  C   UNL     1      -8.762  11.678  65.957  1.00  0.00    -0.055 C  
BRANCH  16  17
HETATM   17  C   UNL     1      -8.677  10.696  64.812  1.00  0.00    -0.170 A  
HETATM   18  C   UNL     1      -7.901   9.533  64.913  1.00  0.00    -0.119 A  
HETATM   19  C   UNL     1      -9.215  10.022  62.577  1.00  0.00    -0.296 A  
HETATM   20  C   UNL     1      -7.822   8.683  63.821  1.00  0.00    -0.148 A  
HETATM   21  C   UNL     1      -9.349  10.935  63.612  1.00  0.00    -0.285 A  
HETATM   22  N   UNL     1      -8.462   8.903  62.655  1.00  0.00    -0.206 NA 
ENDBRANCH  16  17
ENDBRANCH   3  16
ENDBRANCH   2   3
TORSDOF 3
ENDMDL
MODEL       38
REMARK 921   NORMALIZED FREE ENERGY PREDICTED BY IDOCK:   -4.76 KCAL/MOL
REMARK 922        TOTAL FREE ENERGY PREDICTED BY IDOCK:   -6.61 KCAL/MOL
REMARK 923 INTER-LIGAND FREE ENERGY PREDICTED BY IDOCK:   -6.17 KCAL/MOL
REMARK 924 INTRA-LIGAND FREE ENERGY PREDICTED BY IDOCK:   -0.44 KCAL/MOL
REMARK 927      BINDING AFFINITY PREDICTED BY RF-SCORE:    0.00 PKD
ROOT
HETATM    1  C   UNL     1     -11.557  13.628  66.093  1.00  0.00    -0.369 C  
HETATM    2  C   UNL     1     -11.787  13.834  67.588  1.00  0.00    -0.378 C  
ENDROOT
BRANCH   2   3
HETATM    3  N   UNL     1     -11.031  14.906  68.267  1.00  0.00    -0.255 N  
HETATM    4  C   UNL     1      -8.198  16.556  66.770  1.00  0.00    -0.279 A  
HETATM    5  C   UNL     1      -9.673  14.697  68.565  1.00  0.00    -0.225 C  
HETATM    6  C   UNL     1      -8.843  15.856  69.158  1.00  0.00    -0.253 C  
HETATM    7  C   UNL     1      -7.709  17.502  65.864  1.00  0.00    -0.119 A  
HETATM    8  O   UNL     1      -9.103  13.629  68.317  1.00  0.00    -0.191 OA 
HETATM    9  C   UNL     1      -7.378  18.783  66.297  1.00  0.00    -0.282 A  
HETATM   10  C   UNL     1      -8.375  16.879  68.125  1.00  0.00    -0.212 A  
HETATM   11  C   UNL     1      -7.639  15.267  69.932  1.00  0.00    -0.003 C  
HETATM   12  H   UNL     1      -5.966  14.216  69.578  1.00  0.00     0.000 HD 
HETATM   13  O   UNL     1      -6.705  14.577  69.104  1.00  0.00    -0.101 OA 
HETATM   14  C   UNL     1      -8.025  18.175  68.547  1.00  0.00    -0.312 A  
HETATM   15  C   UNL     1      -7.530  19.118  67.640  1.00  0.00    -0.263 A  
BRANCH   3  16
HETATM   16  C   UNL     1     -11.802  15.834  69.117  1.00  0.00    -0.354 C  
BRANCH  16  17
HETATM   17  C   UNL     1     -12.098  15.392  70.531  1.00  0.00    -0.411 A  
HETATM   18  C   UNL     1     -11.672  16.149  71.629  1.00  0.00    -0.558 A  
HETATM   19  C   UNL     1     -13.003  13.818  72.093  1.00  0.00    -0.343 A  
HETATM   20  C   UNL     1     -11.932  15.681  72.908  1.00  0.00    -0.479 A  
HETATM   21  C   UNL     1     -12.782  14.200  70.779  1.00  0.00    -0.414 A  
HETATM   22  N   UNL     1     -12.588  14.531  73.164  1.00  0.00    -0.370 NA 
ENDBRANCH  16  17
ENDBRANCH   3  16
ENDBRANCH   2   3
TORSDOF 3
ENDMDL
MODEL       39
REMARK 921   NORMALIZED FREE ENERGY PREDICTED BY IDOCK:   -4.75 KCAL/MOL
REMARK 922        TOTAL FREE ENERGY PREDICTED BY IDOCK:   -6.61 KCAL/MOL
REMARK 923 INTER-LIGAND FREE ENERGY PREDICTED BY IDOCK:   -5.61 KCAL/MOL
REMARK 924 INTRA-LIGAND FREE ENERGY PREDICTED BY IDOCK:   -1.00 KCAL/MOL
REMARK 927      BINDING AFFINITY PREDICTED BY RF-SCORE:    0.00 PKD
ROOT
HETATM    1  C   UNL     1     -13.224  11.731  71.940  1.00  0.00    -0.468 C  
HETATM    2  C   UNL     1     -13.016  10.934  70.655  1.00  0.00    -0.184 C  
ENDROOT
BRANCH   2   3
HETATM    3  N   UNL     1     -11.647  10.839  70.109  1.00  0.00    -0.311 N  
HETATM    4  C   UNL     1     -10.446   7.948  68.321  1.00  0.00    -0.212 A  
HETATM    5  C   UNL     1     -10.788   9.839  70.595  1.00  0.00    -0.329 C  
HETATM    6  C   UNL     1      -9.402   9.649  69.942  1.00  0.00    -0.256 C  
HETATM    7  C   UNL     1     -10.409   7.208  67.137  1.00  0.00    -0.359 A  
HETATM    8  O   UNL     1     -11.127   9.063  71.496  1.00  0.00    -0.295 OA 
HETATM    9  C   UNL     1      -9.355   7.368  66.242  1.00  0.00    -0.166 A  
HETATM   10  C   UNL     1      -9.433   8.871  68.628  1.00  0.00    -0.153 A  
HETATM   11  C   UNL     1      -8.455   8.970  70.961  1.00  0.00    -0.203 C  
HETATM   12  H   UNL     1      -8.261   7.226  71.935  1.00  0.00     0.000 HD 
HETATM   13  O   UNL     1      -8.842   7.643  71.310  1.00  0.00    -0.130 OA 
HETATM   14  C   UNL     1      -8.369   9.012  67.718  1.00  0.00    -0.117 A  
HETATM   15  C   UNL     1      -8.331   8.266  66.536  1.00  0.00    -0.112 A  
BRANCH   3  16
HETATM   16  C   UNL     1     -11.051  12.080  69.579  1.00  0.00    -0.073 C  
BRANCH  16  17
HETATM   17  C   UNL     1     -11.432  12.486  68.174  1.00  0.00    -0.368 A  
HETATM   18  C   UNL     1     -11.907  13.774  67.897  1.00  0.00    -0.413 A  
HETATM   19  C   UNL     1     -11.737  11.981  65.852  1.00  0.00    -0.242 A  
HETATM   20  C   UNL     1     -12.283  14.085  66.599  1.00  0.00    -0.428 A  
HETATM   21  C   UNL     1     -11.345  11.575  67.119  1.00  0.00    -0.354 A  
HETATM   22  N   UNL     1     -12.209  13.216  65.571  1.00  0.00    -0.437 NA 
ENDBRANCH  16  17
ENDBRANCH   3  16
ENDBRANCH   2   3
TORSDOF 3
ENDMDL
MODEL       40
REMARK 921   NORMALIZED FREE ENERGY PREDICTED BY IDOCK:   -4.75 KCAL/MOL
REMARK 922        TOTAL FREE ENERGY PREDICTED BY IDOCK:   -6.60 KCAL/MOL
REMARK 923 INTER-LIGAND FREE ENERGY PREDICTED BY IDOCK:   -6.29 KCAL/MOL
REMARK 924 INTRA-LIGAND FREE ENERGY PREDICTED BY IDOCK:   -0.31 KCAL/MOL
REMARK 927      BINDING AFFINITY PREDICTED BY RF-SCORE:    0.00 PKD
ROOT
HETATM    1  C   UNL     1     -10.269  18.933  68.407  1.00  0.00    -0.433 C  
HETATM    2  C   UNL     1     -10.571  18.200  67.102  1.00  0.00    -0.344 C  
ENDROOT
BRANCH   2   3
HETATM    3  N   UNL     1     -10.061  16.823  66.944  1.00  0.00    -0.278 N  
HETATM    4  C   UNL     1     -12.063  14.132  65.624  1.00  0.00    -0.425 A  
HETATM    5  C   UNL     1     -10.669  15.784  67.670  1.00  0.00    -0.310 C  
HETATM    6  C   UNL     1     -10.229  14.326  67.416  1.00  0.00    -0.247 C  
HETATM    7  C   UNL     1     -12.623  13.494  64.514  1.00  0.00    -0.262 A  
HETATM    8  O   UNL     1     -11.588  15.993  68.470  1.00  0.00    -0.381 OA 
HETATM    9  C   UNL     1     -11.978  12.409  63.928  1.00  0.00    -0.572 A  
HETATM   10  C   UNL     1     -10.840  13.700  66.163  1.00  0.00    -0.279 A  
HETATM   11  C   UNL     1     -10.553  13.477  68.668  1.00  0.00    -0.244 C  
HETATM   12  H   UNL     1     -12.147  12.841  69.708  1.00  0.00     0.000 HD 
HETATM   13  O   UNL     1     -11.948  13.362  68.939  1.00  0.00    -0.330 OA 
HETATM   14  C   UNL     1     -10.208  12.594  65.566  1.00  0.00    -0.298 A  
HETATM   15  C   UNL     1     -10.772  11.954  64.458  1.00  0.00    -0.361 A  
BRANCH   3  16
HETATM   16  C   UNL     1      -8.645  16.674  66.557  1.00  0.00    -0.285 C  
BRANCH  16  17
HETATM   17  C   UNL     1      -7.606  17.177  67.532  1.00  0.00    -0.187 A  
HETATM   18  C   UNL     1      -7.292  16.455  68.691  1.00  0.00    -0.186 A  
HETATM   19  C   UNL     1      -6.028  18.828  68.254  1.00  0.00    -0.210 A  
HETATM   20  C   UNL     1      -6.361  16.978  69.576  1.00  0.00    -0.235 A  
HETATM   21  C   UNL     1      -6.950  18.390  67.316  1.00  0.00    -0.208 A  
HETATM   22  N   UNL     1      -5.723  18.149  69.382  1.00  0.00    -0.217 NA 
ENDBRANCH  16  17
ENDBRANCH   3  16
ENDBRANCH   2   3
TORSDOF 3
ENDMDL
MODEL       41
REMARK 921   NORMALIZED FREE ENERGY PREDICTED BY IDOCK:   -4.74 KCAL/MOL
REMARK 922        TOTAL FREE ENERGY PREDICTED BY IDOCK:   -6.59 KCAL/MOL
REMARK 923 INTER-LIGAND FREE ENERGY PREDICTED BY IDOCK:   -5.52 KCAL/MOL
REMARK 924 INTRA-LIGAND FREE ENERGY PREDICTED BY IDOCK:   -1.07 KCAL/MOL
REMARK 927      BINDING AFFINITY PREDICTED BY RF-SCORE:    0.00 PKD
ROOT
HETATM    1  C   UNL     1     -10.631  16.731  68.293  1.00  0.00    -0.352 C  
HETATM    2  C   UNL     1      -9.602  15.691  68.728  1.00  0.00    -0.215 C  
ENDROOT
BRANCH   2   3
HETATM    3  N   UNL     1      -9.219  14.644  67.759  1.00  0.00    -0.192 N  
HETATM    4  C   UNL     1      -9.518  11.121  68.459  1.00  0.00    -0.193 A  
HETATM    5  C   UNL     1      -8.182  13.755  68.092  1.00  0.00    -0.160 C  
HETATM    6  C   UNL     1      -7.860  12.580  67.144  1.00  0.00    -0.123 C  
HETATM    7  C   UNL     1     -10.332   9.990  68.566  1.00  0.00    -0.217 A  
HETATM    8  O   UNL     1      -7.552  13.849  69.152  1.00  0.00    -0.062 OA 
HETATM    9  C   UNL     1     -10.448   9.106  67.497  1.00  0.00    -0.335 A  
HETATM   10  C   UNL     1      -8.811  11.393  67.276  1.00  0.00    -0.153 A  
HETATM   11  C   UNL     1      -6.394  12.138  67.371  1.00  0.00    -0.144 C  
HETATM   12  H   UNL     1      -5.253  11.323  68.807  1.00  0.00     0.000 HD 
HETATM   13  O   UNL     1      -6.152  11.595  68.667  1.00  0.00    -0.049 OA 
HETATM   14  C   UNL     1      -8.932  10.482  66.210  1.00  0.00    -0.174 A  
HETATM   15  C   UNL     1      -9.742   9.348  66.321  1.00  0.00    -0.330 A  
BRANCH   3  16
HETATM   16  C   UNL     1      -9.469  14.928  66.333  1.00  0.00    -0.300 C  
BRANCH  16  17
HETATM   17  C   UNL     1     -10.549  14.124  65.647  1.00  0.00    -0.317 A  
HETATM   18  C   UNL     1     -11.836  14.028  66.192  1.00  0.00    -0.422 A  
HETATM   19  C   UNL     1     -11.294  12.679  63.888  1.00  0.00    -0.441 A  
HETATM   20  C   UNL     1     -12.780  13.244  65.547  1.00  0.00    -0.367 A  
HETATM   21  C   UNL     1     -10.282  13.431  64.464  1.00  0.00    -0.321 A  
HETATM   22  N   UNL     1     -12.537  12.567  64.407  1.00  0.00    -0.649 NA 
ENDBRANCH  16  17
ENDBRANCH   3  16
ENDBRANCH   2   3
TORSDOF 3
ENDMDL
MODEL       42
REMARK 921   NORMALIZED FREE ENERGY PREDICTED BY IDOCK:   -4.73 KCAL/MOL
REMARK 922        TOTAL FREE ENERGY PREDICTED BY IDOCK:   -6.58 KCAL/MOL
REMARK 923 INTER-LIGAND FREE ENERGY PREDICTED BY IDOCK:   -5.61 KCAL/MOL
REMARK 924 INTRA-LIGAND FREE ENERGY PREDICTED BY IDOCK:   -0.97 KCAL/MOL
REMARK 927      BINDING AFFINITY PREDICTED BY RF-SCORE:    0.00 PKD
ROOT
HETATM    1  C   UNL     1     -11.805  15.864  71.458  1.00  0.00    -0.536 C  
HETATM    2  C   UNL     1     -12.403  15.510  70.099  1.00  0.00    -0.353 C  
ENDROOT
BRANCH   2   3
HETATM    3  N   UNL     1     -11.508  14.936  69.074  1.00  0.00    -0.284 N  
HETATM    4  C   UNL     1      -7.919  15.251  69.207  1.00  0.00    -0.223 A  
HETATM    5  C   UNL     1     -10.704  15.800  68.311  1.00  0.00    -0.281 C  
HETATM    6  C   UNL     1      -9.673  15.204  67.328  1.00  0.00    -0.210 C  
HETATM    7  C   UNL     1      -6.704  14.831  69.754  1.00  0.00    -0.173 A  
HETATM    8  O   UNL     1     -10.754  17.029  68.440  1.00  0.00    -0.354 OA 
HETATM    9  C   UNL     1      -5.927  13.884  69.094  1.00  0.00    -0.092 A  
HETATM   10  C   UNL     1      -8.384  14.723  67.992  1.00  0.00    -0.143 A  
HETATM   11  C   UNL     1      -9.367  16.247  66.226  1.00  0.00    -0.326 C  
HETATM   12  H   UNL     1      -8.534  18.063  66.035  1.00  0.00     0.000 HD 
HETATM   13  O   UNL     1      -8.723  17.423  66.711  1.00  0.00    -0.235 OA 
HETATM   14  C   UNL     1      -7.581  13.775  67.333  1.00  0.00    -0.153 A  
HETATM   15  C   UNL     1      -6.362  13.360  67.879  1.00  0.00    -0.151 A  
BRANCH   3  16
HETATM   16  C   UNL     1     -11.909  13.645  68.482  1.00  0.00    -0.371 C  
BRANCH  16  17
HETATM   17  C   UNL     1     -11.560  12.393  69.253  1.00  0.00    -0.379 A  
HETATM   18  C   UNL     1     -10.424  11.639  68.933  1.00  0.00    -0.201 A  
HETATM   19  C   UNL     1     -12.038  10.769  70.948  1.00  0.00    -0.370 A  
HETATM   20  C   UNL     1     -10.169  10.476  69.644  1.00  0.00    -0.168 A  
HETATM   21  C   UNL     1     -12.379  11.940  70.289  1.00  0.00    -0.287 A  
HETATM   22  N   UNL     1     -10.952  10.024  70.643  1.00  0.00    -0.318 NA 
ENDBRANCH  16  17
ENDBRANCH   3  16
ENDBRANCH   2   3
TORSDOF 3
ENDMDL
MODEL       43
REMARK 921   NORMALIZED FREE ENERGY PREDICTED BY IDOCK:   -4.72 KCAL/MOL
REMARK 922        TOTAL FREE ENERGY PREDICTED BY IDOCK:   -6.57 KCAL/MOL
REMARK 923 INTER-LIGAND FREE ENERGY PREDICTED BY IDOCK:   -5.80 KCAL/MOL
REMARK 924 INTRA-LIGAND FREE ENERGY PREDICTED BY IDOCK:   -0.77 KCAL/MOL
REMARK 927      BINDING AFFINITY PREDICTED BY RF-SCORE:    0.00 PKD
ROOT
HETATM    1  C   UNL     1      -6.747  10.143  69.261  1.00  0.00    -0.059 C  
HETATM    2  C   UNL     1      -7.434  10.204  67.899  1.00  0.00    -0.088 C  
ENDROOT
BRANCH   2   3
HETATM    3  N   UNL     1      -8.752  10.866  67.814  1.00  0.00    -0.127 N  
HETATM    4  C   UNL     1     -10.053  12.254  64.752  1.00  0.00    -0.271 A  
HETATM    5  C   UNL     1      -8.808  12.224  67.456  1.00  0.00    -0.182 C  
HETATM    6  C   UNL     1     -10.183  12.892  67.239  1.00  0.00    -0.234 C  
HETATM    7  C   UNL     1     -10.660  12.046  63.511  1.00  0.00    -0.514 A  
HETATM    8  O   UNL     1      -7.789  12.893  67.253  1.00  0.00    -0.167 OA 
HETATM    9  C   UNL     1     -12.038  12.181  63.373  1.00  0.00    -0.608 A  
HETATM   10  C   UNL     1     -10.816  12.591  65.882  1.00  0.00    -0.302 A  
HETATM   11  C   UNL     1     -10.040  14.418  67.452  1.00  0.00    -0.243 C  
HETATM   12  H   UNL     1      -9.117  15.994  66.620  1.00  0.00     0.000 HD 
HETATM   13  O   UNL     1      -9.205  15.057  66.490  1.00  0.00    -0.256 OA 
HETATM   14  C   UNL     1     -12.206  12.734  65.722  1.00  0.00    -0.469 A  
HETATM   15  C   UNL     1     -12.812  12.531  64.478  1.00  0.00    -0.352 A  
BRANCH   3  16
HETATM   16  C   UNL     1      -9.833  10.316  68.653  1.00  0.00    -0.173 C  
BRANCH  16  17
HETATM   17  C   UNL     1     -10.224   8.875  68.418  1.00  0.00    -0.231 A  
HETATM   18  C   UNL     1     -10.355   7.978  69.486  1.00  0.00    -0.221 A  
HETATM   19  C   UNL     1     -10.764   7.057  66.955  1.00  0.00    -0.353 A  
HETATM   20  C   UNL     1     -10.676   6.656  69.216  1.00  0.00    -0.265 A  
HETATM   21  C   UNL     1     -10.439   8.394  67.125  1.00  0.00    -0.380 A  
HETATM   22  N   UNL     1     -10.882   6.176  67.974  1.00  0.00    -0.302 NA 
ENDBRANCH  16  17
ENDBRANCH   3  16
ENDBRANCH   2   3
TORSDOF 3
ENDMDL
MODEL       44
REMARK 921   NORMALIZED FREE ENERGY PREDICTED BY IDOCK:   -4.72 KCAL/MOL
REMARK 922        TOTAL FREE ENERGY PREDICTED BY IDOCK:   -6.57 KCAL/MOL
REMARK 923 INTER-LIGAND FREE ENERGY PREDICTED BY IDOCK:   -5.60 KCAL/MOL
REMARK 924 INTRA-LIGAND FREE ENERGY PREDICTED BY IDOCK:   -0.97 KCAL/MOL
REMARK 927      BINDING AFFINITY PREDICTED BY RF-SCORE:    0.00 PKD
ROOT
HETATM    1  C   UNL     1     -13.860  15.232  71.381  1.00  0.00    -0.603 C  
HETATM    2  C   UNL     1     -12.387  14.831  71.378  1.00  0.00    -0.337 C  
ENDROOT
BRANCH   2   3
HETATM    3  N   UNL     1     -11.740  14.568  70.076  1.00  0.00    -0.286 N  
HETATM    4  C   UNL     1      -8.213  15.051  69.508  1.00  0.00    -0.106 A  
HETATM    5  C   UNL     1     -11.130  15.633  69.392  1.00  0.00    -0.303 C  
HETATM    6  C   UNL     1     -10.341  15.347  68.096  1.00  0.00    -0.239 C  
HETATM    7  C   UNL     1      -6.905  14.585  69.662  1.00  0.00    -0.142 A  
HETATM    8  O   UNL     1     -11.155  16.792  69.824  1.00  0.00    -0.243 OA 
HETATM    9  C   UNL     1      -6.290  13.868  68.640  1.00  0.00    -0.090 A  
HETATM   10  C   UNL     1      -8.935  14.798  68.330  1.00  0.00    -0.181 A  
HETATM   11  C   UNL     1     -10.293  16.636  67.241  1.00  0.00    -0.298 C  
HETATM   12  H   UNL     1      -9.531  18.491  67.323  1.00  0.00     0.000 HD 
HETATM   13  O   UNL     1      -9.562  17.700  67.847  1.00  0.00    -0.269 OA 
HETATM   14  C   UNL     1      -8.294  14.081  67.303  1.00  0.00    -0.209 A  
HETATM   15  C   UNL     1      -6.983  13.621  67.457  1.00  0.00    -0.157 A  
BRANCH   3  16
HETATM   16  C   UNL     1     -12.257  13.432  69.290  1.00  0.00    -0.176 C  
BRANCH  16  17
HETATM   17  C   UNL     1     -11.687  12.066  69.591  1.00  0.00    -0.405 A  
HETATM   18  C   UNL     1     -12.179  11.295  70.652  1.00  0.00    -0.489 A  
HETATM   19  C   UNL     1     -10.121  10.303  69.168  1.00  0.00    -0.218 A  
HETATM   20  C   UNL     1     -11.595  10.065  70.915  1.00  0.00    -0.378 A  
HETATM   21  C   UNL     1     -10.634  11.547  68.835  1.00  0.00    -0.236 A  
HETATM   22  N   UNL     1     -10.576   9.553  70.196  1.00  0.00    -0.234 NA 
ENDBRANCH  16  17
ENDBRANCH   3  16
ENDBRANCH   2   3
TORSDOF 3
ENDMDL
MODEL       45
REMARK 921   NORMALIZED FREE ENERGY PREDICTED BY IDOCK:   -4.70 KCAL/MOL
REMARK 922        TOTAL FREE ENERGY PREDICTED BY IDOCK:   -6.55 KCAL/MOL
REMARK 923 INTER-LIGAND FREE ENERGY PREDICTED BY IDOCK:   -5.62 KCAL/MOL
REMARK 924 INTRA-LIGAND FREE ENERGY PREDICTED BY IDOCK:   -0.93 KCAL/MOL
REMARK 927      BINDING AFFINITY PREDICTED BY RF-SCORE:    0.00 PKD
ROOT
HETATM    1  C   UNL     1      -6.688  13.221  69.266  1.00  0.00    -0.066 C  
HETATM    2  C   UNL     1      -7.351  12.498  68.097  1.00  0.00    -0.110 C  
ENDROOT
BRANCH   2   3
HETATM    3  N   UNL     1      -8.781  12.761  67.836  1.00  0.00    -0.176 N  
HETATM    4  C   UNL     1     -10.180  12.873  64.516  1.00  0.00    -0.334 A  
HETATM    5  C   UNL     1      -9.140  13.907  67.106  1.00  0.00    -0.239 C  
HETATM    6  C   UNL     1     -10.618  14.124  66.719  1.00  0.00    -0.277 C  
HETATM    7  C   UNL     1     -10.638  12.184  63.391  1.00  0.00    -0.454 A  
HETATM    8  O   UNL     1      -8.300  14.725  66.713  1.00  0.00    -0.200 OA 
HETATM    9  C   UNL     1     -11.997  11.927  63.231  1.00  0.00    -0.441 A  
HETATM   10  C   UNL     1     -11.072  13.310  65.508  1.00  0.00    -0.299 A  
HETATM   11  C   UNL     1     -10.861  15.635  66.486  1.00  0.00    -0.260 C  
HETATM   12  H   UNL     1     -10.293  17.095  65.232  1.00  0.00     0.000 HD 
HETATM   13  O   UNL     1     -10.144  16.168  65.375  1.00  0.00    -0.485 OA 
HETATM   14  C   UNL     1     -12.443  13.051  65.325  1.00  0.00    -0.555 A  
HETATM   15  C   UNL     1     -12.901  12.366  64.195  1.00  0.00    -0.364 A  
BRANCH   3  16
HETATM   16  C   UNL     1      -9.749  12.214  68.806  1.00  0.00     0.012 C  
BRANCH  16  17
HETATM   17  C   UNL     1     -10.025  10.730  68.744  1.00  0.00    -0.201 A  
HETATM   18  C   UNL     1     -10.300  10.095  67.526  1.00  0.00    -0.279 A  
HETATM   19  C   UNL     1     -10.331   8.604  69.805  1.00  0.00    -0.212 A  
HETATM   20  C   UNL     1     -10.588   8.739  67.526  1.00  0.00    -0.228 A  
HETATM   21  C   UNL     1     -10.041   9.956  69.906  1.00  0.00    -0.297 A  
HETATM   22  N   UNL     1     -10.610   7.980  68.639  1.00  0.00    -0.158 NA 
ENDBRANCH  16  17
ENDBRANCH   3  16
ENDBRANCH   2   3
TORSDOF 3
ENDMDL
MODEL       46
REMARK 921   NORMALIZED FREE ENERGY PREDICTED BY IDOCK:   -4.67 KCAL/MOL
REMARK 922        TOTAL FREE ENERGY PREDICTED BY IDOCK:   -6.51 KCAL/MOL
REMARK 923 INTER-LIGAND FREE ENERGY PREDICTED BY IDOCK:   -5.90 KCAL/MOL
REMARK 924 INTRA-LIGAND FREE ENERGY PREDICTED BY IDOCK:   -0.61 KCAL/MOL
REMARK 927      BINDING AFFINITY PREDICTED BY RF-SCORE:    0.00 PKD
ROOT
HETATM    1  C   UNL     1     -11.670  14.144  68.741  1.00  0.00    -0.380 C  
HETATM    2  C   UNL     1     -10.427  13.297  68.484  1.00  0.00    -0.250 C  
ENDROOT
BRANCH   2   3
HETATM    3  N   UNL     1     -10.603  11.844  68.285  1.00  0.00    -0.205 N  
HETATM    4  C   UNL     1     -10.212   9.441  70.943  1.00  0.00    -0.373 A  
HETATM    5  C   UNL     1      -9.509  10.990  68.500  1.00  0.00    -0.188 C  
HETATM    6  C   UNL     1      -9.715   9.462  68.420  1.00  0.00    -0.163 C  
HETATM    7  C   UNL     1     -10.739   8.821  72.079  1.00  0.00    -0.417 A  
HETATM    8  O   UNL     1      -8.391  11.419  68.808  1.00  0.00    -0.150 OA 
HETATM    9  C   UNL     1     -11.391   7.596  71.971  1.00  0.00    -0.322 A  
HETATM   10  C   UNL     1     -10.336   8.850  69.675  1.00  0.00    -0.214 A  
HETATM   11  C   UNL     1      -8.361   8.788  68.093  1.00  0.00    -0.122 C  
HETATM   12  H   UNL     1      -6.550   8.524  68.918  1.00  0.00     0.000 HD 
HETATM   13  O   UNL     1      -7.381   8.938  69.118  1.00  0.00    -0.069 OA 
HETATM   14  C   UNL     1     -10.988   7.606  69.586  1.00  0.00    -0.145 A  
HETATM   15  C   UNL     1     -11.510   6.985  70.725  1.00  0.00    -0.360 A  
BRANCH   3  16
HETATM   16  C   UNL     1     -11.648  11.422  67.333  1.00  0.00    -0.184 C  
BRANCH  16  17
HETATM   17  C   UNL     1     -11.419  11.735  65.872  1.00  0.00    -0.273 A  
HETATM   18  C   UNL     1     -12.275  12.598  65.176  1.00  0.00    -0.539 A  
HETATM   19  C   UNL     1     -10.211  11.442  63.825  1.00  0.00    -0.382 A  
HETATM   20  C   UNL     1     -12.048  12.822  63.826  1.00  0.00    -0.517 A  
HETATM   21  C   UNL     1     -10.362  11.151  65.172  1.00  0.00    -0.354 A  
HETATM   22  N   UNL     1     -11.035  12.262  63.136  1.00  0.00    -0.291 NA 
ENDBRANCH  16  17
ENDBRANCH   3  16
ENDBRANCH   2   3
TORSDOF 3
ENDMDL
MODEL       47
REMARK 921   NORMALIZED FREE ENERGY PREDICTED BY IDOCK:   -4.61 KCAL/MOL
REMARK 922        TOTAL FREE ENERGY PREDICTED BY IDOCK:   -6.44 KCAL/MOL
REMARK 923 INTER-LIGAND FREE ENERGY PREDICTED BY IDOCK:   -6.14 KCAL/MOL
REMARK 924 INTRA-LIGAND FREE ENERGY PREDICTED BY IDOCK:   -0.29 KCAL/MOL
REMARK 927      BINDING AFFINITY PREDICTED BY RF-SCORE:    0.00 PKD
ROOT
HETATM    1  C   UNL     1     -11.570  16.189  64.648  1.00  0.00    -0.133 C  
HETATM    2  C   UNL     1     -11.309  14.710  64.377  1.00  0.00    -0.227 C  
ENDROOT
BRANCH   2   3
HETATM    3  N   UNL     1     -11.208  13.798  65.533  1.00  0.00    -0.297 N  
HETATM    4  C   UNL     1     -11.643  14.895  68.939  1.00  0.00    -0.339 A  
HETATM    5  C   UNL     1     -10.200  14.018  66.488  1.00  0.00    -0.279 C  
HETATM    6  C   UNL     1     -10.165  13.150  67.765  1.00  0.00    -0.231 C  
HETATM    7  C   UNL     1     -12.508  15.267  69.972  1.00  0.00    -0.330 A  
HETATM    8  O   UNL     1      -9.368  14.924  66.368  1.00  0.00    -0.269 OA 
HETATM    9  C   UNL     1     -12.901  14.335  70.928  1.00  0.00    -0.416 A  
HETATM   10  C   UNL     1     -11.164  13.579  68.838  1.00  0.00    -0.316 A  
HETATM   11  C   UNL     1      -8.724  13.141  68.328  1.00  0.00    -0.165 C  
HETATM   12  H   UNL     1      -7.391  14.411  69.126  1.00  0.00     0.000 HD 
HETATM   13  O   UNL     1      -8.275  14.416  68.780  1.00  0.00    -0.149 OA 
HETATM   14  C   UNL     1     -11.564  12.653  69.819  1.00  0.00    -0.285 A  
HETATM   15  C   UNL     1     -12.424  13.028  70.855  1.00  0.00    -0.396 A  
BRANCH   3  16
HETATM   16  C   UNL     1     -11.711  12.423  65.347  1.00  0.00    -0.402 C  
BRANCH  16  17
HETATM   17  C   UNL     1     -10.767  11.420  64.726  1.00  0.00    -0.362 A  
HETATM   18  C   UNL     1     -10.192  10.397  65.492  1.00  0.00    -0.316 A  
HETATM   19  C   UNL     1      -9.525  10.582  62.857  1.00  0.00    -0.333 A  
HETATM   20  C   UNL     1      -9.300   9.526  64.885  1.00  0.00    -0.198 A  
HETATM   21  C   UNL     1     -10.421  11.504  63.376  1.00  0.00    -0.466 A  
HETATM   22  N   UNL     1      -8.953   9.597  63.584  1.00  0.00    -0.235 NA 
ENDBRANCH  16  17
ENDBRANCH   3  16
ENDBRANCH   2   3
TORSDOF 3
ENDMDL
MODEL       48
REMARK 921   NORMALIZED FREE ENERGY PREDICTED BY IDOCK:   -4.61 KCAL/MOL
REMARK 922        TOTAL FREE ENERGY PREDICTED BY IDOCK:   -6.44 KCAL/MOL
REMARK 923 INTER-LIGAND FREE ENERGY PREDICTED BY IDOCK:   -5.85 KCAL/MOL
REMARK 924 INTRA-LIGAND FREE ENERGY PREDICTED BY IDOCK:   -0.58 KCAL/MOL
REMARK 927      BINDING AFFINITY PREDICTED BY RF-SCORE:    0.00 PKD
ROOT
HETATM    1  C   UNL     1     -10.012   9.748  66.207  1.00  0.00    -0.331 C  
HETATM    2  C   UNL     1      -9.548   8.406  66.766  1.00  0.00    -0.219 C  
ENDROOT
BRANCH   2   3
HETATM    3  N   UNL     1     -10.178   7.913  68.007  1.00  0.00    -0.200 N  
HETATM    4  C   UNL     1     -11.406  10.110  70.587  1.00  0.00    -0.433 A  
HETATM    5  C   UNL     1      -9.567   8.197  69.240  1.00  0.00    -0.164 C  
HETATM    6  C   UNL     1     -10.282   7.799  70.549  1.00  0.00    -0.201 C  
HETATM    7  C   UNL     1     -12.405  10.975  71.042  1.00  0.00    -0.490 A  
HETATM    8  O   UNL     1      -8.495   8.809  69.316  1.00  0.00    -0.119 OA 
HETATM    9  C   UNL     1     -13.401  10.510  71.895  1.00  0.00    -0.461 A  
HETATM   10  C   UNL     1     -11.393   8.759  70.970  1.00  0.00    -0.332 A  
HETATM   11  C   UNL     1      -9.229   7.650  71.673  1.00  0.00    -0.134 C  
HETATM   12  H   UNL     1      -7.927   8.780  72.701  1.00  0.00     0.000 HD 
HETATM   13  O   UNL     1      -8.573   8.870  72.011  1.00  0.00    -0.367 OA 
HETATM   14  C   UNL     1     -12.401   8.309  71.842  1.00  0.00    -0.379 A  
HETATM   15  C   UNL     1     -13.396   9.178  72.301  1.00  0.00    -0.540 A  
BRANCH   3  16
HETATM   16  C   UNL     1     -11.010   6.699  67.900  1.00  0.00    -0.257 C  
BRANCH  16  17
HETATM   17  C   UNL     1     -10.330   5.435  67.428  1.00  0.00    -0.258 A  
HETATM   18  C   UNL     1      -9.620   4.620  68.320  1.00  0.00    -0.207 A  
HETATM   19  C   UNL     1      -9.702   3.910  65.691  1.00  0.00    -0.170 A  
HETATM   20  C   UNL     1      -8.978   3.492  67.831  1.00  0.00    -0.139 A  
HETATM   21  C   UNL     1     -10.368   5.060  66.084  1.00  0.00    -0.309 A  
HETATM   22  N   UNL     1      -9.003   3.119  66.536  1.00  0.00    -0.146 NA 
ENDBRANCH  16  17
ENDBRANCH   3  16
ENDBRANCH   2   3
TORSDOF 3
ENDMDL
MODEL       49
REMARK 921   NORMALIZED FREE ENERGY PREDICTED BY IDOCK:   -4.60 KCAL/MOL
REMARK 922        TOTAL FREE ENERGY PREDICTED BY IDOCK:   -6.42 KCAL/MOL
REMARK 923 INTER-LIGAND FREE ENERGY PREDICTED BY IDOCK:   -5.78 KCAL/MOL
REMARK 924 INTRA-LIGAND FREE ENERGY PREDICTED BY IDOCK:   -0.64 KCAL/MOL
REMARK 927      BINDING AFFINITY PREDICTED BY RF-SCORE:    0.00 PKD
ROOT
HETATM    1  C   UNL     1     -11.412  10.908  70.160  1.00  0.00    -0.405 C  
HETATM    2  C   UNL     1     -11.665  11.098  68.667  1.00  0.00    -0.320 C  
ENDROOT
BRANCH   2   3
HETATM    3  N   UNL     1     -10.681  11.877  67.889  1.00  0.00    -0.197 N  
HETATM    4  C   UNL     1     -10.965  15.433  67.371  1.00  0.00    -0.312 A  
HETATM    5  C   UNL     1     -11.103  12.532  66.719  1.00  0.00    -0.279 C  
HETATM    6  C   UNL     1     -10.115  13.452  65.969  1.00  0.00    -0.308 C  
HETATM    7  C   UNL     1     -10.813  16.728  67.873  1.00  0.00    -0.311 A  
HETATM    8  O   UNL     1     -12.261  12.441  66.297  1.00  0.00    -0.620 OA 
HETATM    9  C   UNL     1      -9.659  17.456  67.599  1.00  0.00    -0.261 A  
HETATM   10  C   UNL     1      -9.959  14.838  66.592  1.00  0.00    -0.272 A  
HETATM   11  C   UNL     1     -10.554  13.562  64.489  1.00  0.00    -0.424 C  
HETATM   12  H   UNL     1     -12.083  14.275  63.401  1.00  0.00     0.000 HD 
HETATM   13  O   UNL     1     -11.813  14.207  64.309  1.00  0.00    -0.422 OA 
HETATM   14  C   UNL     1      -8.804  15.593  66.316  1.00  0.00    -0.364 A  
HETATM   15  C   UNL     1      -8.656  16.891  66.814  1.00  0.00    -0.256 A  
BRANCH   3  16
HETATM   16  C   UNL     1      -9.268  11.464  67.991  1.00  0.00    -0.171 C  
BRANCH  16  17
HETATM   17  C   UNL     1      -8.908  10.096  67.460  1.00  0.00    -0.126 A  
HETATM   18  C   UNL     1      -8.949   9.819  66.087  1.00  0.00    -0.181 A  
HETATM   19  C   UNL     1      -8.259   7.815  67.798  1.00  0.00    -0.126 A  
HETATM   20  C   UNL     1      -8.650   8.537  65.652  1.00  0.00    -0.177 A  
HETATM   21  C   UNL     1      -8.550   9.063  68.328  1.00  0.00    -0.130 A  
HETATM   22  N   UNL     1      -8.306   7.529  66.478  1.00  0.00    -0.121 NA 
ENDBRANCH  16  17
ENDBRANCH   3  16
ENDBRANCH   2   3
TORSDOF 3
ENDMDL
MODEL       50
REMARK 921   NORMALIZED FREE ENERGY PREDICTED BY IDOCK:   -4.58 KCAL/MOL
REMARK 922        TOTAL FREE ENERGY PREDICTED BY IDOCK:   -6.41 KCAL/MOL
REMARK 923 INTER-LIGAND FREE ENERGY PREDICTED BY IDOCK:   -5.39 KCAL/MOL
REMARK 924 INTRA-LIGAND FREE ENERGY PREDICTED BY IDOCK:   -1.02 KCAL/MOL
REMARK 927      BINDING AFFINITY PREDICTED BY RF-SCORE:    0.00 PKD
ROOT
HETATM    1  C   UNL     1      -8.629  10.931  65.591  1.00  0.00    -0.163 C  
HETATM    2  C   UNL     1      -8.651  10.791  67.111  1.00  0.00    -0.128 C  
ENDROOT
BRANCH   2   3
HETATM    3  N   UNL     1      -9.743  10.007  67.722  1.00  0.00    -0.148 N  
HETATM    4  C   UNL     1      -9.401   8.301  70.879  1.00  0.00    -0.187 A  
HETATM    5  C   UNL     1      -9.560   8.628  67.925  1.00  0.00    -0.149 C  
HETATM    6  C   UNL     1     -10.642   7.825  68.678  1.00  0.00    -0.152 C  
HETATM    7  C   UNL     1      -9.371   8.368  72.274  1.00  0.00    -0.356 A  
HETATM    8  O   UNL     1      -8.531   8.043  67.568  1.00  0.00    -0.125 OA 
HETATM    9  C   UNL     1     -10.519   8.099  73.014  1.00  0.00    -0.237 A  
HETATM   10  C   UNL     1     -10.585   7.973  70.197  1.00  0.00    -0.237 A  
HETATM   11  C   UNL     1     -10.539   6.336  68.268  1.00  0.00    -0.258 C  
HETATM   12  H   UNL     1      -9.258   4.798  68.418  1.00  0.00     0.000 HD 
HETATM   13  O   UNL     1      -9.321   5.712  68.669  1.00  0.00    -0.119 OA 
HETATM   14  C   UNL     1     -11.732   7.694  70.962  1.00  0.00    -0.306 A  
HETATM   15  C   UNL     1     -11.699   7.756  72.358  1.00  0.00    -0.394 A  
BRANCH   3  16
HETATM   16  C   UNL     1     -11.116  10.513  67.534  1.00  0.00    -0.290 C  
BRANCH  16  17
HETATM   17  C   UNL     1     -11.574  11.625  68.449  1.00  0.00    -0.376 A  
HETATM   18  C   UNL     1     -11.737  12.932  67.973  1.00  0.00    -0.401 A  
HETATM   19  C   UNL     1     -12.207  12.440  70.611  1.00  0.00    -0.278 A  
HETATM   20  C   UNL     1     -12.120  13.926  68.861  1.00  0.00    -0.319 A  
HETATM   21  C   UNL     1     -11.820  11.382  69.802  1.00  0.00    -0.435 A  
HETATM   22  N   UNL     1     -12.358  13.708  70.170  1.00  0.00    -0.326 NA 
ENDBRANCH  16  17
ENDBRANCH   3  16
ENDBRANCH   2   3
TORSDOF 3
ENDMDL
MODEL       51
REMARK 921   NORMALIZED FREE ENERGY PREDICTED BY IDOCK:   -4.58 KCAL/MOL
REMARK 922        TOTAL FREE ENERGY PREDICTED BY IDOCK:   -6.41 KCAL/MOL
REMARK 923 INTER-LIGAND FREE ENERGY PREDICTED BY IDOCK:   -5.90 KCAL/MOL
REMARK 924 INTRA-LIGAND FREE ENERGY PREDICTED BY IDOCK:   -0.51 KCAL/MOL
REMARK 927      BINDING AFFINITY PREDICTED BY RF-SCORE:    0.00 PKD
ROOT
HETATM    1  C   UNL     1     -12.220  13.697  65.741  1.00  0.00    -0.503 C  
HETATM    2  C   UNL     1     -12.528  13.667  67.236  1.00  0.00     0.032 C  
ENDROOT
BRANCH   2   3
HETATM    3  N   UNL     1     -11.499  13.129  68.148  1.00  0.00    -0.292 N  
HETATM    4  C   UNL     1      -8.649  11.248  66.994  1.00  0.00    -0.148 A  
HETATM    5  C   UNL     1     -11.316  11.738  68.222  1.00  0.00    -0.282 C  
HETATM    6  C   UNL     1     -10.159  11.171  69.073  1.00  0.00    -0.173 C  
HETATM    7  C   UNL     1      -7.383  11.242  66.403  1.00  0.00    -0.058 A  
HETATM    8  O   UNL     1     -12.018  10.948  67.581  1.00  0.00    -0.512 OA 
HETATM    9  C   UNL     1      -6.239  11.211  67.195  1.00  0.00    -0.083 A  
HETATM   10  C   UNL     1      -8.793  11.233  68.390  1.00  0.00    -0.159 A  
HETATM   11  C   UNL     1     -10.501   9.720  69.485  1.00  0.00    -0.232 C  
HETATM   12  H   UNL     1     -10.790   7.923  68.640  1.00  0.00     0.000 HD 
HETATM   13  O   UNL     1     -10.580   8.814  68.387  1.00  0.00    -0.207 OA 
HETATM   14  C   UNL     1      -7.627  11.192  69.175  1.00  0.00    -0.098 A  
HETATM   15  C   UNL     1      -6.361  11.180  68.582  1.00  0.00    -0.044 A  
BRANCH   3  16
HETATM   16  C   UNL     1     -11.157  13.946  69.328  1.00  0.00    -0.218 C  
BRANCH  16  17
HETATM   17  C   UNL     1     -12.204  14.071  70.409  1.00  0.00    -0.433 A  
HETATM   18  C   UNL     1     -12.541  12.980  71.220  1.00  0.00    -0.373 A  
HETATM   19  C   UNL     1     -13.863  15.333  71.591  1.00  0.00    -0.519 A  
HETATM   20  C   UNL     1     -13.538  13.133  72.171  1.00  0.00    -0.544 A  
HETATM   21  C   UNL     1     -12.886  15.274  70.609  1.00  0.00    -0.462 A  
HETATM   22  N   UNL     1     -14.207  14.286  72.374  1.00  0.00    -0.590 NA 
ENDBRANCH  16  17
ENDBRANCH   3  16
ENDBRANCH   2   3
TORSDOF 3
ENDMDL
MODEL       52
REMARK 921   NORMALIZED FREE ENERGY PREDICTED BY IDOCK:   -4.58 KCAL/MOL
REMARK 922        TOTAL FREE ENERGY PREDICTED BY IDOCK:   -6.40 KCAL/MOL
REMARK 923 INTER-LIGAND FREE ENERGY PREDICTED BY IDOCK:   -5.86 KCAL/MOL
REMARK 924 INTRA-LIGAND FREE ENERGY PREDICTED BY IDOCK:   -0.54 KCAL/MOL
REMARK 927      BINDING AFFINITY PREDICTED BY RF-SCORE:    0.00 PKD
ROOT
HETATM    1  C   UNL     1     -10.688   6.811  67.545  1.00  0.00    -0.381 C  
HETATM    2  C   UNL     1      -9.756   7.751  68.305  1.00  0.00    -0.159 C  
ENDROOT
BRANCH   2   3
HETATM    3  N   UNL     1     -10.192   9.147  68.510  1.00  0.00    -0.193 N  
HETATM    4  C   UNL     1     -10.679  11.467  65.796  1.00  0.00    -0.325 A  
HETATM    5  C   UNL     1      -9.334  10.191  68.124  1.00  0.00    -0.135 C  
HETATM    6  C   UNL     1      -9.831  11.650  68.216  1.00  0.00    -0.199 C  
HETATM    7  C   UNL     1     -11.479  11.923  64.744  1.00  0.00    -0.323 A  
HETATM    8  O   UNL     1      -8.209   9.979  67.658  1.00  0.00    -0.113 OA 
HETATM    9  C   UNL     1     -12.342  12.999  64.934  1.00  0.00    -0.512 A  
HETATM   10  C   UNL     1     -10.736  12.075  67.061  1.00  0.00    -0.280 A  
HETATM   11  C   UNL     1      -8.608  12.592  68.330  1.00  0.00    -0.173 C  
HETATM   12  H   UNL     1      -7.025  13.173  67.241  1.00  0.00     0.000 HD 
HETATM   13  O   UNL     1      -7.776  12.596  67.172  1.00  0.00    -0.158 OA 
HETATM   14  C   UNL     1     -11.606  13.167  67.231  1.00  0.00    -0.404 A  
HETATM   15  C   UNL     1     -12.401  13.625  66.176  1.00  0.00    -0.476 A  
BRANCH   3  16
HETATM   16  C   UNL     1     -11.152   9.394  69.603  1.00  0.00    -0.142 C  
BRANCH  16  17
HETATM   17  C   UNL     1     -11.017   8.546  70.846  1.00  0.00    -0.292 A  
HETATM   18  C   UNL     1     -11.853   7.443  71.063  1.00  0.00    -0.336 A  
HETATM   19  C   UNL     1     -10.007   8.071  72.966  1.00  0.00    -0.279 A  
HETATM   20  C   UNL     1     -11.718   6.720  72.239  1.00  0.00    -0.263 A  
HETATM   21  C   UNL     1     -10.072   8.858  71.826  1.00  0.00    -0.407 A  
HETATM   22  N   UNL     1     -10.813   7.011  73.195  1.00  0.00    -0.311 NA 
ENDBRANCH  16  17
ENDBRANCH   3  16
ENDBRANCH   2   3
TORSDOF 3
ENDMDL
MODEL       53
REMARK 921   NORMALIZED FREE ENERGY PREDICTED BY IDOCK:   -4.58 KCAL/MOL
REMARK 922        TOTAL FREE ENERGY PREDICTED BY IDOCK:   -6.40 KCAL/MOL
REMARK 923 INTER-LIGAND FREE ENERGY PREDICTED BY IDOCK:   -6.04 KCAL/MOL
REMARK 924 INTRA-LIGAND FREE ENERGY PREDICTED BY IDOCK:   -0.36 KCAL/MOL
REMARK 927      BINDING AFFINITY PREDICTED BY RF-SCORE:    0.00 PKD
ROOT
HETATM    1  C   UNL     1     -11.469  16.175  64.360  1.00  0.00    -0.197 C  
HETATM    2  C   UNL     1     -10.764  16.319  65.706  1.00  0.00    -0.255 C  
ENDROOT
BRANCH   2   3
HETATM    3  N   UNL     1     -10.032  15.152  66.237  1.00  0.00    -0.270 N  
HETATM    4  C   UNL     1     -10.476  11.812  64.955  1.00  0.00    -0.334 A  
HETATM    5  C   UNL     1     -10.757  14.106  66.831  1.00  0.00    -0.286 C  
HETATM    6  C   UNL     1     -10.015  12.826  67.272  1.00  0.00    -0.219 C  
HETATM    7  C   UNL     1     -10.206  10.871  63.958  1.00  0.00    -0.422 A  
HETATM    8  O   UNL     1     -11.986  14.151  66.964  1.00  0.00    -0.408 OA 
HETATM    9  C   UNL     1      -9.174   9.952  64.122  1.00  0.00    -0.312 A  
HETATM   10  C   UNL     1      -9.710  11.857  66.131  1.00  0.00    -0.251 A  
HETATM   11  C   UNL     1     -10.836  12.125  68.382  1.00  0.00    -0.224 C  
HETATM   12  H   UNL     1     -12.606  11.210  68.622  1.00  0.00     0.000 HD 
HETATM   13  O   UNL     1     -12.102  11.640  67.942  1.00  0.00    -0.613 OA 
HETATM   14  C   UNL     1      -8.678  10.913  66.285  1.00  0.00    -0.175 A  
HETATM   15  C   UNL     1      -8.413   9.968  65.288  1.00  0.00    -0.161 A  
BRANCH   3  16
HETATM   16  C   UNL     1      -8.640  15.376  66.671  1.00  0.00    -0.283 C  
BRANCH  16  17
HETATM   17  C   UNL     1      -8.236  16.796  66.993  1.00  0.00    -0.224 A  
HETATM   18  C   UNL     1      -8.619  17.402  68.197  1.00  0.00    -0.248 A  
HETATM   19  C   UNL     1      -7.174  18.862  66.407  1.00  0.00    -0.237 A  
HETATM   20  C   UNL     1      -8.259  18.721  68.428  1.00  0.00    -0.341 A  
HETATM   21  C   UNL     1      -7.493  17.552  66.084  1.00  0.00    -0.334 A  
HETATM   22  N   UNL     1      -7.546  19.464  67.559  1.00  0.00    -0.246 NA 
ENDBRANCH  16  17
ENDBRANCH   3  16
ENDBRANCH   2   3
TORSDOF 3
ENDMDL
MODEL       54
REMARK 921   NORMALIZED FREE ENERGY PREDICTED BY IDOCK:   -4.58 KCAL/MOL
REMARK 922        TOTAL FREE ENERGY PREDICTED BY IDOCK:   -6.40 KCAL/MOL
REMARK 923 INTER-LIGAND FREE ENERGY PREDICTED BY IDOCK:   -6.02 KCAL/MOL
REMARK 924 INTRA-LIGAND FREE ENERGY PREDICTED BY IDOCK:   -0.38 KCAL/MOL
REMARK 927      BINDING AFFINITY PREDICTED BY RF-SCORE:    0.00 PKD
ROOT
HETATM    1  C   UNL     1     -12.730  15.458  70.693  1.00  0.00    -0.490 C  
HETATM    2  C   UNL     1     -11.334  15.942  70.308  1.00  0.00    -0.372 C  
ENDROOT
BRANCH   2   3
HETATM    3  N   UNL     1     -10.971  15.950  68.877  1.00  0.00    -0.270 N  
HETATM    4  C   UNL     1     -10.682  12.942  66.912  1.00  0.00    -0.272 A  
HETATM    5  C   UNL     1      -9.785  15.313  68.473  1.00  0.00    -0.211 C  
HETATM    6  C   UNL     1      -9.461  15.204  66.967  1.00  0.00    -0.237 C  
HETATM    7  C   UNL     1     -11.310  11.910  66.211  1.00  0.00    -0.394 A  
HETATM    8  O   UNL     1      -9.015  14.784  69.282  1.00  0.00    -0.134 OA 
HETATM    9  C   UNL     1     -11.472  11.996  64.831  1.00  0.00    -0.352 A  
HETATM   10  C   UNL     1     -10.212  14.086  66.246  1.00  0.00    -0.300 A  
HETATM   11  C   UNL     1      -7.932  15.039  66.792  1.00  0.00     0.044 C  
HETATM   12  H   UNL     1      -6.481  13.722  67.225  1.00  0.00     0.000 HD 
HETATM   13  O   UNL     1      -7.419  13.823  67.332  1.00  0.00    -0.174 OA 
HETATM   14  C   UNL     1     -10.375  14.151  64.851  1.00  0.00    -0.435 A  
HETATM   15  C   UNL     1     -10.999  13.115  64.149  1.00  0.00    -0.418 A  
BRANCH   3  16
HETATM   16  C   UNL     1     -11.477  17.072  68.064  1.00  0.00     0.327 C  
BRANCH  16  17
HETATM   17  C   UNL     1     -10.517  18.200  67.768  1.00  0.00    -0.421 A  
HETATM   18  C   UNL     1     -10.387  18.718  66.473  1.00  0.00    -0.475 A  
HETATM   19  C   UNL     1      -8.822  19.749  68.450  1.00  0.00    -0.253 A  
HETATM   20  C   UNL     1      -9.461  19.725  66.243  1.00  0.00    -0.406 A  
HETATM   21  C   UNL     1      -9.713  18.738  68.775  1.00  0.00    -0.432 A  
HETATM   22  N   UNL     1      -8.676  20.252  67.204  1.00  0.00    -0.342 NA 
ENDBRANCH  16  17
ENDBRANCH   3  16
ENDBRANCH   2   3
TORSDOF 3
ENDMDL
MODEL       55
REMARK 921   NORMALIZED FREE ENERGY PREDICTED BY IDOCK:   -4.57 KCAL/MOL
REMARK 922        TOTAL FREE ENERGY PREDICTED BY IDOCK:   -6.39 KCAL/MOL
REMARK 923 INTER-LIGAND FREE ENERGY PREDICTED BY IDOCK:   -5.87 KCAL/MOL
REMARK 924 INTRA-LIGAND FREE ENERGY PREDICTED BY IDOCK:   -0.52 KCAL/MOL
REMARK 927      BINDING AFFINITY PREDICTED BY RF-SCORE:    0.00 PKD
ROOT
HETATM    1  C   UNL     1      -6.686  12.226  69.105  1.00  0.00    -0.095 C  
HETATM    2  C   UNL     1      -7.324  13.074  68.009  1.00  0.00    -0.123 C  
ENDROOT
BRANCH   2   3
HETATM    3  N   UNL     1      -8.533  13.853  68.345  1.00  0.00    -0.162 N  
HETATM    4  C   UNL     1     -11.514  12.351  69.707  1.00  0.00    -0.220 A  
HETATM    5  C   UNL     1      -9.731  13.578  67.664  1.00  0.00    -0.229 C  
HETATM    6  C   UNL     1     -11.028  14.295  68.096  1.00  0.00    -0.259 C  
HETATM    7  C   UNL     1     -12.184  11.818  70.811  1.00  0.00    -0.424 A  
HETATM    8  O   UNL     1      -9.794  12.736  66.761  1.00  0.00    -0.230 OA 
HETATM    9  C   UNL     1     -13.050  12.613  71.557  1.00  0.00    -0.373 A  
HETATM   10  C   UNL     1     -11.690  13.693  69.334  1.00  0.00    -0.379 A  
HETATM   11  C   UNL     1     -12.013  14.315  66.902  1.00  0.00    -0.438 C  
HETATM   12  H   UNL     1     -13.069  13.033  65.774  1.00  0.00     0.000 HD 
HETATM   13  O   UNL     1     -12.464  13.021  66.507  1.00  0.00    -0.374 OA 
HETATM   14  C   UNL     1     -12.577  14.479  70.093  1.00  0.00    -0.339 A  
HETATM   15  C   UNL     1     -13.252  13.943  71.194  1.00  0.00    -0.308 A  
BRANCH   3  16
HETATM   16  C   UNL     1      -8.327  15.211  68.882  1.00  0.00    -0.190 C  
BRANCH  16  17
HETATM   17  C   UNL     1      -8.277  16.347  67.888  1.00  0.00    -0.170 A  
HETATM   18  C   UNL     1      -7.238  16.446  66.953  1.00  0.00    -0.266 A  
HETATM   19  C   UNL     1      -9.149  18.387  66.984  1.00  0.00    -0.274 A  
HETATM   20  C   UNL     1      -7.214  17.530  66.089  1.00  0.00    -0.308 A  
HETATM   21  C   UNL     1      -9.253  17.346  67.893  1.00  0.00    -0.256 A  
HETATM   22  N   UNL     1      -8.146  18.503  66.084  1.00  0.00    -0.451 NA 
ENDBRANCH  16  17
ENDBRANCH   3  16
ENDBRANCH   2   3
TORSDOF 3
ENDMDL
MODEL       56
REMARK 921   NORMALIZED FREE ENERGY PREDICTED BY IDOCK:   -4.57 KCAL/MOL
REMARK 922        TOTAL FREE ENERGY PREDICTED BY IDOCK:   -6.39 KCAL/MOL
REMARK 923 INTER-LIGAND FREE ENERGY PREDICTED BY IDOCK:   -5.81 KCAL/MOL
REMARK 924 INTRA-LIGAND FREE ENERGY PREDICTED BY IDOCK:   -0.58 KCAL/MOL
REMARK 927      BINDING AFFINITY PREDICTED BY RF-SCORE:    0.00 PKD
ROOT
HETATM    1  C   UNL     1     -12.180  12.828  63.800  1.00  0.00    -0.572 C  
HETATM    2  C   UNL     1     -12.230  12.895  65.324  1.00  0.00    -0.476 C  
ENDROOT
BRANCH   2   3
HETATM    3  N   UNL     1     -10.994  12.597  66.074  1.00  0.00    -0.275 N  
HETATM    4  C   UNL     1      -9.622   9.275  66.349  1.00  0.00    -0.301 A  
HETATM    5  C   UNL     1     -11.062  11.741  67.187  1.00  0.00    -0.296 C  
HETATM    6  C   UNL     1      -9.759  11.322  67.900  1.00  0.00    -0.185 C  
HETATM    7  C   UNL     1      -8.899   8.230  65.767  1.00  0.00    -0.194 A  
HETATM    8  O   UNL     1     -12.132  11.265  67.584  1.00  0.00    -0.600 OA 
HETATM    9  C   UNL     1      -7.538   8.090  66.023  1.00  0.00    -0.085 A  
HETATM   10  C   UNL     1      -8.992  10.206  67.192  1.00  0.00    -0.146 A  
HETATM   11  C   UNL     1     -10.090  10.920  69.358  1.00  0.00    -0.088 C  
HETATM   12  H   UNL     1     -11.117   9.515  70.356  1.00  0.00     0.000 HD 
HETATM   13  O   UNL     1     -10.914   9.762  69.462  1.00  0.00    -0.232 OA 
HETATM   14  C   UNL     1      -7.618  10.043  67.448  1.00  0.00    -0.091 A  
HETATM   15  C   UNL     1      -6.898   8.993  66.869  1.00  0.00    -0.077 A  
BRANCH   3  16
HETATM   16  C   UNL     1      -9.925  13.614  66.036  1.00  0.00    -0.302 C  
BRANCH  16  17
HETATM   17  C   UNL     1     -10.245  14.974  66.611  1.00  0.00    -0.271 A  
HETATM   18  C   UNL     1     -10.751  15.109  67.911  1.00  0.00    -0.268 A  
HETATM   19  C   UNL     1     -10.408  17.356  66.408  1.00  0.00    -0.317 A  
HETATM   20  C   UNL     1     -11.068  16.375  68.379  1.00  0.00    -0.351 A  
HETATM   21  C   UNL     1     -10.070  16.132  65.851  1.00  0.00    -0.379 A  
HETATM   22  N   UNL     1     -10.908  17.501  67.656  1.00  0.00    -0.302 NA 
ENDBRANCH  16  17
ENDBRANCH   3  16
ENDBRANCH   2   3
TORSDOF 3
ENDMDL
MODEL       57
REMARK 921   NORMALIZED FREE ENERGY PREDICTED BY IDOCK:   -4.56 KCAL/MOL
REMARK 922        TOTAL FREE ENERGY PREDICTED BY IDOCK:   -6.38 KCAL/MOL
REMARK 923 INTER-LIGAND FREE ENERGY PREDICTED BY IDOCK:   -5.33 KCAL/MOL
REMARK 924 INTRA-LIGAND FREE ENERGY PREDICTED BY IDOCK:   -1.05 KCAL/MOL
REMARK 927      BINDING AFFINITY PREDICTED BY RF-SCORE:    0.00 PKD
ROOT
HETATM    1  C   UNL     1     -12.386  12.396  63.379  1.00  0.00    -0.603 C  
HETATM    2  C   UNL     1     -11.043  12.657  64.056  1.00  0.00    -0.405 C  
ENDROOT
BRANCH   2   3
HETATM    3  N   UNL     1     -10.795  12.035  65.373  1.00  0.00    -0.282 N  
HETATM    4  C   UNL     1      -7.487  11.283  66.591  1.00  0.00    -0.133 A  
HETATM    5  C   UNL     1     -10.177  10.774  65.423  1.00  0.00    -0.276 C  
HETATM    6  C   UNL     1      -9.797  10.172  66.793  1.00  0.00    -0.247 C  
HETATM    7  C   UNL     1      -6.294  11.734  67.163  1.00  0.00    -0.145 A  
HETATM    8  O   UNL     1      -9.874  10.149  64.400  1.00  0.00    -0.322 OA 
HETATM    9  C   UNL     1      -6.096  11.640  68.537  1.00  0.00    -0.050 A  
HETATM   10  C   UNL     1      -8.508  10.738  67.387  1.00  0.00    -0.119 A  
HETATM   11  C   UNL     1      -9.711   8.633  66.661  1.00  0.00    -0.247 C  
HETATM   12  H   UNL     1      -8.612   7.243  65.718  1.00  0.00     0.000 HD 
HETATM   13  O   UNL     1      -8.665   8.187  65.800  1.00  0.00    -0.151 OA 
HETATM   14  C   UNL     1      -8.285  10.641  68.773  1.00  0.00    -0.142 A  
HETATM   15  C   UNL     1      -7.089  11.088  69.342  1.00  0.00    -0.128 A  
BRANCH   3  16
HETATM   16  C   UNL     1     -11.695  12.420  66.476  1.00  0.00    -0.379 C  
BRANCH  16  17
HETATM   17  C   UNL     1     -11.189  13.457  67.451  1.00  0.00    -0.311 A  
HETATM   18  C   UNL     1     -11.940  13.819  68.577  1.00  0.00    -0.402 A  
HETATM   19  C   UNL     1      -9.560  15.071  68.143  1.00  0.00    -0.207 A  
HETATM   20  C   UNL     1     -11.452  14.806  69.420  1.00  0.00    -0.301 A  
HETATM   21  C   UNL     1      -9.969  14.103  67.240  1.00  0.00    -0.249 A  
HETATM   22  N   UNL     1     -10.278  15.440  69.227  1.00  0.00    -0.235 NA 
ENDBRANCH  16  17
ENDBRANCH   3  16
ENDBRANCH   2   3
TORSDOF 3
ENDMDL
MODEL       58
REMARK 921   NORMALIZED FREE ENERGY PREDICTED BY IDOCK:   -4.56 KCAL/MOL
REMARK 922        TOTAL FREE ENERGY PREDICTED BY IDOCK:   -6.38 KCAL/MOL
REMARK 923 INTER-LIGAND FREE ENERGY PREDICTED BY IDOCK:   -6.65 KCAL/MOL
REMARK 924 INTRA-LIGAND FREE ENERGY PREDICTED BY IDOCK:    0.27 KCAL/MOL
REMARK 927      BINDING AFFINITY PREDICTED BY RF-SCORE:    0.00 PKD
ROOT
HETATM    1  C   UNL     1      -8.887  15.232  69.114  1.00  0.00    -0.238 C  
HETATM    2  C   UNL     1     -10.399  15.027  69.059  1.00  0.00    -0.243 C  
ENDROOT
BRANCH   2   3
HETATM    3  N   UNL     1     -10.910  13.770  68.475  1.00  0.00    -0.256 N  
HETATM    4  C   UNL     1      -8.991  11.749  66.189  1.00  0.00    -0.145 A  
HETATM    5  C   UNL     1     -11.071  13.682  67.082  1.00  0.00    -0.297 C  
HETATM    6  C   UNL     1     -11.481  12.334  66.451  1.00  0.00    -0.434 C  
HETATM    7  C   UNL     1      -7.970  10.817  65.988  1.00  0.00    -0.154 A  
HETATM    8  O   UNL     1     -10.840  14.638  66.333  1.00  0.00    -0.303 OA 
HETATM    9  C   UNL     1      -8.268   9.461  65.885  1.00  0.00    -0.115 A  
HETATM   10  C   UNL     1     -10.330  11.341  66.299  1.00  0.00    -0.294 A  
HETATM   11  C   UNL     1     -12.158  12.602  65.086  1.00  0.00    -0.455 C  
HETATM   12  H   UNL     1     -11.700  13.337  63.275  1.00  0.00     0.000 HD 
HETATM   13  O   UNL     1     -11.285  13.173  64.113  1.00  0.00    -0.372 OA 
HETATM   14  C   UNL     1     -10.614   9.968  66.182  1.00  0.00    -0.071 A  
HETATM   15  C   UNL     1      -9.592   9.036  65.976  1.00  0.00    -0.342 A  
BRANCH   3  16
HETATM   16  C   UNL     1     -11.768  12.933  69.335  1.00  0.00    -0.321 C  
BRANCH  16  17
HETATM   17  C   UNL     1     -12.524  13.629  70.443  1.00  0.00    -0.364 A  
HETATM   18  C   UNL     1     -12.918  12.937  71.595  1.00  0.00    -0.410 A  
HETATM   19  C   UNL     1     -13.597  15.565  71.360  1.00  0.00    -0.474 A  
HETATM   20  C   UNL     1     -13.646  13.610  72.566  1.00  0.00    -0.570 A  
HETATM   21  C   UNL     1     -12.874  14.976  70.333  1.00  0.00    -0.332 A  
HETATM   22  N   UNL     1     -13.994  14.908  72.472  1.00  0.00    -0.461 NA 
ENDBRANCH  16  17
ENDBRANCH   3  16
ENDBRANCH   2   3
TORSDOF 3
ENDMDL
MODEL       59
REMARK 921   NORMALIZED FREE ENERGY PREDICTED BY IDOCK:   -4.55 KCAL/MOL
REMARK 922        TOTAL FREE ENERGY PREDICTED BY IDOCK:   -6.37 KCAL/MOL
REMARK 923 INTER-LIGAND FREE ENERGY PREDICTED BY IDOCK:   -5.30 KCAL/MOL
REMARK 924 INTRA-LIGAND FREE ENERGY PREDICTED BY IDOCK:   -1.06 KCAL/MOL
REMARK 927      BINDING AFFINITY PREDICTED BY RF-SCORE:    0.00 PKD
ROOT
HETATM    1  C   UNL     1      -6.213  14.305  67.593  1.00  0.00    -0.099 C  
HETATM    2  C   UNL     1      -6.965  13.525  68.668  1.00  0.00    -0.100 C  
ENDROOT
BRANCH   2   3
HETATM    3  N   UNL     1      -8.395  13.232  68.444  1.00  0.00    -0.154 N  
HETATM    4  C   UNL     1     -10.471  15.182  66.235  1.00  0.00    -0.312 A  
HETATM    5  C   UNL     1      -9.352  14.195  68.810  1.00  0.00    -0.092 C  
HETATM    6  C   UNL     1     -10.837  13.954  68.464  1.00  0.00    -0.274 C  
HETATM    7  C   UNL     1     -10.866  15.490  64.930  1.00  0.00    -0.447 A  
HETATM    8  O   UNL     1      -9.038  15.260  69.353  1.00  0.00    -0.244 OA 
HETATM    9  C   UNL     1     -11.998  14.895  64.382  1.00  0.00    -0.408 A  
HETATM   10  C   UNL     1     -11.197  14.265  67.012  1.00  0.00    -0.332 A  
HETATM   11  C   UNL     1     -11.720  14.773  69.436  1.00  0.00    -0.323 C  
HETATM   12  H   UNL     1     -12.112  16.687  69.895  1.00  0.00     0.000 HD 
HETATM   13  O   UNL     1     -11.570  16.184  69.298  1.00  0.00    -0.329 OA 
HETATM   14  C   UNL     1     -12.345  13.682  66.445  1.00  0.00    -0.441 A  
HETATM   15  C   UNL     1     -12.742  13.995  65.142  1.00  0.00    -0.419 A  
BRANCH   3  16
HETATM   16  C   UNL     1      -8.794  11.812  68.437  1.00  0.00    -0.161 C  
BRANCH  16  17
HETATM   17  C   UNL     1      -8.935  11.141  67.091  1.00  0.00    -0.145 A  
HETATM   18  C   UNL     1      -7.822  10.931  66.267  1.00  0.00    -0.158 A  
HETATM   19  C   UNL     1     -10.273  10.153  65.366  1.00  0.00    -0.211 A  
HETATM   20  C   UNL     1      -8.009  10.348  65.023  1.00  0.00    -0.126 A  
HETATM   21  C   UNL     1     -10.186  10.736  66.621  1.00  0.00    -0.283 A  
HETATM   22  N   UNL     1      -9.210   9.955  64.555  1.00  0.00    -0.247 NA 
ENDBRANCH  16  17
ENDBRANCH   3  16
ENDBRANCH   2   3
TORSDOF 3
ENDMDL
MODEL       60
REMARK 921   NORMALIZED FREE ENERGY PREDICTED BY IDOCK:   -4.54 KCAL/MOL
REMARK 922        TOTAL FREE ENERGY PREDICTED BY IDOCK:   -6.35 KCAL/MOL
REMARK 923 INTER-LIGAND FREE ENERGY PREDICTED BY IDOCK:   -5.30 KCAL/MOL
REMARK 924 INTRA-LIGAND FREE ENERGY PREDICTED BY IDOCK:   -1.05 KCAL/MOL
REMARK 927      BINDING AFFINITY PREDICTED BY RF-SCORE:    0.00 PKD
ROOT
HETATM    1  C   UNL     1     -11.735  13.518  69.292  1.00  0.00    -0.382 C  
HETATM    2  C   UNL     1     -11.887  12.047  68.914  1.00  0.00    -0.299 C  
ENDROOT
BRANCH   2   3
HETATM    3  N   UNL     1     -10.662  11.272  68.628  1.00  0.00    -0.194 N  
HETATM    4  C   UNL     1     -10.660   7.691  68.223  1.00  0.00    -0.175 A  
HETATM    5  C   UNL     1     -10.229  10.314  69.561  1.00  0.00    -0.236 C  
HETATM    6  C   UNL     1      -9.026   9.411  69.214  1.00  0.00    -0.154 C  
HETATM    7  C   UNL     1     -10.923   6.581  67.416  1.00  0.00    -0.458 A  
HETATM    8  O   UNL     1     -10.816  10.130  70.633  1.00  0.00    -0.308 OA 
HETATM    9  C   UNL     1      -9.903   5.995  66.673  1.00  0.00    -0.202 A  
HETATM   10  C   UNL     1      -9.370   8.241  68.293  1.00  0.00    -0.138 A  
HETATM   11  C   UNL     1      -8.382   8.906  70.527  1.00  0.00    -0.159 C  
HETATM   12  H   UNL     1      -8.834   7.741  72.098  1.00  0.00     0.000 HD 
HETATM   13  O   UNL     1      -9.229   8.052  71.292  1.00  0.00    -0.142 OA 
HETATM   14  C   UNL     1      -8.348   7.630  67.544  1.00  0.00    -0.120 A  
HETATM   15  C   UNL     1      -8.612   6.515  66.742  1.00  0.00    -0.117 A  
BRANCH   3  16
HETATM   16  C   UNL     1      -9.656  11.909  67.757  1.00  0.00    -0.190 C  
BRANCH  16  17
HETATM   17  C   UNL     1      -9.934  11.918  66.272  1.00  0.00    -0.245 A  
HETATM   18  C   UNL     1      -9.857  10.742  65.514  1.00  0.00    -0.309 A  
HETATM   19  C   UNL     1     -10.464  13.073  64.241  1.00  0.00    -0.402 A  
HETATM   20  C   UNL     1     -10.081  10.809  64.147  1.00  0.00    -0.353 A  
HETATM   21  C   UNL     1     -10.249  13.107  65.610  1.00  0.00    -0.294 A  
HETATM   22  N   UNL     1     -10.382  11.949  63.494  1.00  0.00    -0.423 NA 
ENDBRANCH  16  17
ENDBRANCH   3  16
ENDBRANCH   2   3
TORSDOF 3
ENDMDL
MODEL       61
REMARK 921   NORMALIZED FREE ENERGY PREDICTED BY IDOCK:   -4.53 KCAL/MOL
REMARK 922        TOTAL FREE ENERGY PREDICTED BY IDOCK:   -6.34 KCAL/MOL
REMARK 923 INTER-LIGAND FREE ENERGY PREDICTED BY IDOCK:   -5.40 KCAL/MOL
REMARK 924 INTRA-LIGAND FREE ENERGY PREDICTED BY IDOCK:   -0.95 KCAL/MOL
REMARK 927      BINDING AFFINITY PREDICTED BY RF-SCORE:    0.00 PKD
ROOT
HETATM    1  C   UNL     1     -13.095  14.344  70.843  1.00  0.00    -0.390 C  
HETATM    2  C   UNL     1     -11.646  14.215  70.383  1.00  0.00    -0.171 C  
ENDROOT
BRANCH   2   3
HETATM    3  N   UNL     1     -11.242  14.922  69.150  1.00  0.00    -0.264 N  
HETATM    4  C   UNL     1      -8.044  16.543  68.780  1.00  0.00    -0.244 A  
HETATM    5  C   UNL     1     -10.979  16.301  69.211  1.00  0.00    -0.317 C  
HETATM    6  C   UNL     1     -10.433  17.023  67.961  1.00  0.00    -0.353 C  
HETATM    7  C   UNL     1      -6.671  16.434  68.544  1.00  0.00    -0.142 A  
HETATM    8  O   UNL     1     -11.117  16.950  70.255  1.00  0.00    -0.095 OA 
HETATM    9  C   UNL     1      -6.162  16.620  67.262  1.00  0.00    -0.206 A  
HETATM   10  C   UNL     1      -8.935  16.830  67.733  1.00  0.00    -0.216 A  
HETATM   11  C   UNL     1     -10.785  18.527  68.055  1.00  0.00    -0.232 C  
HETATM   12  H   UNL     1     -10.358  20.124  69.193  1.00  0.00     0.000 HD 
HETATM   13  O   UNL     1     -10.143  19.201  69.135  1.00  0.00    -0.383 OA 
HETATM   14  C   UNL     1      -8.402  17.025  66.446  1.00  0.00    -0.319 A  
HETATM   15  C   UNL     1      -7.027  16.921  66.213  1.00  0.00    -0.131 A  
BRANCH   3  16
HETATM   16  C   UNL     1     -11.703  14.351  67.870  1.00  0.00    -0.356 C  
BRANCH  16  17
HETATM   17  C   UNL     1     -10.855  13.263  67.253  1.00  0.00    -0.275 A  
HETATM   18  C   UNL     1     -11.437  12.217  66.526  1.00  0.00    -0.438 A  
HETATM   19  C   UNL     1      -8.733  12.222  66.861  1.00  0.00    -0.197 A  
HETATM   20  C   UNL     1     -10.620  11.220  66.014  1.00  0.00    -0.258 A  
HETATM   21  C   UNL     1      -9.468  13.258  67.416  1.00  0.00    -0.218 A  
HETATM   22  N   UNL     1      -9.281  11.200  66.166  1.00  0.00    -0.192 NA 
ENDBRANCH  16  17
ENDBRANCH   3  16
ENDBRANCH   2   3
TORSDOF 3
ENDMDL
MODEL       62
REMARK 921   NORMALIZED FREE ENERGY PREDICTED BY IDOCK:   -4.51 KCAL/MOL
REMARK 922        TOTAL FREE ENERGY PREDICTED BY IDOCK:   -6.32 KCAL/MOL
REMARK 923 INTER-LIGAND FREE ENERGY PREDICTED BY IDOCK:   -6.02 KCAL/MOL
REMARK 924 INTRA-LIGAND FREE ENERGY PREDICTED BY IDOCK:   -0.30 KCAL/MOL
REMARK 927      BINDING AFFINITY PREDICTED BY RF-SCORE:    0.00 PKD
ROOT
HETATM    1  C   UNL     1      -8.010   8.574  67.931  1.00  0.00    -0.108 C  
HETATM    2  C   UNL     1      -8.529   9.544  68.989  1.00  0.00    -0.128 C  
ENDROOT
BRANCH   2   3
HETATM    3  N   UNL     1      -9.622  10.463  68.614  1.00  0.00    -0.158 N  
HETATM    4  C   UNL     1     -10.100  11.669  65.250  1.00  0.00    -0.305 A  
HETATM    5  C   UNL     1      -9.300  11.737  68.116  1.00  0.00    -0.190 C  
HETATM    6  C   UNL     1     -10.428  12.656  67.601  1.00  0.00    -0.226 C  
HETATM    7  C   UNL     1     -10.555  11.431  63.951  1.00  0.00    -0.452 A  
HETATM    8  O   UNL     1      -8.131  12.130  68.024  1.00  0.00    -0.136 OA 
HETATM    9  C   UNL     1     -11.827  11.847  63.566  1.00  0.00    -0.560 A  
HETATM   10  C   UNL     1     -10.914  12.319  66.193  1.00  0.00    -0.328 A  
HETATM   11  C   UNL     1      -9.955  14.128  67.681  1.00  0.00    -0.233 C  
HETATM   12  H   UNL     1      -8.571  15.330  66.865  1.00  0.00     0.000 HD 
HETATM   13  O   UNL     1      -8.861  14.427  66.816  1.00  0.00    -0.239 OA 
HETATM   14  C   UNL     1     -12.191  12.741  65.783  1.00  0.00    -0.469 A  
HETATM   15  C   UNL     1     -12.643  12.508  64.481  1.00  0.00    -0.503 A  
BRANCH   3  16
HETATM   16  C   UNL     1     -10.913  10.286  69.306  1.00  0.00    -0.241 C  
BRANCH  16  17
HETATM   17  C   UNL     1     -11.052   9.086  70.213  1.00  0.00    -0.263 A  
HETATM   18  C   UNL     1     -11.136   7.789  69.690  1.00  0.00    -0.052 A  
HETATM   19  C   UNL     1     -11.287   8.116  72.391  1.00  0.00    -0.391 A  
HETATM   20  C   UNL     1     -11.304   6.724  70.562  1.00  0.00    -0.343 A  
HETATM   21  C   UNL     1     -11.127   9.242  71.599  1.00  0.00    -0.438 A  
HETATM   22  N   UNL     1     -11.382   6.859  71.901  1.00  0.00    -0.252 NA 
ENDBRANCH  16  17
ENDBRANCH   3  16
ENDBRANCH   2   3
TORSDOF 3
ENDMDL
MODEL       63
REMARK 921   NORMALIZED FREE ENERGY PREDICTED BY IDOCK:   -4.50 KCAL/MOL
REMARK 922        TOTAL FREE ENERGY PREDICTED BY IDOCK:   -6.31 KCAL/MOL
REMARK 923 INTER-LIGAND FREE ENERGY PREDICTED BY IDOCK:   -5.73 KCAL/MOL
REMARK 924 INTRA-LIGAND FREE ENERGY PREDICTED BY IDOCK:   -0.59 KCAL/MOL
REMARK 927      BINDING AFFINITY PREDICTED BY RF-SCORE:    0.00 PKD
ROOT
HETATM    1  C   UNL     1     -12.019  13.867  70.687  1.00  0.00    -0.364 C  
HETATM    2  C   UNL     1     -11.858  13.036  69.417  1.00  0.00    -0.322 C  
ENDROOT
BRANCH   2   3
HETATM    3  N   UNL     1     -10.786  13.410  68.472  1.00  0.00    -0.257 N  
HETATM    4  C   UNL     1      -9.869  16.831  67.803  1.00  0.00    -0.257 A  
HETATM    5  C   UNL     1     -11.115  14.168  67.336  1.00  0.00    -0.306 C  
HETATM    6  C   UNL     1      -9.986  14.673  66.411  1.00  0.00    -0.296 C  
HETATM    7  C   UNL     1      -9.199  17.988  68.208  1.00  0.00    -0.298 A  
HETATM    8  O   UNL     1     -12.279  14.495  67.079  1.00  0.00    -0.362 OA 
HETATM    9  C   UNL     1      -7.915  18.255  67.742  1.00  0.00    -0.250 A  
HETATM   10  C   UNL     1      -9.262  15.914  66.930  1.00  0.00    -0.247 A  
HETATM   11  C   UNL     1     -10.568  14.927  64.999  1.00  0.00    -0.422 C  
HETATM   12  H   UNL     1     -11.887  16.135  64.089  1.00  0.00     0.000 HD 
HETATM   13  O   UNL     1     -11.530  15.979  64.955  1.00  0.00    -0.241 OA 
HETATM   14  C   UNL     1      -7.968  16.205  66.460  1.00  0.00    -0.294 A  
HETATM   15  C   UNL     1      -7.302  17.367  66.862  1.00  0.00    -0.237 A  
BRANCH   3  16
HETATM   16  C   UNL     1      -9.611  12.520  68.406  1.00  0.00    -0.176 C  
BRANCH  16  17
HETATM   17  C   UNL     1      -9.787  11.194  67.704  1.00  0.00    -0.191 A  
HETATM   18  C   UNL     1     -10.321  10.086  68.374  1.00  0.00    -0.218 A  
HETATM   19  C   UNL     1      -9.544   9.787  65.780  1.00  0.00    -0.254 A  
HETATM   20  C   UNL     1     -10.424   8.879  67.699  1.00  0.00    -0.255 A  
HETATM   21  C   UNL     1      -9.395  11.031  66.374  1.00  0.00    -0.204 A  
HETATM   22  N   UNL     1     -10.047   8.706  66.416  1.00  0.00    -0.274 NA 
ENDBRANCH  16  17
ENDBRANCH   3  16
ENDBRANCH   2   3
TORSDOF 3
ENDMDL
MODEL       64
REMARK 921   NORMALIZED FREE ENERGY PREDICTED BY IDOCK:   -4.49 KCAL/MOL
REMARK 922        TOTAL FREE ENERGY PREDICTED BY IDOCK:   -6.29 KCAL/MOL
REMARK 923 INTER-LIGAND FREE ENERGY PREDICTED BY IDOCK:   -5.30 KCAL/MOL
REMARK 924 INTRA-LIGAND FREE ENERGY PREDICTED BY IDOCK:   -0.99 KCAL/MOL
REMARK 927      BINDING AFFINITY PREDICTED BY RF-SCORE:    0.00 PKD
ROOT
HETATM    1  C   UNL     1     -11.865  12.391  65.063  1.00  0.00    -0.440 C  
HETATM    2  C   UNL     1     -10.942  13.606  65.066  1.00  0.00    -0.346 C  
ENDROOT
BRANCH   2   3
HETATM    3  N   UNL     1     -10.345  14.023  66.351  1.00  0.00    -0.283 N  
HETATM    4  C   UNL     1     -12.279  15.451  69.037  1.00  0.00    -0.167 A  
HETATM    5  C   UNL     1     -10.408  15.376  66.723  1.00  0.00    -0.279 C  
HETATM    6  C   UNL     1      -9.903  15.802  68.119  1.00  0.00    -0.209 C  
HETATM    7  C   UNL     1     -13.160  15.262  70.105  1.00  0.00    -0.030 A  
HETATM    8  O   UNL     1     -10.908  16.237  65.989  1.00  0.00    -0.244 OA 
HETATM    9  C   UNL     1     -12.675  15.157  71.405  1.00  0.00    -0.443 A  
HETATM   10  C   UNL     1     -10.893  15.529  69.250  1.00  0.00    -0.252 A  
HETATM   11  C   UNL     1      -9.514  17.299  68.079  1.00  0.00    -0.271 C  
HETATM   12  H   UNL     1     -10.378  19.092  67.819  1.00  0.00     0.000 HD 
HETATM   13  O   UNL     1     -10.616  18.173  67.843  1.00  0.00    -0.400 OA 
HETATM   14  C   UNL     1     -10.421  15.431  70.572  1.00  0.00    -0.140 A  
HETATM   15  C   UNL     1     -11.304  15.247  71.640  1.00  0.00    -0.440 A  
BRANCH   3  16
HETATM   16  C   UNL     1      -9.234  13.203  66.871  1.00  0.00    -0.236 C  
BRANCH  16  17
HETATM   17  C   UNL     1      -9.597  11.935  67.608  1.00  0.00    -0.185 A  
HETATM   18  C   UNL     1     -10.657  11.908  68.523  1.00  0.00    -0.245 A  
HETATM   19  C   UNL     1      -9.213   9.630  68.138  1.00  0.00    -0.125 A  
HETATM   20  C   UNL     1     -10.925  10.730  69.205  1.00  0.00    -0.244 A  
HETATM   21  C   UNL     1      -8.865  10.761  67.415  1.00  0.00    -0.129 A  
HETATM   22  N   UNL     1     -10.226   9.591  69.032  1.00  0.00    -0.192 NA 
ENDBRANCH  16  17
ENDBRANCH   3  16
ENDBRANCH   2   3
TORSDOF 3
ENDMDL
MODEL       65
REMARK 921   NORMALIZED FREE ENERGY PREDICTED BY IDOCK:   -4.49 KCAL/MOL
REMARK 922        TOTAL FREE ENERGY PREDICTED BY IDOCK:   -6.29 KCAL/MOL
REMARK 923 INTER-LIGAND FREE ENERGY PREDICTED BY IDOCK:   -6.08 KCAL/MOL
REMARK 924 INTRA-LIGAND FREE ENERGY PREDICTED BY IDOCK:   -0.21 KCAL/MOL
REMARK 927      BINDING AFFINITY PREDICTED BY RF-SCORE:    0.00 PKD
ROOT
HETATM    1  C   UNL     1     -11.112  15.902  70.276  1.00  0.00    -0.381 C  
HETATM    2  C   UNL     1     -11.538  16.078  68.821  1.00  0.00    -0.351 C  
ENDROOT
BRANCH   2   3
HETATM    3  N   UNL     1     -10.746  15.397  67.777  1.00  0.00    -0.282 N  
HETATM    4  C   UNL     1     -12.036  12.672  65.802  1.00  0.00    -0.503 A  
HETATM    5  C   UNL     1     -10.454  14.031  67.926  1.00  0.00    -0.241 C  
HETATM    6  C   UNL     1      -9.738  13.281  66.782  1.00  0.00    -0.258 C  
HETATM    7  C   UNL     1     -12.836  12.241  64.740  1.00  0.00    -0.059 A  
HETATM    8  O   UNL     1     -10.802  13.390  68.924  1.00  0.00    -0.246 OA 
HETATM    9  C   UNL     1     -12.272  11.998  63.491  1.00  0.00    -0.653 A  
HETATM   10  C   UNL     1     -10.657  12.876  65.630  1.00  0.00    -0.295 A  
HETATM   11  C   UNL     1      -9.014  12.045  67.366  1.00  0.00    -0.176 C  
HETATM   12  H   UNL     1      -9.451  10.304  68.265  1.00  0.00     0.000 HD 
HETATM   13  O   UNL     1      -9.896  11.063  67.907  1.00  0.00    -0.166 OA 
HETATM   14  C   UNL     1     -10.103  12.615  64.364  1.00  0.00    -0.281 A  
HETATM   15  C   UNL     1     -10.903  12.179  63.304  1.00  0.00    -0.381 A  
BRANCH   3  16
HETATM   16  C   UNL     1      -9.816  16.232  66.992  1.00  0.00    -0.244 C  
BRANCH  16  17
HETATM   17  C   UNL     1      -8.829  17.078  67.762  1.00  0.00    -0.223 A  
HETATM   18  C   UNL     1      -8.944  18.474  67.795  1.00  0.00    -0.289 A  
HETATM   19  C   UNL     1      -6.858  17.309  69.104  1.00  0.00    -0.234 A  
HETATM   20  C   UNL     1      -7.989  19.209  68.481  1.00  0.00    -0.351 A  
HETATM   21  C   UNL     1      -7.758  16.491  68.438  1.00  0.00    -0.189 A  
HETATM   22  N   UNL     1      -6.949  18.657  69.136  1.00  0.00    -0.279 NA 
ENDBRANCH  16  17
ENDBRANCH   3  16
ENDBRANCH   2   3
TORSDOF 3
ENDMDL
MODEL       66
REMARK 921   NORMALIZED FREE ENERGY PREDICTED BY IDOCK:   -4.47 KCAL/MOL
REMARK 922        TOTAL FREE ENERGY PREDICTED BY IDOCK:   -6.28 KCAL/MOL
REMARK 923 INTER-LIGAND FREE ENERGY PREDICTED BY IDOCK:   -5.74 KCAL/MOL
REMARK 924 INTRA-LIGAND FREE ENERGY PREDICTED BY IDOCK:   -0.54 KCAL/MOL
REMARK 927      BINDING AFFINITY PREDICTED BY RF-SCORE:    0.00 PKD
ROOT
HETATM    1  C   UNL     1     -11.646  16.156  68.909  1.00  0.00    -0.298 C  
HETATM    2  C   UNL     1     -10.349  15.416  69.229  1.00  0.00    -0.253 C  
ENDROOT
BRANCH   2   3
HETATM    3  N   UNL     1      -9.908  14.353  68.303  1.00  0.00    -0.222 N  
HETATM    4  C   UNL     1     -12.088  12.862  65.850  1.00  0.00    -0.503 A  
HETATM    5  C   UNL     1     -10.525  13.092  68.372  1.00  0.00    -0.252 C  
HETATM    6  C   UNL     1     -10.163  12.015  67.327  1.00  0.00    -0.221 C  
HETATM    7  C   UNL     1     -12.729  12.952  64.612  1.00  0.00    -0.403 A  
HETATM    8  O   UNL     1     -11.394  12.831  69.212  1.00  0.00    -0.263 OA 
HETATM    9  C   UNL     1     -12.162  12.367  63.483  1.00  0.00    -0.661 A  
HETATM   10  C   UNL     1     -10.861  12.192  65.980  1.00  0.00    -0.318 A  
HETATM   11  C   UNL     1     -10.462  10.617  67.920  1.00  0.00    -0.208 C  
HETATM   12  H   UNL     1     -12.030   9.526  68.536  1.00  0.00     0.000 HD 
HETATM   13  O   UNL     1     -11.846  10.384  68.172  1.00  0.00    -0.338 OA 
HETATM   14  C   UNL     1     -10.307  11.597  64.832  1.00  0.00    -0.331 A  
HETATM   15  C   UNL     1     -10.953  11.683  63.595  1.00  0.00    -0.507 A  
BRANCH   3  16
HETATM   16  C   UNL     1      -8.521  14.430  67.808  1.00  0.00    -0.173 C  
BRANCH  16  17
HETATM   17  C   UNL     1      -7.415  14.178  68.806  1.00  0.00    -0.129 A  
HETATM   18  C   UNL     1      -6.967  12.879  69.077  1.00  0.00    -0.058 A  
HETATM   19  C   UNL     1      -5.841  14.954  70.437  1.00  0.00    -0.152 A  
HETATM   20  C   UNL     1      -5.979  12.696  70.033  1.00  0.00    -0.145 A  
HETATM   21  C   UNL     1      -6.829  15.235  69.506  1.00  0.00    -0.180 A  
HETATM   22  N   UNL     1      -5.407  13.705  70.719  1.00  0.00    -0.124 NA 
ENDBRANCH  16  17
ENDBRANCH   3  16
ENDBRANCH   2   3
TORSDOF 3
ENDMDL
MODEL       67
REMARK 921   NORMALIZED FREE ENERGY PREDICTED BY IDOCK:   -4.46 KCAL/MOL
REMARK 922        TOTAL FREE ENERGY PREDICTED BY IDOCK:   -6.27 KCAL/MOL
REMARK 923 INTER-LIGAND FREE ENERGY PREDICTED BY IDOCK:   -5.25 KCAL/MOL
REMARK 924 INTRA-LIGAND FREE ENERGY PREDICTED BY IDOCK:   -1.01 KCAL/MOL
REMARK 927      BINDING AFFINITY PREDICTED BY RF-SCORE:    0.00 PKD
ROOT
HETATM    1  C   UNL     1     -11.542   4.617  73.058  1.00  0.00    -0.208 C  
HETATM    2  C   UNL     1     -10.481   5.631  73.477  1.00  0.00    -0.254 C  
ENDROOT
BRANCH   2   3
HETATM    3  N   UNL     1      -9.891   6.492  72.432  1.00  0.00    -0.160 N  
HETATM    4  C   UNL     1     -10.142   5.754  68.913  1.00  0.00    -0.242 A  
HETATM    5  C   UNL     1      -8.886   5.965  71.603  1.00  0.00    -0.139 C  
HETATM    6  C   UNL     1      -8.354   6.812  70.427  1.00  0.00    -0.130 C  
HETATM    7  C   UNL     1     -10.909   5.755  67.745  1.00  0.00    -0.259 A  
HETATM    8  O   UNL     1      -8.449   4.817  71.749  1.00  0.00    -0.114 OA 
HETATM    9  C   UNL     1     -10.801   6.802  66.835  1.00  0.00    -0.402 A  
HETATM   10  C   UNL     1      -9.258   6.809  69.196  1.00  0.00    -0.137 A  
HETATM   11  C   UNL     1      -6.929   6.329  70.063  1.00  0.00    -0.066 C  
HETATM   12  H   UNL     1      -6.011   4.699  69.335  1.00  0.00     0.000 HD 
HETATM   13  O   UNL     1      -6.885   4.996  69.559  1.00  0.00    -0.049 OA 
HETATM   14  C   UNL     1      -9.154   7.854  68.260  1.00  0.00    -0.134 A  
HETATM   15  C   UNL     1      -9.919   7.850  67.090  1.00  0.00    -0.298 A  
BRANCH   3  16
HETATM   16  C   UNL     1      -9.909   7.947  72.675  1.00  0.00    -0.252 C  
BRANCH  16  17
HETATM   17  C   UNL     1     -11.045   8.735  72.066  1.00  0.00    -0.441 A  
HETATM   18  C   UNL     1     -10.819   9.639  71.020  1.00  0.00    -0.412 A  
HETATM   19  C   UNL     1     -13.353   9.371  71.983  1.00  0.00    -0.450 A  
HETATM   20  C   UNL     1     -11.887  10.370  70.523  1.00  0.00    -0.337 A  
HETATM   21  C   UNL     1     -12.348   8.603  72.550  1.00  0.00    -0.378 A  
HETATM   22  N   UNL     1     -13.149  10.256  70.982  1.00  0.00    -0.388 NA 
ENDBRANCH  16  17
ENDBRANCH   3  16
ENDBRANCH   2   3
TORSDOF 3
ENDMDL
MODEL       68
REMARK 921   NORMALIZED FREE ENERGY PREDICTED BY IDOCK:   -4.44 KCAL/MOL
REMARK 922        TOTAL FREE ENERGY PREDICTED BY IDOCK:   -6.24 KCAL/MOL
REMARK 923 INTER-LIGAND FREE ENERGY PREDICTED BY IDOCK:   -5.20 KCAL/MOL
REMARK 924 INTRA-LIGAND FREE ENERGY PREDICTED BY IDOCK:   -1.04 KCAL/MOL
REMARK 927      BINDING AFFINITY PREDICTED BY RF-SCORE:    0.00 PKD
ROOT
HETATM    1  C   UNL     1      -8.278   9.892  65.096  1.00  0.00    -0.144 C  
HETATM    2  C   UNL     1      -8.296   9.826  66.621  1.00  0.00    -0.124 C  
ENDROOT
BRANCH   2   3
HETATM    3  N   UNL     1      -9.452   9.182  67.276  1.00  0.00    -0.144 N  
HETATM    4  C   UNL     1      -9.318   7.859  70.626  1.00  0.00    -0.158 A  
HETATM    5  C   UNL     1      -9.357   7.831  67.650  1.00  0.00    -0.142 C  
HETATM    6  C   UNL     1     -10.509   7.185  68.450  1.00  0.00    -0.228 C  
HETATM    7  C   UNL     1      -9.332   8.093  72.004  1.00  0.00    -0.266 A  
HETATM    8  O   UNL     1      -8.353   7.152  67.409  1.00  0.00    -0.118 OA 
HETATM    9  C   UNL     1     -10.518   7.979  72.723  1.00  0.00    -0.415 A  
HETATM   10  C   UNL     1     -10.495   7.515  69.941  1.00  0.00    -0.232 A  
HETATM   11  C   UNL     1     -10.480   5.654  68.226  1.00  0.00    -0.192 C  
HETATM   12  H   UNL     1      -9.298   4.079  68.611  1.00  0.00     0.000 HD 
HETATM   13  O   UNL     1      -9.316   5.018  68.748  1.00  0.00    -0.116 OA 
HETATM   14  C   UNL     1     -11.682   7.394  70.686  1.00  0.00    -0.270 A  
HETATM   15  C   UNL     1     -11.693   7.623  72.066  1.00  0.00    -0.340 A  
BRANCH   3  16
HETATM   16  C   UNL     1     -10.786   9.735  66.974  1.00  0.00    -0.166 C  
BRANCH  16  17
HETATM   17  C   UNL     1     -11.186  11.005  67.688  1.00  0.00    -0.373 A  
HETATM   18  C   UNL     1     -11.364  11.028  69.077  1.00  0.00    -0.345 A  
HETATM   19  C   UNL     1     -11.814  13.317  67.670  1.00  0.00    -0.357 A  
HETATM   20  C   UNL     1     -11.772  12.208  69.682  1.00  0.00    -0.325 A  
HETATM   21  C   UNL     1     -11.416  12.184  66.976  1.00  0.00    -0.415 A  
HETATM   22  N   UNL     1     -12.001  13.352  69.008  1.00  0.00    -0.327 NA 
ENDBRANCH  16  17
ENDBRANCH   3  16
ENDBRANCH   2   3
TORSDOF 3
ENDMDL
MODEL       69
REMARK 921   NORMALIZED FREE ENERGY PREDICTED BY IDOCK:   -4.43 KCAL/MOL
REMARK 922        TOTAL FREE ENERGY PREDICTED BY IDOCK:   -6.22 KCAL/MOL
REMARK 923 INTER-LIGAND FREE ENERGY PREDICTED BY IDOCK:   -5.70 KCAL/MOL
REMARK 924 INTRA-LIGAND FREE ENERGY PREDICTED BY IDOCK:   -0.53 KCAL/MOL
REMARK 927      BINDING AFFINITY PREDICTED BY RF-SCORE:    0.00 PKD
ROOT
HETATM    1  C   UNL     1      -6.433  13.653  68.565  1.00  0.00    -0.090 C  
HETATM    2  C   UNL     1      -7.324  13.093  67.459  1.00  0.00    -0.148 C  
ENDROOT
BRANCH   2   3
HETATM    3  N   UNL     1      -8.633  12.526  67.840  1.00  0.00    -0.169 N  
HETATM    4  C   UNL     1      -8.972   9.587  69.899  1.00  0.00    -0.231 A  
HETATM    5  C   UNL     1      -8.963  11.228  67.415  1.00  0.00    -0.144 C  
HETATM    6  C   UNL     1     -10.271  10.578  67.914  1.00  0.00    -0.213 C  
HETATM    7  C   UNL     1      -8.939   9.011  71.171  1.00  0.00    -0.303 A  
HETATM    8  O   UNL     1      -8.209  10.561  66.696  1.00  0.00    -0.122 OA 
HETATM    9  C   UNL     1     -10.116   8.834  71.893  1.00  0.00    -0.409 A  
HETATM   10  C   UNL     1     -10.185  10.006  69.328  1.00  0.00    -0.229 A  
HETATM   11  C   UNL     1     -10.707   9.487  66.906  1.00  0.00    -0.114 C  
HETATM   12  H   UNL     1     -10.069   7.719  66.203  1.00  0.00     0.000 HD 
HETATM   13  O   UNL     1      -9.802   8.389  66.821  1.00  0.00    -0.211 OA 
HETATM   14  C   UNL     1     -11.366   9.810  70.067  1.00  0.00    -0.269 A  
HETATM   15  C   UNL     1     -11.331   9.228  71.338  1.00  0.00    -0.434 A  
BRANCH   3  16
HETATM   16  C   UNL     1      -9.729  13.482  68.090  1.00  0.00    -0.233 C  
BRANCH  16  17
HETATM   17  C   UNL     1     -10.541  13.930  66.897  1.00  0.00    -0.280 A  
HETATM   18  C   UNL     1     -11.908  13.639  66.802  1.00  0.00    -0.452 A  
HETATM   19  C   UNL     1     -10.719  14.986  64.754  1.00  0.00    -0.330 A  
HETATM   20  C   UNL     1     -12.601  14.035  65.668  1.00  0.00    -0.512 A  
HETATM   21  C   UNL     1      -9.942  14.624  65.844  1.00  0.00    -0.352 A  
HETATM   22  N   UNL     1     -12.036  14.702  64.642  1.00  0.00    -0.452 NA 
ENDBRANCH  16  17
ENDBRANCH   3  16
ENDBRANCH   2   3
TORSDOF 3
ENDMDL
MODEL       70
REMARK 921   NORMALIZED FREE ENERGY PREDICTED BY IDOCK:   -4.43 KCAL/MOL
REMARK 922        TOTAL FREE ENERGY PREDICTED BY IDOCK:   -6.22 KCAL/MOL
REMARK 923 INTER-LIGAND FREE ENERGY PREDICTED BY IDOCK:   -5.29 KCAL/MOL
REMARK 924 INTRA-LIGAND FREE ENERGY PREDICTED BY IDOCK:   -0.94 KCAL/MOL
REMARK 927      BINDING AFFINITY PREDICTED BY RF-SCORE:    0.00 PKD
ROOT
HETATM    1  C   UNL     1      -9.855  11.552  63.109  1.00  0.00    -0.413 C  
HETATM    2  C   UNL     1     -10.589  10.935  64.296  1.00  0.00    -0.266 C  
ENDROOT
BRANCH   2   3
HETATM    3  N   UNL     1      -9.807  10.617  65.509  1.00  0.00    -0.241 N  
HETATM    4  C   UNL     1     -11.128  10.980  68.843  1.00  0.00    -0.295 A  
HETATM    5  C   UNL     1      -9.525  11.645  66.425  1.00  0.00    -0.217 C  
HETATM    6  C   UNL     1      -8.821  11.299  67.755  1.00  0.00    -0.141 C  
HETATM    7  C   UNL     1     -11.938  10.481  69.867  1.00  0.00    -0.339 A  
HETATM    8  O   UNL     1      -9.872  12.815  66.227  1.00  0.00    -0.258 OA 
HETATM    9  C   UNL     1     -11.383   9.718  70.890  1.00  0.00    -0.439 A  
HETATM   10  C   UNL     1      -9.749  10.716  68.819  1.00  0.00    -0.193 A  
HETATM   11  C   UNL     1      -8.102  12.563  68.286  1.00  0.00    -0.165 C  
HETATM   12  H   UNL     1      -8.547  14.396  68.970  1.00  0.00     0.000 HD 
HETATM   13  O   UNL     1      -8.988  13.621  68.644  1.00  0.00    -0.137 OA 
HETATM   14  C   UNL     1      -9.204   9.953  69.867  1.00  0.00    -0.245 A  
HETATM   15  C   UNL     1     -10.014   9.459  70.894  1.00  0.00    -0.353 A  
BRANCH   3  16
HETATM   16  C   UNL     1      -8.876   9.476  65.425  1.00  0.00    -0.178 C  
BRANCH  16  17
HETATM   17  C   UNL     1      -9.355   8.151  65.972  1.00  0.00    -0.184 A  
HETATM   18  C   UNL     1      -8.649   6.968  65.723  1.00  0.00    -0.138 A  
HETATM   19  C   UNL     1     -10.952   6.828  67.172  1.00  0.00    -0.388 A  
HETATM   20  C   UNL     1      -9.152   5.771  66.212  1.00  0.00    -0.147 A  
HETATM   21  C   UNL     1     -10.533   8.070  66.719  1.00  0.00    -0.319 A  
HETATM   22  N   UNL     1     -10.288   5.676  66.931  1.00  0.00    -0.231 NA 
ENDBRANCH  16  17
ENDBRANCH   3  16
ENDBRANCH   2   3
TORSDOF 3
ENDMDL
MODEL       71
REMARK 921   NORMALIZED FREE ENERGY PREDICTED BY IDOCK:   -4.39 KCAL/MOL
REMARK 922        TOTAL FREE ENERGY PREDICTED BY IDOCK:   -6.18 KCAL/MOL
REMARK 923 INTER-LIGAND FREE ENERGY PREDICTED BY IDOCK:   -5.14 KCAL/MOL
REMARK 924 INTRA-LIGAND FREE ENERGY PREDICTED BY IDOCK:   -1.04 KCAL/MOL
REMARK 927      BINDING AFFINITY PREDICTED BY RF-SCORE:    0.00 PKD
ROOT
HETATM    1  C   UNL     1      -8.406  14.021  67.689  1.00  0.00    -0.191 C  
HETATM    2  C   UNL     1      -9.539  13.438  66.849  1.00  0.00    -0.257 C  
ENDROOT
BRANCH   2   3
HETATM    3  N   UNL     1     -10.264  12.264  67.376  1.00  0.00    -0.202 N  
HETATM    4  C   UNL     1      -8.719   9.807  69.514  1.00  0.00    -0.193 A  
HETATM    5  C   UNL     1      -9.830  10.978  67.013  1.00  0.00    -0.182 C  
HETATM    6  C   UNL     1     -10.498   9.745  67.659  1.00  0.00    -0.305 C  
HETATM    7  C   UNL     1      -8.269   9.447  70.787  1.00  0.00    -0.173 A  
HETATM    8  O   UNL     1      -8.889  10.798  66.232  1.00  0.00    -0.161 OA 
HETATM    9  C   UNL     1      -9.079   8.695  71.632  1.00  0.00    -0.318 A  
HETATM   10  C   UNL     1      -9.995   9.429  69.067  1.00  0.00    -0.182 A  
HETATM   11  C   UNL     1     -10.314   8.525  66.724  1.00  0.00    -0.276 C  
HETATM   12  H   UNL     1      -8.843   7.374  65.991  1.00  0.00     0.000 HD 
HETATM   13  O   UNL     1      -8.956   8.123  66.565  1.00  0.00    -0.141 OA 
HETATM   14  C   UNL     1     -10.797   8.659  69.930  1.00  0.00    -0.210 A  
HETATM   15  C   UNL     1     -10.342   8.295  71.201  1.00  0.00    -0.247 A  
BRANCH   3  16
HETATM   16  C   UNL     1     -11.685  12.455  67.722  1.00  0.00    -0.350 C  
BRANCH  16  17
HETATM   17  C   UNL     1     -11.995  13.015  69.091  1.00  0.00    -0.320 A  
HETATM   18  C   UNL     1     -11.923  14.391  69.343  1.00  0.00    -0.370 A  
HETATM   19  C   UNL     1     -12.577  12.724  71.397  1.00  0.00    -0.207 A  
HETATM   20  C   UNL     1     -12.176  14.852  70.626  1.00  0.00    -0.318 A  
HETATM   21  C   UNL     1     -12.334  12.169  70.150  1.00  0.00    -0.219 A  
HETATM   22  N   UNL     1     -12.501  14.048  71.659  1.00  0.00    -0.316 NA 
ENDBRANCH  16  17
ENDBRANCH   3  16
ENDBRANCH   2   3
TORSDOF 3
ENDMDL
MODEL       72
REMARK 921   NORMALIZED FREE ENERGY PREDICTED BY IDOCK:   -4.39 KCAL/MOL
REMARK 922        TOTAL FREE ENERGY PREDICTED BY IDOCK:   -6.18 KCAL/MOL
REMARK 923 INTER-LIGAND FREE ENERGY PREDICTED BY IDOCK:   -5.89 KCAL/MOL
REMARK 924 INTRA-LIGAND FREE ENERGY PREDICTED BY IDOCK:   -0.29 KCAL/MOL
REMARK 927      BINDING AFFINITY PREDICTED BY RF-SCORE:    0.00 PKD
ROOT
HETATM    1  C   UNL     1     -11.734  15.812  71.128  1.00  0.00    -0.476 C  
HETATM    2  C   UNL     1     -12.080  15.371  69.708  1.00  0.00    -0.347 C  
ENDROOT
BRANCH   2   3
HETATM    3  N   UNL     1     -10.973  14.975  68.814  1.00  0.00    -0.245 N  
HETATM    4  C   UNL     1      -7.699  16.476  68.966  1.00  0.00    -0.228 A  
HETATM    5  C   UNL     1     -10.436  15.929  67.932  1.00  0.00    -0.288 C  
HETATM    6  C   UNL     1      -9.198  15.565  67.086  1.00  0.00    -0.228 C  
HETATM    7  C   UNL     1      -6.459  16.572  69.601  1.00  0.00    -0.198 A  
HETATM    8  O   UNL     1     -10.890  17.076  67.851  1.00  0.00    -0.357 OA 
HETATM    9  C   UNL     1      -5.370  15.846  69.127  1.00  0.00    -0.109 A  
HETATM   10  C   UNL     1      -7.876  15.645  67.848  1.00  0.00    -0.143 A  
HETATM   11  C   UNL     1      -9.162  16.468  65.830  1.00  0.00    -0.174 C  
HETATM   12  H   UNL     1      -8.949  18.406  65.351  1.00  0.00     0.000 HD 
HETATM   13  O   UNL     1      -8.971  17.851  66.122  1.00  0.00    -0.466 OA 
HETATM   14  C   UNL     1      -6.762  14.927  67.376  1.00  0.00    -0.082 A  
HETATM   15  C   UNL     1      -5.520  15.028  68.009  1.00  0.00    -0.140 A  
BRANCH   3  16
HETATM   16  C   UNL     1     -10.890  13.550  68.441  1.00  0.00    -0.267 C  
BRANCH  16  17
HETATM   17  C   UNL     1     -11.265  13.183  67.025  1.00  0.00    -0.325 A  
HETATM   18  C   UNL     1     -12.397  13.734  66.411  1.00  0.00    -0.460 A  
HETATM   19  C   UNL     1     -10.907  11.930  65.015  1.00  0.00    -0.300 A  
HETATM   20  C   UNL     1     -12.723  13.334  65.123  1.00  0.00    -0.402 A  
HETATM   21  C   UNL     1     -10.507  12.262  66.300  1.00  0.00    -0.266 A  
HETATM   22  N   UNL     1     -12.003  12.443  64.412  1.00  0.00    -0.387 NA 
ENDBRANCH  16  17
ENDBRANCH   3  16
ENDBRANCH   2   3
TORSDOF 3
ENDMDL
MODEL       73
REMARK 921   NORMALIZED FREE ENERGY PREDICTED BY IDOCK:   -4.38 KCAL/MOL
REMARK 922        TOTAL FREE ENERGY PREDICTED BY IDOCK:   -6.17 KCAL/MOL
REMARK 923 INTER-LIGAND FREE ENERGY PREDICTED BY IDOCK:   -5.13 KCAL/MOL
REMARK 924 INTRA-LIGAND FREE ENERGY PREDICTED BY IDOCK:   -1.04 KCAL/MOL
REMARK 927      BINDING AFFINITY PREDICTED BY RF-SCORE:    0.00 PKD
ROOT
HETATM    1  C   UNL     1     -12.581  13.045  63.225  1.00  0.00    -0.149 C  
HETATM    2  C   UNL     1     -12.641  12.668  64.703  1.00  0.00    -0.440 C  
ENDROOT
BRANCH   2   3
HETATM    3  N   UNL     1     -11.381  12.669  65.473  1.00  0.00    -0.309 N  
HETATM    4  C   UNL     1     -11.055  11.096  68.700  1.00  0.00    -0.293 A  
HETATM    5  C   UNL     1     -11.349  13.304  66.726  1.00  0.00    -0.327 C  
HETATM    6  C   UNL     1     -10.077  13.201  67.595  1.00  0.00    -0.221 C  
HETATM    7  C   UNL     1     -10.901   9.925  69.447  1.00  0.00    -0.265 A  
HETATM    8  O   UNL     1     -12.330  13.900  67.185  1.00  0.00    -0.372 OA 
HETATM    9  C   UNL     1      -9.637   9.522  69.868  1.00  0.00    -0.250 A  
HETATM   10  C   UNL     1      -9.943  11.881  68.352  1.00  0.00    -0.203 A  
HETATM   11  C   UNL     1     -10.036  14.401  68.572  1.00  0.00    -0.237 C  
HETATM   12  H   UNL     1     -11.068  15.135  70.129  1.00  0.00     0.000 HD 
HETATM   13  O   UNL     1     -11.093  14.399  69.529  1.00  0.00    -0.251 OA 
HETATM   14  C   UNL     1      -8.675  11.464  68.794  1.00  0.00    -0.080 A  
HETATM   15  C   UNL     1      -8.523  10.295  69.546  1.00  0.00    -0.156 A  
BRANCH   3  16
HETATM   16  C   UNL     1     -10.126  12.572  64.703  1.00  0.00    -0.233 C  
BRANCH  16  17
HETATM   17  C   UNL     1      -9.634  11.187  64.354  1.00  0.00    -0.288 A  
HETATM   18  C   UNL     1      -9.486  10.202  65.339  1.00  0.00    -0.296 A  
HETATM   19  C   UNL     1      -8.809   9.587  62.773  1.00  0.00    -0.238 A  
HETATM   20  C   UNL     1      -8.991   8.959  64.976  1.00  0.00    -0.108 A  
HETATM   21  C   UNL     1      -9.287  10.861  63.041  1.00  0.00    -0.349 A  
HETATM   22  N   UNL     1      -8.649   8.630  63.714  1.00  0.00    -0.067 NA 
ENDBRANCH  16  17
ENDBRANCH   3  16
ENDBRANCH   2   3
TORSDOF 3
ENDMDL
MODEL       74
REMARK 921   NORMALIZED FREE ENERGY PREDICTED BY IDOCK:   -4.38 KCAL/MOL
REMARK 922        TOTAL FREE ENERGY PREDICTED BY IDOCK:   -6.16 KCAL/MOL
REMARK 923 INTER-LIGAND FREE ENERGY PREDICTED BY IDOCK:   -6.14 KCAL/MOL
REMARK 924 INTRA-LIGAND FREE ENERGY PREDICTED BY IDOCK:   -0.02 KCAL/MOL
REMARK 927      BINDING AFFINITY PREDICTED BY RF-SCORE:    0.00 PKD
ROOT
HETATM    1  C   UNL     1     -10.340  18.223  66.193  1.00  0.00    -0.414 C  
HETATM    2  C   UNL     1     -10.583  16.889  65.492  1.00  0.00    -0.202 C  
ENDROOT
BRANCH   2   3
HETATM    3  N   UNL     1     -10.984  15.732  66.318  1.00  0.00    -0.228 N  
HETATM    4  C   UNL     1     -10.894  15.772  69.922  1.00  0.00    -0.330 A  
HETATM    5  C   UNL     1     -10.027  15.125  67.149  1.00  0.00    -0.237 C  
HETATM    6  C   UNL     1     -10.465  13.999  68.110  1.00  0.00    -0.243 C  
HETATM    7  C   UNL     1     -11.480  16.172  71.125  1.00  0.00    -0.433 A  
HETATM    8  O   UNL     1      -8.849  15.500  67.178  1.00  0.00    -0.189 OA 
HETATM    9  C   UNL     1     -12.313  15.301  71.823  1.00  0.00    -0.429 A  
HETATM   10  C   UNL     1     -11.139  14.497  69.388  1.00  0.00    -0.297 A  
HETATM   11  C   UNL     1      -9.238  13.117  68.445  1.00  0.00    -0.141 C  
HETATM   12  H   UNL     1      -7.468  13.259  69.380  1.00  0.00     0.000 HD 
HETATM   13  O   UNL     1      -8.221  13.799  69.174  1.00  0.00     0.124 OA 
HETATM   14  C   UNL     1     -11.975  13.627  70.111  1.00  0.00    -0.407 A  
HETATM   15  C   UNL     1     -12.556  14.026  71.319  1.00  0.00    -0.444 A  
BRANCH   3  16
HETATM   16  C   UNL     1     -12.104  14.911  65.821  1.00  0.00     0.004 C  
BRANCH  16  17
HETATM   17  C   UNL     1     -11.761  13.740  64.931  1.00  0.00    -0.378 A  
HETATM   18  C   UNL     1     -10.437  13.481  64.554  1.00  0.00    -0.426 A  
HETATM   19  C   UNL     1     -12.404  11.857  63.597  1.00  0.00    -0.481 A  
HETATM   20  C   UNL     1     -10.178  12.419  63.701  1.00  0.00    -0.354 A  
HETATM   21  C   UNL     1     -12.761  12.899  64.437  1.00  0.00    -0.322 A  
HETATM   22  N   UNL     1     -11.132  11.601  63.214  1.00  0.00    -0.317 NA 
ENDBRANCH  16  17
ENDBRANCH   3  16
ENDBRANCH   2   3
TORSDOF 3
ENDMDL
MODEL       75
REMARK 921   NORMALIZED FREE ENERGY PREDICTED BY IDOCK:   -4.36 KCAL/MOL
REMARK 922        TOTAL FREE ENERGY PREDICTED BY IDOCK:   -6.14 KCAL/MOL
REMARK 923 INTER-LIGAND FREE ENERGY PREDICTED BY IDOCK:   -5.13 KCAL/MOL
REMARK 924 INTRA-LIGAND FREE ENERGY PREDICTED BY IDOCK:   -1.01 KCAL/MOL
REMARK 927      BINDING AFFINITY PREDICTED BY RF-SCORE:    0.00 PKD
ROOT
HETATM    1  C   UNL     1      -9.867  14.735  68.260  1.00  0.00    -0.222 C  
HETATM    2  C   UNL     1      -9.285  13.358  68.569  1.00  0.00    -0.082 C  
ENDROOT
BRANCH   2   3
HETATM    3  N   UNL     1      -9.977  12.172  68.024  1.00  0.00    -0.197 N  
HETATM    4  C   UNL     1      -8.260   9.117  67.180  1.00  0.00    -0.113 A  
HETATM    5  C   UNL     1      -9.639  11.718  66.738  1.00  0.00    -0.200 C  
HETATM    6  C   UNL     1     -10.262  10.407  66.210  1.00  0.00    -0.286 C  
HETATM    7  C   UNL     1      -7.664   7.927  67.604  1.00  0.00    -0.117 A  
HETATM    8  O   UNL     1      -8.812  12.305  66.031  1.00  0.00    -0.029 OA 
HETATM    9  C   UNL     1      -8.387   6.737  67.593  1.00  0.00    -0.123 A  
HETATM   10  C   UNL     1      -9.595   9.141  66.745  1.00  0.00    -0.253 A  
HETATM   11  C   UNL     1     -10.241  10.427  64.663  1.00  0.00    -0.235 C  
HETATM   12  H   UNL     1      -8.915  10.432  63.156  1.00  0.00     0.000 HD 
HETATM   13  O   UNL     1      -8.929  10.420  64.105  1.00  0.00    -0.196 OA 
HETATM   14  C   UNL     1     -10.307   7.928  66.730  1.00  0.00    -0.357 A  
HETATM   15  C   UNL     1      -9.708   6.736  67.149  1.00  0.00    -0.191 A  
BRANCH   3  16
HETATM   16  C   UNL     1     -11.336  11.899  68.530  1.00  0.00    -0.276 C  
BRANCH  16  17
HETATM   17  C   UNL     1     -11.458  10.964  69.711  1.00  0.00    -0.390 A  
HETATM   18  C   UNL     1     -10.413  10.099  70.060  1.00  0.00    -0.325 A  
HETATM   19  C   UNL     1     -12.710  10.023  71.524  1.00  0.00    -0.429 A  
HETATM   20  C   UNL     1     -10.590   9.230  71.127  1.00  0.00    -0.332 A  
HETATM   21  C   UNL     1     -12.630  10.920  70.470  1.00  0.00    -0.409 A  
HETATM   22  N   UNL     1     -11.715   9.174  71.866  1.00  0.00    -0.371 NA 
ENDBRANCH  16  17
ENDBRANCH   3  16
ENDBRANCH   2   3
TORSDOF 3
ENDMDL
MODEL       76
REMARK 921   NORMALIZED FREE ENERGY PREDICTED BY IDOCK:   -4.35 KCAL/MOL
REMARK 922        TOTAL FREE ENERGY PREDICTED BY IDOCK:   -6.13 KCAL/MOL
REMARK 923 INTER-LIGAND FREE ENERGY PREDICTED BY IDOCK:   -5.10 KCAL/MOL
REMARK 924 INTRA-LIGAND FREE ENERGY PREDICTED BY IDOCK:   -1.03 KCAL/MOL
REMARK 927      BINDING AFFINITY PREDICTED BY RF-SCORE:    0.00 PKD
ROOT
HETATM    1  C   UNL     1      -5.724  17.908  69.084  1.00  0.00    -0.206 C  
HETATM    2  C   UNL     1      -6.781  16.845  69.369  1.00  0.00    -0.220 C  
ENDROOT
BRANCH   2   3
HETATM    3  N   UNL     1      -7.291  16.049  68.234  1.00  0.00    -0.125 N  
HETATM    4  C   UNL     1     -10.162  13.885  68.493  1.00  0.00    -0.240 A  
HETATM    5  C   UNL     1      -7.290  14.647  68.331  1.00  0.00    -0.115 C  
HETATM    6  C   UNL     1      -7.937  13.811  67.207  1.00  0.00    -0.135 C  
HETATM    7  C   UNL     1     -11.552  13.746  68.538  1.00  0.00    -0.373 A  
HETATM    8  O   UNL     1      -6.835  14.058  69.318  1.00  0.00    -0.114 OA 
HETATM    9  C   UNL     1     -12.265  13.444  67.382  1.00  0.00    -0.262 A  
HETATM   10  C   UNL     1      -9.461  13.733  67.286  1.00  0.00    -0.236 A  
HETATM   11  C   UNL     1      -7.315  12.394  67.212  1.00  0.00    -0.127 C  
HETATM   12  H   UNL     1      -7.219  10.775  68.394  1.00  0.00     0.000 HD 
HETATM   13  O   UNL     1      -7.600  11.644  68.390  1.00  0.00    -0.111 OA 
HETATM   14  C   UNL     1     -10.197  13.417  66.129  1.00  0.00    -0.301 A  
HETATM   15  C   UNL     1     -11.587  13.273  66.177  1.00  0.00    -0.385 A  
BRANCH   3  16
HETATM   16  C   UNL     1      -7.203  16.660  66.895  1.00  0.00    -0.226 C  
BRANCH  16  17
HETATM   17  C   UNL     1      -8.314  17.600  66.489  1.00  0.00    -0.300 A  
HETATM   18  C   UNL     1      -8.109  18.985  66.443  1.00  0.00    -0.308 A  
HETATM   19  C   UNL     1     -10.582  18.015  65.839  1.00  0.00    -0.219 A  
HETATM   20  C   UNL     1      -9.172  19.810  66.104  1.00  0.00    -0.350 A  
HETATM   21  C   UNL     1      -9.584  17.113  66.175  1.00  0.00    -0.242 A  
HETATM   22  N   UNL     1     -10.404  19.354  65.802  1.00  0.00    -0.506 NA 
ENDBRANCH  16  17
ENDBRANCH   3  16
ENDBRANCH   2   3
TORSDOF 3
ENDMDL
MODEL       77
REMARK 921   NORMALIZED FREE ENERGY PREDICTED BY IDOCK:   -4.34 KCAL/MOL
REMARK 922        TOTAL FREE ENERGY PREDICTED BY IDOCK:   -6.12 KCAL/MOL
REMARK 923 INTER-LIGAND FREE ENERGY PREDICTED BY IDOCK:   -5.58 KCAL/MOL
REMARK 924 INTRA-LIGAND FREE ENERGY PREDICTED BY IDOCK:   -0.53 KCAL/MOL
REMARK 927      BINDING AFFINITY PREDICTED BY RF-SCORE:    0.00 PKD
ROOT
HETATM    1  C   UNL     1      -6.266  11.448  66.952  1.00  0.00    -0.135 C  
HETATM    2  C   UNL     1      -7.269  10.325  67.202  1.00  0.00    -0.090 C  
ENDROOT
BRANCH   2   3
HETATM    3  N   UNL     1      -8.670  10.537  66.783  1.00  0.00    -0.131 N  
HETATM    4  C   UNL     1     -10.114  13.812  66.356  1.00  0.00    -0.297 A  
HETATM    5  C   UNL     1      -9.550  11.195  67.658  1.00  0.00    -0.170 C  
HETATM    6  C   UNL     1     -10.978  11.535  67.180  1.00  0.00    -0.338 C  
HETATM    7  C   UNL     1     -10.254  14.962  65.575  1.00  0.00    -0.401 A  
HETATM    8  O   UNL     1      -9.201  11.564  68.786  1.00  0.00    -0.161 OA 
HETATM    9  C   UNL     1     -11.347  15.103  64.725  1.00  0.00    -0.399 A  
HETATM   10  C   UNL     1     -11.060  12.777  66.294  1.00  0.00    -0.321 A  
HETATM   11  C   UNL     1     -11.901  11.680  68.414  1.00  0.00    -0.278 C  
HETATM   12  H   UNL     1     -12.128  12.867  70.017  1.00  0.00     0.000 HD 
HETATM   13  O   UNL     1     -11.562  12.778  69.260  1.00  0.00    -0.282 OA 
HETATM   14  C   UNL     1     -12.164  12.941  65.437  1.00  0.00    -0.528 A  
HETATM   15  C   UNL     1     -12.306  14.095  64.660  1.00  0.00    -0.432 A  
BRANCH   3  16
HETATM   16  C   UNL     1      -9.231   9.576  65.814  1.00  0.00    -0.211 C  
BRANCH  16  17
HETATM   17  C   UNL     1      -9.547   8.188  66.321  1.00  0.00    -0.248 A  
HETATM   18  C   UNL     1     -10.647   7.956  67.156  1.00  0.00    -0.383 A  
HETATM   19  C   UNL     1      -9.041   5.854  66.507  1.00  0.00    -0.143 A  
HETATM   20  C   UNL     1     -10.872   6.672  67.629  1.00  0.00    -0.315 A  
HETATM   21  C   UNL     1      -8.732   7.103  65.992  1.00  0.00    -0.162 A  
HETATM   22  N   UNL     1     -10.092   5.616  67.323  1.00  0.00    -0.158 NA 
ENDBRANCH  16  17
ENDBRANCH   3  16
ENDBRANCH   2   3
TORSDOF 3
ENDMDL
MODEL       78
REMARK 921   NORMALIZED FREE ENERGY PREDICTED BY IDOCK:   -4.32 KCAL/MOL
REMARK 922        TOTAL FREE ENERGY PREDICTED BY IDOCK:   -6.10 KCAL/MOL
REMARK 923 INTER-LIGAND FREE ENERGY PREDICTED BY IDOCK:   -5.72 KCAL/MOL
REMARK 924 INTRA-LIGAND FREE ENERGY PREDICTED BY IDOCK:   -0.38 KCAL/MOL
REMARK 927      BINDING AFFINITY PREDICTED BY RF-SCORE:    0.00 PKD
ROOT
HETATM    1  C   UNL     1     -11.461  12.822  65.630  1.00  0.00    -0.379 C  
HETATM    2  C   UNL     1     -12.157  12.614  66.972  1.00  0.00    -0.132 C  
ENDROOT
BRANCH   2   3
HETATM    3  N   UNL     1     -11.478  13.099  68.190  1.00  0.00    -0.292 N  
HETATM    4  C   UNL     1     -13.086  15.228  70.614  1.00  0.00    -0.407 A  
HETATM    5  C   UNL     1     -11.291  14.482  68.360  1.00  0.00    -0.289 C  
HETATM    6  C   UNL     1     -10.699  15.008  69.686  1.00  0.00    -0.270 C  
HETATM    7  C   UNL     1     -13.973  15.359  71.686  1.00  0.00    -0.617 A  
HETATM    8  O   UNL     1     -11.637  15.302  67.502  1.00  0.00    -0.316 OA 
HETATM    9  C   UNL     1     -13.497  15.358  72.994  1.00  0.00    -0.604 A  
HETATM   10  C   UNL     1     -11.707  15.085  70.832  1.00  0.00    -0.376 A  
HETATM   11  C   UNL     1     -10.048  16.388  69.433  1.00  0.00    -0.243 C  
HETATM   12  H   UNL     1     -10.578  18.250  68.904  1.00  0.00     0.000 HD 
HETATM   13  O   UNL     1     -10.977  17.403  69.058  1.00  0.00    -0.072 OA 
HETATM   14  C   UNL     1     -11.242  15.098  72.159  1.00  0.00    -0.195 A  
HETATM   15  C   UNL     1     -12.130  15.234  73.231  1.00  0.00    -0.549 A  
BRANCH   3  16
HETATM   16  C   UNL     1     -10.526  12.177  68.839  1.00  0.00    -0.113 C  
BRANCH  16  17
HETATM   17  C   UNL     1      -9.260  11.848  68.083  1.00  0.00    -0.187 A  
HETATM   18  C   UNL     1      -9.054  10.574  67.537  1.00  0.00    -0.144 A  
HETATM   19  C   UNL     1      -7.089  12.441  67.261  1.00  0.00    -0.128 A  
HETATM   20  C   UNL     1      -7.857  10.308  66.888  1.00  0.00    -0.112 A  
HETATM   21  C   UNL     1      -8.248  12.798  67.933  1.00  0.00    -0.168 A  
HETATM   22  N   UNL     1      -6.871  11.214  66.739  1.00  0.00    -0.125 NA 
ENDBRANCH  16  17
ENDBRANCH   3  16
ENDBRANCH   2   3
TORSDOF 3
ENDMDL
MODEL       79
REMARK 921   NORMALIZED FREE ENERGY PREDICTED BY IDOCK:   -4.31 KCAL/MOL
REMARK 922        TOTAL FREE ENERGY PREDICTED BY IDOCK:   -6.09 KCAL/MOL
REMARK 923 INTER-LIGAND FREE ENERGY PREDICTED BY IDOCK:   -6.03 KCAL/MOL
REMARK 924 INTRA-LIGAND FREE ENERGY PREDICTED BY IDOCK:   -0.06 KCAL/MOL
REMARK 927      BINDING AFFINITY PREDICTED BY RF-SCORE:    0.00 PKD
ROOT
HETATM    1  C   UNL     1      -8.164  14.358  68.199  1.00  0.00    -0.149 C  
HETATM    2  C   UNL     1      -9.557  14.618  68.768  1.00  0.00    -0.210 C  
ENDROOT
BRANCH   2   3
HETATM    3  N   UNL     1     -10.724  14.320  67.914  1.00  0.00    -0.238 N  
HETATM    4  C   UNL     1     -10.420  13.148  64.519  1.00  0.00    -0.425 A  
HETATM    5  C   UNL     1     -10.916  15.068  66.739  1.00  0.00    -0.323 C  
HETATM    6  C   UNL     1     -12.058  14.681  65.775  1.00  0.00    -0.201 C  
HETATM    7  C   UNL     1     -10.165  12.093  63.639  1.00  0.00    -0.459 A  
HETATM    8  O   UNL     1     -10.162  15.995  66.421  1.00  0.00    -0.279 OA 
HETATM    9  C   UNL     1     -11.219  11.370  63.087  1.00  0.00    -0.019 A  
HETATM   10  C   UNL     1     -11.735  13.493  64.870  1.00  0.00    -0.381 A  
HETATM   11  C   UNL     1     -12.448  15.921  64.935  1.00  0.00     0.941 C  
HETATM   12  H   UNL     1     -11.654  17.133  63.547  1.00  0.00     0.000 HD 
HETATM   13  O   UNL     1     -11.415  16.373  64.062  1.00  0.00    -1.048 OA 
HETATM   14  C   UNL     1     -12.788  12.759  64.294  1.00  0.00    -0.245 A  
HETATM   15  C   UNL     1     -12.531  11.707  63.409  1.00  0.00    -0.326 A  
BRANCH   3  16
HETATM   16  C   UNL     1     -11.907  13.738  68.576  1.00  0.00    -0.370 C  
BRANCH  16  17
HETATM   17  C   UNL     1     -12.206  14.196  69.984  1.00  0.00    -0.418 A  
HETATM   18  C   UNL     1     -12.585  13.283  70.977  1.00  0.00    -0.408 A  
HETATM   19  C   UNL     1     -12.455  15.926  71.622  1.00  0.00    -0.446 A  
HETATM   20  C   UNL     1     -12.890  13.757  72.244  1.00  0.00    -0.261 A  
HETATM   21  C   UNL     1     -12.140  15.548  70.326  1.00  0.00    -0.415 A  
HETATM   22  N   UNL     1     -12.834  15.059  72.588  1.00  0.00    -0.353 NA 
ENDBRANCH  16  17
ENDBRANCH   3  16
ENDBRANCH   2   3
TORSDOF 3
ENDMDL
MODEL       80
REMARK 921   NORMALIZED FREE ENERGY PREDICTED BY IDOCK:   -4.29 KCAL/MOL
REMARK 922        TOTAL FREE ENERGY PREDICTED BY IDOCK:   -6.07 KCAL/MOL
REMARK 923 INTER-LIGAND FREE ENERGY PREDICTED BY IDOCK:   -4.94 KCAL/MOL
REMARK 924 INTRA-LIGAND FREE ENERGY PREDICTED BY IDOCK:   -1.12 KCAL/MOL
REMARK 927      BINDING AFFINITY PREDICTED BY RF-SCORE:    0.00 PKD
ROOT
HETATM    1  C   UNL     1     -11.580  13.260  64.177  1.00  0.00    -0.451 C  
HETATM    2  C   UNL     1     -12.142  13.234  65.596  1.00  0.00    -0.441 C  
ENDROOT
BRANCH   2   3
HETATM    3  N   UNL     1     -11.187  13.183  66.722  1.00  0.00    -0.289 N  
HETATM    4  C   UNL     1      -8.161  11.226  66.637  1.00  0.00    -0.164 A  
HETATM    5  C   UNL     1     -10.955  11.953  67.362  1.00  0.00    -0.263 C  
HETATM    6  C   UNL     1      -9.866  11.862  68.453  1.00  0.00    -0.201 C  
HETATM    7  C   UNL     1      -6.843  11.084  66.194  1.00  0.00    -0.059 A  
HETATM    8  O   UNL     1     -11.557  10.922  67.041  1.00  0.00    -0.383 OA 
HETATM    9  C   UNL     1      -5.784  11.459  67.015  1.00  0.00    -0.106 A  
HETATM   10  C   UNL     1      -8.443  11.754  67.907  1.00  0.00    -0.154 A  
HETATM   11  C   UNL     1     -10.188  10.671  69.386  1.00  0.00    -0.192 C  
HETATM   12  H   UNL     1     -10.317   8.669  69.314  1.00  0.00     0.000 HD 
HETATM   13  O   UNL     1     -10.120   9.400  68.742  1.00  0.00    -0.180 OA 
HETATM   14  C   UNL     1      -7.360  12.118  68.727  1.00  0.00    -0.090 A  
HETATM   15  C   UNL     1      -6.042  11.970  68.285  1.00  0.00    -0.051 A  
BRANCH   3  16
HETATM   16  C   UNL     1     -10.998  14.424  67.497  1.00  0.00    -0.293 C  
BRANCH  16  17
HETATM   17  C   UNL     1     -10.046  15.453  66.933  1.00  0.00    -0.258 A  
HETATM   18  C   UNL     1      -8.669  15.202  66.862  1.00  0.00    -0.289 A  
HETATM   19  C   UNL     1      -9.597  17.619  66.013  1.00  0.00    -0.103 A  
HETATM   20  C   UNL     1      -7.831  16.194  66.375  1.00  0.00    -0.162 A  
HETATM   21  C   UNL     1     -10.511  16.693  66.492  1.00  0.00    -0.262 A  
HETATM   22  N   UNL     1      -8.265  17.397  65.949  1.00  0.00    -0.552 NA 
ENDBRANCH  16  17
ENDBRANCH   3  16
ENDBRANCH   2   3
TORSDOF 3
ENDMDL
MODEL       81
REMARK 921   NORMALIZED FREE ENERGY PREDICTED BY IDOCK:   -4.27 KCAL/MOL
REMARK 922        TOTAL FREE ENERGY PREDICTED BY IDOCK:   -6.04 KCAL/MOL
REMARK 923 INTER-LIGAND FREE ENERGY PREDICTED BY IDOCK:   -5.05 KCAL/MOL
REMARK 924 INTRA-LIGAND FREE ENERGY PREDICTED BY IDOCK:   -1.00 KCAL/MOL
REMARK 927      BINDING AFFINITY PREDICTED BY RF-SCORE:    0.00 PKD
ROOT
HETATM    1  C   UNL     1     -11.921  13.387  69.427  1.00  0.00    -0.369 C  
HETATM    2  C   UNL     1     -11.604  12.158  68.579  1.00  0.00    -0.315 C  
ENDROOT
BRANCH   2   3
HETATM    3  N   UNL     1     -10.320  12.127  67.851  1.00  0.00    -0.201 N  
HETATM    4  C   UNL     1      -8.918   9.103  66.478  1.00  0.00    -0.178 A  
HETATM    5  C   UNL     1      -9.258  11.371  68.376  1.00  0.00    -0.183 C  
HETATM    6  C   UNL     1      -7.955  11.228  67.560  1.00  0.00    -0.124 C  
HETATM    7  C   UNL     1      -8.917   8.141  65.465  1.00  0.00    -0.082 A  
HETATM    8  O   UNL     1      -9.351  10.766  69.450  1.00  0.00    -0.131 OA 
HETATM    9  C   UNL     1      -8.026   8.242  64.401  1.00  0.00    -0.144 A  
HETATM   10  C   UNL     1      -8.032  10.192  66.439  1.00  0.00    -0.120 A  
HETATM   11  C   UNL     1      -6.789  10.907  68.525  1.00  0.00    -0.059 C  
HETATM   12  H   UNL     1      -6.198   9.447  69.770  1.00  0.00     0.000 HD 
HETATM   13  O   UNL     1      -6.913   9.645  69.177  1.00  0.00    -0.049 OA 
HETATM   14  C   UNL     1      -7.131  10.273  65.362  1.00  0.00    -0.139 A  
HETATM   15  C   UNL     1      -7.127   9.306  64.352  1.00  0.00    -0.094 A  
BRANCH   3  16
HETATM   16  C   UNL     1     -10.000  13.295  67.007  1.00  0.00    -0.238 C  
BRANCH  16  17
HETATM   17  C   UNL     1     -10.785  13.458  65.727  1.00  0.00    -0.280 A  
HETATM   18  C   UNL     1     -11.594  14.581  65.512  1.00  0.00    -0.350 A  
HETATM   19  C   UNL     1     -11.509  12.653  63.589  1.00  0.00    -0.495 A  
HETATM   20  C   UNL     1     -12.328  14.665  64.338  1.00  0.00    -0.398 A  
HETATM   21  C   UNL     1     -10.746  12.477  64.734  1.00  0.00    -0.333 A  
HETATM   22  N   UNL     1     -12.303  13.725  63.373  1.00  0.00    -0.765 NA 
ENDBRANCH  16  17
ENDBRANCH   3  16
ENDBRANCH   2   3
TORSDOF 3
ENDMDL
MODEL       82
REMARK 921   NORMALIZED FREE ENERGY PREDICTED BY IDOCK:   -4.25 KCAL/MOL
REMARK 922        TOTAL FREE ENERGY PREDICTED BY IDOCK:   -6.02 KCAL/MOL
REMARK 923 INTER-LIGAND FREE ENERGY PREDICTED BY IDOCK:   -5.02 KCAL/MOL
REMARK 924 INTRA-LIGAND FREE ENERGY PREDICTED BY IDOCK:   -0.99 KCAL/MOL
REMARK 927      BINDING AFFINITY PREDICTED BY RF-SCORE:    0.00 PKD
ROOT
HETATM    1  C   UNL     1     -12.385  12.423  70.356  1.00  0.00    -0.307 C  
HETATM    2  C   UNL     1     -12.300  10.989  69.840  1.00  0.00    -0.288 C  
ENDROOT
BRANCH   2   3
HETATM    3  N   UNL     1     -11.016  10.273  69.984  1.00  0.00    -0.292 N  
HETATM    4  C   UNL     1     -10.791   6.684  70.230  1.00  0.00    -0.321 A  
HETATM    5  C   UNL     1     -10.786   9.516  71.146  1.00  0.00    -0.338 C  
HETATM    6  C   UNL     1      -9.504   8.662  71.250  1.00  0.00    -0.289 C  
HETATM    7  C   UNL     1     -10.815   5.440  69.593  1.00  0.00    -0.158 A  
HETATM    8  O   UNL     1     -11.606   9.465  72.070  1.00  0.00    -0.342 OA 
HETATM    9  C   UNL     1      -9.626   4.820  69.221  1.00  0.00    -0.243 A  
HETATM   10  C   UNL     1      -9.575   7.335  70.497  1.00  0.00    -0.168 A  
HETATM   11  C   UNL     1      -9.175   8.428  72.744  1.00  0.00    -0.241 C  
HETATM   12  H   UNL     1      -9.950   7.505  74.349  1.00  0.00     0.000 HD 
HETATM   13  O   UNL     1     -10.151   7.649  73.432  1.00  0.00    -0.311 OA 
HETATM   14  C   UNL     1      -8.383   6.688  70.123  1.00  0.00    -0.135 A  
HETATM   15  C   UNL     1      -8.409   5.441  69.491  1.00  0.00    -0.100 A  
BRANCH   3  16
HETATM   16  C   UNL     1      -9.853  10.833  69.269  1.00  0.00    -0.138 C  
BRANCH  16  17
HETATM   17  C   UNL     1      -9.777  10.595  67.779  1.00  0.00    -0.179 A  
HETATM   18  C   UNL     1      -9.473  11.638  66.895  1.00  0.00    -0.195 A  
HETATM   19  C   UNL     1      -9.988   9.168  65.867  1.00  0.00    -0.162 A  
HETATM   20  C   UNL     1      -9.457  11.379  65.533  1.00  0.00    -0.227 A  
HETATM   21  C   UNL     1     -10.036   9.333  67.243  1.00  0.00    -0.291 A  
HETATM   22  N   UNL     1      -9.708  10.167  65.000  1.00  0.00    -0.299 NA 
ENDBRANCH  16  17
ENDBRANCH   3  16
ENDBRANCH   2   3
TORSDOF 3
ENDMDL
MODEL       83
REMARK 921   NORMALIZED FREE ENERGY PREDICTED BY IDOCK:   -4.24 KCAL/MOL
REMARK 922        TOTAL FREE ENERGY PREDICTED BY IDOCK:   -6.01 KCAL/MOL
REMARK 923 INTER-LIGAND FREE ENERGY PREDICTED BY IDOCK:   -5.42 KCAL/MOL
REMARK 924 INTRA-LIGAND FREE ENERGY PREDICTED BY IDOCK:   -0.58 KCAL/MOL
REMARK 927      BINDING AFFINITY PREDICTED BY RF-SCORE:    0.00 PKD
ROOT
HETATM    1  C   UNL     1      -8.662   6.684  66.725  1.00  0.00    -0.121 C  
HETATM    2  C   UNL     1      -8.604   7.668  67.890  1.00  0.00    -0.122 C  
ENDROOT
BRANCH   2   3
HETATM    3  N   UNL     1      -9.496   8.844  67.853  1.00  0.00    -0.141 N  
HETATM    4  C   UNL     1      -9.851  10.944  64.944  1.00  0.00    -0.339 A  
HETATM    5  C   UNL     1      -8.936  10.118  67.654  1.00  0.00    -0.131 C  
HETATM    6  C   UNL     1      -9.869  11.336  67.485  1.00  0.00    -0.195 C  
HETATM    7  C   UNL     1     -10.399  11.141  63.674  1.00  0.00    -0.449 A  
HETATM    8  O   UNL     1      -7.716  10.290  67.552  1.00  0.00    -0.094 OA 
HETATM    9  C   UNL     1     -11.571  11.876  63.522  1.00  0.00    -0.537 A  
HETATM   10  C   UNL     1     -10.472  11.472  66.088  1.00  0.00    -0.296 A  
HETATM   11  C   UNL     1      -9.097  12.619  67.877  1.00  0.00    -0.200 C  
HETATM   12  H   UNL     1      -7.528  13.704  67.254  1.00  0.00     0.000 HD 
HETATM   13  O   UNL     1      -8.002  12.917  67.014  1.00  0.00    -0.131 OA 
HETATM   14  C   UNL     1     -11.650  12.222  65.914  1.00  0.00    -0.450 A  
HETATM   15  C   UNL     1     -12.193  12.422  64.642  1.00  0.00    -0.499 A  
BRANCH   3  16
HETATM   16  C   UNL     1     -10.766   8.745  68.597  1.00  0.00    -0.068 C  
BRANCH  16  17
HETATM   17  C   UNL     1     -10.705   8.175  69.995  1.00  0.00    -0.243 A  
HETATM   18  C   UNL     1      -9.906   8.766  70.982  1.00  0.00    -0.293 A  
HETATM   19  C   UNL     1     -11.312   6.520  71.618  1.00  0.00    -0.285 A  
HETATM   20  C   UNL     1      -9.851   8.181  72.239  1.00  0.00    -0.260 A  
HETATM   21  C   UNL     1     -11.424   7.026  70.332  1.00  0.00    -0.355 A  
HETATM   22  N   UNL     1     -10.536   7.071  72.578  1.00  0.00    -0.214 NA 
ENDBRANCH  16  17
ENDBRANCH   3  16
ENDBRANCH   2   3
TORSDOF 3
ENDMDL
MODEL       84
REMARK 921   NORMALIZED FREE ENERGY PREDICTED BY IDOCK:   -4.21 KCAL/MOL
REMARK 922        TOTAL FREE ENERGY PREDICTED BY IDOCK:   -5.97 KCAL/MOL
REMARK 923 INTER-LIGAND FREE ENERGY PREDICTED BY IDOCK:   -5.78 KCAL/MOL
REMARK 924 INTRA-LIGAND FREE ENERGY PREDICTED BY IDOCK:   -0.19 KCAL/MOL
REMARK 927      BINDING AFFINITY PREDICTED BY RF-SCORE:    0.00 PKD
ROOT
HETATM    1  C   UNL     1     -11.575  12.860  64.159  1.00  0.00    -0.456 C  
HETATM    2  C   UNL     1     -11.439  12.216  65.536  1.00  0.00    -0.343 C  
ENDROOT
BRANCH   2   3
HETATM    3  N   UNL     1     -11.112  13.087  66.683  1.00  0.00    -0.282 N  
HETATM    4  C   UNL     1      -9.958  16.481  66.300  1.00  0.00    -0.346 A  
HETATM    5  C   UNL     1      -9.795  13.556  66.828  1.00  0.00    -0.267 C  
HETATM    6  C   UNL     1      -9.472  14.568  67.948  1.00  0.00    -0.212 C  
HETATM    7  C   UNL     1     -10.257  17.820  66.036  1.00  0.00    -0.296 A  
HETATM    8  O   UNL     1      -8.892  13.227  66.051  1.00  0.00     0.221 OA 
HETATM    9  C   UNL     1     -10.455  18.714  67.085  1.00  0.00    -0.461 A  
HETATM   10  C   UNL     1      -9.862  16.008  67.619  1.00  0.00    -0.235 A  
HETATM   11  C   UNL     1      -7.966  14.473  68.293  1.00  0.00    -0.137 C  
HETATM   12  H   UNL     1      -6.182  14.811  67.439  1.00  0.00     0.000 HD 
HETATM   13  O   UNL     1      -7.106  14.869  67.228  1.00  0.00    -0.189 OA 
HETATM   14  C   UNL     1     -10.054  16.928  68.666  1.00  0.00    -0.291 A  
HETATM   15  C   UNL     1     -10.347  18.269  68.401  1.00  0.00    -0.366 A  
BRANCH   3  16
HETATM   16  C   UNL     1     -11.942  12.939  67.894  1.00  0.00    -0.282 C  
BRANCH  16  17
HETATM   17  C   UNL     1     -11.685  11.731  68.765  1.00  0.00    -0.389 A  
HETATM   18  C   UNL     1     -10.961  10.633  68.283  1.00  0.00    -0.314 A  
HETATM   19  C   UNL     1     -11.955  10.526  70.817  1.00  0.00    -0.370 A  
HETATM   20  C   UNL     1     -10.787   9.531  69.106  1.00  0.00    -0.173 A  
HETATM   21  C   UNL     1     -12.187  11.668  70.066  1.00  0.00    -0.338 A  
HETATM   22  N   UNL     1     -11.268   9.454  70.363  1.00  0.00    -0.254 NA 
ENDBRANCH  16  17
ENDBRANCH   3  16
ENDBRANCH   2   3
TORSDOF 3
ENDMDL
MODEL       85
REMARK 921   NORMALIZED FREE ENERGY PREDICTED BY IDOCK:   -4.21 KCAL/MOL
REMARK 922        TOTAL FREE ENERGY PREDICTED BY IDOCK:   -5.96 KCAL/MOL
REMARK 923 INTER-LIGAND FREE ENERGY PREDICTED BY IDOCK:   -5.64 KCAL/MOL
REMARK 924 INTRA-LIGAND FREE ENERGY PREDICTED BY IDOCK:   -0.32 KCAL/MOL
REMARK 927      BINDING AFFINITY PREDICTED BY RF-SCORE:    0.00 PKD
ROOT
HETATM    1  C   UNL     1      -9.005  16.061  68.194  1.00  0.00    -0.183 C  
HETATM    2  C   UNL     1      -9.387  15.137  69.348  1.00  0.00    -0.175 C  
ENDROOT
BRANCH   2   3
HETATM    3  N   UNL     1     -10.548  14.242  69.168  1.00  0.00    -0.221 N  
HETATM    4  C   UNL     1     -10.568  10.812  70.275  1.00  0.00     0.181 A  
HETATM    5  C   UNL     1     -10.404  13.094  68.371  1.00  0.00    -0.253 C  
HETATM    6  C   UNL     1     -11.570  12.086  68.280  1.00  0.00    -0.394 C  
HETATM    7  C   UNL     1     -10.688   9.898  71.325  1.00  0.00    -0.039 A  
HETATM    8  O   UNL     1      -9.350  12.832  67.780  1.00  0.00    -0.185 OA 
HETATM    9  C   UNL     1     -11.911   9.290  71.591  1.00  0.00    -0.448 A  
HETATM   10  C   UNL     1     -11.675  11.143  69.477  1.00  0.00    -0.405 A  
HETATM   11  C   UNL     1     -11.442  11.286  66.961  1.00  0.00    -0.096 C  
HETATM   12  H   UNL     1     -10.203   9.968  66.092  1.00  0.00     0.000 HD 
HETATM   13  O   UNL     1     -10.282  10.459  66.900  1.00  0.00    -0.209 OA 
HETATM   14  C   UNL     1     -12.902  10.511  69.753  1.00  0.00     0.206 A  
HETATM   15  C   UNL     1     -13.018   9.592  70.800  1.00  0.00    -0.149 A  
BRANCH   3  16
HETATM   16  C   UNL     1     -11.887  14.850  69.288  1.00  0.00    -0.318 C  
BRANCH  16  17
HETATM   17  C   UNL     1     -12.376  15.175  70.681  1.00  0.00    -0.420 A  
HETATM   18  C   UNL     1     -11.475  15.452  71.717  1.00  0.00    -0.497 A  
HETATM   19  C   UNL     1     -14.141  15.451  72.276  1.00  0.00    -0.564 A  
HETATM   20  C   UNL     1     -11.971  15.704  72.987  1.00  0.00    -0.480 A  
HETATM   21  C   UNL     1     -13.740  15.180  70.977  1.00  0.00    -0.450 A  
HETATM   22  N   UNL     1     -13.285  15.709  73.289  1.00  0.00    -0.545 NA 
ENDBRANCH  16  17
ENDBRANCH   3  16
ENDBRANCH   2   3
TORSDOF 3
ENDMDL
MODEL       86
REMARK 921   NORMALIZED FREE ENERGY PREDICTED BY IDOCK:   -4.21 KCAL/MOL
REMARK 922        TOTAL FREE ENERGY PREDICTED BY IDOCK:   -5.96 KCAL/MOL
REMARK 923 INTER-LIGAND FREE ENERGY PREDICTED BY IDOCK:   -4.90 KCAL/MOL
REMARK 924 INTRA-LIGAND FREE ENERGY PREDICTED BY IDOCK:   -1.06 KCAL/MOL
REMARK 927      BINDING AFFINITY PREDICTED BY RF-SCORE:    0.00 PKD
ROOT
HETATM    1  C   UNL     1     -12.165  11.557  70.872  1.00  0.00    -0.425 C  
HETATM    2  C   UNL     1     -12.459  10.898  69.527  1.00  0.00    -0.057 C  
ENDROOT
BRANCH   2   3
HETATM    3  N   UNL     1     -11.315  10.474  68.695  1.00  0.00    -0.265 N  
HETATM    4  C   UNL     1      -8.746  12.747  67.589  1.00  0.00    -0.180 A  
HETATM    5  C   UNL     1     -11.167  11.024  67.411  1.00  0.00    -0.285 C  
HETATM    6  C   UNL     1      -9.908  10.685  66.584  1.00  0.00    -0.245 C  
HETATM    7  C   UNL     1      -7.591  13.476  67.882  1.00  0.00    -0.151 A  
HETATM    8  O   UNL     1     -11.987  11.820  66.938  1.00  0.00    -0.605 OA 
HETATM    9  C   UNL     1      -6.337  12.961  67.565  1.00  0.00    -0.161 A  
HETATM   10  C   UNL     1      -8.667  11.483  66.981  1.00  0.00    -0.169 A  
HETATM   11  C   UNL     1     -10.226  10.877  65.082  1.00  0.00    -0.297 C  
HETATM   12  H   UNL     1     -10.702  12.346  63.799  1.00  0.00     0.000 HD 
HETATM   13  O   UNL     1     -10.507  12.228  64.721  1.00  0.00    -0.276 OA 
HETATM   14  C   UNL     1      -7.392  10.984  66.658  1.00  0.00    -0.143 A  
HETATM   15  C   UNL     1      -6.237  11.717  66.947  1.00  0.00    -0.134 A  
BRANCH   3  16
HETATM   16  C   UNL     1     -10.765   9.129  68.951  1.00  0.00    -0.141 C  
BRANCH  16  17
HETATM   17  C   UNL     1      -9.765   8.994  70.076  1.00  0.00    -0.203 A  
HETATM   18  C   UNL     1     -10.146   8.485  71.324  1.00  0.00    -0.286 A  
HETATM   19  C   UNL     1      -7.566   9.287  70.978  1.00  0.00    -0.059 A  
HETATM   20  C   UNL     1      -9.202   8.420  72.338  1.00  0.00    -0.275 A  
HETATM   21  C   UNL     1      -8.440   9.398  69.908  1.00  0.00    -0.186 A  
HETATM   22  N   UNL     1      -7.921   8.810  72.192  1.00  0.00    -0.362 NA 
ENDBRANCH  16  17
ENDBRANCH   3  16
ENDBRANCH   2   3
TORSDOF 3
ENDMDL
MODEL       87
REMARK 921   NORMALIZED FREE ENERGY PREDICTED BY IDOCK:   -4.18 KCAL/MOL
REMARK 922        TOTAL FREE ENERGY PREDICTED BY IDOCK:   -5.94 KCAL/MOL
REMARK 923 INTER-LIGAND FREE ENERGY PREDICTED BY IDOCK:   -4.90 KCAL/MOL
REMARK 924 INTRA-LIGAND FREE ENERGY PREDICTED BY IDOCK:   -1.04 KCAL/MOL
REMARK 927      BINDING AFFINITY PREDICTED BY RF-SCORE:    0.00 PKD
ROOT
HETATM    1  C   UNL     1     -10.008   5.634  67.340  1.00  0.00    -0.180 C  
HETATM    2  C   UNL     1     -10.720   6.984  67.307  1.00  0.00    -0.342 C  
ENDROOT
BRANCH   2   3
HETATM    3  N   UNL     1      -9.955   8.184  67.700  1.00  0.00    -0.172 N  
HETATM    4  C   UNL     1     -10.920  11.523  66.745  1.00  0.00    -0.347 A  
HETATM    5  C   UNL     1      -9.374   8.980  66.698  1.00  0.00    -0.177 C  
HETATM    6  C   UNL     1      -8.683  10.304  67.089  1.00  0.00    -0.131 C  
HETATM    7  C   UNL     1     -11.753  12.628  66.945  1.00  0.00    -0.453 A  
HETATM    8  O   UNL     1      -9.447   8.684  65.500  1.00  0.00    -0.123 OA 
HETATM    9  C   UNL     1     -11.326  13.696  67.729  1.00  0.00    -0.336 A  
HETATM   10  C   UNL     1      -9.648  11.463  67.337  1.00  0.00    -0.185 A  
HETATM   11  C   UNL     1      -7.650  10.674  65.998  1.00  0.00    -0.142 C  
HETATM   12  H   UNL     1      -7.600  11.193  64.060  1.00  0.00     0.000 HD 
HETATM   13  O   UNL     1      -8.233  10.966  64.730  1.00  0.00    -0.024 OA 
HETATM   14  C   UNL     1      -9.229  12.555  68.118  1.00  0.00    -0.209 A  
HETATM   15  C   UNL     1     -10.061  13.662  68.312  1.00  0.00    -0.240 A  
BRANCH   3  16
HETATM   16  C   UNL     1      -9.329   8.171  69.037  1.00  0.00    -0.147 C  
BRANCH  16  17
HETATM   17  C   UNL     1     -10.222   8.460  70.221  1.00  0.00    -0.204 A  
HETATM   18  C   UNL     1     -10.150   7.687  71.386  1.00  0.00    -0.204 A  
HETATM   19  C   UNL     1     -11.984   9.698  71.270  1.00  0.00    -0.380 A  
HETATM   20  C   UNL     1     -11.019   7.965  72.431  1.00  0.00    -0.325 A  
HETATM   21  C   UNL     1     -11.163   9.490  70.172  1.00  0.00    -0.275 A  
HETATM   22  N   UNL     1     -11.935   8.954  72.397  1.00  0.00    -0.309 NA 
ENDBRANCH  16  17
ENDBRANCH   3  16
ENDBRANCH   2   3
TORSDOF 3
ENDMDL
MODEL       88
REMARK 921   NORMALIZED FREE ENERGY PREDICTED BY IDOCK:   -4.16 KCAL/MOL
REMARK 922        TOTAL FREE ENERGY PREDICTED BY IDOCK:   -5.91 KCAL/MOL
REMARK 923 INTER-LIGAND FREE ENERGY PREDICTED BY IDOCK:   -4.87 KCAL/MOL
REMARK 924 INTRA-LIGAND FREE ENERGY PREDICTED BY IDOCK:   -1.04 KCAL/MOL
REMARK 927      BINDING AFFINITY PREDICTED BY RF-SCORE:    0.00 PKD
ROOT
HETATM    1  C   UNL     1     -11.088  15.199  64.863  1.00  0.00    -0.425 C  
HETATM    2  C   UNL     1     -11.917  13.941  65.111  1.00  0.00    -0.385 C  
ENDROOT
BRANCH   2   3
HETATM    3  N   UNL     1     -11.521  13.054  66.224  1.00  0.00    -0.321 N  
HETATM    4  C   UNL     1      -8.132  11.935  66.727  1.00  0.00    -0.108 A  
HETATM    5  C   UNL     1     -10.995  11.785  65.929  1.00  0.00    -0.304 C  
HETATM    6  C   UNL     1     -10.460  10.903  67.077  1.00  0.00    -0.291 C  
HETATM    7  C   UNL     1      -6.838  12.212  67.177  1.00  0.00    -0.119 A  
HETATM    8  O   UNL     1     -10.894  11.369  64.769  1.00  0.00    -0.306 OA 
HETATM    9  C   UNL     1      -6.444  11.833  68.457  1.00  0.00    -0.056 A  
HETATM   10  C   UNL     1      -9.059  11.282  67.555  1.00  0.00    -0.151 A  
HETATM   11  C   UNL     1     -10.506   9.420  66.636  1.00  0.00    -0.168 C  
HETATM   12  H   UNL     1      -9.663   8.206  65.278  1.00  0.00     0.000 HD 
HETATM   13  O   UNL     1      -9.635   9.116  65.549  1.00  0.00    -0.257 OA 
HETATM   14  C   UNL     1      -8.641  10.897  68.842  1.00  0.00    -0.143 A  
HETATM   15  C   UNL     1      -7.344  11.170  69.288  1.00  0.00    -0.097 A  
BRANCH   3  16
HETATM   16  C   UNL     1     -12.217  13.244  67.511  1.00  0.00    -0.164 C  
BRANCH  16  17
HETATM   17  C   UNL     1     -11.661  14.289  68.450  1.00  0.00    -0.373 A  
HETATM   18  C   UNL     1     -12.453  14.847  69.462  1.00  0.00    -0.123 A  
HETATM   19  C   UNL     1      -9.892  15.731  69.178  1.00  0.00    -0.247 A  
HETATM   20  C   UNL     1     -11.910  15.833  70.272  1.00  0.00    -0.350 A  
HETATM   21  C   UNL     1     -10.349  14.747  68.314  1.00  0.00    -0.238 A  
HETATM   22  N   UNL     1     -10.647  16.287  70.151  1.00  0.00    -0.244 NA 
ENDBRANCH  16  17
ENDBRANCH   3  16
ENDBRANCH   2   3
TORSDOF 3
ENDMDL
MODEL       89
REMARK 921   NORMALIZED FREE ENERGY PREDICTED BY IDOCK:   -4.13 KCAL/MOL
REMARK 922        TOTAL FREE ENERGY PREDICTED BY IDOCK:   -5.88 KCAL/MOL
REMARK 923 INTER-LIGAND FREE ENERGY PREDICTED BY IDOCK:   -4.74 KCAL/MOL
REMARK 924 INTRA-LIGAND FREE ENERGY PREDICTED BY IDOCK:   -1.14 KCAL/MOL
REMARK 927      BINDING AFFINITY PREDICTED BY RF-SCORE:    0.00 PKD
ROOT
HETATM    1  C   UNL     1      -7.896  17.462  66.459  1.00  0.00    -0.320 C  
HETATM    2  C   UNL     1      -8.091  17.544  67.971  1.00  0.00    -0.237 C  
ENDROOT
BRANCH   2   3
HETATM    3  N   UNL     1      -8.574  16.340  68.676  1.00  0.00    -0.210 N  
HETATM    4  C   UNL     1     -11.319  14.335  67.475  1.00  0.00    -0.346 A  
HETATM    5  C   UNL     1      -9.890  16.322  69.169  1.00  0.00    -0.258 C  
HETATM    6  C   UNL     1     -10.446  15.024  69.793  1.00  0.00    -0.204 C  
HETATM    7  C   UNL     1     -11.789  13.365  66.586  1.00  0.00    -0.443 A  
HETATM    8  O   UNL     1     -10.642  17.299  69.070  1.00  0.00    -0.323 OA 
HETATM    9  C   UNL     1     -11.861  12.031  66.976  1.00  0.00    -0.251 A  
HETATM   10  C   UNL     1     -10.903  13.986  68.770  1.00  0.00    -0.279 A  
HETATM   11  C   UNL     1     -11.599  15.385  70.761  1.00  0.00    -0.347 C  
HETATM   12  H   UNL     1     -13.442  16.178  70.707  1.00  0.00     0.000 HD 
HETATM   13  O   UNL     1     -12.735  15.956  70.114  1.00  0.00    -0.301 OA 
HETATM   14  C   UNL     1     -10.992  12.634  69.151  1.00  0.00    -0.195 A  
HETATM   15  C   UNL     1     -11.468  11.666  68.262  1.00  0.00    -0.369 A  
BRANCH   3  16
HETATM   16  C   UNL     1      -7.560  15.507  69.351  1.00  0.00    -0.225 C  
BRANCH  16  17
HETATM   17  C   UNL     1      -7.315  14.126  68.790  1.00  0.00    -0.128 A  
HETATM   18  C   UNL     1      -6.699  13.131  69.559  1.00  0.00     0.023 A  
HETATM   19  C   UNL     1      -7.400  12.543  66.993  1.00  0.00     0.020 A  
HETATM   20  C   UNL     1      -6.459  11.892  68.986  1.00  0.00    -0.086 A  
HETATM   21  C   UNL     1      -7.673  13.813  67.477  1.00  0.00    -0.187 A  
HETATM   22  N   UNL     1      -6.795  11.576  67.719  1.00  0.00    -0.073 NA 
ENDBRANCH  16  17
ENDBRANCH   3  16
ENDBRANCH   2   3
TORSDOF 3
ENDMDL
MODEL       90
REMARK 921   NORMALIZED FREE ENERGY PREDICTED BY IDOCK:   -4.13 KCAL/MOL
REMARK 922        TOTAL FREE ENERGY PREDICTED BY IDOCK:   -5.87 KCAL/MOL
REMARK 923 INTER-LIGAND FREE ENERGY PREDICTED BY IDOCK:   -4.72 KCAL/MOL
REMARK 924 INTRA-LIGAND FREE ENERGY PREDICTED BY IDOCK:   -1.16 KCAL/MOL
REMARK 927      BINDING AFFINITY PREDICTED BY RF-SCORE:    0.00 PKD
ROOT
HETATM    1  C   UNL     1      -6.718  10.923  69.813  1.00  0.00    -0.144 C  
HETATM    2  C   UNL     1      -7.847  10.945  68.786  1.00  0.00    -0.132 C  
ENDROOT
BRANCH   2   3
HETATM    3  N   UNL     1      -8.910   9.927  68.899  1.00  0.00    -0.138 N  
HETATM    4  C   UNL     1      -8.226   6.435  69.478  1.00  0.00    -0.118 A  
HETATM    5  C   UNL     1      -8.959   8.886  67.956  1.00  0.00    -0.140 C  
HETATM    6  C   UNL     1      -9.986   7.747  68.139  1.00  0.00    -0.207 C  
HETATM    7  C   UNL     1      -7.880   5.419  70.372  1.00  0.00    -0.088 A  
HETATM    8  O   UNL     1      -8.167   8.820  67.009  1.00  0.00    -0.102 OA 
HETATM    9  C   UNL     1      -8.869   4.635  70.960  1.00  0.00    -0.149 A  
HETATM   10  C   UNL     1      -9.571   6.691  69.162  1.00  0.00    -0.136 A  
HETATM   11  C   UNL     1     -10.267   7.097  66.763  1.00  0.00    -0.219 C  
HETATM   12  H   UNL     1      -9.309   6.039  65.352  1.00  0.00     0.000 HD 
HETATM   13  O   UNL     1      -9.137   6.438  66.196  1.00  0.00    -0.156 OA 
HETATM   14  C   UNL     1     -10.555   5.882  69.757  1.00  0.00    -0.374 A  
HETATM   15  C   UNL     1     -10.207   4.862  70.648  1.00  0.00    -0.282 A  
BRANCH   3  16
HETATM   16  C   UNL     1     -10.166  10.340  69.554  1.00  0.00    -0.236 C  
BRANCH  16  17
HETATM   17  C   UNL     1     -10.614   9.542  70.756  1.00  0.00    -0.387 A  
HETATM   18  C   UNL     1      -9.687   9.039  71.677  1.00  0.00    -0.347 A  
HETATM   19  C   UNL     1     -12.329   8.496  72.062  1.00  0.00    -0.365 A  
HETATM   20  C   UNL     1     -10.145   8.277  72.742  1.00  0.00    -0.263 A  
HETATM   21  C   UNL     1     -11.966   9.261  70.964  1.00  0.00    -0.369 A  
HETATM   22  N   UNL     1     -11.445   7.994  72.954  1.00  0.00    -0.367 NA 
ENDBRANCH  16  17
ENDBRANCH   3  16
ENDBRANCH   2   3
TORSDOF 3
ENDMDL
MODEL       91
REMARK 921   NORMALIZED FREE ENERGY PREDICTED BY IDOCK:   -4.10 KCAL/MOL
REMARK 922        TOTAL FREE ENERGY PREDICTED BY IDOCK:   -5.84 KCAL/MOL
REMARK 923 INTER-LIGAND FREE ENERGY PREDICTED BY IDOCK:   -5.35 KCAL/MOL
REMARK 924 INTRA-LIGAND FREE ENERGY PREDICTED BY IDOCK:   -0.49 KCAL/MOL
REMARK 927      BINDING AFFINITY PREDICTED BY RF-SCORE:    0.00 PKD
ROOT
HETATM    1  C   UNL     1      -8.915   8.022  67.048  1.00  0.00    -0.156 C  
HETATM    2  C   UNL     1      -8.795   6.774  67.918  1.00  0.00    -0.118 C  
ENDROOT
BRANCH   2   3
HETATM    3  N   UNL     1      -9.587   6.714  69.163  1.00  0.00    -0.136 N  
HETATM    4  C   UNL     1     -10.940   9.644  70.766  1.00  0.00    -0.397 A  
HETATM    5  C   UNL     1      -9.095   7.353  70.314  1.00  0.00    -0.151 C  
HETATM    6  C   UNL     1      -9.973   7.407  71.583  1.00  0.00    -0.193 C  
HETATM    7  C   UNL     1     -11.923  10.637  70.806  1.00  0.00    -0.477 A  
HETATM    8  O   UNL     1      -8.000   7.928  70.329  1.00  0.00    -0.098 OA 
HETATM    9  C   UNL     1     -13.035  10.492  71.631  1.00  0.00    -0.581 A  
HETATM   10  C   UNL     1     -11.057   8.482  71.547  1.00  0.00    -0.343 A  
HETATM   11  C   UNL     1      -9.059   7.589  72.819  1.00  0.00    -0.152 C  
HETATM   12  H   UNL     1      -7.805   8.947  73.600  1.00  0.00     0.000 HD 
HETATM   13  O   UNL     1      -8.365   8.834  72.842  1.00  0.00    -0.414 OA 
HETATM   14  C   UNL     1     -12.181   8.357  72.383  1.00  0.00    -0.430 A  
HETATM   15  C   UNL     1     -13.161   9.354  72.425  1.00  0.00    -0.458 A  
BRANCH   3  16
HETATM   16  C   UNL     1     -10.480   5.552  69.333  1.00  0.00    -0.290 C  
BRANCH  16  17
HETATM   17  C   UNL     1      -9.858   4.271  69.841  1.00  0.00    -0.267 A  
HETATM   18  C   UNL     1      -9.275   3.351  68.960  1.00  0.00    -0.226 A  
HETATM   19  C   UNL     1      -9.322   2.757  71.618  1.00  0.00    -0.124 A  
HETATM   20  C   UNL     1      -8.755   2.171  69.470  1.00  0.00    -0.068 A  
HETATM   21  C   UNL     1      -9.874   3.959  71.201  1.00  0.00    -0.223 A  
HETATM   22  N   UNL     1      -8.766   1.854  70.780  1.00  0.00    -0.052 NA 
ENDBRANCH  16  17
ENDBRANCH   3  16
ENDBRANCH   2   3
TORSDOF 3
ENDMDL
MODEL       92
REMARK 921   NORMALIZED FREE ENERGY PREDICTED BY IDOCK:   -4.09 KCAL/MOL
REMARK 922        TOTAL FREE ENERGY PREDICTED BY IDOCK:   -5.83 KCAL/MOL
REMARK 923 INTER-LIGAND FREE ENERGY PREDICTED BY IDOCK:   -5.68 KCAL/MOL
REMARK 924 INTRA-LIGAND FREE ENERGY PREDICTED BY IDOCK:   -0.15 KCAL/MOL
REMARK 927      BINDING AFFINITY PREDICTED BY RF-SCORE:    0.00 PKD
ROOT
HETATM    1  C   UNL     1     -12.419  15.087  70.467  1.00  0.00    -0.425 C  
HETATM    2  C   UNL     1     -11.312  16.129  70.329  1.00  0.00    -0.353 C  
ENDROOT
BRANCH   2   3
HETATM    3  N   UNL     1     -10.334  15.963  69.235  1.00  0.00    -0.230 N  
HETATM    4  C   UNL     1      -7.942  18.508  68.343  1.00  0.00    -0.337 A  
HETATM    5  C   UNL     1     -10.393  16.832  68.132  1.00  0.00    -0.318 C  
HETATM    6  C   UNL     1      -9.299  16.752  67.046  1.00  0.00    -0.244 C  
HETATM    7  C   UNL     1      -6.740  19.165  68.618  1.00  0.00    -0.312 A  
HETATM    8  O   UNL     1     -11.265  17.703  68.028  1.00  0.00    -0.096 OA 
HETATM    9  C   UNL     1      -5.568  18.781  67.971  1.00  0.00    -0.187 A  
HETATM   10  C   UNL     1      -7.993  17.449  67.423  1.00  0.00    -0.212 A  
HETATM   11  C   UNL     1      -9.862  17.319  65.721  1.00  0.00    -0.027 C  
HETATM   12  H   UNL     1     -10.517  19.059  64.964  1.00  0.00     0.000 HD 
HETATM   13  O   UNL     1     -10.172  18.710  65.777  1.00  0.00    -0.552 OA 
HETATM   14  C   UNL     1      -6.801  17.082  66.771  1.00  0.00    -0.265 A  
HETATM   15  C   UNL     1      -5.600  17.743  67.043  1.00  0.00    -0.168 A  
BRANCH   3  16
HETATM   16  C   UNL     1      -9.775  14.612  69.035  1.00  0.00    -0.160 C  
BRANCH  16  17
HETATM   17  C   UNL     1     -10.253  13.839  67.828  1.00  0.00    -0.241 A  
HETATM   18  C   UNL     1      -9.344  13.287  66.916  1.00  0.00    -0.244 A  
HETATM   19  C   UNL     1     -12.009  12.987  66.439  1.00  0.00    -0.402 A  
HETATM   20  C   UNL     1      -9.832  12.621  65.802  1.00  0.00    -0.228 A  
HETATM   21  C   UNL     1     -11.617  13.676  67.576  1.00  0.00    -0.384 A  
HETATM   22  N   UNL     1     -11.145  12.460  65.544  1.00  0.00    -0.290 NA 
ENDBRANCH  16  17
ENDBRANCH   3  16
ENDBRANCH   2   3
TORSDOF 3
ENDMDL
MODEL       93
REMARK 921   NORMALIZED FREE ENERGY PREDICTED BY IDOCK:   -4.08 KCAL/MOL
REMARK 922        TOTAL FREE ENERGY PREDICTED BY IDOCK:   -5.82 KCAL/MOL
REMARK 923 INTER-LIGAND FREE ENERGY PREDICTED BY IDOCK:   -5.17 KCAL/MOL
REMARK 924 INTRA-LIGAND FREE ENERGY PREDICTED BY IDOCK:   -0.65 KCAL/MOL
REMARK 927      BINDING AFFINITY PREDICTED BY RF-SCORE:    0.00 PKD
ROOT
HETATM    1  C   UNL     1      -6.482   8.079  69.678  1.00  0.00    -0.037 C  
HETATM    2  C   UNL     1      -7.814   8.783  69.923  1.00  0.00    -0.093 C  
ENDROOT
BRANCH   2   3
HETATM    3  N   UNL     1      -9.030   7.953  70.033  1.00  0.00    -0.145 N  
HETATM    4  C   UNL     1     -11.802   8.814  72.170  1.00  0.00    -0.436 A  
HETATM    5  C   UNL     1      -9.352   7.380  71.276  1.00  0.00    -0.153 C  
HETATM    6  C   UNL     1     -10.685   6.619  71.434  1.00  0.00    -0.264 C  
HETATM    7  C   UNL     1     -12.943   9.590  72.390  1.00  0.00    -0.396 A  
HETATM    8  O   UNL     1      -8.627   7.513  72.268  1.00  0.00    -0.110 OA 
HETATM    9  C   UNL     1     -14.204   9.088  72.082  1.00  0.00    -0.409 A  
HETATM   10  C   UNL     1     -11.902   7.523  71.627  1.00  0.00    -0.322 A  
HETATM   11  C   UNL     1     -10.556   5.616  72.606  1.00  0.00    -0.225 C  
HETATM   12  H   UNL     1     -10.295   5.621  74.596  1.00  0.00     0.000 HD 
HETATM   13  O   UNL     1     -10.374   6.236  73.877  1.00  0.00    -0.257 OA 
HETATM   14  C   UNL     1     -13.184   7.027  71.331  1.00  0.00    -0.352 A  
HETATM   15  C   UNL     1     -14.325   7.803  71.558  1.00  0.00    -0.574 A  
BRANCH   3  16
HETATM   16  C   UNL     1      -9.492   7.275  68.807  1.00  0.00    -0.142 C  
BRANCH  16  17
HETATM   17  C   UNL     1      -9.580   8.107  67.549  1.00  0.00    -0.196 A  
HETATM   18  C   UNL     1      -8.728   7.869  66.463  1.00  0.00    -0.162 A  
HETATM   19  C   UNL     1     -10.520   9.913  66.286  1.00  0.00    -0.101 A  
HETATM   20  C   UNL     1      -8.819   8.686  65.346  1.00  0.00    -0.155 A  
HETATM   21  C   UNL     1     -10.497   9.155  67.447  1.00  0.00    -0.339 A  
HETATM   22  N   UNL     1      -9.696   9.703  65.235  1.00  0.00    -0.299 NA 
ENDBRANCH  16  17
ENDBRANCH   3  16
ENDBRANCH   2   3
TORSDOF 3
ENDMDL
MODEL       94
REMARK 921   NORMALIZED FREE ENERGY PREDICTED BY IDOCK:   -4.06 KCAL/MOL
REMARK 922        TOTAL FREE ENERGY PREDICTED BY IDOCK:   -5.79 KCAL/MOL
REMARK 923 INTER-LIGAND FREE ENERGY PREDICTED BY IDOCK:   -4.82 KCAL/MOL
REMARK 924 INTRA-LIGAND FREE ENERGY PREDICTED BY IDOCK:   -0.97 KCAL/MOL
REMARK 927      BINDING AFFINITY PREDICTED BY RF-SCORE:    0.00 PKD
ROOT
HETATM    1  C   UNL     1      -7.761  10.905  68.312  1.00  0.00    -0.111 C  
HETATM    2  C   UNL     1      -8.076  10.426  69.726  1.00  0.00    -0.044 C  
ENDROOT
BRANCH   2   3
HETATM    3  N   UNL     1      -8.939   9.237  69.882  1.00  0.00    -0.166 N  
HETATM    4  C   UNL     1      -8.771   7.057  72.748  1.00  0.00    -0.136 A  
HETATM    5  C   UNL     1      -8.342   7.967  69.946  1.00  0.00    -0.122 C  
HETATM    6  C   UNL     1      -9.222   6.732  70.238  1.00  0.00    -0.156 C  
HETATM    7  C   UNL     1      -9.092   6.819  74.087  1.00  0.00    -0.219 A  
HETATM    8  O   UNL     1      -7.121   7.808  69.833  1.00  0.00    -0.059 OA 
HETATM    9  C   UNL     1     -10.214   6.065  74.417  1.00  0.00    -0.309 A  
HETATM   10  C   UNL     1      -9.575   6.551  71.713  1.00  0.00    -0.158 A  
HETATM   11  C   UNL     1      -8.518   5.470  69.683  1.00  0.00    -0.101 C  
HETATM   12  H   UNL     1      -6.855   4.390  69.997  1.00  0.00     0.000 HD 
HETATM   13  O   UNL     1      -7.288   5.164  70.337  1.00  0.00    -0.059 OA 
HETATM   14  C   UNL     1     -10.699   5.782  72.064  1.00  0.00    -0.285 A  
HETATM   15  C   UNL     1     -11.015   5.540  73.405  1.00  0.00    -0.324 A  
BRANCH   3  16
HETATM   16  C   UNL     1     -10.319   9.340  69.370  1.00  0.00    -0.215 C  
BRANCH  16  17
HETATM   17  C   UNL     1     -11.323  10.070  70.230  1.00  0.00    -0.376 A  
HETATM   18  C   UNL     1     -12.054   9.397  71.217  1.00  0.00    -0.424 A  
HETATM   19  C   UNL     1     -12.524  12.053  70.835  1.00  0.00    -0.288 A  
HETATM   20  C   UNL     1     -12.995  10.101  71.954  1.00  0.00    -0.447 A  
HETATM   21  C   UNL     1     -11.569  11.432  70.044  1.00  0.00    -0.382 A  
HETATM   22  N   UNL     1     -13.246  11.415  71.783  1.00  0.00    -0.439 NA 
ENDBRANCH  16  17
ENDBRANCH   3  16
ENDBRANCH   2   3
TORSDOF 3
ENDMDL
MODEL       95
REMARK 921   NORMALIZED FREE ENERGY PREDICTED BY IDOCK:   -4.06 KCAL/MOL
REMARK 922        TOTAL FREE ENERGY PREDICTED BY IDOCK:   -5.79 KCAL/MOL
REMARK 923 INTER-LIGAND FREE ENERGY PREDICTED BY IDOCK:   -4.61 KCAL/MOL
REMARK 924 INTRA-LIGAND FREE ENERGY PREDICTED BY IDOCK:   -1.19 KCAL/MOL
REMARK 927      BINDING AFFINITY PREDICTED BY RF-SCORE:    0.00 PKD
ROOT
HETATM    1  C   UNL     1      -7.380   6.956  74.137  1.00  0.00    -0.101 C  
HETATM    2  C   UNL     1      -8.893   7.149  74.103  1.00  0.00    -0.210 C  
ENDROOT
BRANCH   2   3
HETATM    3  N   UNL     1      -9.647   6.541  72.987  1.00  0.00    -0.149 N  
HETATM    4  C   UNL     1     -10.350   8.290  69.915  1.00  0.00    -0.218 A  
HETATM    5  C   UNL     1     -10.870   7.115  72.600  1.00  0.00    -0.279 C  
HETATM    6  C   UNL     1     -11.602   6.568  71.355  1.00  0.00    -0.371 C  
HETATM    7  C   UNL     1      -9.902   8.749  68.673  1.00  0.00    -0.180 A  
HETATM    8  O   UNL     1     -11.356   8.086  73.191  1.00  0.00    -0.317 OA 
HETATM    9  C   UNL     1     -10.140   8.004  67.522  1.00  0.00    -0.281 A  
HETATM   10  C   UNL     1     -11.037   7.071  70.028  1.00  0.00    -0.316 A  
HETATM   11  C   UNL     1     -13.109   6.899  71.472  1.00  0.00    -0.281 C  
HETATM   12  H   UNL     1     -14.320   8.499  71.510  1.00  0.00     0.000 HD 
HETATM   13  O   UNL     1     -13.395   8.295  71.438  1.00  0.00    -0.293 OA 
HETATM   14  C   UNL     1     -11.279   6.337  68.853  1.00  0.00    -0.387 A  
HETATM   15  C   UNL     1     -10.835   6.800  67.610  1.00  0.00    -0.361 A  
BRANCH   3  16
HETATM   16  C   UNL     1      -9.440   5.101  72.746  1.00  0.00    -0.142 C  
BRANCH  16  17
HETATM   17  C   UNL     1      -8.900   4.697  71.394  1.00  0.00    -0.151 A  
HETATM   18  C   UNL     1      -7.892   5.439  70.766  1.00  0.00    -0.095 A  
HETATM   19  C   UNL     1      -8.911   3.271  69.468  1.00  0.00    -0.113 A  
HETATM   20  C   UNL     1      -7.459   5.052  69.507  1.00  0.00    -0.057 A  
HETATM   21  C   UNL     1      -9.414   3.585  70.722  1.00  0.00    -0.240 A  
HETATM   22  N   UNL     1      -7.947   3.985  68.844  1.00  0.00    -0.067 NA 
ENDBRANCH  16  17
ENDBRANCH   3  16
ENDBRANCH   2   3
TORSDOF 3
ENDMDL
MODEL       96
REMARK 921   NORMALIZED FREE ENERGY PREDICTED BY IDOCK:   -4.06 KCAL/MOL
REMARK 922        TOTAL FREE ENERGY PREDICTED BY IDOCK:   -5.79 KCAL/MOL
REMARK 923 INTER-LIGAND FREE ENERGY PREDICTED BY IDOCK:   -5.63 KCAL/MOL
REMARK 924 INTRA-LIGAND FREE ENERGY PREDICTED BY IDOCK:   -0.16 KCAL/MOL
REMARK 927      BINDING AFFINITY PREDICTED BY RF-SCORE:    0.00 PKD
ROOT
HETATM    1  C   UNL     1     -10.957  13.124  65.993  1.00  0.00    -0.295 C  
HETATM    2  C   UNL     1     -10.285  14.433  65.589  1.00  0.00    -0.350 C  
ENDROOT
BRANCH   2   3
HETATM    3  N   UNL     1      -9.879  15.366  66.659  1.00  0.00    -0.245 N  
HETATM    4  C   UNL     1      -6.910  17.401  66.464  1.00  0.00    -0.289 A  
HETATM    5  C   UNL     1      -8.659  15.151  67.323  1.00  0.00    -0.198 C  
HETATM    6  C   UNL     1      -8.165  16.190  68.353  1.00  0.00    -0.172 C  
HETATM    7  C   UNL     1      -6.271  18.533  65.952  1.00  0.00    -0.260 A  
HETATM    8  O   UNL     1      -7.935  14.181  67.070  1.00  0.00    -0.129 OA 
HETATM    9  C   UNL     1      -6.217  19.706  66.699  1.00  0.00    -0.172 A  
HETATM   10  C   UNL     1      -7.516  17.425  67.731  1.00  0.00    -0.195 A  
HETATM   11  C   UNL     1      -7.194  15.498  69.340  1.00  0.00    -0.204 C  
HETATM   12  H   UNL     1      -5.395  14.609  69.337  1.00  0.00     0.000 HD 
HETATM   13  O   UNL     1      -5.991  15.034  68.732  1.00  0.00    -0.082 OA 
HETATM   14  C   UNL     1      -7.442  18.616  68.476  1.00  0.00    -0.326 A  
HETATM   15  C   UNL     1      -6.797  19.746  67.965  1.00  0.00    -0.297 A  
BRANCH   3  16
HETATM   16  C   UNL     1     -10.958  16.065  67.383  1.00  0.00    -0.237 C  
BRANCH  16  17
HETATM   17  C   UNL     1     -11.330  15.536  68.748  1.00  0.00    -0.339 A  
HETATM   18  C   UNL     1     -11.906  14.268  68.901  1.00  0.00    -0.372 A  
HETATM   19  C   UNL     1     -11.521  15.797  71.122  1.00  0.00    -0.414 A  
HETATM   20  C   UNL     1     -12.268  13.844  70.171  1.00  0.00    -0.358 A  
HETATM   21  C   UNL     1     -11.134  16.310  69.894  1.00  0.00    -0.347 A  
HETATM   22  N   UNL     1     -12.088  14.581  71.284  1.00  0.00    -0.345 NA 
ENDBRANCH  16  17
ENDBRANCH   3  16
ENDBRANCH   2   3
TORSDOF 3
ENDMDL
MODEL       97
REMARK 921   NORMALIZED FREE ENERGY PREDICTED BY IDOCK:   -4.03 KCAL/MOL
REMARK 922        TOTAL FREE ENERGY PREDICTED BY IDOCK:   -5.76 KCAL/MOL
REMARK 923 INTER-LIGAND FREE ENERGY PREDICTED BY IDOCK:   -5.15 KCAL/MOL
REMARK 924 INTRA-LIGAND FREE ENERGY PREDICTED BY IDOCK:   -0.61 KCAL/MOL
REMARK 927      BINDING AFFINITY PREDICTED BY RF-SCORE:    0.00 PKD
ROOT
HETATM    1  C   UNL     1     -11.014   4.551  73.696  1.00  0.00    -0.382 C  
HETATM    2  C   UNL     1     -10.970   5.938  73.060  1.00  0.00    -0.268 C  
ENDROOT
BRANCH   2   3
HETATM    3  N   UNL     1     -10.762   6.029  71.601  1.00  0.00    -0.243 N  
HETATM    4  C   UNL     1      -8.936   3.551  69.725  1.00  0.00    -0.174 A  
HETATM    5  C   UNL     1      -9.452   6.137  71.105  1.00  0.00    -0.167 C  
HETATM    6  C   UNL     1      -9.215   6.103  69.580  1.00  0.00    -0.148 C  
HETATM    7  C   UNL     1      -8.909   2.290  69.125  1.00  0.00    -0.146 A  
HETATM    8  O   UNL     1      -8.470   6.203  71.854  1.00  0.00    -0.127 OA 
HETATM    9  C   UNL     1      -9.175   2.153  67.765  1.00  0.00    -0.217 A  
HETATM   10  C   UNL     1      -9.240   4.700  68.976  1.00  0.00    -0.183 A  
HETATM   11  C   UNL     1      -7.877   6.813  69.263  1.00  0.00    -0.110 C  
HETATM   12  H   UNL     1      -5.911   6.582  69.597  1.00  0.00     0.000 HD 
HETATM   13  O   UNL     1      -6.733   6.146  69.792  1.00  0.00    -0.048 OA 
HETATM   14  C   UNL     1      -9.496   4.545  67.601  1.00  0.00    -0.196 A  
HETATM   15  C   UNL     1      -9.462   3.282  67.001  1.00  0.00    -0.161 A  
BRANCH   3  16
HETATM   16  C   UNL     1     -11.864   6.598  70.802  1.00  0.00    -0.383 C  
BRANCH  16  17
HETATM   17  C   UNL     1     -12.284   8.015  71.115  1.00  0.00    -0.262 A  
HETATM   18  C   UNL     1     -11.508   9.107  70.705  1.00  0.00    -0.337 A  
HETATM   19  C   UNL     1     -13.775   9.587  72.138  1.00  0.00    -0.372 A  
HETATM   20  C   UNL     1     -11.914  10.386  71.052  1.00  0.00    -0.382 A  
HETATM   21  C   UNL     1     -13.446   8.272  71.846  1.00  0.00    -0.372 A  
HETATM   22  N   UNL     1     -13.030  10.650  71.760  1.00  0.00    -0.471 NA 
ENDBRANCH  16  17
ENDBRANCH   3  16
ENDBRANCH   2   3
TORSDOF 3
ENDMDL
MODEL       98
REMARK 921   NORMALIZED FREE ENERGY PREDICTED BY IDOCK:   -4.03 KCAL/MOL
REMARK 922        TOTAL FREE ENERGY PREDICTED BY IDOCK:   -5.75 KCAL/MOL
REMARK 923 INTER-LIGAND FREE ENERGY PREDICTED BY IDOCK:   -5.14 KCAL/MOL
REMARK 924 INTRA-LIGAND FREE ENERGY PREDICTED BY IDOCK:   -0.61 KCAL/MOL
REMARK 927      BINDING AFFINITY PREDICTED BY RF-SCORE:    0.00 PKD
ROOT
HETATM    1  C   UNL     1     -11.236   9.215  70.462  1.00  0.00    -0.309 C  
HETATM    2  C   UNL     1     -10.408   9.478  69.207  1.00  0.00    -0.208 C  
ENDROOT
BRANCH   2   3
HETATM    3  N   UNL     1     -10.027  10.873  68.905  1.00  0.00    -0.196 N  
HETATM    4  C   UNL     1     -12.109  13.696  69.730  1.00  0.00    -0.396 A  
HETATM    5  C   UNL     1     -10.826  11.621  68.025  1.00  0.00    -0.215 C  
HETATM    6  C   UNL     1     -10.511  13.116  67.802  1.00  0.00    -0.232 C  
HETATM    7  C   UNL     1     -12.585  14.587  70.696  1.00  0.00    -0.416 A  
HETATM    8  O   UNL     1     -11.815  11.137  67.462  1.00  0.00    -0.591 OA 
HETATM    9  C   UNL     1     -11.985  15.832  70.859  1.00  0.00    -0.453 A  
HETATM   10  C   UNL     1     -11.017  14.033  68.914  1.00  0.00    -0.283 A  
HETATM   11  C   UNL     1     -11.079  13.551  66.430  1.00  0.00    -0.302 C  
HETATM   12  H   UNL     1     -12.851  13.764  65.512  1.00  0.00     0.000 HD 
HETATM   13  O   UNL     1     -12.502  13.497  66.353  1.00  0.00    -0.380 OA 
HETATM   14  C   UNL     1     -10.431  15.300  69.084  1.00  0.00    -0.247 A  
HETATM   15  C   UNL     1     -10.911  16.192  70.048  1.00  0.00    -0.364 A  
BRANCH   3  16
HETATM   16  C   UNL     1      -8.596  11.214  69.016  1.00  0.00    -0.024 C  
BRANCH  16  17
HETATM   17  C   UNL     1      -7.660  10.611  67.995  1.00  0.00    -0.091 A  
HETATM   18  C   UNL     1      -6.884   9.485  68.301  1.00  0.00    -0.062 A  
HETATM   19  C   UNL     1      -6.628  10.610  65.833  1.00  0.00    -0.118 A  
HETATM   20  C   UNL     1      -6.009   8.993  67.344  1.00  0.00    -0.050 A  
HETATM   21  C   UNL     1      -7.523  11.178  66.727  1.00  0.00    -0.146 A  
HETATM   22  N   UNL     1      -5.864   9.531  66.117  1.00  0.00    -0.056 NA 
ENDBRANCH  16  17
ENDBRANCH   3  16
ENDBRANCH   2   3
TORSDOF 3
ENDMDL
MODEL       99
REMARK 921   NORMALIZED FREE ENERGY PREDICTED BY IDOCK:   -4.02 KCAL/MOL
REMARK 922        TOTAL FREE ENERGY PREDICTED BY IDOCK:   -5.75 KCAL/MOL
REMARK 923 INTER-LIGAND FREE ENERGY PREDICTED BY IDOCK:   -5.19 KCAL/MOL
REMARK 924 INTRA-LIGAND FREE ENERGY PREDICTED BY IDOCK:   -0.56 KCAL/MOL
REMARK 927      BINDING AFFINITY PREDICTED BY RF-SCORE:    0.00 PKD
ROOT
HETATM    1  C   UNL     1      -7.039  10.188  70.314  1.00  0.00    -0.146 C  
HETATM    2  C   UNL     1      -8.210  10.209  69.335  1.00  0.00    -0.166 C  
ENDROOT
BRANCH   2   3
HETATM    3  N   UNL     1      -9.407   9.410  69.664  1.00  0.00    -0.176 N  
HETATM    4  C   UNL     1      -9.256   6.341  71.549  1.00  0.00    -0.149 A  
HETATM    5  C   UNL     1      -9.511   8.101  69.162  1.00  0.00    -0.155 C  
HETATM    6  C   UNL     1     -10.694   7.213  69.604  1.00  0.00    -0.256 C  
HETATM    7  C   UNL     1      -9.132   5.706  72.788  1.00  0.00    -0.130 A  
HETATM    8  O   UNL     1      -8.652   7.613  68.418  1.00  0.00    -0.125 OA 
HETATM    9  C   UNL     1     -10.267   5.293  73.481  1.00  0.00    -0.229 A  
HETATM   10  C   UNL     1     -10.519   6.583  70.985  1.00  0.00    -0.260 A  
HETATM   11  C   UNL     1     -10.934   6.125  68.531  1.00  0.00    -0.320 C  
HETATM   12  H   UNL     1     -10.004   4.532  67.739  1.00  0.00     0.000 HD 
HETATM   13  O   UNL     1      -9.857   5.201  68.397  1.00  0.00    -0.140 OA 
HETATM   14  C   UNL     1     -11.654   6.149  71.694  1.00  0.00    -0.317 A  
HETATM   15  C   UNL     1     -11.528   5.509  72.931  1.00  0.00    -0.327 A  
BRANCH   3  16
HETATM   16  C   UNL     1     -10.649  10.152  69.951  1.00  0.00    -0.285 C  
BRANCH  16  17
HETATM   17  C   UNL     1     -11.047  11.236  68.977  1.00  0.00    -0.301 A  
HETATM   18  C   UNL     1     -11.296  12.544  69.412  1.00  0.00    -0.275 A  
HETATM   19  C   UNL     1     -11.604  11.972  66.766  1.00  0.00    -0.321 A  
HETATM   20  C   UNL     1     -11.700  13.494  68.486  1.00  0.00    -0.357 A  
HETATM   21  C   UNL     1     -11.205  10.954  67.618  1.00  0.00    -0.379 A  
HETATM   22  N   UNL     1     -11.859  13.236  67.172  1.00  0.00    -0.372 NA 
ENDBRANCH  16  17
ENDBRANCH   3  16
ENDBRANCH   2   3
TORSDOF 3
ENDMDL
MODEL      100
REMARK 921   NORMALIZED FREE ENERGY PREDICTED BY IDOCK:   -4.01 KCAL/MOL
REMARK 922        TOTAL FREE ENERGY PREDICTED BY IDOCK:   -5.74 KCAL/MOL
REMARK 923 INTER-LIGAND FREE ENERGY PREDICTED BY IDOCK:   -4.59 KCAL/MOL
REMARK 924 INTRA-LIGAND FREE ENERGY PREDICTED BY IDOCK:   -1.14 KCAL/MOL
REMARK 927      BINDING AFFINITY PREDICTED BY RF-SCORE:    0.00 PKD
ROOT
HETATM    1  C   UNL     1      -6.978  10.333  64.011  1.00  0.00    -0.049 C  
HETATM    2  C   UNL     1      -7.449   9.819  65.368  1.00  0.00    -0.121 C  
ENDROOT
BRANCH   2   3
HETATM    3  N   UNL     1      -8.802  10.195  65.824  1.00  0.00    -0.152 N  
HETATM    4  C   UNL     1      -9.410  12.888  68.142  1.00  0.00    -0.214 A  
HETATM    5  C   UNL     1      -9.116  10.083  67.189  1.00  0.00    -0.138 C  
HETATM    6  C   UNL     1     -10.482  10.594  67.695  1.00  0.00    -0.267 C  
HETATM    7  C   UNL     1      -9.517  14.262  68.374  1.00  0.00    -0.213 A  
HETATM    8  O   UNL     1      -8.310   9.639  68.014  1.00  0.00    -0.116 OA 
HETATM    9  C   UNL     1     -10.764  14.880  68.365  1.00  0.00    -0.245 A  
HETATM   10  C   UNL     1     -10.550  12.108  67.887  1.00  0.00    -0.230 A  
HETATM   11  C   UNL     1     -10.840   9.858  69.009  1.00  0.00    -0.215 C  
HETATM   12  H   UNL     1     -10.174   9.697  70.896  1.00  0.00     0.000 HD 
HETATM   13  O   UNL     1      -9.955  10.148  70.089  1.00  0.00    -0.229 OA 
HETATM   14  C   UNL     1     -11.803  12.748  67.893  1.00  0.00    -0.392 A  
HETATM   15  C   UNL     1     -11.909  14.122  68.131  1.00  0.00    -0.387 A  
BRANCH   3  16
HETATM   16  C   UNL     1      -9.896  10.080  64.840  1.00  0.00    -0.281 C  
BRANCH  16  17
HETATM   17  C   UNL     1     -10.692  11.329  64.544  1.00  0.00    -0.390 A  
HETATM   18  C   UNL     1     -10.073  12.584  64.480  1.00  0.00    -0.273 A  
HETATM   19  C   UNL     1     -12.770  12.443  64.115  1.00  0.00    -0.347 A  
HETATM   20  C   UNL     1     -10.854  13.706  64.246  1.00  0.00    -0.280 A  
HETATM   21  C   UNL     1     -12.074  11.267  64.352  1.00  0.00     0.568 A  
HETATM   22  N   UNL     1     -12.189  13.663  64.062  1.00  0.00    -0.621 NA 
ENDBRANCH  16  17
ENDBRANCH   3  16
ENDBRANCH   2   3
TORSDOF 3
ENDMDL
MODEL      101
REMARK 921   NORMALIZED FREE ENERGY PREDICTED BY IDOCK:   -3.97 KCAL/MOL
REMARK 922        TOTAL FREE ENERGY PREDICTED BY IDOCK:   -5.69 KCAL/MOL
REMARK 923 INTER-LIGAND FREE ENERGY PREDICTED BY IDOCK:   -4.87 KCAL/MOL
REMARK 924 INTRA-LIGAND FREE ENERGY PREDICTED BY IDOCK:   -0.82 KCAL/MOL
REMARK 927      BINDING AFFINITY PREDICTED BY RF-SCORE:    0.00 PKD
ROOT
HETATM    1  C   UNL     1      -6.605  11.476  67.031  1.00  0.00    -0.138 C  
HETATM    2  C   UNL     1      -7.252  11.022  68.336  1.00  0.00    -0.085 C  
ENDROOT
BRANCH   2   3
HETATM    3  N   UNL     1      -8.161   9.858  68.295  1.00  0.00    -0.108 N  
HETATM    4  C   UNL     1      -9.783   8.534  71.229  1.00  0.00    -0.270 A  
HETATM    5  C   UNL     1      -7.812   8.697  69.005  1.00  0.00    -0.100 C  
HETATM    6  C   UNL     1      -8.813   7.523  69.073  1.00  0.00    -0.132 C  
HETATM    7  C   UNL     1     -10.804   8.637  72.178  1.00  0.00    -0.424 A  
HETATM    8  O   UNL     1      -6.748   8.602  69.627  1.00  0.00    -0.039 OA 
HETATM    9  C   UNL     1     -11.985   7.918  72.019  1.00  0.00    -0.364 A  
HETATM   10  C   UNL     1      -9.930   7.715  70.098  1.00  0.00    -0.186 A  
HETATM   11  C   UNL     1      -8.035   6.214  69.349  1.00  0.00    -0.104 C  
HETATM   12  H   UNL     1      -6.919   5.378  70.793  1.00  0.00     0.000 HD 
HETATM   13  O   UNL     1      -7.396   6.182  70.623  1.00  0.00    -0.081 OA 
HETATM   14  C   UNL     1     -11.126   6.987  69.959  1.00  0.00    -0.316 A  
HETATM   15  C   UNL     1     -12.144   7.087  70.912  1.00  0.00    -0.403 A  
BRANCH   3  16
HETATM   16  C   UNL     1      -9.020   9.722  67.103  1.00  0.00    -0.135 C  
BRANCH  16  17
HETATM   17  C   UNL     1     -10.095  10.763  66.902  1.00  0.00    -0.255 A  
HETATM   18  C   UNL     1     -10.859  11.231  67.979  1.00  0.00    -0.266 A  
HETATM   19  C   UNL     1     -11.392  12.198  65.489  1.00  0.00    -0.344 A  
HETATM   20  C   UNL     1     -11.863  12.157  67.738  1.00  0.00    -0.257 A  
HETATM   21  C   UNL     1     -10.374  11.268  65.631  1.00  0.00    -0.310 A  
HETATM   22  N   UNL     1     -12.146  12.650  66.516  1.00  0.00    -0.552 NA 
ENDBRANCH  16  17
ENDBRANCH   3  16
ENDBRANCH   2   3
TORSDOF 3
ENDMDL
MODEL      102
REMARK 921   NORMALIZED FREE ENERGY PREDICTED BY IDOCK:   -3.97 KCAL/MOL
REMARK 922        TOTAL FREE ENERGY PREDICTED BY IDOCK:   -5.68 KCAL/MOL
REMARK 923 INTER-LIGAND FREE ENERGY PREDICTED BY IDOCK:   -5.08 KCAL/MOL
REMARK 924 INTRA-LIGAND FREE ENERGY PREDICTED BY IDOCK:   -0.60 KCAL/MOL
REMARK 927      BINDING AFFINITY PREDICTED BY RF-SCORE:    0.00 PKD
ROOT
HETATM    1  C   UNL     1      -9.543  10.441  65.518  1.00  0.00    -0.290 C  
HETATM    2  C   UNL     1     -10.495  11.157  66.472  1.00  0.00    -0.255 C  
ENDROOT
BRANCH   2   3
HETATM    3  N   UNL     1     -10.235  11.054  67.922  1.00  0.00    -0.178 N  
HETATM    4  C   UNL     1     -10.944   8.083  69.835  1.00  0.00    -0.172 A  
HETATM    5  C   UNL     1     -11.317  10.847  68.795  1.00  0.00    -0.292 C  
HETATM    6  C   UNL     1     -11.043  10.610  70.296  1.00  0.00    -0.310 C  
HETATM    7  C   UNL     1     -10.577   6.787  70.207  1.00  0.00    -0.251 A  
HETATM    8  O   UNL     1     -12.484  10.791  68.392  1.00  0.00    -0.179 OA 
HETATM    9  C   UNL     1      -9.871   6.569  71.387  1.00  0.00    -0.191 A  
HETATM   10  C   UNL     1     -10.603   9.187  70.633  1.00  0.00    -0.305 A  
HETATM   11  C   UNL     1     -12.303  11.001  71.105  1.00  0.00    -0.359 C  
HETATM   12  H   UNL     1     -14.209  10.416  71.335  1.00  0.00     0.000 HD 
HETATM   13  O   UNL     1     -13.436  10.176  70.839  1.00  0.00    -0.345 OA 
HETATM   14  C   UNL     1      -9.898   8.947  71.827  1.00  0.00    -0.386 A  
HETATM   15  C   UNL     1      -9.537   7.649  72.201  1.00  0.00    -0.207 A  
BRANCH   3  16
HETATM   16  C   UNL     1      -9.040  11.749  68.438  1.00  0.00    -0.176 C  
BRANCH  16  17
HETATM   17  C   UNL     1      -8.908  13.222  68.128  1.00  0.00    -0.187 A  
HETATM   18  C   UNL     1      -7.748  13.734  67.533  1.00  0.00    -0.187 A  
HETATM   19  C   UNL     1      -9.753  15.463  68.177  1.00  0.00    -0.212 A  
HETATM   20  C   UNL     1      -7.658  15.099  67.305  1.00  0.00    -0.203 A  
HETATM   21  C   UNL     1      -9.931  14.115  68.451  1.00  0.00    -0.235 A  
HETATM   22  N   UNL     1      -8.635  15.975  67.615  1.00  0.00    -0.164 NA 
ENDBRANCH  16  17
ENDBRANCH   3  16
ENDBRANCH   2   3
TORSDOF 3
ENDMDL
MODEL      103
REMARK 921   NORMALIZED FREE ENERGY PREDICTED BY IDOCK:   -3.94 KCAL/MOL
REMARK 922        TOTAL FREE ENERGY PREDICTED BY IDOCK:   -5.65 KCAL/MOL
REMARK 923 INTER-LIGAND FREE ENERGY PREDICTED BY IDOCK:   -5.28 KCAL/MOL
REMARK 924 INTRA-LIGAND FREE ENERGY PREDICTED BY IDOCK:   -0.36 KCAL/MOL
REMARK 927      BINDING AFFINITY PREDICTED BY RF-SCORE:    0.00 PKD
ROOT
HETATM    1  C   UNL     1     -13.281  11.481  71.995  1.00  0.00    -0.443 C  
HETATM    2  C   UNL     1     -12.575  10.250  71.431  1.00  0.00    -0.434 C  
ENDROOT
BRANCH   2   3
HETATM    3  N   UNL     1     -11.404  10.459  70.556  1.00  0.00    -0.329 N  
HETATM    4  C   UNL     1     -10.610  13.648  69.074  1.00  0.00    -0.147 A  
HETATM    5  C   UNL     1     -11.613  10.849  69.222  1.00  0.00    -0.318 C  
HETATM    6  C   UNL     1     -10.397  11.195  68.335  1.00  0.00    -0.201 C  
HETATM    7  C   UNL     1     -10.075  14.931  69.218  1.00  0.00    -0.201 A  
HETATM    8  O   UNL     1     -12.747  10.981  68.746  1.00  0.00    -0.155 OA 
HETATM    9  C   UNL     1      -8.757  15.186  68.853  1.00  0.00    -0.205 A  
HETATM   10  C   UNL     1      -9.831  12.594  68.571  1.00  0.00    -0.152 A  
HETATM   11  C   UNL     1     -10.787  11.003  66.850  1.00  0.00    -0.269 C  
HETATM   12  H   UNL     1     -12.034  11.788  65.487  1.00  0.00     0.000 HD 
HETATM   13  O   UNL     1     -11.795  11.906  66.399  1.00  0.00    -0.561 OA 
HETATM   14  C   UNL     1      -8.503  12.872  68.197  1.00  0.00    -0.176 A  
HETATM   15  C   UNL     1      -7.972  14.158  68.337  1.00  0.00    -0.142 A  
BRANCH   3  16
HETATM   16  C   UNL     1     -10.180   9.703  70.882  1.00  0.00    -0.232 C  
BRANCH  16  17
HETATM   17  C   UNL     1     -10.067   8.301  70.330  1.00  0.00    -0.199 A  
HETATM   18  C   UNL     1      -8.850   7.816  69.833  1.00  0.00    -0.142 A  
HETATM   19  C   UNL     1     -11.037   6.194  69.731  1.00  0.00    -0.416 A  
HETATM   20  C   UNL     1      -8.806   6.537  69.299  1.00  0.00    -0.132 A  
HETATM   21  C   UNL     1     -11.180   7.461  70.276  1.00  0.00    -0.268 A  
HETATM   22  N   UNL     1      -9.873   5.716  69.237  1.00  0.00    -0.161 NA 
ENDBRANCH  16  17
ENDBRANCH   3  16
ENDBRANCH   2   3
TORSDOF 3
ENDMDL
MODEL      104
REMARK 921   NORMALIZED FREE ENERGY PREDICTED BY IDOCK:   -3.92 KCAL/MOL
REMARK 922        TOTAL FREE ENERGY PREDICTED BY IDOCK:   -5.63 KCAL/MOL
REMARK 923 INTER-LIGAND FREE ENERGY PREDICTED BY IDOCK:   -5.06 KCAL/MOL
REMARK 924 INTRA-LIGAND FREE ENERGY PREDICTED BY IDOCK:   -0.56 KCAL/MOL
REMARK 927      BINDING AFFINITY PREDICTED BY RF-SCORE:    0.00 PKD
ROOT
HETATM    1  C   UNL     1      -8.810   5.939  67.444  1.00  0.00    -0.106 C  
HETATM    2  C   UNL     1      -9.766   7.120  67.587  1.00  0.00    -0.143 C  
ENDROOT
BRANCH   2   3
HETATM    3  N   UNL     1      -9.858   7.785  68.903  1.00  0.00    -0.162 N  
HETATM    4  C   UNL     1      -9.426   6.027  72.020  1.00  0.00    -0.161 A  
HETATM    5  C   UNL     1     -10.865   7.386  69.798  1.00  0.00    -0.234 C  
HETATM    6  C   UNL     1     -10.892   7.982  71.222  1.00  0.00    -0.267 C  
HETATM    7  C   UNL     1      -8.563   5.450  72.955  1.00  0.00    -0.122 A  
HETATM    8  O   UNL     1     -11.705   6.528  69.502  1.00  0.00    -0.329 OA 
HETATM    9  C   UNL     1      -8.160   6.170  74.076  1.00  0.00    -0.105 A  
HETATM   10  C   UNL     1      -9.895   7.340  72.185  1.00  0.00    -0.185 A  
HETATM   11  C   UNL     1     -12.332   7.890  71.779  1.00  0.00    -0.320 C  
HETATM   12  H   UNL     1     -13.674   6.495  72.313  1.00  0.00     0.000 HD 
HETATM   13  O   UNL     1     -12.790   6.553  71.970  1.00  0.00    -0.276 OA 
HETATM   14  C   UNL     1      -9.487   8.049  73.329  1.00  0.00    -0.336 A  
HETATM   15  C   UNL     1      -8.627   7.469  74.267  1.00  0.00    -0.270 A  
BRANCH   3  16
HETATM   16  C   UNL     1      -9.345   9.165  68.993  1.00  0.00    -0.151 C  
BRANCH  16  17
HETATM   17  C   UNL     1     -10.230  10.268  68.460  1.00  0.00    -0.192 A  
HETATM   18  C   UNL     1     -11.055  11.009  69.315  1.00  0.00    -0.312 A  
HETATM   19  C   UNL     1     -11.120  11.556  66.647  1.00  0.00    -0.295 A  
HETATM   20  C   UNL     1     -11.880  11.983  68.773  1.00  0.00    -0.302 A  
HETATM   21  C   UNL     1     -10.268  10.558  67.095  1.00  0.00    -0.270 A  
HETATM   22  N   UNL     1     -11.931  12.272  67.457  1.00  0.00    -0.528 NA 
ENDBRANCH  16  17
ENDBRANCH   3  16
ENDBRANCH   2   3
TORSDOF 3
ENDMDL
MODEL      105
REMARK 921   NORMALIZED FREE ENERGY PREDICTED BY IDOCK:   -3.91 KCAL/MOL
REMARK 922        TOTAL FREE ENERGY PREDICTED BY IDOCK:   -5.62 KCAL/MOL
REMARK 923 INTER-LIGAND FREE ENERGY PREDICTED BY IDOCK:   -4.52 KCAL/MOL
REMARK 924 INTRA-LIGAND FREE ENERGY PREDICTED BY IDOCK:   -1.10 KCAL/MOL
REMARK 927      BINDING AFFINITY PREDICTED BY RF-SCORE:    0.00 PKD
ROOT
HETATM    1  C   UNL     1     -11.612  11.871  63.816  1.00  0.00    -0.555 C  
HETATM    2  C   UNL     1     -11.646  11.984  65.337  1.00  0.00    -0.286 C  
ENDROOT
BRANCH   2   3
HETATM    3  N   UNL     1     -10.626  11.249  66.112  1.00  0.00    -0.258 N  
HETATM    4  C   UNL     1     -11.028   7.812  67.120  1.00  0.00    -0.047 A  
HETATM    5  C   UNL     1     -10.955  10.775  67.394  1.00  0.00    -0.300 C  
HETATM    6  C   UNL     1      -9.941   9.898  68.159  1.00  0.00    -0.175 C  
HETATM    7  C   UNL     1     -10.993   6.457  66.781  1.00  0.00    -0.321 A  
HETATM    8  O   UNL     1     -12.058  10.990  67.910  1.00  0.00    -0.600 OA 
HETATM    9  C   UNL     1      -9.854   5.699  67.036  1.00  0.00    -0.172 A  
HETATM   10  C   UNL     1      -9.919   8.437  67.713  1.00  0.00    -0.236 A  
HETATM   11  C   UNL     1     -10.229  10.004  69.676  1.00  0.00    -0.239 C  
HETATM   12  H   UNL     1     -11.668   9.530  70.992  1.00  0.00     0.000 HD 
HETATM   13  O   UNL     1     -11.492   9.465  70.061  1.00  0.00    -0.194 OA 
HETATM   14  C   UNL     1      -8.780   7.653  67.973  1.00  0.00    -0.125 A  
HETATM   15  C   UNL     1      -8.748   6.296  67.638  1.00  0.00    -0.113 A  
BRANCH   3  16
HETATM   16  C   UNL     1      -9.213  11.558  65.820  1.00  0.00    -0.196 C  
BRANCH  16  17
HETATM   17  C   UNL     1      -8.390  10.473  65.166  1.00  0.00    -0.150 A  
HETATM   18  C   UNL     1      -6.991  10.480  65.245  1.00  0.00    -0.045 A  
HETATM   19  C   UNL     1      -8.205   8.493  63.831  1.00  0.00    -0.127 A  
HETATM   20  C   UNL     1      -6.278   9.485  64.594  1.00  0.00    -0.082 A  
HETATM   21  C   UNL     1      -9.002   9.449  64.442  1.00  0.00    -0.215 A  
HETATM   22  N   UNL     1      -6.854   8.492  63.888  1.00  0.00    -0.079 NA 
ENDBRANCH  16  17
ENDBRANCH   3  16
ENDBRANCH   2   3
TORSDOF 3
ENDMDL
MODEL      106
REMARK 921   NORMALIZED FREE ENERGY PREDICTED BY IDOCK:   -3.91 KCAL/MOL
REMARK 922        TOTAL FREE ENERGY PREDICTED BY IDOCK:   -5.62 KCAL/MOL
REMARK 923 INTER-LIGAND FREE ENERGY PREDICTED BY IDOCK:   -4.45 KCAL/MOL
REMARK 924 INTRA-LIGAND FREE ENERGY PREDICTED BY IDOCK:   -1.17 KCAL/MOL
REMARK 927      BINDING AFFINITY PREDICTED BY RF-SCORE:    0.00 PKD
ROOT
HETATM    1  C   UNL     1     -12.932   8.150  71.990  1.00  0.00    -0.329 C  
HETATM    2  C   UNL     1     -11.627   7.823  72.711  1.00  0.00    -0.314 C  
ENDROOT
BRANCH   2   3
HETATM    3  N   UNL     1     -10.447   7.478  71.893  1.00  0.00    -0.200 N  
HETATM    4  C   UNL     1     -10.700   5.988  68.620  1.00  0.00    -0.363 A  
HETATM    5  C   UNL     1     -10.222   6.133  71.554  1.00  0.00    -0.203 C  
HETATM    6  C   UNL     1      -9.067   5.777  70.594  1.00  0.00    -0.164 C  
HETATM    7  C   UNL     1     -10.952   6.143  67.255  1.00  0.00    -0.418 A  
HETATM    8  O   UNL     1     -10.956   5.223  71.957  1.00  0.00    -0.208 OA 
HETATM    9  C   UNL     1      -9.898   6.312  66.361  1.00  0.00    -0.128 A  
HETATM   10  C   UNL     1      -9.387   6.010  69.119  1.00  0.00    -0.136 A  
HETATM   11  C   UNL     1      -8.643   4.309  70.839  1.00  0.00    -0.084 C  
HETATM   12  H   UNL     1      -9.393   2.456  70.661  1.00  0.00     0.000 HD 
HETATM   13  O   UNL     1      -9.652   3.357  70.512  1.00  0.00    -0.173 OA 
HETATM   14  C   UNL     1      -8.334   6.172  68.201  1.00  0.00    -0.114 A  
HETATM   15  C   UNL     1      -8.588   6.321  66.834  1.00  0.00    -0.113 A  
BRANCH   3  16
HETATM   16  C   UNL     1      -9.285   8.384  71.978  1.00  0.00    -0.234 C  
BRANCH  16  17
HETATM   17  C   UNL     1      -9.021   9.283  70.793  1.00  0.00    -0.292 A  
HETATM   18  C   UNL     1      -7.717   9.661  70.448  1.00  0.00    -0.178 A  
HETATM   19  C   UNL     1      -9.788  10.632  68.967  1.00  0.00    -0.205 A  
HETATM   20  C   UNL     1      -7.529  10.521  69.376  1.00  0.00    -0.141 A  
HETATM   21  C   UNL     1     -10.075   9.784  70.026  1.00  0.00    -0.301 A  
HETATM   22  N   UNL     1      -8.536  11.015  68.629  1.00  0.00    -0.154 NA 
ENDBRANCH  16  17
ENDBRANCH   3  16
ENDBRANCH   2   3
TORSDOF 3
ENDMDL
MODEL      107
REMARK 921   NORMALIZED FREE ENERGY PREDICTED BY IDOCK:   -3.91 KCAL/MOL
REMARK 922        TOTAL FREE ENERGY PREDICTED BY IDOCK:   -5.62 KCAL/MOL
REMARK 923 INTER-LIGAND FREE ENERGY PREDICTED BY IDOCK:   -4.48 KCAL/MOL
REMARK 924 INTRA-LIGAND FREE ENERGY PREDICTED BY IDOCK:   -1.13 KCAL/MOL
REMARK 927      BINDING AFFINITY PREDICTED BY RF-SCORE:    0.00 PKD
ROOT
HETATM    1  C   UNL     1     -12.178  14.933  70.368  1.00  0.00    -0.393 C  
HETATM    2  C   UNL     1     -11.053  15.945  70.169  1.00  0.00    -0.365 C  
ENDROOT
BRANCH   2   3
HETATM    3  N   UNL     1     -10.223  15.832  68.952  1.00  0.00    -0.209 N  
HETATM    4  C   UNL     1      -8.285  18.573  67.640  1.00  0.00    -0.267 A  
HETATM    5  C   UNL     1     -10.532  16.632  67.840  1.00  0.00    -0.322 C  
HETATM    6  C   UNL     1      -9.597  16.616  66.612  1.00  0.00    -0.280 C  
HETATM    7  C   UNL     1      -7.139  19.369  67.716  1.00  0.00    -0.276 A  
HETATM    8  O   UNL     1     -11.504  17.397  67.831  1.00  0.00     0.156 OA 
HETATM    9  C   UNL     1      -6.031  19.083  66.923  1.00  0.00    -0.169 A  
HETATM   10  C   UNL     1      -8.340  17.469  66.774  1.00  0.00    -0.277 A  
HETATM   11  C   UNL     1     -10.399  17.051  65.362  1.00  0.00    -0.063 C  
HETATM   12  H   UNL     1     -11.348  18.668  64.646  1.00  0.00     0.000 HD 
HETATM   13  O   UNL     1     -10.856  18.401  65.413  1.00  0.00    -0.577 OA 
HETATM   14  C   UNL     1      -7.216  17.201  65.971  1.00  0.00    -0.149 A  
HETATM   15  C   UNL     1      -6.072  18.002  66.045  1.00  0.00    -0.266 A  
BRANCH   3  16
HETATM   16  C   UNL     1      -9.546  14.541  68.722  1.00  0.00    -0.193 C  
BRANCH  16  17
HETATM   17  C   UNL     1      -8.035  14.538  68.750  1.00  0.00    -0.142 A  
HETATM   18  C   UNL     1      -7.327  15.332  69.662  1.00  0.00    -0.188 A  
HETATM   19  C   UNL     1      -5.920  13.817  67.887  1.00  0.00    -0.142 A  
HETATM   20  C   UNL     1      -5.941  15.326  69.620  1.00  0.00    -0.123 A  
HETATM   21  C   UNL     1      -7.305  13.763  67.847  1.00  0.00    -0.155 A  
HETATM   22  N   UNL     1      -5.222  14.586  68.753  1.00  0.00    -0.086 NA 
ENDBRANCH  16  17
ENDBRANCH   3  16
ENDBRANCH   2   3
TORSDOF 3
ENDMDL
MODEL      108
REMARK 921   NORMALIZED FREE ENERGY PREDICTED BY IDOCK:   -3.91 KCAL/MOL
REMARK 922        TOTAL FREE ENERGY PREDICTED BY IDOCK:   -5.61 KCAL/MOL
REMARK 923 INTER-LIGAND FREE ENERGY PREDICTED BY IDOCK:   -5.03 KCAL/MOL
REMARK 924 INTRA-LIGAND FREE ENERGY PREDICTED BY IDOCK:   -0.58 KCAL/MOL
REMARK 927      BINDING AFFINITY PREDICTED BY RF-SCORE:    0.00 PKD
ROOT
HETATM    1  C   UNL     1     -10.640   5.636  66.983  1.00  0.00    -0.358 C  
HETATM    2  C   UNL     1     -10.141   6.043  68.367  1.00  0.00    -0.164 C  
ENDROOT
BRANCH   2   3
HETATM    3  N   UNL     1     -10.369   7.434  68.808  1.00  0.00    -0.196 N  
HETATM    4  C   UNL     1     -10.183  10.254  66.571  1.00  0.00    -0.289 A  
HETATM    5  C   UNL     1      -9.319   8.362  68.701  1.00  0.00    -0.143 C  
HETATM    6  C   UNL     1      -9.585   9.845  69.038  1.00  0.00    -0.188 C  
HETATM    7  C   UNL     1     -10.781  11.025  65.571  1.00  0.00    -0.218 A  
HETATM    8  O   UNL     1      -8.198   8.042  68.289  1.00  0.00    -0.120 OA 
HETATM    9  C   UNL     1     -11.477  12.185  65.901  1.00  0.00    -0.418 A  
HETATM   10  C   UNL     1     -10.280  10.624  67.923  1.00  0.00    -0.206 A  
HETATM   11  C   UNL     1      -8.247  10.520  69.427  1.00  0.00    -0.119 C  
HETATM   12  H   UNL     1      -6.483  10.999  68.597  1.00  0.00     0.000 HD 
HETATM   13  O   UNL     1      -7.304  10.585  68.359  1.00  0.00    -0.081 OA 
HETATM   14  C   UNL     1     -10.978  11.804  68.237  1.00  0.00    -0.274 A  
HETATM   15  C   UNL     1     -11.571  12.578  67.234  1.00  0.00    -0.434 A  
BRANCH   3  16
HETATM   16  C   UNL     1     -11.390   7.646  69.851  1.00  0.00    -0.003 C  
BRANCH  16  17
HETATM   17  C   UNL     1     -11.045   7.209  71.256  1.00  0.00    -0.275 A  
HETATM   18  C   UNL     1     -10.466   8.100  72.169  1.00  0.00    -0.352 A  
HETATM   19  C   UNL     1     -10.905   5.530  72.959  1.00  0.00    -0.274 A  
HETATM   20  C   UNL     1     -10.129   7.641  73.433  1.00  0.00    -0.319 A  
HETATM   21  C   UNL     1     -11.269   5.895  71.672  1.00  0.00    -0.300 A  
HETATM   22  N   UNL     1     -10.336   6.375  73.848  1.00  0.00    -0.301 NA 
ENDBRANCH  16  17
ENDBRANCH   3  16
ENDBRANCH   2   3
TORSDOF 3
ENDMDL
MODEL      109
REMARK 921   NORMALIZED FREE ENERGY PREDICTED BY IDOCK:   -3.88 KCAL/MOL
REMARK 922        TOTAL FREE ENERGY PREDICTED BY IDOCK:   -5.58 KCAL/MOL
REMARK 923 INTER-LIGAND FREE ENERGY PREDICTED BY IDOCK:   -4.49 KCAL/MOL
REMARK 924 INTRA-LIGAND FREE ENERGY PREDICTED BY IDOCK:   -1.09 KCAL/MOL
REMARK 927      BINDING AFFINITY PREDICTED BY RF-SCORE:    0.00 PKD
ROOT
HETATM    1  C   UNL     1     -10.113  11.670  66.143  1.00  0.00    -0.259 C  
HETATM    2  C   UNL     1     -10.393  10.347  66.850  1.00  0.00    -0.240 C  
ENDROOT
BRANCH   2   3
HETATM    3  N   UNL     1     -10.175  10.277  68.309  1.00  0.00    -0.153 N  
HETATM    4  C   UNL     1     -11.481   7.618  70.361  1.00  0.00    -0.192 A  
HETATM    5  C   UNL     1     -11.286  10.337  69.167  1.00  0.00    -0.186 C  
HETATM    6  C   UNL     1     -11.082  10.137  70.684  1.00  0.00    -0.397 C  
HETATM    7  C   UNL     1     -11.383   6.298  70.810  1.00  0.00    -0.397 A  
HETATM    8  O   UNL     1     -12.437  10.489  68.741  1.00  0.00    -0.161 OA 
HETATM    9  C   UNL     1     -10.747   6.012  72.015  1.00  0.00    -0.281 A  
HETATM   10  C   UNL     1     -10.937   8.676  71.107  1.00  0.00    -0.320 A  
HETATM   11  C   UNL     1     -12.249  10.814  71.442  1.00  0.00    -0.269 C  
HETATM   12  H   UNL     1     -14.236  10.630  71.661  1.00  0.00     0.000 HD 
HETATM   13  O   UNL     1     -13.520  10.215  71.196  1.00  0.00    -0.342 OA 
HETATM   14  C   UNL     1     -10.308   8.370  72.327  1.00  0.00    -0.403 A  
HETATM   15  C   UNL     1     -10.215   7.049  72.778  1.00  0.00    -0.227 A  
BRANCH   3  16
HETATM   16  C   UNL     1      -8.872  10.751  68.814  1.00  0.00    -0.163 C  
BRANCH  16  17
HETATM   17  C   UNL     1      -7.888   9.702  69.278  1.00  0.00    -0.098 A  
HETATM   18  C   UNL     1      -6.900  10.005  70.224  1.00  0.00    -0.147 A  
HETATM   19  C   UNL     1      -6.978   7.488  69.184  1.00  0.00    -0.072 A  
HETATM   20  C   UNL     1      -5.994   9.019  70.586  1.00  0.00    -0.038 A  
HETATM   21  C   UNL     1      -7.921   8.408  68.753  1.00  0.00    -0.120 A  
HETATM   22  N   UNL     1      -6.011   7.768  70.086  1.00  0.00    -0.023 NA 
ENDBRANCH  16  17
ENDBRANCH   3  16
ENDBRANCH   2   3
TORSDOF 3
ENDMDL
MODEL      110
REMARK 921   NORMALIZED FREE ENERGY PREDICTED BY IDOCK:   -3.87 KCAL/MOL
REMARK 922        TOTAL FREE ENERGY PREDICTED BY IDOCK:   -5.57 KCAL/MOL
REMARK 923 INTER-LIGAND FREE ENERGY PREDICTED BY IDOCK:   -5.00 KCAL/MOL
REMARK 924 INTRA-LIGAND FREE ENERGY PREDICTED BY IDOCK:   -0.57 KCAL/MOL
REMARK 927      BINDING AFFINITY PREDICTED BY RF-SCORE:    0.00 PKD
ROOT
HETATM    1  C   UNL     1     -11.991   9.886  71.466  1.00  0.00    -0.473 C  
HETATM    2  C   UNL     1     -11.134   9.291  70.352  1.00  0.00    -0.255 C  
ENDROOT
BRANCH   2   3
HETATM    3  N   UNL     1     -10.340  10.215  69.516  1.00  0.00    -0.225 N  
HETATM    4  C   UNL     1     -11.131  13.715  69.172  1.00  0.00    -0.275 A  
HETATM    5  C   UNL     1     -10.957  10.841  68.419  1.00  0.00    -0.248 C  
HETATM    6  C   UNL     1     -10.177  11.904  67.617  1.00  0.00    -0.215 C  
HETATM    7  C   UNL     1     -11.099  15.005  69.710  1.00  0.00    -0.297 A  
HETATM    8  O   UNL     1     -12.131  10.609  68.106  1.00  0.00    -0.403 OA 
HETATM    9  C   UNL     1     -10.081  15.886  69.357  1.00  0.00    -0.267 A  
HETATM   10  C   UNL     1     -10.139  13.281  68.278  1.00  0.00    -0.250 A  
HETATM   11  C   UNL     1     -10.771  11.995  66.191  1.00  0.00    -0.275 C  
HETATM   12  H   UNL     1     -12.479  12.530  65.283  1.00  0.00     0.000 HD 
HETATM   13  O   UNL     1     -12.114  12.473  66.157  1.00  0.00    -0.571 OA 
HETATM   14  C   UNL     1      -9.124  14.189  67.924  1.00  0.00    -0.189 A  
HETATM   15  C   UNL     1      -9.097  15.481  68.459  1.00  0.00    -0.196 A  
BRANCH   3  16
HETATM   16  C   UNL     1      -8.883   9.990  69.467  1.00  0.00    -0.195 C  
BRANCH  16  17
HETATM   17  C   UNL     1      -8.399   8.751  68.751  1.00  0.00    -0.124 A  
HETATM   18  C   UNL     1      -8.132   8.769  67.376  1.00  0.00    -0.105 A  
HETATM   19  C   UNL     1      -7.816   6.428  68.732  1.00  0.00    -0.109 A  
HETATM   20  C   UNL     1      -7.730   7.596  66.755  1.00  0.00    -0.102 A  
HETATM   21  C   UNL     1      -8.231   7.547  69.437  1.00  0.00    -0.130 A  
HETATM   22  N   UNL     1      -7.566   6.426  67.404  1.00  0.00    -0.098 NA 
ENDBRANCH  16  17
ENDBRANCH   3  16
ENDBRANCH   2   3
TORSDOF 3
ENDMDL
MODEL      111
REMARK 921   NORMALIZED FREE ENERGY PREDICTED BY IDOCK:   -3.87 KCAL/MOL
REMARK 922        TOTAL FREE ENERGY PREDICTED BY IDOCK:   -5.56 KCAL/MOL
REMARK 923 INTER-LIGAND FREE ENERGY PREDICTED BY IDOCK:   -4.43 KCAL/MOL
REMARK 924 INTRA-LIGAND FREE ENERGY PREDICTED BY IDOCK:   -1.13 KCAL/MOL
REMARK 927      BINDING AFFINITY PREDICTED BY RF-SCORE:    0.00 PKD
ROOT
HETATM    1  C   UNL     1     -11.899  12.854  66.187  1.00  0.00    -0.487 C  
HETATM    2  C   UNL     1     -11.689  12.692  67.691  1.00  0.00    -0.361 C  
ENDROOT
BRANCH   2   3
HETATM    3  N   UNL     1     -10.626  11.776  68.150  1.00  0.00    -0.195 N  
HETATM    4  C   UNL     1     -10.780   8.204  67.688  1.00  0.00    -0.203 A  
HETATM    5  C   UNL     1     -10.933  10.808  69.122  1.00  0.00    -0.244 C  
HETATM    6  C   UNL     1      -9.865   9.765  69.514  1.00  0.00    -0.230 C  
HETATM    7  C   UNL     1     -10.639   7.104  66.839  1.00  0.00    -0.371 A  
HETATM    8  O   UNL     1     -12.054  10.727  69.636  1.00  0.00    -0.308 OA 
HETATM    9  C   UNL     1      -9.449   6.382  66.816  1.00  0.00    -0.176 A  
HETATM   10  C   UNL     1      -9.727   8.610  68.524  1.00  0.00    -0.174 A  
HETATM   11  C   UNL     1     -10.177   9.236  70.935  1.00  0.00    -0.301 C  
HETATM   12  H   UNL     1     -11.592   8.184  71.894  1.00  0.00     0.000 HD 
HETATM   13  O   UNL     1     -11.400   8.509  71.022  1.00  0.00    -0.259 OA 
HETATM   14  C   UNL     1      -8.536   7.863  68.497  1.00  0.00    -0.128 A  
HETATM   15  C   UNL     1      -8.398   6.758  67.651  1.00  0.00    -0.123 A  
BRANCH   3  16
HETATM   16  C   UNL     1      -9.237  12.266  68.062  1.00  0.00    -0.195 C  
BRANCH  16  17
HETATM   17  C   UNL     1      -8.280  11.481  67.195  1.00  0.00    -0.161 A  
HETATM   18  C   UNL     1      -6.991  11.165  67.643  1.00  0.00    -0.084 A  
HETATM   19  C   UNL     1      -7.727  10.383  65.139  1.00  0.00    -0.110 A  
HETATM   20  C   UNL     1      -6.136  10.479  66.794  1.00  0.00    -0.068 A  
HETATM   21  C   UNL     1      -8.649  11.073  65.912  1.00  0.00    -0.165 A  
HETATM   22  N   UNL     1      -6.476  10.082  65.552  1.00  0.00    -0.088 NA 
ENDBRANCH  16  17
ENDBRANCH   3  16
ENDBRANCH   2   3
TORSDOF 3
ENDMDL
MODEL      112
REMARK 921   NORMALIZED FREE ENERGY PREDICTED BY IDOCK:   -3.83 KCAL/MOL
REMARK 922        TOTAL FREE ENERGY PREDICTED BY IDOCK:   -5.53 KCAL/MOL
REMARK 923 INTER-LIGAND FREE ENERGY PREDICTED BY IDOCK:   -5.21 KCAL/MOL
REMARK 924 INTRA-LIGAND FREE ENERGY PREDICTED BY IDOCK:   -0.31 KCAL/MOL
REMARK 927      BINDING AFFINITY PREDICTED BY RF-SCORE:    0.00 PKD
ROOT
HETATM    1  C   UNL     1     -11.614  12.363  65.183  1.00  0.00    -0.408 C  
HETATM    2  C   UNL     1     -11.291  11.606  66.468  1.00  0.00    -0.263 C  
ENDROOT
BRANCH   2   3
HETATM    3  N   UNL     1     -10.476  12.289  67.492  1.00  0.00    -0.211 N  
HETATM    4  C   UNL     1      -8.462  15.192  66.778  1.00  0.00    -0.272 A  
HETATM    5  C   UNL     1      -9.081  12.334  67.333  1.00  0.00    -0.184 C  
HETATM    6  C   UNL     1      -8.232  13.154  68.328  1.00  0.00    -0.154 C  
HETATM    7  C   UNL     1      -8.391  16.569  66.553  1.00  0.00    -0.327 A  
HETATM    8  O   UNL     1      -8.510  11.782  66.385  1.00  0.00    -0.166 OA 
HETATM    9  C   UNL     1      -8.077  17.436  67.596  1.00  0.00    -0.203 A  
HETATM   10  C   UNL     1      -8.230  14.657  68.056  1.00  0.00    -0.145 A  
HETATM   11  C   UNL     1      -6.788  12.596  68.337  1.00  0.00    -0.090 C  
HETATM   12  H   UNL     1      -5.215  12.418  67.104  1.00  0.00     0.000 HD 
HETATM   13  O   UNL     1      -6.100  12.760  67.099  1.00  0.00    -0.289 OA 
HETATM   14  C   UNL     1      -7.903  15.547  69.095  1.00  0.00    -0.215 A  
HETATM   15  C   UNL     1      -7.827  16.924  68.867  1.00  0.00    -0.233 A  
BRANCH   3  16
HETATM   16  C   UNL     1     -11.029  12.346  68.859  1.00  0.00    -0.223 C  
BRANCH  16  17
HETATM   17  C   UNL     1     -11.023  11.066  69.661  1.00  0.00    -0.286 A  
HETATM   18  C   UNL     1     -11.964  10.842  70.674  1.00  0.00    -0.466 A  
HETATM   19  C   UNL     1     -10.072   8.937  70.213  1.00  0.00    -0.189 A  
HETATM   20  C   UNL     1     -11.892   9.669  71.410  1.00  0.00    -0.406 A  
HETATM   21  C   UNL     1     -10.059  10.082  69.431  1.00  0.00    -0.235 A  
HETATM   22  N   UNL     1     -10.966   8.712  71.201  1.00  0.00    -0.246 NA 
ENDBRANCH  16  17
ENDBRANCH   3  16
ENDBRANCH   2   3
TORSDOF 3
ENDMDL
MODEL      113
REMARK 921   NORMALIZED FREE ENERGY PREDICTED BY IDOCK:   -3.83 KCAL/MOL
REMARK 922        TOTAL FREE ENERGY PREDICTED BY IDOCK:   -5.53 KCAL/MOL
REMARK 923 INTER-LIGAND FREE ENERGY PREDICTED BY IDOCK:   -4.99 KCAL/MOL
REMARK 924 INTRA-LIGAND FREE ENERGY PREDICTED BY IDOCK:   -0.53 KCAL/MOL
REMARK 927      BINDING AFFINITY PREDICTED BY RF-SCORE:    0.00 PKD
ROOT
HETATM    1  C   UNL     1      -9.048  11.184  68.769  1.00  0.00    -0.144 C  
HETATM    2  C   UNL     1      -8.495   9.761  68.785  1.00  0.00    -0.122 C  
ENDROOT
BRANCH   2   3
HETATM    3  N   UNL     1      -9.358   8.685  69.314  1.00  0.00    -0.153 N  
HETATM    4  C   UNL     1     -11.999   9.284  71.693  1.00  0.00    -0.448 A  
HETATM    5  C   UNL     1      -9.336   8.411  70.692  1.00  0.00    -0.160 C  
HETATM    6  C   UNL     1     -10.325   7.378  71.273  1.00  0.00    -0.203 C  
HETATM    7  C   UNL     1     -13.297   9.736  71.946  1.00  0.00    -0.530 A  
HETATM    8  O   UNL     1      -8.585   9.011  71.469  1.00  0.00    -0.303 OA 
HETATM    9  C   UNL     1     -14.355   8.833  72.009  1.00  0.00    -0.466 A  
HETATM   10  C   UNL     1     -11.738   7.919  71.487  1.00  0.00    -0.317 A  
HETATM   11  C   UNL     1      -9.748   6.816  72.595  1.00  0.00    -0.149 C  
HETATM   12  H   UNL     1      -9.279   7.443  74.443  1.00  0.00     0.000 HD 
HETATM   13  O   UNL     1      -9.634   7.788  73.632  1.00  0.00    -0.286 OA 
HETATM   14  C   UNL     1     -12.817   7.020  71.564  1.00  0.00    -0.420 A  
HETATM   15  C   UNL     1     -14.114   7.474  71.824  1.00  0.00    -0.509 A  
BRANCH   3  16
HETATM   16  C   UNL     1      -9.712   7.594  68.386  1.00  0.00    -0.158 C  
BRANCH  16  17
HETATM   17  C   UNL     1      -8.662   7.170  67.386  1.00  0.00    -0.120 A  
HETATM   18  C   UNL     1      -7.517   6.474  67.791  1.00  0.00    -0.097 A  
HETATM   19  C   UNL     1      -7.791   7.104  65.155  1.00  0.00    -0.124 A  
HETATM   20  C   UNL     1      -6.562   6.142  66.841  1.00  0.00    -0.059 A  
HETATM   21  C   UNL     1      -8.795   7.485  66.032  1.00  0.00    -0.179 A  
HETATM   22  N   UNL     1      -6.674   6.443  65.532  1.00  0.00    -0.047 NA 
ENDBRANCH  16  17
ENDBRANCH   3  16
ENDBRANCH   2   3
TORSDOF 3
ENDMDL
MODEL      114
REMARK 921   NORMALIZED FREE ENERGY PREDICTED BY IDOCK:   -3.83 KCAL/MOL
REMARK 922        TOTAL FREE ENERGY PREDICTED BY IDOCK:   -5.52 KCAL/MOL
REMARK 923 INTER-LIGAND FREE ENERGY PREDICTED BY IDOCK:   -4.91 KCAL/MOL
REMARK 924 INTRA-LIGAND FREE ENERGY PREDICTED BY IDOCK:   -0.60 KCAL/MOL
REMARK 927      BINDING AFFINITY PREDICTED BY RF-SCORE:    0.00 PKD
ROOT
HETATM    1  C   UNL     1     -12.933  10.566  70.724  1.00  0.00    -0.413 C  
HETATM    2  C   UNL     1     -11.507  10.961  70.348  1.00  0.00    -0.275 C  
ENDROOT
BRANCH   2   3
HETATM    3  N   UNL     1     -10.932  10.397  69.111  1.00  0.00    -0.227 N  
HETATM    4  C   UNL     1      -9.807   6.982  68.851  1.00  0.00    -0.150 A  
HETATM    5  C   UNL     1      -9.603   9.939  69.125  1.00  0.00    -0.199 C  
HETATM    6  C   UNL     1      -9.034   9.232  67.876  1.00  0.00    -0.130 C  
HETATM    7  C   UNL     1     -10.124   5.630  68.699  1.00  0.00    -0.240 A  
HETATM    8  O   UNL     1      -8.887  10.033  70.128  1.00  0.00    -0.165 OA 
HETATM    9  C   UNL     1     -10.082   5.036  67.441  1.00  0.00    -0.213 A  
HETATM   10  C   UNL     1      -9.451   7.769  67.743  1.00  0.00    -0.163 A  
HETATM   11  C   UNL     1      -7.492   9.364  67.882  1.00  0.00    -0.084 C  
HETATM   12  H   UNL     1      -5.915   8.766  68.970  1.00  0.00     0.000 HD 
HETATM   13  O   UNL     1      -6.861   8.685  68.966  1.00  0.00    -0.054 OA 
HETATM   14  C   UNL     1      -9.403   7.149  66.481  1.00  0.00    -0.208 A  
HETATM   15  C   UNL     1      -9.715   5.794  66.332  1.00  0.00    -0.175 A  
BRANCH   3  16
HETATM   16  C   UNL     1     -11.497  10.872  67.833  1.00  0.00    -0.266 C  
BRANCH  16  17
HETATM   17  C   UNL     1     -11.191  12.295  67.428  1.00  0.00    -0.358 A  
HETATM   18  C   UNL     1     -10.046  12.604  66.682  1.00  0.00    -0.248 A  
HETATM   19  C   UNL     1     -11.691  14.638  67.445  1.00  0.00    -0.390 A  
HETATM   20  C   UNL     1      -9.787  13.930  66.370  1.00  0.00    -0.295 A  
HETATM   21  C   UNL     1     -12.029  13.344  67.812  1.00  0.00    -0.363 A  
HETATM   22  N   UNL     1     -10.584  14.954  66.736  1.00  0.00    -0.298 NA 
ENDBRANCH  16  17
ENDBRANCH   3  16
ENDBRANCH   2   3
TORSDOF 3
ENDMDL
MODEL      115
REMARK 921   NORMALIZED FREE ENERGY PREDICTED BY IDOCK:   -3.82 KCAL/MOL
REMARK 922        TOTAL FREE ENERGY PREDICTED BY IDOCK:   -5.50 KCAL/MOL
REMARK 923 INTER-LIGAND FREE ENERGY PREDICTED BY IDOCK:   -4.36 KCAL/MOL
REMARK 924 INTRA-LIGAND FREE ENERGY PREDICTED BY IDOCK:   -1.14 KCAL/MOL
REMARK 927      BINDING AFFINITY PREDICTED BY RF-SCORE:    0.00 PKD
ROOT
HETATM    1  C   UNL     1     -10.712   5.691  73.405  1.00  0.00    -0.313 C  
HETATM    2  C   UNL     1     -11.080   7.012  72.734  1.00  0.00    -0.284 C  
ENDROOT
BRANCH   2   3
HETATM    3  N   UNL     1     -10.497   7.305  71.409  1.00  0.00    -0.204 N  
HETATM    4  C   UNL     1      -7.034   6.694  70.613  1.00  0.00    -0.064 A  
HETATM    5  C   UNL     1      -9.468   8.258  71.313  1.00  0.00    -0.172 C  
HETATM    6  C   UNL     1      -8.765   8.478  69.956  1.00  0.00    -0.136 C  
HETATM    7  C   UNL     1      -6.030   5.784  70.274  1.00  0.00    -0.025 A  
HETATM    8  O   UNL     1      -9.066   8.891  72.296  1.00  0.00    -0.381 OA 
HETATM    9  C   UNL     1      -5.676   5.594  68.942  1.00  0.00    -0.015 A  
HETATM   10  C   UNL     1      -7.710   7.426  69.622  1.00  0.00    -0.107 A  
HETATM   11  C   UNL     1      -8.151   9.898  69.933  1.00  0.00    -0.188 C  
HETATM   12  H   UNL     1      -6.728  10.959  70.870  1.00  0.00     0.000 HD 
HETATM   13  O   UNL     1      -7.105  10.088  70.884  1.00  0.00    -0.337 OA 
HETATM   14  C   UNL     1      -7.332   7.229  68.282  1.00  0.00    -0.100 A  
HETATM   15  C   UNL     1      -6.323   6.321  67.945  1.00  0.00    -0.033 A  
BRANCH   3  16
HETATM   16  C   UNL     1     -11.361   7.084  70.234  1.00  0.00    -0.295 C  
BRANCH  16  17
HETATM   17  C   UNL     1     -10.848   6.150  69.163  1.00  0.00    -0.418 A  
HETATM   18  C   UNL     1     -10.133   4.992  69.496  1.00  0.00    -0.301 A  
HETATM   19  C   UNL     1     -10.533   5.563  66.862  1.00  0.00    -0.287 A  
HETATM   20  C   UNL     1      -9.646   4.188  68.476  1.00  0.00    -0.125 A  
HETATM   21  C   UNL     1     -11.050   6.432  67.811  1.00  0.00    -0.376 A  
HETATM   22  N   UNL     1      -9.831   4.449  67.167  1.00  0.00    -0.198 NA 
ENDBRANCH  16  17
ENDBRANCH   3  16
ENDBRANCH   2   3
TORSDOF 3
ENDMDL
MODEL      116
REMARK 921   NORMALIZED FREE ENERGY PREDICTED BY IDOCK:   -3.79 KCAL/MOL
REMARK 922        TOTAL FREE ENERGY PREDICTED BY IDOCK:   -5.47 KCAL/MOL
REMARK 923 INTER-LIGAND FREE ENERGY PREDICTED BY IDOCK:   -4.38 KCAL/MOL
REMARK 924 INTRA-LIGAND FREE ENERGY PREDICTED BY IDOCK:   -1.10 KCAL/MOL
REMARK 927      BINDING AFFINITY PREDICTED BY RF-SCORE:    0.00 PKD
ROOT
HETATM    1  C   UNL     1      -9.413   6.655  66.686  1.00  0.00    -0.201 C  
HETATM    2  C   UNL     1      -8.794   5.806  67.793  1.00  0.00    -0.105 C  
ENDROOT
BRANCH   2   3
HETATM    3  N   UNL     1      -9.550   5.646  69.052  1.00  0.00    -0.129 N  
HETATM    4  C   UNL     1      -8.052   6.067  72.304  1.00  0.00    -0.110 A  
HETATM    5  C   UNL     1      -9.171   4.632  69.948  1.00  0.00    -0.125 C  
HETATM    6  C   UNL     1      -9.870   4.536  71.322  1.00  0.00    -0.260 C  
HETATM    7  C   UNL     1      -7.589   6.928  73.302  1.00  0.00    -0.088 A  
HETATM    8  O   UNL     1      -8.253   3.842  69.697  1.00  0.00    -0.054 OA 
HETATM    9  C   UNL     1      -8.410   7.264  74.375  1.00  0.00    -0.225 A  
HETATM   10  C   UNL     1      -9.350   5.533  72.356  1.00  0.00    -0.156 A  
HETATM   11  C   UNL     1      -9.750   3.086  71.848  1.00  0.00    -0.164 C  
HETATM   12  H   UNL     1      -8.336   1.795  72.451  1.00  0.00     0.000 HD 
HETATM   13  O   UNL     1      -8.410   2.685  72.128  1.00  0.00    -0.057 OA 
HETATM   14  C   UNL     1     -10.162   5.875  73.454  1.00  0.00    -0.225 A  
HETATM   15  C   UNL     1      -9.695   6.732  74.454  1.00  0.00    -0.309 A  
BRANCH   3  16
HETATM   16  C   UNL     1     -10.956   6.092  69.050  1.00  0.00    -0.339 C  
BRANCH  16  17
HETATM   17  C   UNL     1     -11.344   7.158  70.048  1.00  0.00    -0.242 A  
HETATM   18  C   UNL     1     -10.581   8.323  70.195  1.00  0.00    -0.233 A  
HETATM   19  C   UNL     1     -12.761   7.984  71.794  1.00  0.00    -0.329 A  
HETATM   20  C   UNL     1     -10.955   9.253  71.154  1.00  0.00    -0.339 A  
HETATM   21  C   UNL     1     -12.461   6.995  70.870  1.00  0.00    -0.319 A  
HETATM   22  N   UNL     1     -12.028   9.108  71.956  1.00  0.00    -0.367 NA 
ENDBRANCH  16  17
ENDBRANCH   3  16
ENDBRANCH   2   3
TORSDOF 3
ENDMDL
MODEL      117
REMARK 921   NORMALIZED FREE ENERGY PREDICTED BY IDOCK:   -3.78 KCAL/MOL
REMARK 922        TOTAL FREE ENERGY PREDICTED BY IDOCK:   -5.46 KCAL/MOL
REMARK 923 INTER-LIGAND FREE ENERGY PREDICTED BY IDOCK:   -4.52 KCAL/MOL
REMARK 924 INTRA-LIGAND FREE ENERGY PREDICTED BY IDOCK:   -0.94 KCAL/MOL
REMARK 927      BINDING AFFINITY PREDICTED BY RF-SCORE:    0.00 PKD
ROOT
HETATM    1  C   UNL     1      -7.680   8.725  63.497  1.00  0.00    -0.132 C  
HETATM    2  C   UNL     1      -7.651   9.242  64.933  1.00  0.00    -0.108 C  
ENDROOT
BRANCH   2   3
HETATM    3  N   UNL     1      -8.866   9.078  65.755  1.00  0.00    -0.167 N  
HETATM    4  C   UNL     1      -8.764   8.214  69.253  1.00  0.00    -0.140 A  
HETATM    5  C   UNL     1      -9.138   7.823  66.327  1.00  0.00    -0.178 C  
HETATM    6  C   UNL     1     -10.335   7.675  67.291  1.00  0.00    -0.367 C  
HETATM    7  C   UNL     1      -8.554   8.614  70.576  1.00  0.00    -0.170 A  
HETATM    8  O   UNL     1      -8.415   6.840  66.127  1.00  0.00    -0.123 OA 
HETATM    9  C   UNL     1      -9.633   8.967  71.382  1.00  0.00    -0.356 A  
HETATM   10  C   UNL     1     -10.058   8.170  68.710  1.00  0.00    -0.211 A  
HETATM   11  C   UNL     1     -10.789   6.195  67.305  1.00  0.00    -0.352 C  
HETATM   12  H   UNL     1     -10.095   4.392  67.849  1.00  0.00     0.000 HD 
HETATM   13  O   UNL     1      -9.817   5.300  67.840  1.00  0.00    -0.135 OA 
HETATM   14  C   UNL     1     -11.137   8.520  69.541  1.00  0.00     0.039 A  
HETATM   15  C   UNL     1     -10.926   8.914  70.866  1.00  0.00    -0.325 A  
BRANCH   3  16
HETATM   16  C   UNL     1     -10.000   9.976  65.460  1.00  0.00    -0.296 C  
BRANCH  16  17
HETATM   17  C   UNL     1      -9.946  11.370  66.040  1.00  0.00    -0.269 A  
HETATM   18  C   UNL     1     -10.221  12.493  65.249  1.00  0.00    -0.302 A  
HETATM   19  C   UNL     1      -9.526  12.876  67.855  1.00  0.00    -0.208 A  
HETATM   20  C   UNL     1     -10.118  13.754  65.816  1.00  0.00    -0.307 A  
HETATM   21  C   UNL     1      -9.594  11.577  67.375  1.00  0.00    -0.177 A  
HETATM   22  N   UNL     1      -9.776  13.970  67.102  1.00  0.00    -0.236 NA 
ENDBRANCH  16  17
ENDBRANCH   3  16
ENDBRANCH   2   3
TORSDOF 3
ENDMDL
MODEL      118
REMARK 921   NORMALIZED FREE ENERGY PREDICTED BY IDOCK:   -3.75 KCAL/MOL
REMARK 922        TOTAL FREE ENERGY PREDICTED BY IDOCK:   -5.43 KCAL/MOL
REMARK 923 INTER-LIGAND FREE ENERGY PREDICTED BY IDOCK:   -5.16 KCAL/MOL
REMARK 924 INTRA-LIGAND FREE ENERGY PREDICTED BY IDOCK:   -0.27 KCAL/MOL
REMARK 927      BINDING AFFINITY PREDICTED BY RF-SCORE:    0.00 PKD
ROOT
HETATM    1  C   UNL     1     -11.594  12.238  64.288  1.00  0.00    -0.442 C  
HETATM    2  C   UNL     1     -11.670  12.566  65.777  1.00  0.00    -0.426 C  
ENDROOT
BRANCH   2   3
HETATM    3  N   UNL     1     -10.674  11.949  66.677  1.00  0.00    -0.245 N  
HETATM    4  C   UNL     1     -10.471   8.393  67.230  1.00  0.00    -0.373 A  
HETATM    5  C   UNL     1     -11.123  11.240  67.804  1.00  0.00    -0.271 C  
HETATM    6  C   UNL     1     -10.099  10.484  68.679  1.00  0.00    -0.190 C  
HETATM    7  C   UNL     1     -10.067   7.135  66.774  1.00  0.00    -0.278 A  
HETATM    8  O   UNL     1     -12.322  11.153  68.091  1.00  0.00    -0.469 OA 
HETATM    9  C   UNL     1      -8.854   6.594  67.191  1.00  0.00    -0.115 A  
HETATM   10  C   UNL     1      -9.663   9.137  68.105  1.00  0.00    -0.174 A  
HETATM   11  C   UNL     1     -10.683  10.312  70.101  1.00  0.00    -0.278 C  
HETATM   12  H   UNL     1     -12.199   9.375  71.024  1.00  0.00     0.000 HD 
HETATM   13  O   UNL     1     -11.841   9.481  70.151  1.00  0.00    -0.142 OA 
HETATM   14  C   UNL     1      -8.446   8.570  68.525  1.00  0.00    -0.131 A  
HETATM   15  C   UNL     1      -8.046   7.309  68.072  1.00  0.00    -0.120 A  
BRANCH   3  16
HETATM   16  C   UNL     1      -9.339  12.574  66.726  1.00  0.00    -0.230 C  
BRANCH  16  17
HETATM   17  C   UNL     1      -9.212  13.876  67.482  1.00  0.00    -0.205 A  
HETATM   18  C   UNL     1      -8.074  14.682  67.350  1.00  0.00    -0.216 A  
HETATM   19  C   UNL     1     -10.044  15.481  69.053  1.00  0.00    -0.234 A  
HETATM   20  C   UNL     1      -7.987  15.847  68.097  1.00  0.00    -0.137 A  
HETATM   21  C   UNL     1     -10.218  14.296  68.355  1.00  0.00    -0.245 A  
HETATM   22  N   UNL     1      -8.947  16.264  68.946  1.00  0.00    -0.238 NA 
ENDBRANCH  16  17
ENDBRANCH   3  16
ENDBRANCH   2   3
TORSDOF 3
ENDMDL
MODEL      119
REMARK 921   NORMALIZED FREE ENERGY PREDICTED BY IDOCK:   -3.75 KCAL/MOL
REMARK 922        TOTAL FREE ENERGY PREDICTED BY IDOCK:   -5.42 KCAL/MOL
REMARK 923 INTER-LIGAND FREE ENERGY PREDICTED BY IDOCK:   -4.49 KCAL/MOL
REMARK 924 INTRA-LIGAND FREE ENERGY PREDICTED BY IDOCK:   -0.93 KCAL/MOL
REMARK 927      BINDING AFFINITY PREDICTED BY RF-SCORE:    0.00 PKD
ROOT
HETATM    1  C   UNL     1     -12.035  11.927  69.921  1.00  0.00    -0.398 C  
HETATM    2  C   UNL     1     -11.746  11.447  68.501  1.00  0.00    -0.318 C  
ENDROOT
BRANCH   2   3
HETATM    3  N   UNL     1     -10.337  11.391  68.059  1.00  0.00    -0.179 N  
HETATM    4  C   UNL     1      -9.254   9.470  65.208  1.00  0.00    -0.307 A  
HETATM    5  C   UNL     1      -9.668  10.155  68.075  1.00  0.00    -0.142 C  
HETATM    6  C   UNL     1      -8.240  10.061  67.495  1.00  0.00    -0.114 C  
HETATM    7  C   UNL     1      -9.149   9.351  63.820  1.00  0.00    -0.073 A  
HETATM    8  O   UNL     1     -10.207   9.122  68.487  1.00  0.00    -0.186 OA 
HETATM    9  C   UNL     1      -7.977   9.726  63.170  1.00  0.00    -0.145 A  
HETATM   10  C   UNL     1      -8.190   9.978  65.971  1.00  0.00    -0.126 A  
HETATM   11  C   UNL     1      -7.516   8.852  68.136  1.00  0.00    -0.092 C  
HETATM   12  H   UNL     1      -7.650   6.851  68.194  1.00  0.00     0.000 HD 
HETATM   13  O   UNL     1      -8.094   7.593  67.801  1.00  0.00    -0.116 OA 
HETATM   14  C   UNL     1      -7.009  10.342  65.299  1.00  0.00    -0.130 A  
HETATM   15  C   UNL     1      -6.904  10.216  63.910  1.00  0.00    -0.106 A  
BRANCH   3  16
HETATM   16  C   UNL     1      -9.540  12.623  68.207  1.00  0.00    -0.208 C  
BRANCH  16  17
HETATM   17  C   UNL     1      -9.897  13.789  67.315  1.00  0.00    -0.241 A  
HETATM   18  C   UNL     1     -10.022  13.628  65.929  1.00  0.00    -0.304 A  
HETATM   19  C   UNL     1     -10.379  16.113  66.988  1.00  0.00    -0.290 A  
HETATM   20  C   UNL     1     -10.310  14.737  65.149  1.00  0.00    -0.410 A  
HETATM   21  C   UNL     1     -10.085  15.066  67.848  1.00  0.00    -0.226 A  
HETATM   22  N   UNL     1     -10.492  15.976  65.648  1.00  0.00    -0.379 NA 
ENDBRANCH  16  17
ENDBRANCH   3  16
ENDBRANCH   2   3
TORSDOF 3
ENDMDL
MODEL      120
REMARK 921   NORMALIZED FREE ENERGY PREDICTED BY IDOCK:   -3.73 KCAL/MOL
REMARK 922        TOTAL FREE ENERGY PREDICTED BY IDOCK:   -5.40 KCAL/MOL
REMARK 923 INTER-LIGAND FREE ENERGY PREDICTED BY IDOCK:   -4.39 KCAL/MOL
REMARK 924 INTRA-LIGAND FREE ENERGY PREDICTED BY IDOCK:   -1.01 KCAL/MOL
REMARK 927      BINDING AFFINITY PREDICTED BY RF-SCORE:    0.00 PKD
ROOT
HETATM    1  C   UNL     1      -9.589   3.497  65.373  1.00  0.00    -0.132 C  
HETATM    2  C   UNL     1     -10.327   4.670  66.014  1.00  0.00    -0.284 C  
ENDROOT
BRANCH   2   3
HETATM    3  N   UNL     1      -9.583   5.526  66.961  1.00  0.00    -0.129 N  
HETATM    4  C   UNL     1     -10.171   9.068  67.277  1.00  0.00    -0.323 A  
HETATM    5  C   UNL     1      -8.784   6.566  66.455  1.00  0.00    -0.134 C  
HETATM    6  C   UNL     1      -8.106   7.544  67.437  1.00  0.00    -0.116 C  
HETATM    7  C   UNL     1     -10.964  10.107  67.772  1.00  0.00    -0.338 A  
HETATM    8  O   UNL     1      -8.650   6.760  65.241  1.00  0.00    -0.113 OA 
HETATM    9  C   UNL     1     -10.632  10.733  68.970  1.00  0.00    -0.250 A  
HETATM   10  C   UNL     1      -9.035   8.630  67.978  1.00  0.00    -0.141 A  
HETATM   11  C   UNL     1      -6.870   8.172  66.749  1.00  0.00    -0.069 C  
HETATM   12  H   UNL     1      -6.433   9.380  65.207  1.00  0.00     0.000 HD 
HETATM   13  O   UNL     1      -7.191   8.994  65.630  1.00  0.00    -0.083 OA 
HETATM   14  C   UNL     1      -8.709   9.282  69.181  1.00  0.00    -0.139 A  
HETATM   15  C   UNL     1      -9.500  10.325  69.672  1.00  0.00    -0.180 A  
BRANCH   3  16
HETATM   16  C   UNL     1      -9.217   4.927  68.259  1.00  0.00    -0.123 C  
BRANCH  16  17
HETATM   17  C   UNL     1      -9.989   5.387  69.474  1.00  0.00    -0.289 A  
HETATM   18  C   UNL     1      -9.566   5.056  70.767  1.00  0.00    -0.244 A  
HETATM   19  C   UNL     1     -11.855   6.504  70.478  1.00  0.00    -0.328 A  
HETATM   20  C   UNL     1     -10.330   5.466  71.849  1.00  0.00    -0.212 A  
HETATM   21  C   UNL     1     -11.162   6.132  69.336  1.00  0.00    -0.466 A  
HETATM   22  N   UNL     1     -11.466   6.183  71.732  1.00  0.00    -0.293 NA 
ENDBRANCH  16  17
ENDBRANCH   3  16
ENDBRANCH   2   3
TORSDOF 3
ENDMDL
MODEL      121
REMARK 921   NORMALIZED FREE ENERGY PREDICTED BY IDOCK:   -3.71 KCAL/MOL
REMARK 922        TOTAL FREE ENERGY PREDICTED BY IDOCK:   -5.39 KCAL/MOL
REMARK 923 INTER-LIGAND FREE ENERGY PREDICTED BY IDOCK:   -5.13 KCAL/MOL
REMARK 924 INTRA-LIGAND FREE ENERGY PREDICTED BY IDOCK:   -0.26 KCAL/MOL
REMARK 927      BINDING AFFINITY PREDICTED BY RF-SCORE:    0.00 PKD
ROOT
HETATM    1  C   UNL     1     -11.072   5.609  73.201  1.00  0.00    -0.315 C  
HETATM    2  C   UNL     1     -11.038   7.080  72.795  1.00  0.00    -0.284 C  
ENDROOT
BRANCH   2   3
HETATM    3  N   UNL     1     -11.066   7.405  71.354  1.00  0.00    -0.237 N  
HETATM    4  C   UNL     1      -9.499   5.340  68.850  1.00  0.00    -0.173 A  
HETATM    5  C   UNL     1      -9.854   7.653  70.689  1.00  0.00    -0.182 C  
HETATM    6  C   UNL     1      -9.860   7.867  69.160  1.00  0.00    -0.174 C  
HETATM    7  C   UNL     1      -9.535   4.190  68.058  1.00  0.00    -0.215 A  
HETATM    8  O   UNL     1      -8.768   7.652  71.281  1.00  0.00    -0.129 OA 
HETATM    9  C   UNL     1     -10.009   4.252  66.751  1.00  0.00    -0.191 A  
HETATM   10  C   UNL     1      -9.946   6.574  68.350  1.00  0.00    -0.145 A  
HETATM   11  C   UNL     1      -8.607   8.683  68.761  1.00  0.00    -0.130 C  
HETATM   12  H   UNL     1      -6.608   8.500  68.752  1.00  0.00     0.000 HD 
HETATM   13  O   UNL     1      -7.377   8.000  68.997  1.00  0.00    -0.079 OA 
HETATM   14  C   UNL     1     -10.411   6.621  67.023  1.00  0.00    -0.369 A  
HETATM   15  C   UNL     1     -10.441   5.470  66.231  1.00  0.00    -0.230 A  
BRANCH   3  16
HETATM   16  C   UNL     1     -12.295   8.035  70.834  1.00  0.00    -0.060 C  
BRANCH  16  17
HETATM   17  C   UNL     1     -12.411   9.536  70.967  1.00  0.00    -0.363 A  
HETATM   18  C   UNL     1     -13.238  10.114  71.938  1.00  0.00    -0.557 A  
HETATM   19  C   UNL     1     -11.878  11.756  70.242  1.00  0.00    -0.295 A  
HETATM   20  C   UNL     1     -13.343  11.496  71.993  1.00  0.00    -0.292 A  
HETATM   21  C   UNL     1     -11.716  10.386  70.104  1.00  0.00    -0.394 A  
HETATM   22  N   UNL     1     -12.681  12.329  71.166  1.00  0.00    -0.314 NA 
ENDBRANCH  16  17
ENDBRANCH   3  16
ENDBRANCH   2   3
TORSDOF 3
ENDMDL
MODEL      122
REMARK 921   NORMALIZED FREE ENERGY PREDICTED BY IDOCK:   -3.70 KCAL/MOL
REMARK 922        TOTAL FREE ENERGY PREDICTED BY IDOCK:   -5.37 KCAL/MOL
REMARK 923 INTER-LIGAND FREE ENERGY PREDICTED BY IDOCK:   -4.36 KCAL/MOL
REMARK 924 INTRA-LIGAND FREE ENERGY PREDICTED BY IDOCK:   -1.01 KCAL/MOL
REMARK 927      BINDING AFFINITY PREDICTED BY RF-SCORE:    0.00 PKD
ROOT
HETATM    1  C   UNL     1     -12.710  10.680  71.778  1.00  0.00    -0.489 C  
HETATM    2  C   UNL     1     -12.578   9.606  70.701  1.00  0.00    -0.056 C  
ENDROOT
BRANCH   2   3
HETATM    3  N   UNL     1     -11.229   9.086  70.399  1.00  0.00    -0.255 N  
HETATM    4  C   UNL     1     -10.663   6.205  68.309  1.00  0.00    -0.361 A  
HETATM    5  C   UNL     1     -10.890   7.789  70.819  1.00  0.00    -0.239 C  
HETATM    6  C   UNL     1      -9.532   7.188  70.397  1.00  0.00    -0.162 C  
HETATM    7  C   UNL     1     -10.593   5.657  67.025  1.00  0.00    -0.358 A  
HETATM    8  O   UNL     1     -11.670   7.084  71.471  1.00  0.00    -0.268 OA 
HETATM    9  C   UNL     1      -9.364   5.531  66.383  1.00  0.00    -0.161 A  
HETATM   10  C   UNL     1      -9.505   6.646  68.969  1.00  0.00    -0.131 A  
HETATM   11  C   UNL     1      -9.132   6.088  71.410  1.00  0.00    -0.143 C  
HETATM   12  H   UNL     1      -9.762   4.287  72.032  1.00  0.00     0.000 HD 
HETATM   13  O   UNL     1     -10.007   4.962  71.411  1.00  0.00    -0.180 OA 
HETATM   14  C   UNL     1      -8.271   6.501  68.309  1.00  0.00    -0.114 A  
HETATM   15  C   UNL     1      -8.202   5.947  67.027  1.00  0.00    -0.105 A  
BRANCH   3  16
HETATM   16  C   UNL     1     -10.149  10.079  70.244  1.00  0.00    -0.168 C  
BRANCH  16  17
HETATM   17  C   UNL     1      -9.930  10.653  68.864  1.00  0.00    -0.213 A  
HETATM   18  C   UNL     1      -8.905  10.178  68.036  1.00  0.00    -0.125 A  
HETATM   19  C   UNL     1     -10.472  12.212  67.128  1.00  0.00    -0.219 A  
HETATM   20  C   UNL     1      -8.719  10.765  66.794  1.00  0.00    -0.143 A  
HETATM   21  C   UNL     1     -10.730  11.694  68.388  1.00  0.00    -0.248 A  
HETATM   22  N   UNL     1      -9.480  11.773  66.322  1.00  0.00    -0.220 NA 
ENDBRANCH  16  17
ENDBRANCH   3  16
ENDBRANCH   2   3
TORSDOF 3
ENDMDL
MODEL      123
REMARK 921   NORMALIZED FREE ENERGY PREDICTED BY IDOCK:   -3.70 KCAL/MOL
REMARK 922        TOTAL FREE ENERGY PREDICTED BY IDOCK:   -5.37 KCAL/MOL
REMARK 923 INTER-LIGAND FREE ENERGY PREDICTED BY IDOCK:   -5.27 KCAL/MOL
REMARK 924 INTRA-LIGAND FREE ENERGY PREDICTED BY IDOCK:   -0.10 KCAL/MOL
REMARK 927      BINDING AFFINITY PREDICTED BY RF-SCORE:    0.00 PKD
ROOT
HETATM    1  C   UNL     1     -11.434  12.457  64.370  1.00  0.00    -0.408 C  
HETATM    2  C   UNL     1     -12.019  12.409  65.779  1.00  0.00    -0.372 C  
ENDROOT
BRANCH   2   3
HETATM    3  N   UNL     1     -11.089  12.516  66.922  1.00  0.00    -0.265 N  
HETATM    4  C   UNL     1      -8.308  14.809  66.978  1.00  0.00    -0.228 A  
HETATM    5  C   UNL     1      -9.732  12.207  66.727  1.00  0.00    -0.207 C  
HETATM    6  C   UNL     1      -8.731  12.438  67.879  1.00  0.00    -0.175 C  
HETATM    7  C   UNL     1      -7.841  16.115  67.147  1.00  0.00    -0.234 A  
HETATM    8  O   UNL     1      -9.300  11.806  65.640  1.00  0.00    -0.221 OA 
HETATM    9  C   UNL     1      -7.342  16.527  68.380  1.00  0.00    -0.179 A  
HETATM   10  C   UNL     1      -8.293  13.893  68.042  1.00  0.00    -0.166 A  
HETATM   11  C   UNL     1      -7.506  11.515  67.674  1.00  0.00    -0.110 C  
HETATM   12  H   UNL     1      -5.994  11.254  66.380  1.00  0.00     0.000 HD 
HETATM   13  O   UNL     1      -6.746  11.820  66.506  1.00  0.00    -0.044 OA 
HETATM   14  C   UNL     1      -7.774  14.323  69.277  1.00  0.00     0.048 A  
HETATM   15  C   UNL     1      -7.302  15.629  69.444  1.00  0.00    -0.216 A  
BRANCH   3  16
HETATM   16  C   UNL     1     -11.663  12.340  68.270  1.00  0.00    -0.336 C  
BRANCH  16  17
HETATM   17  C   UNL     1     -11.871  13.585  69.101  1.00  0.00    -0.386 A  
HETATM   18  C   UNL     1     -11.518  14.849  68.611  1.00  0.00    -0.326 A  
HETATM   19  C   UNL     1     -12.538  14.668  71.131  1.00  0.00    -0.334 A  
HETATM   20  C   UNL     1     -11.689  15.957  69.428  1.00  0.00    -0.343 A  
HETATM   21  C   UNL     1     -12.395  13.503  70.392  1.00  0.00    -0.397 A  
HETATM   22  N   UNL     1     -12.191  15.893  70.677  1.00  0.00    -0.370 NA 
ENDBRANCH  16  17
ENDBRANCH   3  16
ENDBRANCH   2   3
TORSDOF 3
ENDMDL
MODEL      124
REMARK 921   NORMALIZED FREE ENERGY PREDICTED BY IDOCK:   -3.68 KCAL/MOL
REMARK 922        TOTAL FREE ENERGY PREDICTED BY IDOCK:   -5.35 KCAL/MOL
REMARK 923 INTER-LIGAND FREE ENERGY PREDICTED BY IDOCK:   -4.37 KCAL/MOL
REMARK 924 INTRA-LIGAND FREE ENERGY PREDICTED BY IDOCK:   -0.97 KCAL/MOL
REMARK 927      BINDING AFFINITY PREDICTED BY RF-SCORE:    0.00 PKD
ROOT
HETATM    1  C   UNL     1     -11.663  12.907  69.457  1.00  0.00    -0.387 C  
HETATM    2  C   UNL     1     -11.681  12.787  67.936  1.00  0.00    -0.357 C  
ENDROOT
BRANCH   2   3
HETATM    3  N   UNL     1     -10.718  13.595  67.162  1.00  0.00    -0.275 N  
HETATM    4  C   UNL     1      -8.718  16.205  68.639  1.00  0.00    -0.214 A  
HETATM    5  C   UNL     1     -10.922  14.982  67.057  1.00  0.00    -0.318 C  
HETATM    6  C   UNL     1      -9.855  15.853  66.360  1.00  0.00    -0.302 C  
HETATM    7  C   UNL     1      -7.609  16.569  69.407  1.00  0.00    -0.061 A  
HETATM    8  O   UNL     1     -11.907  15.540  67.555  1.00  0.00    -0.127 OA 
HETATM    9  C   UNL     1      -6.413  16.923  68.790  1.00  0.00    -0.178 A  
HETATM   10  C   UNL     1      -8.647  16.180  67.237  1.00  0.00    -0.198 A  
HETATM   11  C   UNL     1     -10.524  17.149  65.842  1.00  0.00    -0.258 C  
HETATM   12  H   UNL     1     -11.429  18.790  66.561  1.00  0.00     0.000 HD 
HETATM   13  O   UNL     1     -11.019  17.994  66.878  1.00  0.00    -0.158 OA 
HETATM   14  C   UNL     1      -7.434  16.551  66.629  1.00  0.00    -0.296 A  
HETATM   15  C   UNL     1      -6.327  16.920  67.400  1.00  0.00    -0.184 A  
BRANCH   3  16
HETATM   16  C   UNL     1      -9.986  12.910  66.079  1.00  0.00    -0.272 C  
BRANCH  16  17
HETATM   17  C   UNL     1      -8.826  12.028  66.480  1.00  0.00    -0.172 A  
HETATM   18  C   UNL     1      -8.720  10.713  66.008  1.00  0.00    -0.186 A  
HETATM   19  C   UNL     1      -6.815  11.638  67.721  1.00  0.00    -0.079 A  
HETATM   20  C   UNL     1      -7.660   9.930  66.437  1.00  0.00    -0.101 A  
HETATM   21  C   UNL     1      -7.843  12.493  67.355  1.00  0.00    -0.175 A  
HETATM   22  N   UNL     1      -6.705  10.363  67.284  1.00  0.00    -0.075 NA 
ENDBRANCH  16  17
ENDBRANCH   3  16
ENDBRANCH   2   3
TORSDOF 3
ENDMDL
MODEL      125
REMARK 921   NORMALIZED FREE ENERGY PREDICTED BY IDOCK:   -3.65 KCAL/MOL
REMARK 922        TOTAL FREE ENERGY PREDICTED BY IDOCK:   -5.30 KCAL/MOL
REMARK 923 INTER-LIGAND FREE ENERGY PREDICTED BY IDOCK:   -4.16 KCAL/MOL
REMARK 924 INTRA-LIGAND FREE ENERGY PREDICTED BY IDOCK:   -1.14 KCAL/MOL
REMARK 927      BINDING AFFINITY PREDICTED BY RF-SCORE:    0.00 PKD
ROOT
HETATM    1  C   UNL     1      -9.749   4.591  65.548  1.00  0.00    -0.204 C  
HETATM    2  C   UNL     1     -10.536   5.423  66.557  1.00  0.00    -0.294 C  
ENDROOT
BRANCH   2   3
HETATM    3  N   UNL     1      -9.788   6.089  67.643  1.00  0.00    -0.117 N  
HETATM    4  C   UNL     1     -11.406   7.804  70.369  1.00  0.00    -0.219 A  
HETATM    5  C   UNL     1      -9.923   7.478  67.809  1.00  0.00    -0.171 C  
HETATM    6  C   UNL     1      -9.249   8.164  69.017  1.00  0.00    -0.148 C  
HETATM    7  C   UNL     1     -12.086   7.734  71.588  1.00  0.00    -0.335 A  
HETATM    8  O   UNL     1     -10.614   8.167  67.049  1.00  0.00    -0.329 OA 
HETATM    9  C   UNL     1     -11.395   7.881  72.787  1.00  0.00    -0.453 A  
HETATM   10  C   UNL     1     -10.018   8.014  70.329  1.00  0.00    -0.189 A  
HETATM   11  C   UNL     1      -9.019   9.658  68.684  1.00  0.00    -0.129 C  
HETATM   12  H   UNL     1     -10.083  11.317  68.305  1.00  0.00     0.000 HD 
HETATM   13  O   UNL     1     -10.224  10.400  68.509  1.00  0.00    -0.160 OA 
HETATM   14  C   UNL     1      -9.337   8.171  71.550  1.00  0.00    -0.210 A  
HETATM   15  C   UNL     1     -10.020   8.106  72.768  1.00  0.00    -0.361 A  
BRANCH   3  16
HETATM   16  C   UNL     1      -8.535   5.448  68.084  1.00  0.00    -0.097 C  
BRANCH  16  17
HETATM   17  C   UNL     1      -8.529   4.813  69.455  1.00  0.00    -0.092 A  
HETATM   18  C   UNL     1      -9.709   4.321  70.030  1.00  0.00    -0.287 A  
HETATM   19  C   UNL     1      -7.398   4.164  71.465  1.00  0.00    -0.055 A  
HETATM   20  C   UNL     1      -9.659   3.785  71.308  1.00  0.00    -0.173 A  
HETATM   21  C   UNL     1      -7.350   4.724  70.197  1.00  0.00    -0.054 A  
HETATM   22  N   UNL     1      -8.529   3.696  72.037  1.00  0.00    -0.085 NA 
ENDBRANCH  16  17
ENDBRANCH   3  16
ENDBRANCH   2   3
TORSDOF 3
ENDMDL
MODEL      126
REMARK 921   NORMALIZED FREE ENERGY PREDICTED BY IDOCK:   -3.64 KCAL/MOL
REMARK 922        TOTAL FREE ENERGY PREDICTED BY IDOCK:   -5.30 KCAL/MOL
REMARK 923 INTER-LIGAND FREE ENERGY PREDICTED BY IDOCK:   -4.10 KCAL/MOL
REMARK 924 INTRA-LIGAND FREE ENERGY PREDICTED BY IDOCK:   -1.20 KCAL/MOL
REMARK 927      BINDING AFFINITY PREDICTED BY RF-SCORE:    0.00 PKD
ROOT
HETATM    1  C   UNL     1      -6.804   7.803  74.036  1.00  0.00    -0.117 C  
HETATM    2  C   UNL     1      -8.285   8.047  74.318  1.00  0.00    -0.253 C  
ENDROOT
BRANCH   2   3
HETATM    3  N   UNL     1      -9.274   7.469  73.386  1.00  0.00    -0.203 N  
HETATM    4  C   UNL     1      -8.487   6.616  69.974  1.00  0.00    -0.139 A  
HETATM    5  C   UNL     1      -9.623   8.189  72.231  1.00  0.00    -0.251 C  
HETATM    6  C   UNL     1     -10.557   7.540  71.187  1.00  0.00    -0.234 C  
HETATM    7  C   UNL     1      -7.896   5.728  69.072  1.00  0.00    -0.094 A  
HETATM    8  O   UNL     1      -9.160   9.311  71.991  1.00  0.00    -0.252 OA 
HETATM    9  C   UNL     1      -8.666   4.760  68.432  1.00  0.00    -0.112 A  
HETATM   10  C   UNL     1      -9.861   6.545  70.260  1.00  0.00    -0.185 A  
HETATM   11  C   UNL     1     -11.254   8.655  70.372  1.00  0.00    -0.218 C  
HETATM   12  H   UNL     1     -10.787  10.117  69.079  1.00  0.00     0.000 HD 
HETATM   13  O   UNL     1     -10.360   9.433  69.579  1.00  0.00    -0.196 OA 
HETATM   14  C   UNL     1     -10.625   5.569  69.596  1.00  0.00    -0.375 A  
HETATM   15  C   UNL     1     -10.032   4.685  68.689  1.00  0.00    -0.140 A  
BRANCH   3  16
HETATM   16  C   UNL     1     -10.264   6.535  73.956  1.00  0.00    -0.353 C  
BRANCH  16  17
HETATM   17  C   UNL     1     -10.131   5.076  73.584  1.00  0.00    -0.207 A  
HETATM   18  C   UNL     1      -8.912   4.553  73.134  1.00  0.00    -0.119 A  
HETATM   19  C   UNL     1     -11.069   2.894  73.272  1.00  0.00    -0.128 A  
HETATM   20  C   UNL     1      -8.851   3.217  72.765  1.00  0.00    -0.085 A  
HETATM   21  C   UNL     1     -11.229   4.217  73.654  1.00  0.00    -0.325 A  
HETATM   22  N   UNL     1      -9.903   2.377  72.824  1.00  0.00    -0.113 NA 
ENDBRANCH  16  17
ENDBRANCH   3  16
ENDBRANCH   2   3
TORSDOF 3
ENDMDL
MODEL      127
REMARK 921   NORMALIZED FREE ENERGY PREDICTED BY IDOCK:   -3.64 KCAL/MOL
REMARK 922        TOTAL FREE ENERGY PREDICTED BY IDOCK:   -5.30 KCAL/MOL
REMARK 923 INTER-LIGAND FREE ENERGY PREDICTED BY IDOCK:   -4.23 KCAL/MOL
REMARK 924 INTRA-LIGAND FREE ENERGY PREDICTED BY IDOCK:   -1.07 KCAL/MOL
REMARK 927      BINDING AFFINITY PREDICTED BY RF-SCORE:    0.00 PKD
ROOT
HETATM    1  C   UNL     1      -8.582   7.802  68.260  1.00  0.00    -0.124 C  
HETATM    2  C   UNL     1      -9.628   8.905  68.130  1.00  0.00    -0.145 C  
ENDROOT
BRANCH   2   3
HETATM    3  N   UNL     1      -9.291  10.093  67.320  1.00  0.00    -0.151 N  
HETATM    4  C   UNL     1     -11.728  11.888  65.363  1.00  0.00    -0.228 A  
HETATM    5  C   UNL     1      -9.466  10.038  65.926  1.00  0.00    -0.205 C  
HETATM    6  C   UNL     1      -9.238  11.312  65.085  1.00  0.00    -0.168 C  
HETATM    7  C   UNL     1     -12.783  12.803  65.318  1.00  0.00    -0.332 A  
HETATM    8  O   UNL     1      -9.852   9.013  65.353  1.00  0.00    -0.080 OA 
HETATM    9  C   UNL     1     -12.539  14.139  65.012  1.00  0.00    -0.399 A  
HETATM   10  C   UNL     1     -10.408  12.294  65.111  1.00  0.00    -0.316 A  
HETATM   11  C   UNL     1      -8.899  10.902  63.631  1.00  0.00    -0.079 C  
HETATM   12  H   UNL     1      -9.761   9.991  62.064  1.00  0.00     0.000 HD 
HETATM   13  O   UNL     1      -9.969  10.243  62.956  1.00  0.00    -0.165 OA 
HETATM   14  C   UNL     1     -10.182  13.646  64.793  1.00  0.00    -0.363 A  
HETATM   15  C   UNL     1     -11.239  14.560  64.743  1.00  0.00    -0.395 A  
BRANCH   3  16
HETATM   16  C   UNL     1      -8.266  11.005  67.863  1.00  0.00    -0.119 C  
BRANCH  16  17
HETATM   17  C   UNL     1      -8.720  12.383  68.284  1.00  0.00    -0.175 A  
HETATM   18  C   UNL     1     -10.041  12.617  68.688  1.00  0.00    -0.131 A  
HETATM   19  C   UNL     1      -8.310  14.719  68.617  1.00  0.00    -0.165 A  
HETATM   20  C   UNL     1     -10.421  13.908  69.025  1.00  0.00    -0.131 A  
HETATM   21  C   UNL     1      -7.840  13.467  68.254  1.00  0.00    -0.143 A  
HETATM   22  N   UNL     1      -9.584  14.964  68.998  1.00  0.00    -0.216 NA 
ENDBRANCH  16  17
ENDBRANCH   3  16
ENDBRANCH   2   3
TORSDOF 3
ENDMDL
MODEL      128
REMARK 921   NORMALIZED FREE ENERGY PREDICTED BY IDOCK:   -3.63 KCAL/MOL
REMARK 922        TOTAL FREE ENERGY PREDICTED BY IDOCK:   -5.29 KCAL/MOL
REMARK 923 INTER-LIGAND FREE ENERGY PREDICTED BY IDOCK:   -4.17 KCAL/MOL
REMARK 924 INTRA-LIGAND FREE ENERGY PREDICTED BY IDOCK:   -1.12 KCAL/MOL
REMARK 927      BINDING AFFINITY PREDICTED BY RF-SCORE:    0.00 PKD
ROOT
HETATM    1  C   UNL     1      -9.529  11.200  68.572  1.00  0.00    -0.193 C  
HETATM    2  C   UNL     1     -10.832  10.465  68.873  1.00  0.00    -0.236 C  
ENDROOT
BRANCH   2   3
HETATM    3  N   UNL     1     -10.749   9.078  69.373  1.00  0.00    -0.219 N  
HETATM    4  C   UNL     1      -7.761   7.078  69.116  1.00  0.00    -0.105 A  
HETATM    5  C   UNL     1     -10.500   8.039  68.459  1.00  0.00    -0.164 C  
HETATM    6  C   UNL     1     -10.284   6.604  68.986  1.00  0.00    -0.196 C  
HETATM    7  C   UNL     1      -6.484   6.774  69.595  1.00  0.00    -0.044 A  
HETATM    8  O   UNL     1     -10.392   8.245  67.245  1.00  0.00    -0.249 OA 
HETATM    9  C   UNL     1      -6.303   5.727  70.494  1.00  0.00    -0.032 A  
HETATM   10  C   UNL     1      -8.883   6.346  69.537  1.00  0.00    -0.136 A  
HETATM   11  C   UNL     1     -10.625   5.598  67.860  1.00  0.00    -0.193 C  
HETATM   12  H   UNL     1      -9.960   5.058  66.045  1.00  0.00     0.000 HD 
HETATM   13  O   UNL     1      -9.751   5.675  66.736  1.00  0.00    -0.136 OA 
HETATM   14  C   UNL     1      -8.680   5.285  70.438  1.00  0.00    -0.138 A  
HETATM   15  C   UNL     1      -7.401   4.978  70.911  1.00  0.00    -0.068 A  
BRANCH   3  16
HETATM   16  C   UNL     1     -11.497   8.764  70.605  1.00  0.00    -0.231 C  
BRANCH  16  17
HETATM   17  C   UNL     1     -10.694   8.339  71.812  1.00  0.00    -0.332 A  
HETATM   18  C   UNL     1      -9.374   8.774  71.992  1.00  0.00    -0.322 A  
HETATM   19  C   UNL     1     -10.453   7.088  73.841  1.00  0.00    -0.294 A  
HETATM   20  C   UNL     1      -8.664   8.323  73.095  1.00  0.00    -0.221 A  
HETATM   21  C   UNL     1     -11.238   7.478  72.767  1.00  0.00    -0.403 A  
HETATM   22  N   UNL     1      -9.175   7.489  74.023  1.00  0.00    -0.257 NA 
ENDBRANCH  16  17
ENDBRANCH   3  16
ENDBRANCH   2   3
TORSDOF 3
ENDMDL
MODEL      129
REMARK 921   NORMALIZED FREE ENERGY PREDICTED BY IDOCK:   -3.63 KCAL/MOL
REMARK 922        TOTAL FREE ENERGY PREDICTED BY IDOCK:   -5.29 KCAL/MOL
REMARK 923 INTER-LIGAND FREE ENERGY PREDICTED BY IDOCK:   -4.25 KCAL/MOL
REMARK 924 INTRA-LIGAND FREE ENERGY PREDICTED BY IDOCK:   -1.04 KCAL/MOL
REMARK 927      BINDING AFFINITY PREDICTED BY RF-SCORE:    0.00 PKD
ROOT
HETATM    1  C   UNL     1     -10.767   6.021  73.198  1.00  0.00    -0.285 C  
HETATM    2  C   UNL     1     -11.683   7.046  72.535  1.00  0.00    -0.162 C  
ENDROOT
BRANCH   2   3
HETATM    3  N   UNL     1     -11.375   7.462  71.152  1.00  0.00    -0.262 N  
HETATM    4  C   UNL     1      -8.577   9.575  70.316  1.00  0.00    -0.258 A  
HETATM    5  C   UNL     1     -11.413   8.829  70.827  1.00  0.00    -0.270 C  
HETATM    6  C   UNL     1     -10.970   9.285  69.420  1.00  0.00    -0.138 C  
HETATM    7  C   UNL     1      -7.202   9.707  70.106  1.00  0.00    -0.128 A  
HETATM    8  O   UNL     1     -11.737   9.691  71.652  1.00  0.00    -0.386 OA 
HETATM    9  C   UNL     1      -6.680   9.642  68.817  1.00  0.00    -0.051 A  
HETATM   10  C   UNL     1      -9.455   9.366  69.239  1.00  0.00    -0.164 A  
HETATM   11  C   UNL     1     -11.635  10.644  69.099  1.00  0.00    -0.271 C  
HETATM   12  H   UNL     1     -11.613  12.544  69.748  1.00  0.00     0.000 HD 
HETATM   13  O   UNL     1     -11.205  11.709  69.945  1.00  0.00    -0.193 OA 
HETATM   14  C   UNL     1      -8.911   9.315  67.943  1.00  0.00    -0.130 A  
HETATM   15  C   UNL     1      -7.536   9.453  67.734  1.00  0.00    -0.087 A  
BRANCH   3  16
HETATM   16  C   UNL     1     -11.640   6.479  70.083  1.00  0.00    -0.402 C  
BRANCH  16  17
HETATM   17  C   UNL     1     -10.443   5.861  69.401  1.00  0.00    -0.343 A  
HETATM   18  C   UNL     1     -10.476   5.533  68.039  1.00  0.00    -0.240 A  
HETATM   19  C   UNL     1      -8.217   4.976  69.457  1.00  0.00    -0.085 A  
HETATM   20  C   UNL     1      -9.366   4.929  67.467  1.00  0.00    -0.133 A  
HETATM   21  C   UNL     1      -9.280   5.574  70.118  1.00  0.00    -0.173 A  
HETATM   22  N   UNL     1      -8.238   4.643  68.147  1.00  0.00    -0.091 NA 
ENDBRANCH  16  17
ENDBRANCH   3  16
ENDBRANCH   2   3
TORSDOF 3
ENDMDL
MODEL      130
REMARK 921   NORMALIZED FREE ENERGY PREDICTED BY IDOCK:   -3.63 KCAL/MOL
REMARK 922        TOTAL FREE ENERGY PREDICTED BY IDOCK:   -5.28 KCAL/MOL
REMARK 923 INTER-LIGAND FREE ENERGY PREDICTED BY IDOCK:   -5.16 KCAL/MOL
REMARK 924 INTRA-LIGAND FREE ENERGY PREDICTED BY IDOCK:   -0.12 KCAL/MOL
REMARK 927      BINDING AFFINITY PREDICTED BY RF-SCORE:    0.00 PKD
ROOT
HETATM    1  C   UNL     1      -8.678   4.701  67.966  1.00  0.00    -0.112 C  
HETATM    2  C   UNL     1      -9.698   5.808  67.714  1.00  0.00    -0.119 C  
ENDROOT
BRANCH   2   3
HETATM    3  N   UNL     1     -10.171   6.595  68.871  1.00  0.00    -0.168 N  
HETATM    4  C   UNL     1     -10.498  10.184  68.797  1.00  0.00    -0.223 A  
HETATM    5  C   UNL     1      -9.306   7.537  69.453  1.00  0.00    -0.152 C  
HETATM    6  C   UNL     1      -9.832   8.453  70.578  1.00  0.00    -0.204 C  
HETATM    7  C   UNL     1     -11.225  11.308  68.399  1.00  0.00    -0.324 A  
HETATM    8  O   UNL     1      -8.146   7.696  69.055  1.00  0.00    -0.122 OA 
HETATM    9  C   UNL     1     -12.118  11.915  69.278  1.00  0.00    -0.270 A  
HETATM   10  C   UNL     1     -10.657   9.639  70.082  1.00  0.00    -0.320 A  
HETATM   11  C   UNL     1      -8.636   8.936  71.434  1.00  0.00    -0.172 C  
HETATM   12  H   UNL     1      -6.988  10.067  71.251  1.00  0.00     0.000 HD 
HETATM   13  O   UNL     1      -7.722   9.770  70.726  1.00  0.00    -0.308 OA 
HETATM   14  C   UNL     1     -11.555  10.271  70.961  1.00  0.00    -0.430 A  
HETATM   15  C   UNL     1     -12.278  11.400  70.563  1.00  0.00    -0.478 A  
BRANCH   3  16
HETATM   16  C   UNL     1     -11.213   5.981  69.717  1.00  0.00    -0.369 C  
BRANCH  16  17
HETATM   17  C   UNL     1     -10.783   5.448  71.063  1.00  0.00    -0.239 A  
HETATM   18  C   UNL     1     -11.472   5.797  72.232  1.00  0.00    -0.320 A  
HETATM   19  C   UNL     1      -9.293   4.174  72.440  1.00  0.00    -0.122 A  
HETATM   20  C   UNL     1     -11.014   5.314  73.450  1.00  0.00    -0.316 A  
HETATM   21  C   UNL     1      -9.670   4.613  71.180  1.00  0.00    -0.252 A  
HETATM   22  N   UNL     1      -9.939   4.511  73.578  1.00  0.00    -0.139 NA 
ENDBRANCH  16  17
ENDBRANCH   3  16
ENDBRANCH   2   3
TORSDOF 3
ENDMDL
MODEL      131
REMARK 921   NORMALIZED FREE ENERGY PREDICTED BY IDOCK:   -3.61 KCAL/MOL
REMARK 922        TOTAL FREE ENERGY PREDICTED BY IDOCK:   -5.26 KCAL/MOL
REMARK 923 INTER-LIGAND FREE ENERGY PREDICTED BY IDOCK:   -4.23 KCAL/MOL
REMARK 924 INTRA-LIGAND FREE ENERGY PREDICTED BY IDOCK:   -1.03 KCAL/MOL
REMARK 927      BINDING AFFINITY PREDICTED BY RF-SCORE:    0.00 PKD
ROOT
HETATM    1  C   UNL     1     -11.025  13.891  64.536  1.00  0.00    -0.379 C  
HETATM    2  C   UNL     1     -10.474  12.488  64.780  1.00  0.00    -0.311 C  
ENDROOT
BRANCH   2   3
HETATM    3  N   UNL     1      -9.993  12.156  66.136  1.00  0.00    -0.228 N  
HETATM    4  C   UNL     1     -10.492   8.926  67.656  1.00  0.00    -0.320 A  
HETATM    5  C   UNL     1     -10.931  11.822  67.129  1.00  0.00    -0.276 C  
HETATM    6  C   UNL     1     -10.433  11.350  68.511  1.00  0.00    -0.223 C  
HETATM    7  C   UNL     1     -10.114   7.585  67.760  1.00  0.00    -0.235 A  
HETATM    8  O   UNL     1     -12.148  11.840  66.914  1.00  0.00    -0.566 OA 
HETATM    9  C   UNL     1      -9.239   7.177  68.763  1.00  0.00    -0.136 A  
HETATM   10  C   UNL     1      -9.992   9.887  68.550  1.00  0.00    -0.175 A  
HETATM   11  C   UNL     1     -11.536  11.618  69.562  1.00  0.00    -0.331 C  
HETATM   12  H   UNL     1     -13.401  11.019  70.002  1.00  0.00     0.000 HD 
HETATM   13  O   UNL     1     -12.723  10.855  69.358  1.00  0.00    -0.284 OA 
HETATM   14  C   UNL     1      -9.118   9.456  69.564  1.00  0.00    -0.169 A  
HETATM   15  C   UNL     1      -8.745   8.113  69.670  1.00  0.00    -0.142 A  
BRANCH   3  16
HETATM   16  C   UNL     1      -8.709  12.750  66.555  1.00  0.00     0.025 C  
BRANCH  16  17
HETATM   17  C   UNL     1      -7.604  11.800  66.951  1.00  0.00    -0.119 A  
HETATM   18  C   UNL     1      -7.383  10.612  66.243  1.00  0.00    -0.137 A  
HETATM   19  C   UNL     1      -5.809  11.152  68.400  1.00  0.00    -0.042 A  
HETATM   20  C   UNL     1      -6.383   9.752  66.671  1.00  0.00    -0.066 A  
HETATM   21  C   UNL     1      -6.790  12.069  68.053  1.00  0.00    -0.078 A  
HETATM   22  N   UNL     1      -5.592   9.996  67.734  1.00  0.00    -0.039 NA 
ENDBRANCH  16  17
ENDBRANCH   3  16
ENDBRANCH   2   3
TORSDOF 3
ENDMDL
MODEL      132
REMARK 921   NORMALIZED FREE ENERGY PREDICTED BY IDOCK:   -3.60 KCAL/MOL
REMARK 922        TOTAL FREE ENERGY PREDICTED BY IDOCK:   -5.25 KCAL/MOL
REMARK 923 INTER-LIGAND FREE ENERGY PREDICTED BY IDOCK:   -4.14 KCAL/MOL
REMARK 924 INTRA-LIGAND FREE ENERGY PREDICTED BY IDOCK:   -1.11 KCAL/MOL
REMARK 927      BINDING AFFINITY PREDICTED BY RF-SCORE:    0.00 PKD
ROOT
HETATM    1  C   UNL     1      -7.528   7.973  63.894  1.00  0.00    -0.117 C  
HETATM    2  C   UNL     1      -8.502   8.797  64.732  1.00  0.00    -0.160 C  
ENDROOT
BRANCH   2   3
HETATM    3  N   UNL     1      -8.368   8.749  66.202  1.00  0.00    -0.119 N  
HETATM    4  C   UNL     1     -10.455  10.673  68.424  1.00  0.00    -0.212 A  
HETATM    5  C   UNL     1      -8.016   9.921  66.893  1.00  0.00    -0.109 C  
HETATM    6  C   UNL     1      -7.999   9.913  68.436  1.00  0.00    -0.096 C  
HETATM    7  C   UNL     1     -11.687  10.834  69.063  1.00  0.00    -0.357 A  
HETATM    8  O   UNL     1      -7.772  10.981  66.305  1.00  0.00    -0.158 OA 
HETATM    9  C   UNL     1     -11.864  10.384  70.368  1.00  0.00    -0.418 A  
HETATM   10  C   UNL     1      -9.380  10.048  69.076  1.00  0.00    -0.183 A  
HETATM   11  C   UNL     1      -7.052  11.031  68.934  1.00  0.00    -0.098 C  
HETATM   12  H   UNL     1      -6.915  13.033  68.919  1.00  0.00     0.000 HD 
HETATM   13  O   UNL     1      -7.496  12.347  68.613  1.00  0.00    -0.111 OA 
HETATM   14  C   UNL     1      -9.573   9.609  70.398  1.00  0.00    -0.292 A  
HETATM   15  C   UNL     1     -10.805   9.776  71.039  1.00  0.00    -0.378 A  
BRANCH   3  16
HETATM   16  C   UNL     1      -8.010   7.448  66.799  1.00  0.00    -0.115 C  
BRANCH  16  17
HETATM   17  C   UNL     1      -8.986   6.847  67.784  1.00  0.00    -0.117 A  
HETATM   18  C   UNL     1     -10.367   7.018  67.629  1.00  0.00    -0.270 A  
HETATM   19  C   UNL     1      -9.463   5.622  69.787  1.00  0.00    -0.148 A  
HETATM   20  C   UNL     1     -11.221   6.483  68.582  1.00  0.00    -0.216 A  
HETATM   21  C   UNL     1      -8.533   6.127  68.891  1.00  0.00    -0.118 A  
HETATM   22  N   UNL     1     -10.798   5.789  69.658  1.00  0.00    -0.353 NA 
ENDBRANCH  16  17
ENDBRANCH   3  16
ENDBRANCH   2   3
TORSDOF 3
ENDMDL
MODEL      133
REMARK 921   NORMALIZED FREE ENERGY PREDICTED BY IDOCK:   -3.59 KCAL/MOL
REMARK 922        TOTAL FREE ENERGY PREDICTED BY IDOCK:   -5.24 KCAL/MOL
REMARK 923 INTER-LIGAND FREE ENERGY PREDICTED BY IDOCK:   -4.13 KCAL/MOL
REMARK 924 INTRA-LIGAND FREE ENERGY PREDICTED BY IDOCK:   -1.10 KCAL/MOL
REMARK 927      BINDING AFFINITY PREDICTED BY RF-SCORE:    0.00 PKD
ROOT
HETATM    1  C   UNL     1     -12.531  11.161  70.816  1.00  0.00    -0.479 C  
HETATM    2  C   UNL     1     -12.153   9.782  70.279  1.00  0.00    -0.037 C  
ENDROOT
BRANCH   2   3
HETATM    3  N   UNL     1     -10.846   9.218  70.670  1.00  0.00    -0.255 N  
HETATM    4  C   UNL     1     -10.263   5.676  71.007  1.00  0.00    -0.281 A  
HETATM    5  C   UNL     1     -10.751   8.484  71.865  1.00  0.00    -0.324 C  
HETATM    6  C   UNL     1      -9.422   7.782  72.218  1.00  0.00    -0.225 C  
HETATM    7  C   UNL     1     -10.026   4.443  70.395  1.00  0.00    -0.253 A  
HETATM    8  O   UNL     1     -11.718   8.334  72.622  1.00  0.00    -0.403 OA 
HETATM    9  C   UNL     1      -8.726   3.965  70.259  1.00  0.00    -0.123 A  
HETATM   10  C   UNL     1      -9.201   6.461  71.485  1.00  0.00    -0.145 A  
HETATM   11  C   UNL     1      -9.353   7.578  73.751  1.00  0.00    -0.279 C  
HETATM   12  H   UNL     1     -10.302   6.561  75.198  1.00  0.00     0.000 HD 
HETATM   13  O   UNL     1     -10.345   6.687  74.257  1.00  0.00    -0.361 OA 
HETATM   14  C   UNL     1      -7.894   5.958  71.348  1.00  0.00    -0.112 A  
HETATM   15  C   UNL     1      -7.659   4.720  70.741  1.00  0.00    -0.065 A  
BRANCH   3  16
HETATM   16  C   UNL     1      -9.642   9.912  70.175  1.00  0.00    -0.185 C  
BRANCH  16  17
HETATM   17  C   UNL     1      -8.748   9.152  69.224  1.00  0.00    -0.139 A  
HETATM   18  C   UNL     1      -9.282   8.265  68.282  1.00  0.00    -0.135 A  
HETATM   19  C   UNL     1      -6.576   8.553  68.409  1.00  0.00    -0.060 A  
HETATM   20  C   UNL     1      -8.417   7.559  67.458  1.00  0.00    -0.119 A  
HETATM   21  C   UNL     1      -7.360   9.295  69.279  1.00  0.00    -0.070 A  
HETATM   22  N   UNL     1      -7.076   7.684  67.502  1.00  0.00    -0.083 NA 
ENDBRANCH  16  17
ENDBRANCH   3  16
ENDBRANCH   2   3
TORSDOF 3
ENDMDL
MODEL      134
REMARK 921   NORMALIZED FREE ENERGY PREDICTED BY IDOCK:   -3.58 KCAL/MOL
REMARK 922        TOTAL FREE ENERGY PREDICTED BY IDOCK:   -5.23 KCAL/MOL
REMARK 923 INTER-LIGAND FREE ENERGY PREDICTED BY IDOCK:   -4.12 KCAL/MOL
REMARK 924 INTRA-LIGAND FREE ENERGY PREDICTED BY IDOCK:   -1.11 KCAL/MOL
REMARK 927      BINDING AFFINITY PREDICTED BY RF-SCORE:    0.00 PKD
ROOT
HETATM    1  C   UNL     1      -6.947   7.211  72.325  1.00  0.00    -0.064 C  
HETATM    2  C   UNL     1      -7.157   8.581  71.686  1.00  0.00    -0.094 C  
ENDROOT
BRANCH   2   3
HETATM    3  N   UNL     1      -7.970   8.657  70.455  1.00  0.00    -0.092 N  
HETATM    4  C   UNL     1      -8.313   5.899  68.160  1.00  0.00    -0.115 A  
HETATM    5  C   UNL     1      -7.335   8.506  69.210  1.00  0.00    -0.071 C  
HETATM    6  C   UNL     1      -8.191   8.456  67.926  1.00  0.00    -0.127 C  
HETATM    7  C   UNL     1      -8.903   4.670  67.849  1.00  0.00    -0.117 A  
HETATM    8  O   UNL     1      -6.112   8.356  69.110  1.00  0.00    -0.041 OA 
HETATM    9  C   UNL     1     -10.028   4.619  67.032  1.00  0.00    -0.227 A  
HETATM   10  C   UNL     1      -8.845   7.100  67.665  1.00  0.00    -0.119 A  
HETATM   11  C   UNL     1      -7.318   8.885  66.722  1.00  0.00    -0.082 C  
HETATM   12  H   UNL     1      -5.709   8.252  65.703  1.00  0.00     0.000 HD 
HETATM   13  O   UNL     1      -6.245   7.989  66.442  1.00  0.00    -0.044 OA 
HETATM   14  C   UNL     1      -9.977   7.029  66.832  1.00  0.00    -0.283 A  
HETATM   15  C   UNL     1     -10.562   5.798  66.518  1.00  0.00    -0.294 A  
BRANCH   3  16
HETATM   16  C   UNL     1      -9.209   9.455  70.519  1.00  0.00    -0.259 C  
BRANCH  16  17
HETATM   17  C   UNL     1     -10.473   8.737  70.932  1.00  0.00    -0.278 A  
HETATM   18  C   UNL     1     -10.647   7.372  70.673  1.00  0.00    -0.234 A  
HETATM   19  C   UNL     1     -12.668   8.732  71.892  1.00  0.00    -0.374 A  
HETATM   20  C   UNL     1     -11.841   6.767  71.034  1.00  0.00    -0.376 A  
HETATM   21  C   UNL     1     -11.513   9.425  71.560  1.00  0.00    -0.467 A  
HETATM   22  N   UNL     1     -12.856   7.418  71.637  1.00  0.00    -0.358 NA 
ENDBRANCH  16  17
ENDBRANCH   3  16
ENDBRANCH   2   3
TORSDOF 3
ENDMDL
MODEL      135
REMARK 921   NORMALIZED FREE ENERGY PREDICTED BY IDOCK:   -3.58 KCAL/MOL
REMARK 922        TOTAL FREE ENERGY PREDICTED BY IDOCK:   -5.23 KCAL/MOL
REMARK 923 INTER-LIGAND FREE ENERGY PREDICTED BY IDOCK:   -5.01 KCAL/MOL
REMARK 924 INTRA-LIGAND FREE ENERGY PREDICTED BY IDOCK:   -0.21 KCAL/MOL
REMARK 927      BINDING AFFINITY PREDICTED BY RF-SCORE:    0.00 PKD
ROOT
HETATM    1  C   UNL     1     -12.027  13.841  70.311  1.00  0.00    -0.397 C  
HETATM    2  C   UNL     1     -12.128  14.069  68.806  1.00  0.00    -0.303 C  
ENDROOT
BRANCH   2   3
HETATM    3  N   UNL     1     -10.988  14.713  68.122  1.00  0.00    -0.254 N  
HETATM    4  C   UNL     1     -10.982  18.191  67.176  1.00  0.00    -0.058 A  
HETATM    5  C   UNL     1     -11.178  15.241  66.833  1.00  0.00    -0.256 C  
HETATM    6  C   UNL     1     -10.032  16.029  66.162  1.00  0.00    -0.347 C  
HETATM    7  C   UNL     1     -10.840  19.530  67.551  1.00  0.00    -0.494 A  
HETATM    8  O   UNL     1     -12.257  15.145  66.236  1.00  0.00     0.134 OA 
HETATM    9  C   UNL     1      -9.617  20.176  67.395  1.00  0.00    -0.551 A  
HETATM   10  C   UNL     1      -9.899  17.472  66.646  1.00  0.00    -0.308 A  
HETATM   11  C   UNL     1     -10.219  15.980  64.627  1.00  0.00     0.787 C  
HETATM   12  H   UNL     1     -11.509  16.617  63.227  1.00  0.00     0.000 HD 
HETATM   13  O   UNL     1     -11.393  16.647  64.169  1.00  0.00    -1.141 OA 
HETATM   14  C   UNL     1      -8.674  18.144  66.485  1.00  0.00    -0.286 A  
HETATM   15  C   UNL     1      -8.535  19.485  66.856  1.00  0.00    -0.327 A  
BRANCH   3  16
HETATM   16  C   UNL     1      -9.637  14.261  68.503  1.00  0.00    -0.220 C  
BRANCH  16  17
HETATM   17  C   UNL     1      -9.124  12.994  67.860  1.00  0.00    -0.207 A  
HETATM   18  C   UNL     1      -9.651  12.535  66.646  1.00  0.00    -0.239 A  
HETATM   19  C   UNL     1      -7.711  11.060  67.863  1.00  0.00    -0.104 A  
HETATM   20  C   UNL     1      -9.177  11.345  66.116  1.00  0.00    -0.210 A  
HETATM   21  C   UNL     1      -8.128  12.233  68.473  1.00  0.00    -0.101 A  
HETATM   22  N   UNL     1      -8.218  10.597  66.698  1.00  0.00    -0.129 NA 
ENDBRANCH  16  17
ENDBRANCH   3  16
ENDBRANCH   2   3
TORSDOF 3
ENDMDL
MODEL      136
REMARK 921   NORMALIZED FREE ENERGY PREDICTED BY IDOCK:   -3.58 KCAL/MOL
REMARK 922        TOTAL FREE ENERGY PREDICTED BY IDOCK:   -5.22 KCAL/MOL
REMARK 923 INTER-LIGAND FREE ENERGY PREDICTED BY IDOCK:   -4.94 KCAL/MOL
REMARK 924 INTRA-LIGAND FREE ENERGY PREDICTED BY IDOCK:   -0.29 KCAL/MOL
REMARK 927      BINDING AFFINITY PREDICTED BY RF-SCORE:    0.00 PKD
ROOT
HETATM    1  C   UNL     1     -11.031   6.116  68.101  1.00  0.00    -0.398 C  
HETATM    2  C   UNL     1     -10.016   5.726  69.173  1.00  0.00    -0.177 C  
ENDROOT
BRANCH   2   3
HETATM    3  N   UNL     1      -9.995   6.505  70.428  1.00  0.00    -0.178 N  
HETATM    4  C   UNL     1      -7.255   6.380  72.766  1.00  0.00    -0.083 A  
HETATM    5  C   UNL     1      -9.958   5.818  71.653  1.00  0.00    -0.174 C  
HETATM    6  C   UNL     1      -9.807   6.620  72.964  1.00  0.00    -0.184 C  
HETATM    7  C   UNL     1      -5.960   6.778  73.110  1.00  0.00    -0.057 A  
HETATM    8  O   UNL     1      -9.986   4.584  71.716  1.00  0.00    -0.180 OA 
HETATM    9  C   UNL     1      -5.762   7.860  73.963  1.00  0.00    -0.069 A  
HETATM   10  C   UNL     1      -8.376   7.064  73.262  1.00  0.00    -0.138 A  
HETATM   11  C   UNL     1     -10.376   5.782  74.135  1.00  0.00    -0.282 C  
HETATM   12  H   UNL     1      -9.997   4.069  75.110  1.00  0.00     0.000 HD 
HETATM   13  O   UNL     1      -9.648   4.583  74.392  1.00  0.00    -0.117 OA 
HETATM   14  C   UNL     1      -8.157   8.149  74.132  1.00  0.00    -0.312 A  
HETATM   15  C   UNL     1      -6.861   8.542  74.479  1.00  0.00    -0.205 A  
BRANCH   3  16
HETATM   16  C   UNL     1     -10.607   7.847  70.393  1.00  0.00    -0.228 C  
BRANCH  16  17
HETATM   17  C   UNL     1     -11.923   8.026  71.113  1.00  0.00    -0.297 A  
HETATM   18  C   UNL     1     -12.950   7.082  70.988  1.00  0.00    -0.213 A  
HETATM   19  C   UNL     1     -13.393   9.292  72.518  1.00  0.00    -0.391 A  
HETATM   20  C   UNL     1     -14.155   7.312  71.635  1.00  0.00    -0.384 A  
HETATM   21  C   UNL     1     -12.159   9.154  71.902  1.00  0.00    -0.448 A  
HETATM   22  N   UNL     1     -14.398   8.397  72.397  1.00  0.00    -0.420 NA 
ENDBRANCH  16  17
ENDBRANCH   3  16
ENDBRANCH   2   3
TORSDOF 3
ENDMDL
MODEL      137
REMARK 921   NORMALIZED FREE ENERGY PREDICTED BY IDOCK:   -3.57 KCAL/MOL
REMARK 922        TOTAL FREE ENERGY PREDICTED BY IDOCK:   -5.21 KCAL/MOL
REMARK 923 INTER-LIGAND FREE ENERGY PREDICTED BY IDOCK:   -4.82 KCAL/MOL
REMARK 924 INTRA-LIGAND FREE ENERGY PREDICTED BY IDOCK:   -0.39 KCAL/MOL
REMARK 927      BINDING AFFINITY PREDICTED BY RF-SCORE:    0.00 PKD
ROOT
HETATM    1  C   UNL     1      -9.858   6.162  67.476  1.00  0.00    -0.140 C  
HETATM    2  C   UNL     1     -10.838   7.216  66.967  1.00  0.00    -0.312 C  
ENDROOT
BRANCH   2   3
HETATM    3  N   UNL     1     -10.444   8.636  67.060  1.00  0.00    -0.300 N  
HETATM    4  C   UNL     1     -10.672  10.919  64.280  1.00  0.00    -0.241 A  
HETATM    5  C   UNL     1      -9.388   9.103  66.258  1.00  0.00    -0.216 C  
HETATM    6  C   UNL     1      -9.052  10.609  66.252  1.00  0.00    -0.186 C  
HETATM    7  C   UNL     1     -11.465  11.733  63.467  1.00  0.00    -0.489 A  
HETATM    8  O   UNL     1      -8.751   8.353  65.509  1.00  0.00    -0.172 OA 
HETATM    9  C   UNL     1     -11.573  13.096  63.730  1.00  0.00    -0.481 A  
HETATM   10  C   UNL     1      -9.981  11.452  65.380  1.00  0.00    -0.289 A  
HETATM   11  C   UNL     1      -7.577  10.794  65.822  1.00  0.00    -0.079 C  
HETATM   12  H   UNL     1      -6.409  10.503  64.215  1.00  0.00     0.000 HD 
HETATM   13  O   UNL     1      -7.314  10.390  64.480  1.00  0.00    -0.113 OA 
HETATM   14  C   UNL     1     -10.093  12.833  65.625  1.00  0.00    -0.281 A  
HETATM   15  C   UNL     1     -10.881  13.647  64.806  1.00  0.00    -0.402 A  
BRANCH   3  16
HETATM   16  C   UNL     1     -10.711   9.322  68.338  1.00  0.00    -0.145 C  
BRANCH  16  17
HETATM   17  C   UNL     1      -9.936   8.856  69.548  1.00  0.00    -0.191 A  
HETATM   18  C   UNL     1     -10.563   8.143  70.578  1.00  0.00    -0.228 A  
HETATM   19  C   UNL     1      -7.914   8.728  70.827  1.00  0.00    -0.127 A  
HETATM   20  C   UNL     1      -9.819   7.773  71.688  1.00  0.00    -0.163 A  
HETATM   21  C   UNL     1      -8.577   9.148  69.684  1.00  0.00    -0.143 A  
HETATM   22  N   UNL     1      -8.508   8.050  71.835  1.00  0.00    -0.124 NA 
ENDBRANCH  16  17
ENDBRANCH   3  16
ENDBRANCH   2   3
TORSDOF 3
ENDMDL
MODEL      138
REMARK 921   NORMALIZED FREE ENERGY PREDICTED BY IDOCK:   -3.57 KCAL/MOL
REMARK 922        TOTAL FREE ENERGY PREDICTED BY IDOCK:   -5.21 KCAL/MOL
REMARK 923 INTER-LIGAND FREE ENERGY PREDICTED BY IDOCK:   -4.20 KCAL/MOL
REMARK 924 INTRA-LIGAND FREE ENERGY PREDICTED BY IDOCK:   -1.01 KCAL/MOL
REMARK 927      BINDING AFFINITY PREDICTED BY RF-SCORE:    0.00 PKD
ROOT
HETATM    1  C   UNL     1      -6.044  10.988  69.831  1.00  0.00    -0.115 C  
HETATM    2  C   UNL     1      -7.410  11.603  69.539  1.00  0.00     0.191 C  
ENDROOT
BRANCH   2   3
HETATM    3  N   UNL     1      -7.723  11.971  68.143  1.00  0.00    -0.125 N  
HETATM    4  C   UNL     1     -11.093  12.209  66.888  1.00  0.00    -0.348 A  
HETATM    5  C   UNL     1      -8.391  11.042  67.327  1.00  0.00    -0.125 C  
HETATM    6  C   UNL     1      -8.836  11.463  65.910  1.00  0.00    -0.149 C  
HETATM    7  C   UNL     1     -12.284  12.935  66.797  1.00  0.00    -0.204 A  
HETATM    8  O   UNL     1      -8.686   9.910  67.727  1.00  0.00    -0.128 OA 
HETATM    9  C   UNL     1     -12.529  13.746  65.692  1.00  0.00    -0.541 A  
HETATM   10  C   UNL     1     -10.120  12.290  65.880  1.00  0.00    -0.272 A  
HETATM   11  C   UNL     1      -8.978  10.197  65.031  1.00  0.00    -0.195 C  
HETATM   12  H   UNL     1     -10.101   8.537  64.918  1.00  0.00     0.000 HD 
HETATM   13  O   UNL     1     -10.014   9.314  65.457  1.00  0.00    -0.228 OA 
HETATM   14  C   UNL     1     -10.388  13.107  64.766  1.00  0.00    -0.369 A  
HETATM   15  C   UNL     1     -11.583  13.827  64.673  1.00  0.00    -0.396 A  
BRANCH   3  16
HETATM   16  C   UNL     1      -6.842  12.965  67.500  1.00  0.00    -0.153 C  
BRANCH  16  17
HETATM   17  C   UNL     1      -7.157  14.423  67.737  1.00  0.00    -0.191 A  
HETATM   18  C   UNL     1      -8.306  15.013  67.194  1.00  0.00    -0.244 A  
HETATM   19  C   UNL     1      -6.606  16.570  68.645  1.00  0.00    -0.145 A  
HETATM   20  C   UNL     1      -8.530  16.365  67.405  1.00  0.00    -0.178 A  
HETATM   21  C   UNL     1      -6.293  15.230  68.481  1.00  0.00    -0.091 A  
HETATM   22  N   UNL     1      -7.704  17.157  68.119  1.00  0.00    -0.197 NA 
ENDBRANCH  16  17
ENDBRANCH   3  16
ENDBRANCH   2   3
TORSDOF 3
ENDMDL
MODEL      139
REMARK 921   NORMALIZED FREE ENERGY PREDICTED BY IDOCK:   -3.55 KCAL/MOL
REMARK 922        TOTAL FREE ENERGY PREDICTED BY IDOCK:   -5.19 KCAL/MOL
REMARK 923 INTER-LIGAND FREE ENERGY PREDICTED BY IDOCK:   -4.68 KCAL/MOL
REMARK 924 INTRA-LIGAND FREE ENERGY PREDICTED BY IDOCK:   -0.51 KCAL/MOL
REMARK 927      BINDING AFFINITY PREDICTED BY RF-SCORE:    0.00 PKD
ROOT
HETATM    1  C   UNL     1      -6.331  11.551  67.543  1.00  0.00    -0.076 C  
HETATM    2  C   UNL     1      -7.182  10.299  67.345  1.00  0.00    -0.092 C  
ENDROOT
BRANCH   2   3
HETATM    3  N   UNL     1      -8.574  10.470  66.882  1.00  0.00    -0.124 N  
HETATM    4  C   UNL     1     -10.140  13.698  66.532  1.00  0.00    -0.286 A  
HETATM    5  C   UNL     1      -9.513  11.055  67.749  1.00  0.00    -0.162 C  
HETATM    6  C   UNL     1     -10.936  11.355  67.231  1.00  0.00    -0.336 C  
HETATM    7  C   UNL     1     -10.302  14.872  65.793  1.00  0.00    -0.351 A  
HETATM    8  O   UNL     1      -9.221  11.390  68.903  1.00  0.00    -0.136 OA 
HETATM    9  C   UNL     1     -11.368  15.003  64.908  1.00  0.00    -0.419 A  
HETATM   10  C   UNL     1     -11.039  12.628  66.393  1.00  0.00    -0.325 A  
HETATM   11  C   UNL     1     -11.908  11.410  68.434  1.00  0.00    -0.274 C  
HETATM   12  H   UNL     1     -12.244  12.519  70.073  1.00  0.00     0.000 HD 
HETATM   13  O   UNL     1     -11.648  12.485  69.335  1.00  0.00    -0.284 OA 
HETATM   14  C   UNL     1     -12.117  12.781  65.502  1.00  0.00    -0.517 A  
HETATM   15  C   UNL     1     -12.280  13.960  64.767  1.00  0.00    -0.441 A  
BRANCH   3  16
HETATM   16  C   UNL     1      -9.058   9.528  65.855  1.00  0.00    -0.184 C  
BRANCH  16  17
HETATM   17  C   UNL     1      -8.130   9.226  64.701  1.00  0.00    -0.136 A  
HETATM   18  C   UNL     1      -7.858  10.189  63.721  1.00  0.00    -0.149 A  
HETATM   19  C   UNL     1      -6.722   7.725  63.475  1.00  0.00    -0.062 A  
HETATM   20  C   UNL     1      -7.032   9.851  62.659  1.00  0.00    -0.116 A  
HETATM   21  C   UNL     1      -7.541   7.967  64.568  1.00  0.00    -0.114 A  
HETATM   22  N   UNL     1      -6.459   8.639  62.515  1.00  0.00    -0.095 NA 
ENDBRANCH  16  17
ENDBRANCH   3  16
ENDBRANCH   2   3
TORSDOF 3
ENDMDL
MODEL      140
REMARK 921   NORMALIZED FREE ENERGY PREDICTED BY IDOCK:   -3.54 KCAL/MOL
REMARK 922        TOTAL FREE ENERGY PREDICTED BY IDOCK:   -5.18 KCAL/MOL
REMARK 923 INTER-LIGAND FREE ENERGY PREDICTED BY IDOCK:   -4.65 KCAL/MOL
REMARK 924 INTRA-LIGAND FREE ENERGY PREDICTED BY IDOCK:   -0.53 KCAL/MOL
REMARK 927      BINDING AFFINITY PREDICTED BY RF-SCORE:    0.00 PKD
ROOT
HETATM    1  C   UNL     1      -5.989  14.305  67.613  1.00  0.00    -0.043 C  
HETATM    2  C   UNL     1      -7.053  13.827  68.596  1.00  0.00    -0.104 C  
ENDROOT
BRANCH   2   3
HETATM    3  N   UNL     1      -8.394  13.504  68.068  1.00  0.00    -0.156 N  
HETATM    4  C   UNL     1     -10.341  15.825  66.114  1.00  0.00    -0.333 A  
HETATM    5  C   UNL     1      -9.497  14.260  68.501  1.00  0.00    -0.206 C  
HETATM    6  C   UNL     1     -10.880  14.017  67.860  1.00  0.00    -0.255 C  
HETATM    7  C   UNL     1     -10.577  16.444  64.884  1.00  0.00    -0.116 A  
HETATM    8  O   UNL     1      -9.386  15.159  69.343  1.00  0.00    -0.218 OA 
HETATM    9  C   UNL     1     -11.545  15.940  64.019  1.00  0.00     0.120 A  
HETATM   10  C   UNL     1     -11.062  14.683  66.497  1.00  0.00    -0.329 A  
HETATM   11  C   UNL     1     -11.980  14.477  68.847  1.00  0.00    -0.290 C  
HETATM   12  H   UNL     1     -12.648  16.163  69.707  1.00  0.00     0.000 HD 
HETATM   13  O   UNL     1     -11.974  15.880  69.102  1.00  0.00    -0.380 OA 
HETATM   14  C   UNL     1     -12.043  14.193  65.616  1.00  0.00    -0.425 A  
HETATM   15  C   UNL     1     -12.283  14.818  64.388  1.00  0.00    -0.447 A  
BRANCH   3  16
HETATM   16  C   UNL     1      -8.625  12.114  67.631  1.00  0.00    -0.166 C  
BRANCH  16  17
HETATM   17  C   UNL     1      -8.913  11.091  68.704  1.00  0.00    -0.167 A  
HETATM   18  C   UNL     1     -10.228  10.786  69.079  1.00  0.00    -0.229 A  
HETATM   19  C   UNL     1      -8.183   9.534  70.373  1.00  0.00    -0.190 A  
HETATM   20  C   UNL     1     -10.439   9.870  70.099  1.00  0.00    -0.285 A  
HETATM   21  C   UNL     1      -7.872  10.441  69.371  1.00  0.00    -0.163 A  
HETATM   22  N   UNL     1      -9.445   9.238  70.754  1.00  0.00    -0.267 NA 
ENDBRANCH  16  17
ENDBRANCH   3  16
ENDBRANCH   2   3
TORSDOF 3
ENDMDL
MODEL      141
REMARK 921   NORMALIZED FREE ENERGY PREDICTED BY IDOCK:   -3.53 KCAL/MOL
REMARK 922        TOTAL FREE ENERGY PREDICTED BY IDOCK:   -5.17 KCAL/MOL
REMARK 923 INTER-LIGAND FREE ENERGY PREDICTED BY IDOCK:   -4.06 KCAL/MOL
REMARK 924 INTRA-LIGAND FREE ENERGY PREDICTED BY IDOCK:   -1.10 KCAL/MOL
REMARK 927      BINDING AFFINITY PREDICTED BY RF-SCORE:    0.00 PKD
ROOT
HETATM    1  C   UNL     1     -10.487   4.421  65.351  1.00  0.00    -0.219 C  
HETATM    2  C   UNL     1      -9.790   4.432  66.709  1.00  0.00    -0.218 C  
ENDROOT
BRANCH   2   3
HETATM    3  N   UNL     1     -10.106   5.531  67.644  1.00  0.00    -0.163 N  
HETATM    4  C   UNL     1      -7.778   6.722  70.125  1.00  0.00    -0.101 A  
HETATM    5  C   UNL     1     -10.128   5.265  69.024  1.00  0.00    -0.202 C  
HETATM    6  C   UNL     1     -10.330   6.431  70.016  1.00  0.00    -0.245 C  
HETATM    7  C   UNL     1      -6.648   7.484  70.433  1.00  0.00    -0.042 A  
HETATM    8  O   UNL     1      -9.935   4.131  69.477  1.00  0.00    -0.177 OA 
HETATM    9  C   UNL     1      -6.787   8.786  70.907  1.00  0.00    -0.068 A  
HETATM   10  C   UNL     1      -9.069   7.253  70.277  1.00  0.00    -0.152 A  
HETATM   11  C   UNL     1     -10.904   5.871  71.340  1.00  0.00    -0.271 C  
HETATM   12  H   UNL     1     -10.365   4.655  72.842  1.00  0.00     0.000 HD 
HETATM   13  O   UNL     1     -10.013   4.998  72.030  1.00  0.00    -0.170 OA 
HETATM   14  C   UNL     1      -9.191   8.566  70.767  1.00  0.00    -0.204 A  
HETATM   15  C   UNL     1      -8.059   9.325  71.080  1.00  0.00    -0.115 A  
BRANCH   3  16
HETATM   16  C   UNL     1     -10.944   6.630  67.128  1.00  0.00    -0.408 C  
BRANCH  16  17
HETATM   17  C   UNL     1     -10.257   7.942  66.829  1.00  0.00    -0.358 A  
HETATM   18  C   UNL     1      -9.087   7.987  66.060  1.00  0.00    -0.193 A  
HETATM   19  C   UNL     1     -10.075  10.319  67.066  1.00  0.00    -0.218 A  
HETATM   20  C   UNL     1      -8.471   9.211  65.848  1.00  0.00    -0.141 A  
HETATM   21  C   UNL     1     -10.757   9.143  67.337  1.00  0.00    -0.247 A  
HETATM   22  N   UNL     1      -8.939  10.378  66.335  1.00  0.00    -0.147 NA 
ENDBRANCH  16  17
ENDBRANCH   3  16
ENDBRANCH   2   3
TORSDOF 3
ENDMDL
MODEL      142
REMARK 921   NORMALIZED FREE ENERGY PREDICTED BY IDOCK:   -3.52 KCAL/MOL
REMARK 922        TOTAL FREE ENERGY PREDICTED BY IDOCK:   -5.15 KCAL/MOL
REMARK 923 INTER-LIGAND FREE ENERGY PREDICTED BY IDOCK:   -4.00 KCAL/MOL
REMARK 924 INTRA-LIGAND FREE ENERGY PREDICTED BY IDOCK:   -1.15 KCAL/MOL
REMARK 927      BINDING AFFINITY PREDICTED BY RF-SCORE:    0.00 PKD
ROOT
HETATM    1  C   UNL     1      -6.937  11.863  68.938  1.00  0.00    -0.110 C  
HETATM    2  C   UNL     1      -8.238  12.604  68.641  1.00  0.00     0.008 C  
ENDROOT
BRANCH   2   3
HETATM    3  N   UNL     1      -8.185  13.767  67.732  1.00  0.00    -0.159 N  
HETATM    4  C   UNL     1     -10.541  16.490  67.895  1.00  0.00    -0.329 A  
HETATM    5  C   UNL     1      -9.267  14.005  66.867  1.00  0.00    -0.260 C  
HETATM    6  C   UNL     1      -9.279  15.286  66.006  1.00  0.00    -0.308 C  
HETATM    7  C   UNL     1     -10.969  17.662  68.524  1.00  0.00     0.076 A  
HETATM    8  O   UNL     1     -10.242  13.247  66.811  1.00  0.00    -0.247 OA 
HETATM    9  C   UNL     1     -10.586  18.905  68.028  1.00  0.00    -0.376 A  
HETATM   10  C   UNL     1      -9.713  16.541  66.761  1.00  0.00    -0.268 A  
HETATM   11  C   UNL     1     -10.178  15.052  64.768  1.00  0.00    -0.086 C  
HETATM   12  H   UNL     1     -12.106  14.708  64.328  1.00  0.00     0.000 HD 
HETATM   13  O   UNL     1     -11.554  14.852  65.087  1.00  0.00    -0.354 OA 
HETATM   14  C   UNL     1      -9.345  17.806  66.267  1.00  0.00    -0.219 A  
HETATM   15  C   UNL     1      -9.779  18.977  66.895  1.00  0.00    -0.372 A  
BRANCH   3  16
HETATM   16  C   UNL     1      -6.847  14.242  67.331  1.00  0.00    -0.015 C  
BRANCH  16  17
HETATM   17  C   UNL     1      -6.423  15.608  67.817  1.00  0.00    -0.181 A  
HETATM   18  C   UNL     1      -6.970  16.162  68.982  1.00  0.00    -0.178 A  
HETATM   19  C   UNL     1      -5.160  17.628  67.569  1.00  0.00    -0.127 A  
HETATM   20  C   UNL     1      -6.580  17.437  69.365  1.00  0.00    -0.213 A  
HETATM   21  C   UNL     1      -5.494  16.366  67.102  1.00  0.00    -0.100 A  
HETATM   22  N   UNL     1      -5.687  18.182  68.683  1.00  0.00    -0.182 NA 
ENDBRANCH  16  17
ENDBRANCH   3  16
ENDBRANCH   2   3
TORSDOF 3
ENDMDL
MODEL      143
REMARK 921   NORMALIZED FREE ENERGY PREDICTED BY IDOCK:   -3.49 KCAL/MOL
REMARK 922        TOTAL FREE ENERGY PREDICTED BY IDOCK:   -5.12 KCAL/MOL
REMARK 923 INTER-LIGAND FREE ENERGY PREDICTED BY IDOCK:   -4.05 KCAL/MOL
REMARK 924 INTRA-LIGAND FREE ENERGY PREDICTED BY IDOCK:   -1.07 KCAL/MOL
REMARK 927      BINDING AFFINITY PREDICTED BY RF-SCORE:    0.00 PKD
ROOT
HETATM    1  C   UNL     1     -10.880   6.014  66.849  1.00  0.00    -0.396 C  
HETATM    2  C   UNL     1      -9.904   5.758  67.995  1.00  0.00    -0.131 C  
ENDROOT
BRANCH   2   3
HETATM    3  N   UNL     1     -10.226   6.319  69.322  1.00  0.00    -0.180 N  
HETATM    4  C   UNL     1      -7.998   6.077  72.145  1.00  0.00    -0.106 A  
HETATM    5  C   UNL     1     -10.341   5.449  70.420  1.00  0.00    -0.283 C  
HETATM    6  C   UNL     1     -10.550   6.037  71.832  1.00  0.00    -0.272 C  
HETATM    7  C   UNL     1      -6.856   6.535  72.807  1.00  0.00    -0.069 A  
HETATM    8  O   UNL     1     -10.224   4.224  70.301  1.00  0.00    -0.138 OA 
HETATM    9  C   UNL     1      -6.966   7.478  73.825  1.00  0.00    -0.099 A  
HETATM   10  C   UNL     1      -9.272   6.562  72.484  1.00  0.00    -0.138 A  
HETATM   11  C   UNL     1     -11.225   4.970  72.726  1.00  0.00    -0.222 C  
HETATM   12  H   UNL     1     -10.828   3.165  73.510  1.00  0.00     0.000 HD 
HETATM   13  O   UNL     1     -10.414   3.820  72.961  1.00  0.00    -0.162 OA 
HETATM   14  C   UNL     1      -9.365   7.506  73.523  1.00  0.00    -0.316 A  
HETATM   15  C   UNL     1      -8.221   7.959  74.188  1.00  0.00    -0.303 A  
BRANCH   3  16
HETATM   16  C   UNL     1     -10.984   7.585  69.347  1.00  0.00    -0.083 C  
BRANCH  16  17
HETATM   17  C   UNL     1     -10.204   8.862  69.138  1.00  0.00    -0.214 A  
HETATM   18  C   UNL     1     -10.701   9.888  68.324  1.00  0.00    -0.276 A  
HETATM   19  C   UNL     1      -8.258  10.215  69.485  1.00  0.00    -0.168 A  
HETATM   20  C   UNL     1      -9.929  11.024  68.130  1.00  0.00    -0.177 A  
HETATM   21  C   UNL     1      -8.953   9.041  69.731  1.00  0.00    -0.157 A  
HETATM   22  N   UNL     1      -8.718  11.209  68.693  1.00  0.00    -0.160 NA 
ENDBRANCH  16  17
ENDBRANCH   3  16
ENDBRANCH   2   3
TORSDOF 3
ENDMDL
MODEL      144
REMARK 921   NORMALIZED FREE ENERGY PREDICTED BY IDOCK:   -3.48 KCAL/MOL
REMARK 922        TOTAL FREE ENERGY PREDICTED BY IDOCK:   -5.11 KCAL/MOL
REMARK 923 INTER-LIGAND FREE ENERGY PREDICTED BY IDOCK:   -3.94 KCAL/MOL
REMARK 924 INTRA-LIGAND FREE ENERGY PREDICTED BY IDOCK:   -1.18 KCAL/MOL
REMARK 927      BINDING AFFINITY PREDICTED BY RF-SCORE:    0.00 PKD
ROOT
HETATM    1  C   UNL     1      -7.510   8.265  63.090  1.00  0.00    -0.116 C  
HETATM    2  C   UNL     1      -8.229   9.450  63.729  1.00  0.00    -0.165 C  
ENDROOT
BRANCH   2   3
HETATM    3  N   UNL     1      -8.288   9.516  65.203  1.00  0.00    -0.134 N  
HETATM    4  C   UNL     1     -10.703   7.680  67.150  1.00  0.00    -0.361 A  
HETATM    5  C   UNL     1      -9.446  10.025  65.815  1.00  0.00    -0.214 C  
HETATM    6  C   UNL     1      -9.570   9.979  67.353  1.00  0.00    -0.182 C  
HETATM    7  C   UNL     1     -11.112   6.466  67.708  1.00  0.00    -0.376 A  
HETATM    8  O   UNL     1     -10.399  10.460  65.159  1.00  0.00    -0.295 OA 
HETATM    9  C   UNL     1     -10.810   6.167  69.034  1.00  0.00    -0.416 A  
HETATM   10  C   UNL     1      -9.976   8.614  67.906  1.00  0.00    -0.232 A  
HETATM   11  C   UNL     1     -10.564  11.074  67.811  1.00  0.00    -0.211 C  
HETATM   12  H   UNL     1     -12.511  11.533  67.643  1.00  0.00     0.000 HD 
HETATM   13  O   UNL     1     -11.901  10.861  67.362  1.00  0.00    -0.465 OA 
HETATM   14  C   UNL     1      -9.690   8.300  69.247  1.00  0.00    -0.177 A  
HETATM   15  C   UNL     1     -10.105   7.087  69.806  1.00  0.00    -0.197 A  
BRANCH   3  16
HETATM   16  C   UNL     1      -7.004   9.635  65.920  1.00  0.00    -0.097 C  
BRANCH  16  17
HETATM   17  C   UNL     1      -6.665   8.551  66.916  1.00  0.00    -0.062 A  
HETATM   18  C   UNL     1      -6.990   7.212  66.666  1.00  0.00    -0.077 A  
HETATM   19  C   UNL     1      -5.781   7.839  69.026  1.00  0.00    -0.026 A  
HETATM   20  C   UNL     1      -6.695   6.259  67.630  1.00  0.00    -0.061 A  
HETATM   21  C   UNL     1      -6.043   8.862  68.127  1.00  0.00    -0.050 A  
HETATM   22  N   UNL     1      -6.099   6.544  68.804  1.00  0.00    -0.024 NA 
ENDBRANCH  16  17
ENDBRANCH   3  16
ENDBRANCH   2   3
TORSDOF 3
ENDMDL
MODEL      145
REMARK 921   NORMALIZED FREE ENERGY PREDICTED BY IDOCK:   -3.47 KCAL/MOL
REMARK 922        TOTAL FREE ENERGY PREDICTED BY IDOCK:   -5.09 KCAL/MOL
REMARK 923 INTER-LIGAND FREE ENERGY PREDICTED BY IDOCK:   -4.00 KCAL/MOL
REMARK 924 INTRA-LIGAND FREE ENERGY PREDICTED BY IDOCK:   -1.10 KCAL/MOL
REMARK 927      BINDING AFFINITY PREDICTED BY RF-SCORE:    0.00 PKD
ROOT
HETATM    1  C   UNL     1     -10.844  11.691  66.588  1.00  0.00    -0.327 C  
HETATM    2  C   UNL     1     -11.151  10.477  67.461  1.00  0.00    -0.290 C  
ENDROOT
BRANCH   2   3
HETATM    3  N   UNL     1     -10.075   9.489  67.682  1.00  0.00    -0.191 N  
HETATM    4  C   UNL     1     -10.127   7.108  70.388  1.00  0.00    -0.199 A  
HETATM    5  C   UNL     1      -9.334   9.546  68.875  1.00  0.00    -0.149 C  
HETATM    6  C   UNL     1      -8.296   8.443  69.174  1.00  0.00    -0.122 C  
HETATM    7  C   UNL     1     -10.620   5.912  70.915  1.00  0.00    -0.319 A  
HETATM    8  O   UNL     1      -9.525  10.422  69.726  1.00  0.00    -0.154 OA 
HETATM    9  C   UNL     1      -9.892   4.733  70.780  1.00  0.00    -0.280 A  
HETATM   10  C   UNL     1      -8.900   7.145  69.706  1.00  0.00    -0.142 A  
HETATM   11  C   UNL     1      -7.239   9.000  70.158  1.00  0.00    -0.062 C  
HETATM   12  H   UNL     1      -7.116   9.662  72.049  1.00  0.00     0.000 HD 
HETATM   13  O   UNL     1      -7.764   9.320  71.445  1.00  0.00    -0.334 OA 
HETATM   14  C   UNL     1      -8.173   5.946  69.588  1.00  0.00    -0.110 A  
HETATM   15  C   UNL     1      -8.665   4.751  70.121  1.00  0.00    -0.121 A  
BRANCH   3  16
HETATM   16  C   UNL     1      -9.431   8.920  66.483  1.00  0.00    -0.211 C  
BRANCH  16  17
HETATM   17  C   UNL     1      -9.618   7.442  66.233  1.00  0.00    -0.119 A  
HETATM   18  C   UNL     1     -10.735   6.760  66.732  1.00  0.00    -0.312 A  
HETATM   19  C   UNL     1      -8.862   5.350  65.346  1.00  0.00    -0.143 A  
HETATM   20  C   UNL     1     -10.841   5.395  66.512  1.00  0.00    -0.148 A  
HETATM   21  C   UNL     1      -8.665   6.711  65.522  1.00  0.00    -0.051 A  
HETATM   22  N   UNL     1      -9.928   4.675  65.830  1.00  0.00    -0.214 NA 
ENDBRANCH  16  17
ENDBRANCH   3  16
ENDBRANCH   2   3
TORSDOF 3
ENDMDL
MODEL      146
REMARK 921   NORMALIZED FREE ENERGY PREDICTED BY IDOCK:   -3.45 KCAL/MOL
REMARK 922        TOTAL FREE ENERGY PREDICTED BY IDOCK:   -5.07 KCAL/MOL
REMARK 923 INTER-LIGAND FREE ENERGY PREDICTED BY IDOCK:   -4.70 KCAL/MOL
REMARK 924 INTRA-LIGAND FREE ENERGY PREDICTED BY IDOCK:   -0.37 KCAL/MOL
REMARK 927      BINDING AFFINITY PREDICTED BY RF-SCORE:    0.00 PKD
ROOT
HETATM    1  C   UNL     1     -12.423  13.824  65.251  1.00  0.00    -0.512 C  
HETATM    2  C   UNL     1     -10.954  13.595  64.904  1.00  0.00    -0.367 C  
ENDROOT
BRANCH   2   3
HETATM    3  N   UNL     1     -10.116  12.859  65.872  1.00  0.00    -0.286 N  
HETATM    4  C   UNL     1      -7.938  10.150  64.917  1.00  0.00    -0.150 A  
HETATM    5  C   UNL     1     -10.341  11.484  66.059  1.00  0.00    -0.246 C  
HETATM    6  C   UNL     1      -9.390  10.679  66.971  1.00  0.00    -0.175 C  
HETATM    7  C   UNL     1      -6.732   9.732  64.348  1.00  0.00    -0.119 A  
HETATM    8  O   UNL     1     -11.246  10.881  65.471  1.00  0.00     0.048 OA 
HETATM    9  C   UNL     1      -5.639   9.438  65.159  1.00  0.00    -0.054 A  
HETATM   10  C   UNL     1      -8.070  10.290  66.308  1.00  0.00    -0.129 A  
HETATM   11  C   UNL     1     -10.133   9.425  67.491  1.00  0.00    -0.215 C  
HETATM   12  H   UNL     1     -10.934   7.726  66.786  1.00  0.00     0.000 HD 
HETATM   13  O   UNL     1     -10.478   8.495  66.467  1.00  0.00    -0.256 OA 
HETATM   14  C   UNL     1      -6.959   9.978  67.112  1.00  0.00    -0.084 A  
HETATM   15  C   UNL     1      -5.755   9.555  66.542  1.00  0.00    -0.054 A  
BRANCH   3  16
HETATM   16  C   UNL     1      -9.545  13.635  66.989  1.00  0.00    -0.251 C  
BRANCH  16  17
HETATM   17  C   UNL     1     -10.504  14.146  68.038  1.00  0.00    -0.240 A  
HETATM   18  C   UNL     1     -11.232  13.262  68.845  1.00  0.00    -0.322 A  
HETATM   19  C   UNL     1     -11.626  15.939  69.163  1.00  0.00    -0.379 A  
HETATM   20  C   UNL     1     -12.132  13.780  69.765  1.00  0.00    -0.340 A  
HETATM   21  C   UNL     1     -10.711  15.516  68.211  1.00  0.00    -0.271 A  
HETATM   22  N   UNL     1     -12.345  15.099  69.941  1.00  0.00    -0.301 NA 
ENDBRANCH  16  17
ENDBRANCH   3  16
ENDBRANCH   2   3
TORSDOF 3
ENDMDL
MODEL      147
REMARK 921   NORMALIZED FREE ENERGY PREDICTED BY IDOCK:   -3.44 KCAL/MOL
REMARK 922        TOTAL FREE ENERGY PREDICTED BY IDOCK:   -5.06 KCAL/MOL
REMARK 923 INTER-LIGAND FREE ENERGY PREDICTED BY IDOCK:   -4.56 KCAL/MOL
REMARK 924 INTRA-LIGAND FREE ENERGY PREDICTED BY IDOCK:   -0.49 KCAL/MOL
REMARK 927      BINDING AFFINITY PREDICTED BY RF-SCORE:    0.00 PKD
ROOT
HETATM    1  C   UNL     1      -9.844   4.818  72.160  1.00  0.00    -0.228 C  
HETATM    2  C   UNL     1      -9.461   6.290  72.026  1.00  0.00    -0.151 C  
ENDROOT
BRANCH   2   3
HETATM    3  N   UNL     1      -9.812   6.988  70.772  1.00  0.00    -0.186 N  
HETATM    4  C   UNL     1      -7.548   7.258  67.980  1.00  0.00    -0.115 A  
HETATM    5  C   UNL     1      -9.066   8.117  70.391  1.00  0.00    -0.150 C  
HETATM    6  C   UNL     1      -9.340   8.778  69.023  1.00  0.00    -0.145 C  
HETATM    7  C   UNL     1      -6.950   6.661  66.867  1.00  0.00    -0.067 A  
HETATM    8  O   UNL     1      -8.155   8.570  71.094  1.00  0.00    -0.107 OA 
HETATM    9  C   UNL     1      -7.480   6.857  65.595  1.00  0.00    -0.085 A  
HETATM   10  C   UNL     1      -8.696   8.054  67.841  1.00  0.00    -0.128 A  
HETATM   11  C   UNL     1      -8.884  10.255  69.077  1.00  0.00    -0.168 C  
HETATM   12  H   UNL     1      -7.197  11.323  69.282  1.00  0.00     0.000 HD 
HETATM   13  O   UNL     1      -7.477  10.417  69.249  1.00  0.00    -0.094 OA 
HETATM   14  C   UNL     1      -9.213   8.251  66.548  1.00  0.00    -0.236 A  
HETATM   15  C   UNL     1      -8.609   7.658  65.434  1.00  0.00    -0.074 A  
BRANCH   3  16
HETATM   16  C   UNL     1     -11.211   6.885  70.317  1.00  0.00    -0.316 C  
BRANCH  16  17
HETATM   17  C   UNL     1     -12.254   7.635  71.112  1.00  0.00    -0.310 A  
HETATM   18  C   UNL     1     -13.444   7.014  71.513  1.00  0.00    -0.363 A  
HETATM   19  C   UNL     1     -13.068   9.637  72.146  1.00  0.00    -0.431 A  
HETATM   20  C   UNL     1     -14.388   7.757  72.205  1.00  0.00    -0.261 A  
HETATM   21  C   UNL     1     -12.070   8.979  71.444  1.00  0.00    -0.392 A  
HETATM   22  N   UNL     1     -14.226   9.055  72.530  1.00  0.00    -0.558 NA 
ENDBRANCH  16  17
ENDBRANCH   3  16
ENDBRANCH   2   3
TORSDOF 3
ENDMDL
MODEL      148
REMARK 921   NORMALIZED FREE ENERGY PREDICTED BY IDOCK:   -3.43 KCAL/MOL
REMARK 922        TOTAL FREE ENERGY PREDICTED BY IDOCK:   -5.06 KCAL/MOL
REMARK 923 INTER-LIGAND FREE ENERGY PREDICTED BY IDOCK:   -4.71 KCAL/MOL
REMARK 924 INTRA-LIGAND FREE ENERGY PREDICTED BY IDOCK:   -0.35 KCAL/MOL
REMARK 927      BINDING AFFINITY PREDICTED BY RF-SCORE:    0.00 PKD
ROOT
HETATM    1  C   UNL     1     -11.648  12.579  69.134  1.00  0.00    -0.375 C  
HETATM    2  C   UNL     1     -11.757  11.132  68.661  1.00  0.00    -0.320 C  
ENDROOT
BRANCH   2   3
HETATM    3  N   UNL     1     -10.815  10.666  67.624  1.00  0.00    -0.270 N  
HETATM    4  C   UNL     1      -8.996   7.564  67.880  1.00  0.00    -0.131 A  
HETATM    5  C   UNL     1      -9.460  10.503  67.959  1.00  0.00    -0.148 C  
HETATM    6  C   UNL     1      -8.491   9.896  66.921  1.00  0.00    -0.125 C  
HETATM    7  C   UNL     1      -8.991   6.171  67.770  1.00  0.00    -0.115 A  
HETATM    8  O   UNL     1      -9.024  10.780  69.082  1.00  0.00    -0.159 OA 
HETATM    9  C   UNL     1      -8.545   5.561  66.601  1.00  0.00    -0.116 A  
HETATM   10  C   UNL     1      -8.564   8.374  66.816  1.00  0.00    -0.123 A  
HETATM   11  C   UNL     1      -7.050  10.355  67.249  1.00  0.00    -0.088 C  
HETATM   12  H   UNL     1      -5.673  10.143  68.694  1.00  0.00     0.000 HD 
HETATM   13  O   UNL     1      -6.558   9.861  68.492  1.00  0.00    -0.054 OA 
HETATM   14  C   UNL     1      -8.107   7.740  65.646  1.00  0.00    -0.129 A  
HETATM   15  C   UNL     1      -8.097   6.346  65.540  1.00  0.00    -0.130 A  
BRANCH   3  16
HETATM   16  C   UNL     1     -11.159  10.968  66.221  1.00  0.00    -0.037 C  
BRANCH  16  17
HETATM   17  C   UNL     1     -11.204  12.424  65.819  1.00  0.00    -0.370 A  
HETATM   18  C   UNL     1     -12.392  13.013  65.367  1.00  0.00    -0.538 A  
HETATM   19  C   UNL     1     -10.135  14.536  65.452  1.00  0.00    -0.364 A  
HETATM   20  C   UNL     1     -12.373  14.342  64.970  1.00  0.00    -0.428 A  
HETATM   21  C   UNL     1     -10.054  13.214  65.862  1.00  0.00    -0.292 A  
HETATM   22  N   UNL     1     -11.270  15.116  65.003  1.00  0.00    -0.395 NA 
ENDBRANCH  16  17
ENDBRANCH   3  16
ENDBRANCH   2   3
TORSDOF 3
ENDMDL
MODEL      149
REMARK 921   NORMALIZED FREE ENERGY PREDICTED BY IDOCK:   -3.43 KCAL/MOL
REMARK 922        TOTAL FREE ENERGY PREDICTED BY IDOCK:   -5.05 KCAL/MOL
REMARK 923 INTER-LIGAND FREE ENERGY PREDICTED BY IDOCK:   -4.61 KCAL/MOL
REMARK 924 INTRA-LIGAND FREE ENERGY PREDICTED BY IDOCK:   -0.44 KCAL/MOL
REMARK 927      BINDING AFFINITY PREDICTED BY RF-SCORE:    0.00 PKD
ROOT
HETATM    1  C   UNL     1     -11.034  14.802  69.498  1.00  0.00    -0.287 C  
HETATM    2  C   UNL     1     -11.441  15.797  68.414  1.00  0.00    -0.365 C  
ENDROOT
BRANCH   2   3
HETATM    3  N   UNL     1     -10.375  16.406  67.593  1.00  0.00    -0.277 N  
HETATM    4  C   UNL     1      -7.711  18.388  68.996  1.00  0.00    -0.163 A  
HETATM    5  C   UNL     1     -10.255  17.806  67.564  1.00  0.00    -0.356 C  
HETATM    6  C   UNL     1      -9.068  18.447  66.813  1.00  0.00    -0.293 C  
HETATM    7  C   UNL     1      -6.494  18.438  69.679  1.00  0.00    -0.155 A  
HETATM    8  O   UNL     1     -11.039  18.546  68.168  1.00  0.00    -0.012 OA 
HETATM    9  C   UNL     1      -5.298  18.542  68.975  1.00  0.00    -0.198 A  
HETATM   10  C   UNL     1      -7.754  18.432  67.593  1.00  0.00    -0.236 A  
HETATM   11  C   UNL     1      -9.449  19.892  66.409  1.00  0.00    -0.412 C  
HETATM   12  H   UNL     1      -9.885  21.651  67.271  1.00  0.00     0.000 HD 
HETATM   13  O   UNL     1      -9.652  20.765  67.518  1.00  0.00    -0.412 OA 
HETATM   14  C   UNL     1      -6.537  18.548  66.898  1.00  0.00    -0.204 A  
HETATM   15  C   UNL     1      -5.319  18.603  67.583  1.00  0.00    -0.160 A  
BRANCH   3  16
HETATM   16  C   UNL     1      -9.909  15.637  66.424  1.00  0.00    -0.274 C  
BRANCH  16  17
HETATM   17  C   UNL     1      -9.207  14.326  66.694  1.00  0.00    -0.276 A  
HETATM   18  C   UNL     1      -9.433  13.205  65.886  1.00  0.00    -0.036 A  
HETATM   19  C   UNL     1      -7.738  12.962  68.005  1.00  0.00    -0.143 A  
HETATM   20  C   UNL     1      -8.797  12.013  66.199  1.00  0.00    -0.018 A  
HETATM   21  C   UNL     1      -8.334  14.192  67.776  1.00  0.00    -0.175 A  
HETATM   22  N   UNL     1      -7.954  11.867  67.242  1.00  0.00    -0.163 NA 
ENDBRANCH  16  17
ENDBRANCH   3  16
ENDBRANCH   2   3
TORSDOF 3
ENDMDL
MODEL      150
REMARK 921   NORMALIZED FREE ENERGY PREDICTED BY IDOCK:   -3.42 KCAL/MOL
REMARK 922        TOTAL FREE ENERGY PREDICTED BY IDOCK:   -5.04 KCAL/MOL
REMARK 923 INTER-LIGAND FREE ENERGY PREDICTED BY IDOCK:   -4.37 KCAL/MOL
REMARK 924 INTRA-LIGAND FREE ENERGY PREDICTED BY IDOCK:   -0.67 KCAL/MOL
REMARK 927      BINDING AFFINITY PREDICTED BY RF-SCORE:    0.00 PKD
ROOT
HETATM    1  C   UNL     1     -11.043  15.666  65.086  1.00  0.00    -0.357 C  
HETATM    2  C   UNL     1     -11.037  14.399  64.235  1.00  0.00    -0.044 C  
ENDROOT
BRANCH   2   3
HETATM    3  N   UNL     1     -10.909  13.099  64.923  1.00  0.00    -0.315 N  
HETATM    4  C   UNL     1      -7.869  12.026  66.535  1.00  0.00     0.128 A  
HETATM    5  C   UNL     1      -9.980  12.162  64.441  1.00  0.00    -0.214 C  
HETATM    6  C   UNL     1      -9.747  10.854  65.227  1.00  0.00    -0.296 C  
HETATM    7  C   UNL     1      -7.010  12.102  67.635  1.00  0.00    -0.121 A  
HETATM    8  O   UNL     1      -9.296  12.374  63.433  1.00  0.00    -0.015 OA 
HETATM    9  C   UNL     1      -7.094  11.161  68.657  1.00  0.00    -0.090 A  
HETATM   10  C   UNL     1      -8.835  11.011  66.444  1.00  0.00    -0.182 A  
HETATM   11  C   UNL     1      -9.193   9.778  64.262  1.00  0.00    -0.232 C  
HETATM   12  H   UNL     1      -7.563   9.425  63.145  1.00  0.00     0.000 HD 
HETATM   13  O   UNL     1      -7.903  10.085  63.738  1.00  0.00    -0.144 OA 
HETATM   14  C   UNL     1      -8.898  10.062  67.481  1.00  0.00    -0.130 A  
HETATM   15  C   UNL     1      -8.034  10.137  68.577  1.00  0.00    -0.104 A  
BRANCH   3  16
HETATM   16  C   UNL     1     -12.098  12.602  65.642  1.00  0.00    -0.443 C  
BRANCH  16  17
HETATM   17  C   UNL     1     -12.028  12.563  67.150  1.00  0.00    -0.285 A  
HETATM   18  C   UNL     1     -11.989  13.744  67.903  1.00  0.00    -0.391 A  
HETATM   19  C   UNL     1     -11.876  11.359  69.216  1.00  0.00    -0.349 A  
HETATM   20  C   UNL     1     -11.883  13.656  69.283  1.00  0.00    -0.346 A  
HETATM   21  C   UNL     1     -11.973  11.346  67.833  1.00  0.00    -0.120 A  
HETATM   22  N   UNL     1     -11.825  12.489  69.956  1.00  0.00    -0.323 NA 
ENDBRANCH  16  17
ENDBRANCH   3  16
ENDBRANCH   2   3
TORSDOF 3
ENDMDL
MODEL      151
REMARK 921   NORMALIZED FREE ENERGY PREDICTED BY IDOCK:   -3.41 KCAL/MOL
REMARK 922        TOTAL FREE ENERGY PREDICTED BY IDOCK:   -5.03 KCAL/MOL
REMARK 923 INTER-LIGAND FREE ENERGY PREDICTED BY IDOCK:   -4.00 KCAL/MOL
REMARK 924 INTRA-LIGAND FREE ENERGY PREDICTED BY IDOCK:   -1.02 KCAL/MOL
REMARK 927      BINDING AFFINITY PREDICTED BY RF-SCORE:    0.00 PKD
ROOT
HETATM    1  C   UNL     1      -6.217  11.751  68.130  1.00  0.00    -0.050 C  
HETATM    2  C   UNL     1      -6.194  11.209  66.703  1.00  0.00    -0.136 C  
ENDROOT
BRANCH   2   3
HETATM    3  N   UNL     1      -7.322  10.365  66.261  1.00  0.00    -0.121 N  
HETATM    4  C   UNL     1      -8.513   7.538  68.155  1.00  0.00    -0.124 A  
HETATM    5  C   UNL     1      -7.091   9.005  65.991  1.00  0.00    -0.085 C  
HETATM    6  C   UNL     1      -8.285   8.087  65.654  1.00  0.00    -0.135 C  
HETATM    7  C   UNL     1      -9.253   7.052  69.236  1.00  0.00    -0.139 A  
HETATM    8  O   UNL     1      -5.963   8.503  66.069  1.00  0.00    -0.046 OA 
HETATM    9  C   UNL     1     -10.569   6.635  69.055  1.00  0.00    -0.273 A  
HETATM   10  C   UNL     1      -9.081   7.625  66.873  1.00  0.00    -0.171 A  
HETATM   11  C   UNL     1      -7.772   6.873  64.841  1.00  0.00    -0.113 C  
HETATM   12  H   UNL     1      -6.579   5.277  65.074  1.00  0.00     0.000 HD 
HETATM   13  O   UNL     1      -6.894   6.021  65.572  1.00  0.00    -0.050 OA 
HETATM   14  C   UNL     1     -10.408   7.189  66.707  1.00  0.00    -0.297 A  
HETATM   15  C   UNL     1     -11.145   6.698  67.788  1.00  0.00    -0.332 A  
BRANCH   3  16
HETATM   16  C   UNL     1      -8.430  11.041  65.559  1.00  0.00    -0.069 C  
BRANCH  16  17
HETATM   17  C   UNL     1      -9.678  11.334  66.357  1.00  0.00    -0.238 A  
HETATM   18  C   UNL     1     -10.683  12.168  65.849  1.00  0.00    -0.302 A  
HETATM   19  C   UNL     1     -10.998  11.123  68.345  1.00  0.00    -0.227 A  
HETATM   20  C   UNL     1     -11.791  12.440  66.637  1.00  0.00    -0.325 A  
HETATM   21  C   UNL     1      -9.851  10.801  67.636  1.00  0.00    -0.193 A  
HETATM   22  N   UNL     1     -11.970  11.935  67.874  1.00  0.00    -0.577 NA 
ENDBRANCH  16  17
ENDBRANCH   3  16
ENDBRANCH   2   3
TORSDOF 3
ENDMDL
MODEL      152
REMARK 921   NORMALIZED FREE ENERGY PREDICTED BY IDOCK:   -3.41 KCAL/MOL
REMARK 922        TOTAL FREE ENERGY PREDICTED BY IDOCK:   -5.02 KCAL/MOL
REMARK 923 INTER-LIGAND FREE ENERGY PREDICTED BY IDOCK:   -4.55 KCAL/MOL
REMARK 924 INTRA-LIGAND FREE ENERGY PREDICTED BY IDOCK:   -0.47 KCAL/MOL
REMARK 927      BINDING AFFINITY PREDICTED BY RF-SCORE:    0.00 PKD
ROOT
HETATM    1  C   UNL     1      -6.895  14.242  67.598  1.00  0.00    -0.201 C  
HETATM    2  C   UNL     1      -6.949  12.733  67.824  1.00  0.00    -0.131 C  
ENDROOT
BRANCH   2   3
HETATM    3  N   UNL     1      -7.932  11.949  67.049  1.00  0.00    -0.164 N  
HETATM    4  C   UNL     1     -10.905  13.399  65.617  1.00  0.00    -0.292 A  
HETATM    5  C   UNL     1      -9.247  11.837  67.533  1.00  0.00    -0.175 C  
HETATM    6  C   UNL     1     -10.313  11.129  66.669  1.00  0.00    -0.286 C  
HETATM    7  C   UNL     1     -11.492  14.158  64.602  1.00  0.00    -0.392 A  
HETATM    8  O   UNL     1      -9.596  12.338  68.608  1.00  0.00    -0.156 OA 
HETATM    9  C   UNL     1     -12.078  13.531  63.506  1.00  0.00    -0.425 A  
HETATM   10  C   UNL     1     -10.885  11.996  65.549  1.00  0.00    -0.336 A  
HETATM   11  C   UNL     1     -11.442  10.608  67.590  1.00  0.00    -0.086 C  
HETATM   12  H   UNL     1     -12.868  11.322  68.808  1.00  0.00     0.000 HD 
HETATM   13  O   UNL     1     -12.176  11.642  68.243  1.00  0.00    -0.525 OA 
HETATM   14  C   UNL     1     -11.491  11.379  64.440  1.00  0.00    -0.148 A  
HETATM   15  C   UNL     1     -12.083  12.141  63.427  1.00  0.00    -0.608 A  
BRANCH   3  16
HETATM   16  C   UNL     1      -7.403  10.866  66.198  1.00  0.00    -0.103 C  
BRANCH  16  17
HETATM   17  C   UNL     1      -7.409   9.469  66.774  1.00  0.00    -0.090 A  
HETATM   18  C   UNL     1      -6.626   9.142  67.888  1.00  0.00    -0.063 A  
HETATM   19  C   UNL     1      -8.125   7.183  66.732  1.00  0.00    -0.113 A  
HETATM   20  C   UNL     1      -6.634   7.836  68.354  1.00  0.00    -0.054 A  
HETATM   21  C   UNL     1      -8.176   8.458  66.190  1.00  0.00    -0.113 A  
HETATM   22  N   UNL     1      -7.366   6.850  67.800  1.00  0.00    -0.094 NA 
ENDBRANCH  16  17
ENDBRANCH   3  16
ENDBRANCH   2   3
TORSDOF 3
ENDMDL
MODEL      153
REMARK 921   NORMALIZED FREE ENERGY PREDICTED BY IDOCK:   -3.40 KCAL/MOL
REMARK 922        TOTAL FREE ENERGY PREDICTED BY IDOCK:   -5.01 KCAL/MOL
REMARK 923 INTER-LIGAND FREE ENERGY PREDICTED BY IDOCK:   -3.86 KCAL/MOL
REMARK 924 INTRA-LIGAND FREE ENERGY PREDICTED BY IDOCK:   -1.15 KCAL/MOL
REMARK 927      BINDING AFFINITY PREDICTED BY RF-SCORE:    0.00 PKD
ROOT
HETATM    1  C   UNL     1      -8.680   3.076  72.050  1.00  0.00    -0.110 C  
HETATM    2  C   UNL     1      -8.587   4.599  72.067  1.00  0.00    -0.118 C  
ENDROOT
BRANCH   2   3
HETATM    3  N   UNL     1      -9.471   5.360  71.161  1.00  0.00    -0.153 N  
HETATM    4  C   UNL     1      -9.069   8.888  70.539  1.00  0.00    -0.233 A  
HETATM    5  C   UNL     1     -10.246   6.408  71.689  1.00  0.00    -0.196 C  
HETATM    6  C   UNL     1     -11.075   7.291  70.732  1.00  0.00    -0.290 C  
HETATM    7  C   UNL     1      -8.383   9.914  69.884  1.00  0.00    -0.200 A  
HETATM    8  O   UNL     1     -10.244   6.683  72.894  1.00  0.00    -0.179 OA 
HETATM    9  C   UNL     1      -8.879  10.442  68.695  1.00  0.00    -0.142 A  
HETATM   10  C   UNL     1     -10.261   8.365  70.011  1.00  0.00    -0.202 A  
HETATM   11  C   UNL     1     -12.245   7.927  71.520  1.00  0.00    -0.311 C  
HETATM   12  H   UNL     1     -12.545   9.227  73.019  1.00  0.00     0.000 HD 
HETATM   13  O   UNL     1     -11.828   8.837  72.535  1.00  0.00    -0.334 OA 
HETATM   14  C   UNL     1     -10.753   8.918  68.815  1.00  0.00    -0.123 A  
HETATM   15  C   UNL     1     -10.068   9.948  68.164  1.00  0.00    -0.193 A  
BRANCH   3  16
HETATM   16  C   UNL     1      -9.963   4.659  69.960  1.00  0.00    -0.232 C  
BRANCH  16  17
HETATM   17  C   UNL     1      -9.415   5.107  68.625  1.00  0.00    -0.178 A  
HETATM   18  C   UNL     1      -8.142   5.682  68.522  1.00  0.00    -0.103 A  
HETATM   19  C   UNL     1      -9.647   5.440  66.264  1.00  0.00    -0.160 A  
HETATM   20  C   UNL     1      -7.700   6.115  67.281  1.00  0.00    -0.094 A  
HETATM   21  C   UNL     1     -10.177   4.985  67.462  1.00  0.00    -0.184 A  
HETATM   22  N   UNL     1      -8.425   6.007  66.150  1.00  0.00    -0.129 NA 
ENDBRANCH  16  17
ENDBRANCH   3  16
ENDBRANCH   2   3
TORSDOF 3
ENDMDL
MODEL      154
REMARK 921   NORMALIZED FREE ENERGY PREDICTED BY IDOCK:   -3.39 KCAL/MOL
REMARK 922        TOTAL FREE ENERGY PREDICTED BY IDOCK:   -5.01 KCAL/MOL
REMARK 923 INTER-LIGAND FREE ENERGY PREDICTED BY IDOCK:   -3.83 KCAL/MOL
REMARK 924 INTRA-LIGAND FREE ENERGY PREDICTED BY IDOCK:   -1.18 KCAL/MOL
REMARK 927      BINDING AFFINITY PREDICTED BY RF-SCORE:    0.00 PKD
ROOT
HETATM    1  C   UNL     1     -11.652  11.976  68.230  1.00  0.00    -0.394 C  
HETATM    2  C   UNL     1     -11.178  11.546  66.844  1.00  0.00    -0.298 C  
ENDROOT
BRANCH   2   3
HETATM    3  N   UNL     1     -10.071  10.572  66.759  1.00  0.00    -0.211 N  
HETATM    4  C   UNL     1      -7.367  10.466  69.140  1.00  0.00    -0.102 A  
HETATM    5  C   UNL     1      -8.761  11.045  66.575  1.00  0.00    -0.168 C  
HETATM    6  C   UNL     1      -7.584  10.047  66.613  1.00  0.00    -0.104 C  
HETATM    7  C   UNL     1      -6.904  10.093  70.405  1.00  0.00    -0.129 A  
HETATM    8  O   UNL     1      -8.510  12.248  66.438  1.00  0.00    -0.059 OA 
HETATM    9  C   UNL     1      -6.211   8.898  70.574  1.00  0.00    -0.042 A  
HETATM   10  C   UNL     1      -7.153   9.644  68.022  1.00  0.00    -0.080 A  
HETATM   11  C   UNL     1      -6.393  10.643  65.824  1.00  0.00    -0.117 C  
HETATM   12  H   UNL     1      -5.117  12.189  65.928  1.00  0.00     0.000 HD 
HETATM   13  O   UNL     1      -5.848  11.823  66.411  1.00  0.00    -0.212 OA 
HETATM   14  C   UNL     1      -6.442   8.445  68.210  1.00  0.00    -0.059 A  
HETATM   15  C   UNL     1      -5.974   8.076  69.475  1.00  0.00    -0.033 A  
BRANCH   3  16
HETATM   16  C   UNL     1     -10.405   9.221  66.270  1.00  0.00    -0.122 C  
BRANCH  16  17
HETATM   17  C   UNL     1     -10.480   8.113  67.295  1.00  0.00    -0.379 A  
HETATM   18  C   UNL     1     -10.562   6.771  66.905  1.00  0.00    -0.374 A  
HETATM   19  C   UNL     1     -10.600   7.357  69.565  1.00  0.00    -0.237 A  
HETATM   20  C   UNL     1     -10.671   5.793  67.883  1.00  0.00    -0.213 A  
HETATM   21  C   UNL     1     -10.497   8.403  68.661  1.00  0.00    -0.197 A  
HETATM   22  N   UNL     1     -10.692   6.058  69.204  1.00  0.00    -0.296 NA 
ENDBRANCH  16  17
ENDBRANCH   3  16
ENDBRANCH   2   3
TORSDOF 3
ENDMDL
MODEL      155
REMARK 921   NORMALIZED FREE ENERGY PREDICTED BY IDOCK:   -3.39 KCAL/MOL
REMARK 922        TOTAL FREE ENERGY PREDICTED BY IDOCK:   -5.00 KCAL/MOL
REMARK 923 INTER-LIGAND FREE ENERGY PREDICTED BY IDOCK:   -4.32 KCAL/MOL
REMARK 924 INTRA-LIGAND FREE ENERGY PREDICTED BY IDOCK:   -0.68 KCAL/MOL
REMARK 927      BINDING AFFINITY PREDICTED BY RF-SCORE:    0.00 PKD
ROOT
HETATM    1  C   UNL     1      -6.767  12.177  67.830  1.00  0.00    -0.085 C  
HETATM    2  C   UNL     1      -7.513  11.332  66.801  1.00  0.00    -0.146 C  
ENDROOT
BRANCH   2   3
HETATM    3  N   UNL     1      -8.670  10.538  67.261  1.00  0.00    -0.126 N  
HETATM    4  C   UNL     1      -8.713   8.774  70.404  1.00  0.00    -0.181 A  
HETATM    5  C   UNL     1      -8.512   9.155  67.459  1.00  0.00    -0.116 C  
HETATM    6  C   UNL     1      -9.677   8.339  68.061  1.00  0.00    -0.187 C  
HETATM    7  C   UNL     1      -8.852   8.814  71.794  1.00  0.00    -0.256 A  
HETATM    8  O   UNL     1      -7.447   8.575  67.219  1.00  0.00    -0.090 OA 
HETATM    9  C   UNL     1     -10.081   8.534  72.384  1.00  0.00    -0.365 A  
HETATM   10  C   UNL     1      -9.804   8.460  69.578  1.00  0.00    -0.181 A  
HETATM   11  C   UNL     1      -9.524   6.858  67.639  1.00  0.00    -0.123 C  
HETATM   12  H   UNL     1      -8.269   5.316  67.914  1.00  0.00     0.000 HD 
HETATM   13  O   UNL     1      -8.363   6.225  68.173  1.00  0.00    -0.114 OA 
HETATM   14  C   UNL     1     -11.036   8.168  70.192  1.00  0.00    -0.223 A  
HETATM   15  C   UNL     1     -11.172   8.204  71.584  1.00  0.00    -0.314 A  
BRANCH   3  16
HETATM   16  C   UNL     1     -10.011  11.049  66.918  1.00  0.00    -0.196 C  
BRANCH  16  17
HETATM   17  C   UNL     1     -10.298  12.500  67.226  1.00  0.00    -0.228 A  
HETATM   18  C   UNL     1     -10.245  13.476  66.223  1.00  0.00    -0.299 A  
HETATM   19  C   UNL     1     -10.819  14.256  68.769  1.00  0.00    -0.253 A  
HETATM   20  C   UNL     1     -10.475  14.801  66.563  1.00  0.00    -0.291 A  
HETATM   21  C   UNL     1     -10.596  12.910  68.527  1.00  0.00    -0.270 A  
HETATM   22  N   UNL     1     -10.760  15.212  67.815  1.00  0.00    -0.271 NA 
ENDBRANCH  16  17
ENDBRANCH   3  16
ENDBRANCH   2   3
TORSDOF 3
ENDMDL
MODEL      156
REMARK 921   NORMALIZED FREE ENERGY PREDICTED BY IDOCK:   -3.36 KCAL/MOL
REMARK 922        TOTAL FREE ENERGY PREDICTED BY IDOCK:   -4.97 KCAL/MOL
REMARK 923 INTER-LIGAND FREE ENERGY PREDICTED BY IDOCK:   -3.87 KCAL/MOL
REMARK 924 INTRA-LIGAND FREE ENERGY PREDICTED BY IDOCK:   -1.10 KCAL/MOL
REMARK 927      BINDING AFFINITY PREDICTED BY RF-SCORE:    0.00 PKD
ROOT
HETATM    1  C   UNL     1      -8.577  13.364  68.058  1.00  0.00    -0.174 C  
HETATM    2  C   UNL     1      -9.280  12.708  66.872  1.00  0.00    -0.216 C  
ENDROOT
BRANCH   2   3
HETATM    3  N   UNL     1      -9.508  11.250  66.918  1.00  0.00    -0.175 N  
HETATM    4  C   UNL     1      -7.116   8.935  68.300  1.00  0.00    -0.078 A  
HETATM    5  C   UNL     1      -8.641  10.403  66.208  1.00  0.00    -0.142 C  
HETATM    6  C   UNL     1      -8.791   8.873  66.351  1.00  0.00    -0.178 C  
HETATM    7  C   UNL     1      -6.533   8.353  69.429  1.00  0.00    -0.038 A  
HETATM    8  O   UNL     1      -7.719  10.842  65.510  1.00  0.00    -0.120 OA 
HETATM    9  C   UNL     1      -6.989   7.125  69.900  1.00  0.00    -0.057 A  
HETATM   10  C   UNL     1      -8.173   8.302  67.627  1.00  0.00    -0.127 A  
HETATM   11  C   UNL     1      -8.194   8.188  65.098  1.00  0.00    -0.154 C  
HETATM   12  H   UNL     1      -6.421   7.952  64.189  1.00  0.00     0.000 HD 
HETATM   13  O   UNL     1      -6.787   8.372  64.958  1.00  0.00    -0.066 OA 
HETATM   14  C   UNL     1      -8.614   7.057  68.110  1.00  0.00    -0.128 A  
HETATM   15  C   UNL     1      -8.026   6.473  69.236  1.00  0.00    -0.111 A  
BRANCH   3  16
HETATM   16  C   UNL     1     -10.891  10.796  67.159  1.00  0.00    -0.277 C  
BRANCH  16  17
HETATM   17  C   UNL     1     -11.356  10.728  68.595  1.00  0.00    -0.356 A  
HETATM   18  C   UNL     1     -12.014  11.810  69.194  1.00  0.00    -0.356 A  
HETATM   19  C   UNL     1     -11.530   9.588  70.695  1.00  0.00    -0.297 A  
HETATM   20  C   UNL     1     -12.384  11.715  70.527  1.00  0.00    -0.321 A  
HETATM   21  C   UNL     1     -11.115   9.593  69.372  1.00  0.00    -0.170 A  
HETATM   22  N   UNL     1     -12.156  10.628  71.291  1.00  0.00    -0.331 NA 
ENDBRANCH  16  17
ENDBRANCH   3  16
ENDBRANCH   2   3
TORSDOF 3
ENDMDL
MODEL      157
REMARK 921   NORMALIZED FREE ENERGY PREDICTED BY IDOCK:   -3.36 KCAL/MOL
REMARK 922        TOTAL FREE ENERGY PREDICTED BY IDOCK:   -4.97 KCAL/MOL
REMARK 923 INTER-LIGAND FREE ENERGY PREDICTED BY IDOCK:   -4.07 KCAL/MOL
REMARK 924 INTRA-LIGAND FREE ENERGY PREDICTED BY IDOCK:   -0.90 KCAL/MOL
REMARK 927      BINDING AFFINITY PREDICTED BY RF-SCORE:    0.00 PKD
ROOT
HETATM    1  C   UNL     1      -5.766  10.430  65.756  1.00  0.00    -0.099 C  
HETATM    2  C   UNL     1      -5.662  10.595  67.269  1.00  0.00    -0.045 C  
ENDROOT
BRANCH   2   3
HETATM    3  N   UNL     1      -6.776  11.258  67.976  1.00  0.00    -0.061 N  
HETATM    4  C   UNL     1      -9.505  12.867  66.255  1.00  0.00    -0.205 A  
HETATM    5  C   UNL     1      -6.970  12.639  67.798  1.00  0.00    -0.125 C  
HETATM    6  C   UNL     1      -8.206  13.317  68.428  1.00  0.00    -0.134 C  
HETATM    7  C   UNL     1     -10.707  12.751  65.553  1.00  0.00    -0.303 A  
HETATM    8  O   UNL     1      -6.210  13.324  67.104  1.00  0.00    -0.272 OA 
HETATM    9  C   UNL     1     -11.923  12.891  66.216  1.00  0.00    -0.472 A  
HETATM   10  C   UNL     1      -9.498  13.116  67.637  1.00  0.00    -0.207 A  
HETATM   11  C   UNL     1      -7.909  14.823  68.622  1.00  0.00    -0.140 C  
HETATM   12  H   UNL     1      -7.543  16.460  67.519  1.00  0.00     0.000 HD 
HETATM   13  O   UNL     1      -7.725  15.535  67.400  1.00  0.00    -0.157 OA 
HETATM   14  C   UNL     1     -10.735  13.266  68.289  1.00  0.00    -0.267 A  
HETATM   15  C   UNL     1     -11.938  13.155  67.584  1.00  0.00    -0.363 A  
BRANCH   3  16
HETATM   16  C   UNL     1      -7.230  10.642  69.237  1.00  0.00    -0.113 C  
BRANCH  16  17
HETATM   17  C   UNL     1      -8.439   9.739  69.170  1.00  0.00    -0.143 A  
HETATM   18  C   UNL     1      -9.531   9.927  70.027  1.00  0.00    -0.246 A  
HETATM   19  C   UNL     1      -9.602   7.850  68.265  1.00  0.00    -0.156 A  
HETATM   20  C   UNL     1     -10.600   9.046  69.955  1.00  0.00    -0.228 A  
HETATM   21  C   UNL     1      -8.486   8.674  68.269  1.00  0.00    -0.131 A  
HETATM   22  N   UNL     1     -10.658   8.012  69.093  1.00  0.00    -0.203 NA 
ENDBRANCH  16  17
ENDBRANCH   3  16
ENDBRANCH   2   3
TORSDOF 3
ENDMDL
MODEL      158
REMARK 921   NORMALIZED FREE ENERGY PREDICTED BY IDOCK:   -3.34 KCAL/MOL
REMARK 922        TOTAL FREE ENERGY PREDICTED BY IDOCK:   -4.95 KCAL/MOL
REMARK 923 INTER-LIGAND FREE ENERGY PREDICTED BY IDOCK:   -4.80 KCAL/MOL
REMARK 924 INTRA-LIGAND FREE ENERGY PREDICTED BY IDOCK:   -0.15 KCAL/MOL
REMARK 927      BINDING AFFINITY PREDICTED BY RF-SCORE:    0.00 PKD
ROOT
HETATM    1  C   UNL     1      -7.701  10.356  69.817  1.00  0.00    -0.126 C  
HETATM    2  C   UNL     1      -7.362   9.039  70.510  1.00  0.00    -0.086 C  
ENDROOT
BRANCH   2   3
HETATM    3  N   UNL     1      -8.476   8.151  70.900  1.00  0.00    -0.124 N  
HETATM    4  C   UNL     1      -8.292   4.559  70.674  1.00  0.00    -0.084 A  
HETATM    5  C   UNL     1      -9.069   7.332  69.924  1.00  0.00    -0.141 C  
HETATM    6  C   UNL     1     -10.146   6.310  70.346  1.00  0.00    -0.226 C  
HETATM    7  C   UNL     1      -7.832   3.351  71.206  1.00  0.00    -0.059 A  
HETATM    8  O   UNL     1      -8.716   7.363  68.739  1.00  0.00    -0.129 OA 
HETATM    9  C   UNL     1      -8.657   2.588  72.028  1.00  0.00    -0.090 A  
HETATM   10  C   UNL     1      -9.583   5.030  70.962  1.00  0.00    -0.232 A  
HETATM   11  C   UNL     1     -11.038   5.985  69.124  1.00  0.00    -0.335 C  
HETATM   12  H   UNL     1     -10.894   5.123  67.318  1.00  0.00     0.000 HD 
HETATM   13  O   UNL     1     -10.346   5.322  68.068  1.00  0.00    -0.171 OA 
HETATM   14  C   UNL     1     -10.406   4.240  71.786  1.00  0.00    -0.110 A  
HETATM   15  C   UNL     1      -9.947   3.030  72.313  1.00  0.00    -0.237 A  
BRANCH   3  16
HETATM   16  C   UNL     1      -9.294   8.572  72.054  1.00  0.00    -0.283 C  
BRANCH  16  17
HETATM   17  C   UNL     1     -10.704   9.033  71.770  1.00  0.00    -0.437 A  
HETATM   18  C   UNL     1     -11.799   8.466  72.435  1.00  0.00    -0.452 A  
HETATM   19  C   UNL     1     -12.268  10.389  70.563  1.00  0.00    -0.323 A  
HETATM   20  C   UNL     1     -13.077   8.895  72.110  1.00  0.00    -0.421 A  
HETATM   21  C   UNL     1     -10.955  10.021  70.815  1.00  0.00    -0.375 A  
HETATM   22  N   UNL     1     -13.335   9.844  71.188  1.00  0.00    -0.358 NA 
ENDBRANCH  16  17
ENDBRANCH   3  16
ENDBRANCH   2   3
TORSDOF 3
ENDMDL
MODEL      159
REMARK 921   NORMALIZED FREE ENERGY PREDICTED BY IDOCK:   -3.33 KCAL/MOL
REMARK 922        TOTAL FREE ENERGY PREDICTED BY IDOCK:   -4.94 KCAL/MOL
REMARK 923 INTER-LIGAND FREE ENERGY PREDICTED BY IDOCK:   -4.42 KCAL/MOL
REMARK 924 INTRA-LIGAND FREE ENERGY PREDICTED BY IDOCK:   -0.52 KCAL/MOL
REMARK 927      BINDING AFFINITY PREDICTED BY RF-SCORE:    0.00 PKD
ROOT
HETATM    1  C   UNL     1      -8.361   8.066  66.143  1.00  0.00    -0.125 C  
HETATM    2  C   UNL     1      -9.336   9.156  66.580  1.00  0.00    -0.177 C  
ENDROOT
BRANCH   2   3
HETATM    3  N   UNL     1      -9.526   9.380  68.028  1.00  0.00    -0.133 N  
HETATM    4  C   UNL     1      -8.477   7.008  70.531  1.00  0.00    -0.133 A  
HETATM    5  C   UNL     1     -10.343   8.495  68.752  1.00  0.00    -0.213 C  
HETATM    6  C   UNL     1     -10.446   8.643  70.285  1.00  0.00    -0.229 C  
HETATM    7  C   UNL     1      -7.443   6.447  71.284  1.00  0.00    -0.089 A  
HETATM    8  O   UNL     1     -10.943   7.560  68.207  1.00  0.00    -0.052 OA 
HETATM    9  C   UNL     1      -7.182   6.908  72.572  1.00  0.00    -0.081 A  
HETATM   10  C   UNL     1      -9.265   8.049  71.050  1.00  0.00    -0.169 A  
HETATM   11  C   UNL     1     -11.779   8.018  70.763  1.00  0.00    -0.206 C  
HETATM   12  H   UNL     1     -12.676   6.225  70.852  1.00  0.00     0.000 HD 
HETATM   13  O   UNL     1     -11.859   6.609  70.558  1.00  0.00    -0.390 OA 
HETATM   14  C   UNL     1      -8.994   8.495  72.356  1.00  0.00    -0.284 A  
HETATM   15  C   UNL     1      -7.962   7.929  73.111  1.00  0.00    -0.198 A  
BRANCH   3  16
HETATM   16  C   UNL     1      -9.389  10.766  68.515  1.00  0.00    -0.174 C  
BRANCH  16  17
HETATM   17  C   UNL     1     -10.020  11.857  67.681  1.00  0.00    -0.197 A  
HETATM   18  C   UNL     1     -11.411  11.959  67.557  1.00  0.00    -0.396 A  
HETATM   19  C   UNL     1      -9.850  13.740  66.210  1.00  0.00    -0.303 A  
HETATM   20  C   UNL     1     -11.941  12.953  66.747  1.00  0.00    -0.350 A  
HETATM   21  C   UNL     1      -9.229  12.776  66.989  1.00  0.00    -0.221 A  
HETATM   22  N   UNL     1     -11.191  13.845  66.071  1.00  0.00    -0.297 NA 
ENDBRANCH  16  17
ENDBRANCH   3  16
ENDBRANCH   2   3
TORSDOF 3
ENDMDL
MODEL      160
REMARK 921   NORMALIZED FREE ENERGY PREDICTED BY IDOCK:   -3.32 KCAL/MOL
REMARK 922        TOTAL FREE ENERGY PREDICTED BY IDOCK:   -4.92 KCAL/MOL
REMARK 923 INTER-LIGAND FREE ENERGY PREDICTED BY IDOCK:   -4.27 KCAL/MOL
REMARK 924 INTRA-LIGAND FREE ENERGY PREDICTED BY IDOCK:   -0.64 KCAL/MOL
REMARK 927      BINDING AFFINITY PREDICTED BY RF-SCORE:    0.00 PKD
ROOT
HETATM    1  C   UNL     1     -12.135   8.658  71.146  1.00  0.00    -0.297 C  
HETATM    2  C   UNL     1     -11.141   8.207  70.079  1.00  0.00    -0.146 C  
ENDROOT
BRANCH   2   3
HETATM    3  N   UNL     1     -10.243   9.222  69.491  1.00  0.00    -0.198 N  
HETATM    4  C   UNL     1     -11.448  12.047  67.605  1.00  0.00    -0.392 A  
HETATM    5  C   UNL     1     -10.218   9.381  68.095  1.00  0.00    -0.200 C  
HETATM    6  C   UNL     1      -9.381  10.523  67.480  1.00  0.00    -0.162 C  
HETATM    7  C   UNL     1     -12.031  13.316  67.598  1.00  0.00    -0.366 A  
HETATM    8  O   UNL     1     -10.891   8.670  67.341  1.00  0.00    -0.211 OA 
HETATM    9  C   UNL     1     -11.234  14.455  67.520  1.00  0.00    -0.329 A  
HETATM   10  C   UNL     1     -10.053  11.893  67.543  1.00  0.00    -0.206 A  
HETATM   11  C   UNL     1      -9.023  10.154  66.020  1.00  0.00    -0.151 C  
HETATM   12  H   UNL     1      -9.934   9.840  64.259  1.00  0.00     0.000 HD 
HETATM   13  O   UNL     1     -10.153  10.067  65.155  1.00  0.00    -0.325 OA 
HETATM   14  C   UNL     1      -9.263  13.054  67.454  1.00  0.00    -0.208 A  
HETATM   15  C   UNL     1      -9.849  14.324  67.442  1.00  0.00    -0.235 A  
BRANCH   3  16
HETATM   16  C   UNL     1      -9.033   9.570  70.260  1.00  0.00    -0.248 C  
BRANCH  16  17
HETATM   17  C   UNL     1      -8.204   8.427  70.798  1.00  0.00    -0.129 A  
HETATM   18  C   UNL     1      -8.163   8.147  72.170  1.00  0.00    -0.197 A  
HETATM   19  C   UNL     1      -6.662   6.621  70.485  1.00  0.00    -0.057 A  
HETATM   20  C   UNL     1      -7.354   7.114  72.620  1.00  0.00    -0.076 A  
HETATM   21  C   UNL     1      -7.434   7.637  69.943  1.00  0.00    -0.083 A  
HETATM   22  N   UNL     1      -6.603   6.345  71.807  1.00  0.00    -0.057 NA 
ENDBRANCH  16  17
ENDBRANCH   3  16
ENDBRANCH   2   3
TORSDOF 3
ENDMDL
MODEL      161
REMARK 921   NORMALIZED FREE ENERGY PREDICTED BY IDOCK:   -3.29 KCAL/MOL
REMARK 922        TOTAL FREE ENERGY PREDICTED BY IDOCK:   -4.88 KCAL/MOL
REMARK 923 INTER-LIGAND FREE ENERGY PREDICTED BY IDOCK:   -4.52 KCAL/MOL
REMARK 924 INTRA-LIGAND FREE ENERGY PREDICTED BY IDOCK:   -0.36 KCAL/MOL
REMARK 927      BINDING AFFINITY PREDICTED BY RF-SCORE:    0.00 PKD
ROOT
HETATM    1  C   UNL     1     -10.666   5.445  66.551  1.00  0.00    -0.309 C  
HETATM    2  C   UNL     1      -9.667   5.296  67.695  1.00  0.00    -0.142 C  
ENDROOT
BRANCH   2   3
HETATM    3  N   UNL     1      -9.476   6.442  68.607  1.00  0.00    -0.123 N  
HETATM    4  C   UNL     1      -9.692   6.150  72.193  1.00  0.00    -0.168 A  
HETATM    5  C   UNL     1     -10.544   6.844  69.427  1.00  0.00    -0.229 C  
HETATM    6  C   UNL     1     -10.318   7.956  70.474  1.00  0.00    -0.205 C  
HETATM    7  C   UNL     1      -9.097   5.763  73.397  1.00  0.00    -0.132 A  
HETATM    8  O   UNL     1     -11.652   6.296  69.378  1.00  0.00    -0.403 OA 
HETATM    9  C   UNL     1      -8.432   6.700  74.183  1.00  0.00    -0.151 A  
HETATM   10  C   UNL     1      -9.623   7.480  71.749  1.00  0.00    -0.178 A  
HETATM   11  C   UNL     1     -11.675   8.621  70.803  1.00  0.00    -0.210 C  
HETATM   12  H   UNL     1     -13.437   8.156  71.645  1.00  0.00     0.000 HD 
HETATM   13  O   UNL     1     -12.604   7.748  71.442  1.00  0.00    -0.323 OA 
HETATM   14  C   UNL     1      -8.956   8.415  72.561  1.00  0.00    -0.308 A  
HETATM   15  C   UNL     1      -8.367   8.028  73.768  1.00  0.00    -0.311 A  
BRANCH   3  16
HETATM   16  C   UNL     1      -8.475   7.452  68.213  1.00  0.00    -0.125 C  
BRANCH  16  17
HETATM   17  C   UNL     1      -8.710   8.188  66.914  1.00  0.00    -0.136 A  
HETATM   18  C   UNL     1      -7.887   7.973  65.802  1.00  0.00    -0.097 A  
HETATM   19  C   UNL     1      -9.898   9.799  65.599  1.00  0.00    -0.301 A  
HETATM   20  C   UNL     1      -8.118   8.703  64.646  1.00  0.00    -0.156 A  
HETATM   21  C   UNL     1      -9.740   9.124  66.799  1.00  0.00    -0.271 A  
HETATM   22  N   UNL     1      -9.105   9.612  64.520  1.00  0.00    -0.243 NA 
ENDBRANCH  16  17
ENDBRANCH   3  16
ENDBRANCH   2   3
TORSDOF 3
ENDMDL
MODEL      162
REMARK 921   NORMALIZED FREE ENERGY PREDICTED BY IDOCK:   -3.27 KCAL/MOL
REMARK 922        TOTAL FREE ENERGY PREDICTED BY IDOCK:   -4.87 KCAL/MOL
REMARK 923 INTER-LIGAND FREE ENERGY PREDICTED BY IDOCK:   -4.64 KCAL/MOL
REMARK 924 INTRA-LIGAND FREE ENERGY PREDICTED BY IDOCK:   -0.23 KCAL/MOL
REMARK 927      BINDING AFFINITY PREDICTED BY RF-SCORE:    0.00 PKD
ROOT
HETATM    1  C   UNL     1     -12.409  12.621  63.480  1.00  0.00    -0.591 C  
HETATM    2  C   UNL     1     -11.705  11.630  64.403  1.00  0.00    -0.143 C  
ENDROOT
BRANCH   2   3
HETATM    3  N   UNL     1     -10.512  12.092  65.140  1.00  0.00    -0.278 N  
HETATM    4  C   UNL     1      -7.695   9.955  65.845  1.00  0.00    -0.110 A  
HETATM    5  C   UNL     1     -10.193  11.487  66.368  1.00  0.00    -0.224 C  
HETATM    6  C   UNL     1      -8.880  11.871  67.083  1.00  0.00    -0.180 C  
HETATM    7  C   UNL     1      -6.531   9.327  65.394  1.00  0.00    -0.069 A  
HETATM    8  O   UNL     1     -10.905  10.610  66.872  1.00  0.00    -0.255 OA 
HETATM    9  C   UNL     1      -5.288   9.913  65.613  1.00  0.00    -0.047 A  
HETATM   10  C   UNL     1      -7.637  11.187  66.516  1.00  0.00    -0.135 A  
HETATM   11  C   UNL     1      -9.026  11.579  68.595  1.00  0.00    -0.112 C  
HETATM   12  H   UNL     1      -9.267  10.014  69.829  1.00  0.00     0.000 HD 
HETATM   13  O   UNL     1      -9.178  10.194  68.901  1.00  0.00    -0.154 OA 
HETATM   14  C   UNL     1      -6.372  11.760  66.738  1.00  0.00    -0.083 A  
HETATM   15  C   UNL     1      -5.207  11.127  66.292  1.00  0.00    -0.132 A  
BRANCH   3  16
HETATM   16  C   UNL     1     -10.081  13.484  64.911  1.00  0.00    -0.254 C  
BRANCH  16  17
HETATM   17  C   UNL     1     -10.257  14.458  66.052  1.00  0.00    -0.328 A  
HETATM   18  C   UNL     1      -9.253  15.380  66.377  1.00  0.00    -0.339 A  
HETATM   19  C   UNL     1     -11.520  15.337  67.888  1.00  0.00    -0.316 A  
HETATM   20  C   UNL     1      -9.444  16.226  67.460  1.00  0.00    -0.227 A  
HETATM   21  C   UNL     1     -11.416  14.447  66.830  1.00  0.00    -0.379 A  
HETATM   22  N   UNL     1     -10.556  16.224  68.222  1.00  0.00    -0.285 NA 
ENDBRANCH  16  17
ENDBRANCH   3  16
ENDBRANCH   2   3
TORSDOF 3
ENDMDL
MODEL      163
REMARK 921   NORMALIZED FREE ENERGY PREDICTED BY IDOCK:   -3.27 KCAL/MOL
REMARK 922        TOTAL FREE ENERGY PREDICTED BY IDOCK:   -4.86 KCAL/MOL
REMARK 923 INTER-LIGAND FREE ENERGY PREDICTED BY IDOCK:   -4.62 KCAL/MOL
REMARK 924 INTRA-LIGAND FREE ENERGY PREDICTED BY IDOCK:   -0.25 KCAL/MOL
REMARK 927      BINDING AFFINITY PREDICTED BY RF-SCORE:    0.00 PKD
ROOT
HETATM    1  C   UNL     1      -6.220  12.788  69.140  1.00  0.00    -0.098 C  
HETATM    2  C   UNL     1      -6.459  12.369  67.692  1.00  0.00    -0.130 C  
ENDROOT
BRANCH   2   3
HETATM    3  N   UNL     1      -7.738  11.709  67.361  1.00  0.00    -0.138 N  
HETATM    4  C   UNL     1      -8.090   8.129  67.119  1.00  0.00    -0.116 A  
HETATM    5  C   UNL     1      -7.824  10.943  66.185  1.00  0.00    -0.144 C  
HETATM    6  C   UNL     1      -9.114  10.146  65.895  1.00  0.00    -0.190 C  
HETATM    7  C   UNL     1      -8.221   6.897  67.763  1.00  0.00    -0.117 A  
HETATM    8  O   UNL     1      -6.877  10.841  65.397  1.00  0.00    -0.062 OA 
HETATM    9  C   UNL     1      -9.480   6.336  67.957  1.00  0.00    -0.116 A  
HETATM   10  C   UNL     1      -9.219   8.829  66.663  1.00  0.00    -0.223 A  
HETATM   11  C   UNL     1      -9.222   9.902  64.371  1.00  0.00    -0.264 C  
HETATM   12  H   UNL     1      -8.257   8.918  62.911  1.00  0.00     0.000 HD 
HETATM   13  O   UNL     1      -8.191   9.068  63.847  1.00  0.00    -0.155 OA 
HETATM   14  C   UNL     1     -10.483   8.243  66.858  1.00  0.00    -0.365 A  
HETATM   15  C   UNL     1     -10.612   7.007  67.498  1.00  0.00    -0.351 A  
BRANCH   3  16
HETATM   16  C   UNL     1      -8.968  12.332  67.885  1.00  0.00    -0.186 C  
BRANCH  16  17
HETATM   17  C   UNL     1      -9.884  13.000  66.886  1.00  0.00    -0.240 A  
HETATM   18  C   UNL     1      -9.436  14.065  66.094  1.00  0.00    -0.210 A  
HETATM   19  C   UNL     1     -12.024  13.254  65.841  1.00  0.00    -0.419 A  
HETATM   20  C   UNL     1     -10.326  14.673  65.221  1.00  0.00    -0.399 A  
HETATM   21  C   UNL     1     -11.211  12.590  66.747  1.00  0.00    -0.347 A  
HETATM   22  N   UNL     1     -11.611  14.290  65.078  1.00  0.00    -0.350 NA 
ENDBRANCH  16  17
ENDBRANCH   3  16
ENDBRANCH   2   3
TORSDOF 3
ENDMDL
MODEL      164
REMARK 921   NORMALIZED FREE ENERGY PREDICTED BY IDOCK:   -3.26 KCAL/MOL
REMARK 922        TOTAL FREE ENERGY PREDICTED BY IDOCK:   -4.85 KCAL/MOL
REMARK 923 INTER-LIGAND FREE ENERGY PREDICTED BY IDOCK:   -4.59 KCAL/MOL
REMARK 924 INTRA-LIGAND FREE ENERGY PREDICTED BY IDOCK:   -0.27 KCAL/MOL
REMARK 927      BINDING AFFINITY PREDICTED BY RF-SCORE:    0.00 PKD
ROOT
HETATM    1  C   UNL     1      -8.618  13.456  68.544  1.00  0.00    -0.074 C  
HETATM    2  C   UNL     1      -9.832  13.034  67.719  1.00  0.00    -0.224 C  
ENDROOT
BRANCH   2   3
HETATM    3  N   UNL     1     -11.171  13.188  68.322  1.00  0.00    -0.257 N  
HETATM    4  C   UNL     1     -11.675  14.299  71.714  1.00  0.00     0.235 A  
HETATM    5  C   UNL     1     -11.513  12.396  69.431  1.00  0.00    -0.271 C  
HETATM    6  C   UNL     1     -12.859  12.639  70.148  1.00  0.00     0.368 C  
HETATM    7  C   UNL     1     -11.714  15.352  72.632  1.00  0.00    -0.556 A  
HETATM    8  O   UNL     1     -10.745  11.543  69.891  1.00  0.00     0.069 OA 
HETATM    9  C   UNL     1     -12.926  15.949  72.965  1.00  0.00    -0.630 A  
HETATM   10  C   UNL     1     -12.850  13.830  71.104  1.00  0.00    -0.409 A  
HETATM   11  C   UNL     1     -13.276  11.345  70.887  1.00  0.00     0.219 C  
HETATM   12  H   UNL     1     -12.652  10.185  72.401  1.00  0.00     0.000 HD 
HETATM   13  O   UNL     1     -12.396  10.979  71.947  1.00  0.00    -0.104 OA 
HETATM   14  C   UNL     1     -14.068  14.438  71.460  1.00  0.00    -0.450 A  
HETATM   15  C   UNL     1     -14.105  15.488  72.383  1.00  0.00    -0.627 A  
BRANCH   3  16
HETATM   16  C   UNL     1     -12.252  13.664  67.439  1.00  0.00    -0.244 C  
BRANCH  16  17
HETATM   17  C   UNL     1     -12.093  13.417  65.957  1.00  0.00    -0.487 A  
HETATM   18  C   UNL     1     -12.271  12.138  65.413  1.00  0.00    -0.134 A  
HETATM   19  C   UNL     1     -11.568  14.174  63.745  1.00  0.00     0.174 A  
HETATM   20  C   UNL     1     -12.073  11.953  64.053  1.00  0.00    -0.342 A  
HETATM   21  C   UNL     1     -11.736  14.454  65.093  1.00  0.00    -0.372 A  
HETATM   22  N   UNL     1     -11.725  12.944  63.208  1.00  0.00    -0.469 NA 
ENDBRANCH  16  17
ENDBRANCH   3  16
ENDBRANCH   2   3
TORSDOF 3
ENDMDL
MODEL      165
REMARK 921   NORMALIZED FREE ENERGY PREDICTED BY IDOCK:   -3.23 KCAL/MOL
REMARK 922        TOTAL FREE ENERGY PREDICTED BY IDOCK:   -4.81 KCAL/MOL
REMARK 923 INTER-LIGAND FREE ENERGY PREDICTED BY IDOCK:   -4.38 KCAL/MOL
REMARK 924 INTRA-LIGAND FREE ENERGY PREDICTED BY IDOCK:   -0.43 KCAL/MOL
REMARK 927      BINDING AFFINITY PREDICTED BY RF-SCORE:    0.00 PKD
ROOT
HETATM    1  C   UNL     1      -9.673  11.647  63.480  1.00  0.00    -0.342 C  
HETATM    2  C   UNL     1      -9.929  10.874  64.771  1.00  0.00    -0.307 C  
ENDROOT
BRANCH   2   3
HETATM    3  N   UNL     1     -10.129  11.644  66.015  1.00  0.00    -0.216 N  
HETATM    4  C   UNL     1      -9.575  15.199  66.229  1.00  0.00    -0.325 A  
HETATM    5  C   UNL     1      -9.028  12.297  66.595  1.00  0.00    -0.189 C  
HETATM    6  C   UNL     1      -9.249  13.208  67.822  1.00  0.00    -0.203 C  
HETATM    7  C   UNL     1     -10.029  16.495  65.971  1.00  0.00    -0.359 A  
HETATM    8  O   UNL     1      -7.889  12.211  66.122  1.00  0.00     0.334 OA 
HETATM    9  C   UNL     1     -10.694  17.215  66.959  1.00  0.00    -0.149 A  
HETATM   10  C   UNL     1      -9.788  14.596  67.479  1.00  0.00    -0.218 A  
HETATM   11  C   UNL     1      -7.925  13.314  68.616  1.00  0.00    -0.042 C  
HETATM   12  H   UNL     1      -6.064  14.031  68.388  1.00  0.00     0.000 HD 
HETATM   13  O   UNL     1      -6.877  13.966  67.901  1.00  0.00    -0.124 OA 
HETATM   14  C   UNL     1     -10.453  15.342  68.469  1.00  0.00    -0.235 A  
HETATM   15  C   UNL     1     -10.901  16.641  68.211  1.00  0.00    -0.356 A  
BRANCH   3  16
HETATM   16  C   UNL     1     -11.238  11.223  66.892  1.00  0.00    -0.230 C  
BRANCH  16  17
HETATM   17  C   UNL     1     -10.969  10.082  67.846  1.00  0.00    -0.311 A  
HETATM   18  C   UNL     1     -10.916  10.294  69.230  1.00  0.00    -0.284 A  
HETATM   19  C   UNL     1     -10.465   7.781  68.280  1.00  0.00    -0.168 A  
HETATM   20  C   UNL     1     -10.626   9.223  70.062  1.00  0.00    -0.228 A  
HETATM   21  C   UNL     1     -10.740   8.790  67.370  1.00  0.00    -0.216 A  
HETATM   22  N   UNL     1     -10.398   7.971  69.616  1.00  0.00    -0.216 NA 
ENDBRANCH  16  17
ENDBRANCH   3  16
ENDBRANCH   2   3
TORSDOF 3
ENDMDL
MODEL      166
REMARK 921   NORMALIZED FREE ENERGY PREDICTED BY IDOCK:   -3.19 KCAL/MOL
REMARK 922        TOTAL FREE ENERGY PREDICTED BY IDOCK:   -4.77 KCAL/MOL
REMARK 923 INTER-LIGAND FREE ENERGY PREDICTED BY IDOCK:   -4.54 KCAL/MOL
REMARK 924 INTRA-LIGAND FREE ENERGY PREDICTED BY IDOCK:   -0.23 KCAL/MOL
REMARK 927      BINDING AFFINITY PREDICTED BY RF-SCORE:    0.00 PKD
ROOT
HETATM    1  C   UNL     1     -12.401  14.670  64.386  1.00  0.00    -0.420 C  
HETATM    2  C   UNL     1     -11.635  15.648  65.272  1.00  0.00     0.081 C  
ENDROOT
BRANCH   2   3
HETATM    3  N   UNL     1     -10.733  15.094  66.303  1.00  0.00    -0.314 N  
HETATM    4  C   UNL     1     -10.994  11.712  67.521  1.00  0.00    -0.312 A  
HETATM    5  C   UNL     1     -11.277  14.675  67.529  1.00  0.00    -0.333 C  
HETATM    6  C   UNL     1     -10.366  13.977  68.562  1.00  0.00    -0.247 C  
HETATM    7  C   UNL     1     -10.752  10.350  67.323  1.00  0.00    -0.331 A  
HETATM    8  O   UNL     1     -12.480  14.795  67.789  1.00  0.00     0.033 OA 
HETATM    9  C   UNL     1      -9.623   9.750  67.872  1.00  0.00    -0.158 A  
HETATM   10  C   UNL     1     -10.103  12.502  68.266  1.00  0.00    -0.228 A  
HETATM   11  C   UNL     1     -10.977  14.154  69.972  1.00  0.00     0.122 C  
HETATM   12  H   UNL     1     -12.608  13.608  71.007  1.00  0.00     0.000 HD 
HETATM   13  O   UNL     1     -12.233  13.500  70.141  1.00  0.00    -0.332 OA 
HETATM   14  C   UNL     1      -8.973  11.877  68.823  1.00  0.00     0.045 A  
HETATM   15  C   UNL     1      -8.735  10.513  68.628  1.00  0.00    -0.143 A  
BRANCH   3  16
HETATM   16  C   UNL     1      -9.329  15.545  66.276  1.00  0.00    -0.320 C  
BRANCH  16  17
HETATM   17  C   UNL     1      -9.043  16.945  66.766  1.00  0.00    -0.266 A  
HETATM   18  C   UNL     1     -10.065  17.897  66.872  1.00  0.00    -0.348 A  
HETATM   19  C   UNL     1      -7.523  18.640  67.512  1.00  0.00    -0.227 A  
HETATM   20  C   UNL     1      -9.745  19.181  67.288  1.00  0.00    -0.319 A  
HETATM   21  C   UNL     1      -7.744  17.335  67.099  1.00  0.00    -0.220 A  
HETATM   22  N   UNL     1      -8.496  19.573  67.609  1.00  0.00    -0.302 NA 
ENDBRANCH  16  17
ENDBRANCH   3  16
ENDBRANCH   2   3
TORSDOF 3
ENDMDL
MODEL      167
REMARK 921   NORMALIZED FREE ENERGY PREDICTED BY IDOCK:   -3.19 KCAL/MOL
REMARK 922        TOTAL FREE ENERGY PREDICTED BY IDOCK:   -4.77 KCAL/MOL
REMARK 923 INTER-LIGAND FREE ENERGY PREDICTED BY IDOCK:   -4.80 KCAL/MOL
REMARK 924 INTRA-LIGAND FREE ENERGY PREDICTED BY IDOCK:    0.03 KCAL/MOL
REMARK 927      BINDING AFFINITY PREDICTED BY RF-SCORE:    0.00 PKD
ROOT
HETATM    1  C   UNL     1      -9.475  12.694  66.296  1.00  0.00    -0.207 C  
HETATM    2  C   UNL     1     -10.464  12.363  67.410  1.00  0.00    -0.215 C  
ENDROOT
BRANCH   2   3
HETATM    3  N   UNL     1     -10.580  10.956  67.842  1.00  0.00    -0.193 N  
HETATM    4  C   UNL     1     -11.656  10.004  71.148  1.00  0.00    -0.460 A  
HETATM    5  C   UNL     1      -9.772  10.500  68.898  1.00  0.00    -0.199 C  
HETATM    6  C   UNL     1      -9.975   9.069  69.443  1.00  0.00    -0.191 C  
HETATM    7  C   UNL     1     -12.702   9.824  72.057  1.00  0.00    -0.463 A  
HETATM    8  O   UNL     1      -8.937  11.227  69.447  1.00  0.00     0.155 OA 
HETATM    9  C   UNL     1     -13.265   8.564  72.238  1.00  0.00    -0.361 A  
HETATM   10  C   UNL     1     -11.161   8.927  70.396  1.00  0.00    -0.270 A  
HETATM   11  C   UNL     1      -8.666   8.598  70.120  1.00  0.00    -0.143 C  
HETATM   12  H   UNL     1      -7.514   9.060  71.697  1.00  0.00     0.000 HD 
HETATM   13  O   UNL     1      -8.317   9.349  71.281  1.00  0.00    -0.308 OA 
HETATM   14  C   UNL     1     -11.734   7.659  70.599  1.00  0.00    -0.214 A  
HETATM   15  C   UNL     1     -12.777   7.479  71.513  1.00  0.00    -0.391 A  
BRANCH   3  16
HETATM   16  C   UNL     1     -11.032   9.980  66.832  1.00  0.00    -0.000 C  
BRANCH  16  17
HETATM   17  C   UNL     1     -10.026   8.956  66.362  1.00  0.00    -0.354 A  
HETATM   18  C   UNL     1      -9.000   9.304  65.474  1.00  0.00    -0.251 A  
HETATM   19  C   UNL     1      -9.185   6.713  66.298  1.00  0.00    -0.127 A  
HETATM   20  C   UNL     1      -8.127   8.318  65.039  1.00  0.00    -0.148 A  
HETATM   21  C   UNL     1     -10.110   7.626  66.781  1.00  0.00    -0.325 A  
HETATM   22  N   UNL     1      -8.197   7.031  65.431  1.00  0.00    -0.133 NA 
ENDBRANCH  16  17
ENDBRANCH   3  16
ENDBRANCH   2   3
TORSDOF 3
ENDMDL
MODEL      168
REMARK 921   NORMALIZED FREE ENERGY PREDICTED BY IDOCK:   -3.19 KCAL/MOL
REMARK 922        TOTAL FREE ENERGY PREDICTED BY IDOCK:   -4.76 KCAL/MOL
REMARK 923 INTER-LIGAND FREE ENERGY PREDICTED BY IDOCK:   -3.81 KCAL/MOL
REMARK 924 INTRA-LIGAND FREE ENERGY PREDICTED BY IDOCK:   -0.95 KCAL/MOL
REMARK 927      BINDING AFFINITY PREDICTED BY RF-SCORE:    0.00 PKD
ROOT
HETATM    1  C   UNL     1     -11.000   6.336  66.972  1.00  0.00    -0.442 C  
HETATM    2  C   UNL     1      -9.596   6.851  67.279  1.00  0.00    -0.142 C  
ENDROOT
BRANCH   2   3
HETATM    3  N   UNL     1      -8.984   6.477  68.570  1.00  0.00    -0.127 N  
HETATM    4  C   UNL     1     -10.868   6.227  71.633  1.00  0.00    -0.298 A  
HETATM    5  C   UNL     1      -9.008   7.402  69.628  1.00  0.00    -0.141 C  
HETATM    6  C   UNL     1      -8.486   6.976  71.017  1.00  0.00    -0.133 C  
HETATM    7  C   UNL     1     -11.750   5.499  72.435  1.00  0.00    -0.182 A  
HETATM    8  O   UNL     1      -9.486   8.535  69.499  1.00  0.00    -0.163 OA 
HETATM    9  C   UNL     1     -11.263   4.684  73.452  1.00  0.00    -0.423 A  
HETATM   10  C   UNL     1      -9.479   6.145  71.828  1.00  0.00    -0.162 A  
HETATM   11  C   UNL     1      -8.056   8.238  71.802  1.00  0.00    -0.141 C  
HETATM   12  H   UNL     1      -8.871   9.894  72.590  1.00  0.00     0.000 HD 
HETATM   13  O   UNL     1      -9.134   9.120  72.108  1.00  0.00    -0.312 OA 
HETATM   14  C   UNL     1      -9.006   5.324  72.867  1.00  0.00    -0.120 A  
HETATM   15  C   UNL     1      -9.890   4.601  73.673  1.00  0.00    -0.168 A  
BRANCH   3  16
HETATM   16  C   UNL     1      -7.894   5.483  68.530  1.00  0.00    -0.088 C  
BRANCH  16  17
HETATM   17  C   UNL     1      -8.248   4.087  68.075  1.00  0.00    -0.095 A  
HETATM   18  C   UNL     1      -7.641   3.518  66.948  1.00  0.00    -0.079 A  
HETATM   19  C   UNL     1      -9.530   2.073  68.277  1.00  0.00    -0.174 A  
HETATM   20  C   UNL     1      -8.030   2.249  66.545  1.00  0.00    -0.077 A  
HETATM   21  C   UNL     1      -9.213   3.337  68.751  1.00  0.00    -0.228 A  
HETATM   22  N   UNL     1      -8.961   1.515  67.185  1.00  0.00    -0.119 NA 
ENDBRANCH  16  17
ENDBRANCH   3  16
ENDBRANCH   2   3
TORSDOF 3
ENDMDL
MODEL      169
REMARK 921   NORMALIZED FREE ENERGY PREDICTED BY IDOCK:   -3.18 KCAL/MOL
REMARK 922        TOTAL FREE ENERGY PREDICTED BY IDOCK:   -4.75 KCAL/MOL
REMARK 923 INTER-LIGAND FREE ENERGY PREDICTED BY IDOCK:   -4.27 KCAL/MOL
REMARK 924 INTRA-LIGAND FREE ENERGY PREDICTED BY IDOCK:   -0.49 KCAL/MOL
REMARK 927      BINDING AFFINITY PREDICTED BY RF-SCORE:    0.00 PKD
ROOT
HETATM    1  C   UNL     1      -9.742   4.549  67.772  1.00  0.00    -0.199 C  
HETATM    2  C   UNL     1      -9.407   6.039  67.768  1.00  0.00    -0.106 C  
ENDROOT
BRANCH   2   3
HETATM    3  N   UNL     1      -9.424   6.760  69.056  1.00  0.00    -0.134 N  
HETATM    4  C   UNL     1     -10.823   5.357  72.068  1.00  0.00    -0.266 A  
HETATM    5  C   UNL     1     -10.662   7.076  69.643  1.00  0.00    -0.241 C  
HETATM    6  C   UNL     1     -10.692   7.714  71.048  1.00  0.00    -0.239 C  
HETATM    7  C   UNL     1     -10.691   4.487  73.152  1.00  0.00    -0.308 A  
HETATM    8  O   UNL     1     -11.736   6.807  69.093  1.00  0.00    -0.049 OA 
HETATM    9  C   UNL     1     -10.239   4.960  74.381  1.00  0.00    -0.301 A  
HETATM   10  C   UNL     1     -10.497   6.718  72.190  1.00  0.00    -0.231 A  
HETATM   11  C   UNL     1     -12.019   8.492  71.219  1.00  0.00    -0.294 C  
HETATM   12  H   UNL     1     -13.992   8.139  71.311  1.00  0.00     0.000 HD 
HETATM   13  O   UNL     1     -13.178   7.662  71.206  1.00  0.00    -0.306 OA 
HETATM   14  C   UNL     1     -10.052   7.181  73.441  1.00  0.00    -0.345 A  
HETATM   15  C   UNL     1      -9.925   6.309  74.528  1.00  0.00    -0.356 A  
BRANCH   3  16
HETATM   16  C   UNL     1      -8.265   7.621  69.357  1.00  0.00    -0.129 C  
BRANCH  16  17
HETATM   17  C   UNL     1      -8.179   8.943  68.632  1.00  0.00    -0.116 A  
HETATM   18  C   UNL     1      -7.458   9.067  67.437  1.00  0.00    -0.085 A  
HETATM   19  C   UNL     1      -8.662  11.284  68.466  1.00  0.00    -0.156 A  
HETATM   20  C   UNL     1      -7.374  10.312  66.830  1.00  0.00    -0.097 A  
HETATM   21  C   UNL     1      -8.795  10.084  69.149  1.00  0.00    -0.171 A  
HETATM   22  N   UNL     1      -7.960  11.422  67.319  1.00  0.00    -0.141 NA 
ENDBRANCH  16  17
ENDBRANCH   3  16
ENDBRANCH   2   3
TORSDOF 3
ENDMDL
MODEL      170
REMARK 921   NORMALIZED FREE ENERGY PREDICTED BY IDOCK:   -3.17 KCAL/MOL
REMARK 922        TOTAL FREE ENERGY PREDICTED BY IDOCK:   -4.75 KCAL/MOL
REMARK 923 INTER-LIGAND FREE ENERGY PREDICTED BY IDOCK:   -3.59 KCAL/MOL
REMARK 924 INTRA-LIGAND FREE ENERGY PREDICTED BY IDOCK:   -1.16 KCAL/MOL
REMARK 927      BINDING AFFINITY PREDICTED BY RF-SCORE:    0.00 PKD
ROOT
HETATM    1  C   UNL     1      -9.663   4.672  67.706  1.00  0.00    -0.205 C  
HETATM    2  C   UNL     1     -10.233   6.075  67.507  1.00  0.00    -0.184 C  
ENDROOT
BRANCH   2   3
HETATM    3  N   UNL     1     -10.062   7.056  68.598  1.00  0.00    -0.160 N  
HETATM    4  C   UNL     1      -9.611   6.098  72.043  1.00  0.00    -0.164 A  
HETATM    5  C   UNL     1     -11.021   7.107  69.624  1.00  0.00    -0.212 C  
HETATM    6  C   UNL     1     -10.786   8.038  70.833  1.00  0.00    -0.240 C  
HETATM    7  C   UNL     1      -8.767   5.617  73.048  1.00  0.00    -0.121 A  
HETATM    8  O   UNL     1     -12.026   6.387  69.620  1.00  0.00    -0.197 OA 
HETATM    9  C   UNL     1      -8.124   6.503  73.907  1.00  0.00    -0.112 A  
HETATM   10  C   UNL     1      -9.819   7.476  71.874  1.00  0.00    -0.196 A  
HETATM   11  C   UNL     1     -12.150   8.380  71.478  1.00  0.00    -0.301 C  
HETATM   12  H   UNL     1     -13.651   7.463  72.445  1.00  0.00     0.000 HD 
HETATM   13  O   UNL     1     -12.814   7.254  72.049  1.00  0.00    -0.270 OA 
HETATM   14  C   UNL     1      -9.170   8.356  72.759  1.00  0.00    -0.311 A  
HETATM   15  C   UNL     1      -8.330   7.873  73.767  1.00  0.00    -0.292 A  
BRANCH   3  16
HETATM   16  C   UNL     1      -9.305   8.283  68.282  1.00  0.00    -0.134 C  
BRANCH  16  17
HETATM   17  C   UNL     1      -8.046   8.542  69.075  1.00  0.00    -0.115 A  
HETATM   18  C   UNL     1      -7.739   9.826  69.544  1.00  0.00    -0.120 A  
HETATM   19  C   UNL     1      -5.983   7.803  70.042  1.00  0.00    -0.023 A  
HETATM   20  C   UNL     1      -6.551  10.022  70.232  1.00  0.00    -0.127 A  
HETATM   21  C   UNL     1      -7.142   7.512  69.339  1.00  0.00    -0.073 A  
HETATM   22  N   UNL     1      -5.666   9.038  70.491  1.00  0.00    -0.030 NA 
ENDBRANCH  16  17
ENDBRANCH   3  16
ENDBRANCH   2   3
TORSDOF 3
ENDMDL
MODEL      171
REMARK 921   NORMALIZED FREE ENERGY PREDICTED BY IDOCK:   -3.16 KCAL/MOL
REMARK 922        TOTAL FREE ENERGY PREDICTED BY IDOCK:   -4.74 KCAL/MOL
REMARK 923 INTER-LIGAND FREE ENERGY PREDICTED BY IDOCK:   -3.68 KCAL/MOL
REMARK 924 INTRA-LIGAND FREE ENERGY PREDICTED BY IDOCK:   -1.06 KCAL/MOL
REMARK 927      BINDING AFFINITY PREDICTED BY RF-SCORE:    0.00 PKD
ROOT
HETATM    1  C   UNL     1      -9.420   9.964  67.865  1.00  0.00    -0.149 C  
HETATM    2  C   UNL     1     -10.068   9.023  68.877  1.00  0.00    -0.196 C  
ENDROOT
BRANCH   2   3
HETATM    3  N   UNL     1      -9.195   8.089  69.617  1.00  0.00    -0.152 N  
HETATM    4  C   UNL     1     -10.351   6.120  72.407  1.00  0.00    -0.219 A  
HETATM    5  C   UNL     1      -8.947   8.324  70.980  1.00  0.00    -0.154 C  
HETATM    6  C   UNL     1      -8.143   7.286  71.792  1.00  0.00    -0.100 C  
HETATM    7  C   UNL     1     -11.056   5.007  72.871  1.00  0.00    -0.348 A  
HETATM    8  O   UNL     1      -9.401   9.312  71.570  1.00  0.00    -0.287 OA 
HETATM    9  C   UNL     1     -10.383   3.829  73.180  1.00  0.00    -0.241 A  
HETATM   10  C   UNL     1      -8.958   6.071  72.233  1.00  0.00    -0.141 A  
HETATM   11  C   UNL     1      -7.502   7.989  73.013  1.00  0.00    -0.127 C  
HETATM   12  H   UNL     1      -8.058   8.917  74.703  1.00  0.00     0.000 HD 
HETATM   13  O   UNL     1      -8.451   8.485  73.954  1.00  0.00    -0.320 OA 
HETATM   14  C   UNL     1      -8.293   4.876  72.560  1.00  0.00    -0.119 A  
HETATM   15  C   UNL     1      -8.999   3.764  73.030  1.00  0.00    -0.106 A  
BRANCH   3  16
HETATM   16  C   UNL     1      -8.179   7.360  68.834  1.00  0.00    -0.129 C  
BRANCH  16  17
HETATM   17  C   UNL     1      -8.637   6.136  68.077  1.00  0.00    -0.115 A  
HETATM   18  C   UNL     1      -8.829   6.173  66.689  1.00  0.00    -0.127 A  
HETATM   19  C   UNL     1      -9.358   3.852  68.014  1.00  0.00    -0.174 A  
HETATM   20  C   UNL     1      -9.291   5.035  66.045  1.00  0.00    -0.157 A  
HETATM   21  C   UNL     1      -8.908   4.941  68.746  1.00  0.00    -0.114 A  
HETATM   22  N   UNL     1      -9.559   3.875  66.678  1.00  0.00    -0.203 NA 
ENDBRANCH  16  17
ENDBRANCH   3  16
ENDBRANCH   2   3
TORSDOF 3
ENDMDL
MODEL      172
REMARK 921   NORMALIZED FREE ENERGY PREDICTED BY IDOCK:   -3.12 KCAL/MOL
REMARK 922        TOTAL FREE ENERGY PREDICTED BY IDOCK:   -4.69 KCAL/MOL
REMARK 923 INTER-LIGAND FREE ENERGY PREDICTED BY IDOCK:   -3.70 KCAL/MOL
REMARK 924 INTRA-LIGAND FREE ENERGY PREDICTED BY IDOCK:   -0.99 KCAL/MOL
REMARK 927      BINDING AFFINITY PREDICTED BY RF-SCORE:    0.00 PKD
ROOT
HETATM    1  C   UNL     1     -10.073  10.460  65.523  1.00  0.00    -0.352 C  
HETATM    2  C   UNL     1     -10.287  10.863  66.979  1.00  0.00    -0.231 C  
ENDROOT
BRANCH   2   3
HETATM    3  N   UNL     1      -9.560  10.113  68.023  1.00  0.00    -0.144 N  
HETATM    4  C   UNL     1     -10.596   6.858  69.175  1.00  0.00    -0.245 A  
HETATM    5  C   UNL     1     -10.220   9.810  69.227  1.00  0.00    -0.204 C  
HETATM    6  C   UNL     1      -9.515   8.918  70.271  1.00  0.00    -0.212 C  
HETATM    7  C   UNL     1     -10.654   5.479  68.960  1.00  0.00    -0.271 A  
HETATM    8  O   UNL     1     -11.374  10.190  69.457  1.00  0.00    -0.237 OA 
HETATM    9  C   UNL     1      -9.701   4.639  69.528  1.00  0.00    -0.278 A  
HETATM   10  C   UNL     1      -9.575   7.424  69.957  1.00  0.00    -0.168 A  
HETATM   11  C   UNL     1     -10.114   9.209  71.668  1.00  0.00    -0.276 C  
HETATM   12  H   UNL     1     -11.855   9.025  72.649  1.00  0.00     0.000 HD 
HETATM   13  O   UNL     1     -11.487   8.846  71.792  1.00  0.00    -0.307 OA 
HETATM   14  C   UNL     1      -8.627   6.559  70.533  1.00  0.00    -0.143 A  
HETATM   15  C   UNL     1      -8.690   5.178  70.321  1.00  0.00    -0.132 A  
BRANCH   3  16
HETATM   16  C   UNL     1      -8.091  10.243  68.041  1.00  0.00    -0.106 C  
BRANCH  16  17
HETATM   17  C   UNL     1      -7.302   9.285  67.180  1.00  0.00    -0.091 A  
HETATM   18  C   UNL     1      -6.134   9.696  66.524  1.00  0.00    -0.060 A  
HETATM   19  C   UNL     1      -6.994   7.135  66.168  1.00  0.00    -0.065 A  
HETATM   20  C   UNL     1      -5.468   8.791  65.711  1.00  0.00    -0.037 A  
HETATM   21  C   UNL     1      -7.732   7.970  66.994  1.00  0.00    -0.100 A  
HETATM   22  N   UNL     1      -5.873   7.520  65.519  1.00  0.00    -0.037 NA 
ENDBRANCH  16  17
ENDBRANCH   3  16
ENDBRANCH   2   3
TORSDOF 3
ENDMDL
MODEL      173
REMARK 921   NORMALIZED FREE ENERGY PREDICTED BY IDOCK:   -3.05 KCAL/MOL
REMARK 922        TOTAL FREE ENERGY PREDICTED BY IDOCK:   -4.60 KCAL/MOL
REMARK 923 INTER-LIGAND FREE ENERGY PREDICTED BY IDOCK:   -3.49 KCAL/MOL
REMARK 924 INTRA-LIGAND FREE ENERGY PREDICTED BY IDOCK:   -1.11 KCAL/MOL
REMARK 927      BINDING AFFINITY PREDICTED BY RF-SCORE:    0.00 PKD
ROOT
HETATM    1  C   UNL     1     -11.087   6.321  67.092  1.00  0.00    -0.389 C  
HETATM    2  C   UNL     1     -10.527   7.602  67.704  1.00  0.00    -0.244 C  
ENDROOT
BRANCH   2   3
HETATM    3  N   UNL     1      -9.651   7.482  68.888  1.00  0.00    -0.149 N  
HETATM    4  C   UNL     1     -10.121   4.968  71.428  1.00  0.00    -0.268 A  
HETATM    5  C   UNL     1     -10.206   7.663  70.166  1.00  0.00    -0.204 C  
HETATM    6  C   UNL     1      -9.330   7.414  71.413  1.00  0.00    -0.149 C  
HETATM    7  C   UNL     1      -9.974   3.639  71.833  1.00  0.00    -0.223 A  
HETATM    8  O   UNL     1     -11.394   7.961  70.330  1.00  0.00    -0.264 OA 
HETATM    9  C   UNL     1      -8.879   3.258  72.605  1.00  0.00    -0.101 A  
HETATM   10  C   UNL     1      -9.170   5.940  71.779  1.00  0.00    -0.157 A  
HETATM   11  C   UNL     1      -9.909   8.216  72.603  1.00  0.00    -0.294 C  
HETATM   12  H   UNL     1     -11.559   8.272  73.744  1.00  0.00     0.000 HD 
HETATM   13  O   UNL     1     -11.203   7.781  73.014  1.00  0.00    -0.405 OA 
HETATM   14  C   UNL     1      -8.076   5.539  72.568  1.00  0.00    -0.103 A  
HETATM   15  C   UNL     1      -7.933   4.210  72.978  1.00  0.00    -0.089 A  
BRANCH   3  16
HETATM   16  C   UNL     1      -8.220   7.785  68.694  1.00  0.00    -0.128 C  
BRANCH  16  17
HETATM   17  C   UNL     1      -7.373   6.723  68.032  1.00  0.00    -0.097 A  
HETATM   18  C   UNL     1      -6.892   6.892  66.727  1.00  0.00    -0.064 A  
HETATM   19  C   UNL     1      -6.316   4.573  68.037  1.00  0.00    -0.037 A  
HETATM   20  C   UNL     1      -6.154   5.871  66.147  1.00  0.00    -0.032 A  
HETATM   21  C   UNL     1      -7.069   5.533  68.696  1.00  0.00    -0.065 A  
HETATM   22  N   UNL     1      -5.855   4.716  66.774  1.00  0.00    -0.025 NA 
ENDBRANCH  16  17
ENDBRANCH   3  16
ENDBRANCH   2   3
TORSDOF 3
ENDMDL
MODEL      174
REMARK 921   NORMALIZED FREE ENERGY PREDICTED BY IDOCK:   -3.05 KCAL/MOL
REMARK 922        TOTAL FREE ENERGY PREDICTED BY IDOCK:   -4.60 KCAL/MOL
REMARK 923 INTER-LIGAND FREE ENERGY PREDICTED BY IDOCK:   -3.54 KCAL/MOL
REMARK 924 INTRA-LIGAND FREE ENERGY PREDICTED BY IDOCK:   -1.06 KCAL/MOL
REMARK 927      BINDING AFFINITY PREDICTED BY RF-SCORE:    0.00 PKD
ROOT
HETATM    1  C   UNL     1     -12.412  11.780  71.657  1.00  0.00    -0.122 C  
HETATM    2  C   UNL     1     -12.858  10.775  70.598  1.00  0.00    -0.293 C  
ENDROOT
BRANCH   2   3
HETATM    3  N   UNL     1     -11.883   9.764  70.144  1.00  0.00    -0.144 N  
HETATM    4  C   UNL     1      -8.583  10.614  68.966  1.00  0.00    -0.150 A  
HETATM    5  C   UNL     1     -11.441   9.795  68.810  1.00  0.00     0.183 C  
HETATM    6  C   UNL     1     -10.328   8.825  68.359  1.00  0.00    -0.242 C  
HETATM    7  C   UNL     1      -7.270  10.988  69.263  1.00  0.00    -0.124 A  
HETATM    8  O   UNL     1     -11.876  10.615  67.993  1.00  0.00    -0.494 OA 
HETATM    9  C   UNL     1      -6.267  10.026  69.339  1.00  0.00    -0.045 A  
HETATM   10  C   UNL     1      -8.919   9.267  68.751  1.00  0.00    -0.132 A  
HETATM   11  C   UNL     1     -10.432   8.616  66.829  1.00  0.00    -0.228 C  
HETATM   12  H   UNL     1     -10.238   9.667  65.130  1.00  0.00     0.000 HD 
HETATM   13  O   UNL     1     -10.174   9.794  66.069  1.00  0.00    -0.259 OA 
HETATM   14  C   UNL     1      -7.890   8.310  68.822  1.00  0.00    -0.115 A  
HETATM   15  C   UNL     1      -6.575   8.687  69.113  1.00  0.00    -0.047 A  
BRANCH   3  16
HETATM   16  C   UNL     1     -11.879   8.470  70.854  1.00  0.00    -0.217 C  
BRANCH  16  17
HETATM   17  C   UNL     1     -10.562   7.999  71.426  1.00  0.00    -0.258 A  
HETATM   18  C   UNL     1     -10.167   6.660  71.323  1.00  0.00    -0.222 A  
HETATM   19  C   UNL     1      -8.533   8.401  72.634  1.00  0.00    -0.154 A  
HETATM   20  C   UNL     1      -8.968   6.268  71.900  1.00  0.00    -0.139 A  
HETATM   21  C   UNL     1      -9.716   8.885  72.097  1.00  0.00    -0.232 A  
HETATM   22  N   UNL     1      -8.143   7.109  72.554  1.00  0.00    -0.103 NA 
ENDBRANCH  16  17
ENDBRANCH   3  16
ENDBRANCH   2   3
TORSDOF 3
ENDMDL
MODEL      175
REMARK 921   NORMALIZED FREE ENERGY PREDICTED BY IDOCK:   -3.03 KCAL/MOL
REMARK 922        TOTAL FREE ENERGY PREDICTED BY IDOCK:   -4.59 KCAL/MOL
REMARK 923 INTER-LIGAND FREE ENERGY PREDICTED BY IDOCK:   -3.51 KCAL/MOL
REMARK 924 INTRA-LIGAND FREE ENERGY PREDICTED BY IDOCK:   -1.07 KCAL/MOL
REMARK 927      BINDING AFFINITY PREDICTED BY RF-SCORE:    0.00 PKD
ROOT
HETATM    1  C   UNL     1      -7.621   6.886  67.092  1.00  0.00    -0.107 C  
HETATM    2  C   UNL     1      -8.346   8.038  67.782  1.00  0.00    -0.129 C  
ENDROOT
BRANCH   2   3
HETATM    3  N   UNL     1      -8.234   9.385  67.188  1.00  0.00    -0.113 N  
HETATM    4  C   UNL     1     -10.615  12.014  67.833  1.00  0.00    -0.227 A  
HETATM    5  C   UNL     1      -9.251   9.837  66.330  1.00  0.00    -0.164 C  
HETATM    6  C   UNL     1      -9.209  11.289  65.806  1.00  0.00    -0.236 C  
HETATM    7  C   UNL     1     -11.096  13.003  68.694  1.00  0.00    -0.305 A  
HETATM    8  O   UNL     1     -10.214   9.126  66.021  1.00  0.00    -0.256 OA 
HETATM    9  C   UNL     1     -10.687  14.325  68.544  1.00  0.00    -0.262 A  
HETATM   10  C   UNL     1      -9.706  12.328  66.809  1.00  0.00    -0.219 A  
HETATM   11  C   UNL     1     -10.013  11.372  64.486  1.00  0.00    -0.271 C  
HETATM   12  H   UNL     1     -11.900  11.166  63.836  1.00  0.00     0.000 HD 
HETATM   13  O   UNL     1     -11.406  11.115  64.645  1.00  0.00    -0.099 OA 
HETATM   14  C   UNL     1      -9.311  13.671  66.665  1.00  0.00    -0.265 A  
HETATM   15  C   UNL     1      -9.799  14.661  67.524  1.00  0.00    -0.218 A  
BRANCH   3  16
HETATM   16  C   UNL     1      -6.874   9.929  67.012  1.00  0.00    -0.083 C  
BRANCH  16  17
HETATM   17  C   UNL     1      -6.494  11.127  67.851  1.00  0.00    -0.058 A  
HETATM   18  C   UNL     1      -5.804  12.211  67.293  1.00  0.00    -0.146 A  
HETATM   19  C   UNL     1      -6.401  12.278  69.950  1.00  0.00    -0.060 A  
HETATM   20  C   UNL     1      -5.442  13.269  68.112  1.00  0.00    -0.100 A  
HETATM   21  C   UNL     1      -6.798  11.172  69.213  1.00  0.00    -0.110 A  
HETATM   22  N   UNL     1      -5.725  13.325  69.429  1.00  0.00    -0.083 NA 
ENDBRANCH  16  17
ENDBRANCH   3  16
ENDBRANCH   2   3
TORSDOF 3
ENDMDL
MODEL      176
REMARK 921   NORMALIZED FREE ENERGY PREDICTED BY IDOCK:   -3.03 KCAL/MOL
REMARK 922        TOTAL FREE ENERGY PREDICTED BY IDOCK:   -4.58 KCAL/MOL
REMARK 923 INTER-LIGAND FREE ENERGY PREDICTED BY IDOCK:   -3.55 KCAL/MOL
REMARK 924 INTRA-LIGAND FREE ENERGY PREDICTED BY IDOCK:   -1.03 KCAL/MOL
REMARK 927      BINDING AFFINITY PREDICTED BY RF-SCORE:    0.00 PKD
ROOT
HETATM    1  C   UNL     1     -11.663  12.907  69.457  1.00  0.00    -0.387 C  
HETATM    2  C   UNL     1     -11.681  12.787  67.936  1.00  0.00    -0.357 C  
ENDROOT
BRANCH   2   3
HETATM    3  N   UNL     1     -10.718  13.595  67.162  1.00  0.00    -0.275 N  
HETATM    4  C   UNL     1     -10.664  17.198  67.254  1.00  0.00    -0.208 A  
HETATM    5  C   UNL     1     -11.202  14.475  66.179  1.00  0.00    -0.339 C  
HETATM    6  C   UNL     1     -10.217  15.417  65.455  1.00  0.00    -0.408 C  
HETATM    7  C   UNL     1     -10.310  18.370  67.927  1.00  0.00    -0.425 A  
HETATM    8  O   UNL     1     -12.406  14.562  65.911  1.00  0.00    -0.331 OA 
HETATM    9  C   UNL     1      -9.123  19.027  67.615  1.00  0.00    -0.327 A  
HETATM   10  C   UNL     1      -9.833  16.657  66.260  1.00  0.00    -0.329 A  
HETATM   11  C   UNL     1     -10.817  15.816  64.085  1.00  0.00     0.742 C  
HETATM   12  H   UNL     1     -12.376  16.839  63.343  1.00  0.00     0.000 HD 
HETATM   13  O   UNL     1     -12.008  16.593  64.183  1.00  0.00    -0.808 OA 
HETATM   14  C   UNL     1      -8.643  17.340  65.949  1.00  0.00     0.010 A  
HETATM   15  C   UNL     1      -8.292  18.516  66.621  1.00  0.00    -0.285 A  
BRANCH   3  16
HETATM   16  C   UNL     1      -9.358  13.045  67.002  1.00  0.00    -0.236 C  
BRANCH  16  17
HETATM   17  C   UNL     1      -8.419  13.170  68.180  1.00  0.00    -0.173 A  
HETATM   18  C   UNL     1      -7.716  12.060  68.665  1.00  0.00    -0.099 A  
HETATM   19  C   UNL     1      -7.404  14.453  69.930  1.00  0.00     0.185 A  
HETATM   20  C   UNL     1      -6.899  12.217  69.774  1.00  0.00     0.201 A  
HETATM   21  C   UNL     1      -8.250  14.393  68.833  1.00  0.00    -0.082 A  
HETATM   22  N   UNL     1      -6.728  13.389  70.417  1.00  0.00     0.381 NA 
ENDBRANCH  16  17
ENDBRANCH   3  16
ENDBRANCH   2   3
TORSDOF 3
ENDMDL
MODEL      177
REMARK 921   NORMALIZED FREE ENERGY PREDICTED BY IDOCK:   -3.03 KCAL/MOL
REMARK 922        TOTAL FREE ENERGY PREDICTED BY IDOCK:   -4.58 KCAL/MOL
REMARK 923 INTER-LIGAND FREE ENERGY PREDICTED BY IDOCK:   -3.38 KCAL/MOL
REMARK 924 INTRA-LIGAND FREE ENERGY PREDICTED BY IDOCK:   -1.20 KCAL/MOL
REMARK 927      BINDING AFFINITY PREDICTED BY RF-SCORE:    0.00 PKD
ROOT
HETATM    1  C   UNL     1     -11.619   5.086  73.114  1.00  0.00    -0.299 C  
HETATM    2  C   UNL     1     -11.034   6.495  73.174  1.00  0.00    -0.221 C  
ENDROOT
BRANCH   2   3
HETATM    3  N   UNL     1      -9.997   6.860  72.188  1.00  0.00    -0.163 N  
HETATM    4  C   UNL     1      -7.901   4.423  70.556  1.00  0.00    -0.053 A  
HETATM    5  C   UNL     1      -8.652   6.570  72.476  1.00  0.00    -0.121 C  
HETATM    6  C   UNL     1      -7.576   6.830  71.401  1.00  0.00    -0.092 C  
HETATM    7  C   UNL     1      -7.754   3.445  69.570  1.00  0.00    -0.050 A  
HETATM    8  O   UNL     1      -8.306   6.059  73.547  1.00  0.00    -0.116 OA 
HETATM    9  C   UNL     1      -7.189   3.768  68.339  1.00  0.00    -0.054 A  
HETATM   10  C   UNL     1      -7.494   5.747  70.325  1.00  0.00    -0.081 A  
HETATM   11  C   UNL     1      -6.206   7.018  72.095  1.00  0.00    -0.041 C  
HETATM   12  H   UNL     1      -4.893   5.965  73.189  1.00  0.00     0.000 HD 
HETATM   13  O   UNL     1      -5.734   5.850  72.763  1.00  0.00    -0.034 OA 
HETATM   14  C   UNL     1      -6.916   6.054  69.080  1.00  0.00    -0.064 A  
HETATM   15  C   UNL     1      -6.764   5.072  68.096  1.00  0.00    -0.055 A  
BRANCH   3  16
HETATM   16  C   UNL     1     -10.295   7.993  71.292  1.00  0.00    -0.193 C  
BRANCH  16  17
HETATM   17  C   UNL     1     -10.475   7.685  69.824  1.00  0.00    -0.232 A  
HETATM   18  C   UNL     1     -10.858   6.408  69.395  1.00  0.00    -0.381 A  
HETATM   19  C   UNL     1     -10.385   8.324  67.517  1.00  0.00    -0.265 A  
HETATM   20  C   UNL     1     -10.970   6.163  68.034  1.00  0.00    -0.305 A  
HETATM   21  C   UNL     1     -10.238   8.661  68.854  1.00  0.00    -0.221 A  
HETATM   22  N   UNL     1     -10.741   7.093  67.086  1.00  0.00    -0.340 NA 
ENDBRANCH  16  17
ENDBRANCH   3  16
ENDBRANCH   2   3
TORSDOF 3
ENDMDL
MODEL      178
REMARK 921   NORMALIZED FREE ENERGY PREDICTED BY IDOCK:   -3.00 KCAL/MOL
REMARK 922        TOTAL FREE ENERGY PREDICTED BY IDOCK:   -4.55 KCAL/MOL
REMARK 923 INTER-LIGAND FREE ENERGY PREDICTED BY IDOCK:   -4.00 KCAL/MOL
REMARK 924 INTRA-LIGAND FREE ENERGY PREDICTED BY IDOCK:   -0.55 KCAL/MOL
REMARK 927      BINDING AFFINITY PREDICTED BY RF-SCORE:    0.00 PKD
ROOT
HETATM    1  C   UNL     1     -12.134  10.914  69.623  1.00  0.00    -0.400 C  
HETATM    2  C   UNL     1     -10.805  10.471  70.228  1.00  0.00    -0.174 C  
ENDROOT
BRANCH   2   3
HETATM    3  N   UNL     1     -10.361   9.083  69.991  1.00  0.00    -0.198 N  
HETATM    4  C   UNL     1     -10.075   6.639  72.625  1.00  0.00    -0.191 A  
HETATM    5  C   UNL     1      -9.179   8.632  70.604  1.00  0.00    -0.174 C  
HETATM    6  C   UNL     1      -8.774   7.149  70.467  1.00  0.00    -0.149 C  
HETATM    7  C   UNL     1     -10.701   5.738  73.490  1.00  0.00    -0.300 A  
HETATM    8  O   UNL     1      -8.477   9.374  71.301  1.00  0.00    -0.302 OA 
HETATM    9  C   UNL     1     -10.781   4.388  73.159  1.00  0.00    -0.296 A  
HETATM   10  C   UNL     1      -9.525   6.207  71.407  1.00  0.00    -0.170 A  
HETATM   11  C   UNL     1      -7.245   7.023  70.671  1.00  0.00    -0.068 C  
HETATM   12  H   UNL     1      -5.872   7.290  72.110  1.00  0.00     0.000 HD 
HETATM   13  O   UNL     1      -6.810   7.367  71.985  1.00  0.00    -0.060 OA 
HETATM   14  C   UNL     1      -9.606   4.838  71.094  1.00  0.00    -0.235 A  
HETATM   15  C   UNL     1     -10.228   3.937  71.963  1.00  0.00    -0.169 A  
BRANCH   3  16
HETATM   16  C   UNL     1     -10.777   8.454  68.723  1.00  0.00    -0.051 C  
BRANCH  16  17
HETATM   17  C   UNL     1      -9.896   8.681  67.517  1.00  0.00    -0.234 A  
HETATM   18  C   UNL     1      -9.366   7.604  66.796  1.00  0.00    -0.218 A  
HETATM   19  C   UNL     1      -8.726  10.134  66.013  1.00  0.00    -0.140 A  
HETATM   20  C   UNL     1      -8.528   7.863  65.721  1.00  0.00    -0.140 A  
HETATM   21  C   UNL     1      -9.565   9.974  67.106  1.00  0.00    -0.202 A  
HETATM   22  N   UNL     1      -8.197   9.105  65.315  1.00  0.00    -0.126 NA 
ENDBRANCH  16  17
ENDBRANCH   3  16
ENDBRANCH   2   3
TORSDOF 3
ENDMDL
MODEL      179
REMARK 921   NORMALIZED FREE ENERGY PREDICTED BY IDOCK:   -3.00 KCAL/MOL
REMARK 922        TOTAL FREE ENERGY PREDICTED BY IDOCK:   -4.54 KCAL/MOL
REMARK 923 INTER-LIGAND FREE ENERGY PREDICTED BY IDOCK:   -3.55 KCAL/MOL
REMARK 924 INTRA-LIGAND FREE ENERGY PREDICTED BY IDOCK:   -0.99 KCAL/MOL
REMARK 927      BINDING AFFINITY PREDICTED BY RF-SCORE:    0.00 PKD
ROOT
HETATM    1  C   UNL     1      -5.690   9.446  70.261  1.00  0.00    -0.036 C  
HETATM    2  C   UNL     1      -7.031  10.165  70.382  1.00  0.00    -0.111 C  
ENDROOT
BRANCH   2   3
HETATM    3  N   UNL     1      -7.531  10.906  69.207  1.00  0.00    -0.131 N  
HETATM    4  C   UNL     1     -10.892  12.189  68.985  1.00  0.00    -0.208 A  
HETATM    5  C   UNL     1      -8.597  10.367  68.465  1.00  0.00    -0.134 C  
HETATM    6  C   UNL     1      -9.211  11.193  67.315  1.00  0.00    -0.166 C  
HETATM    7  C   UNL     1     -11.822  13.168  69.346  1.00  0.00    -0.383 A  
HETATM    8  O   UNL     1      -9.100   9.272  68.740  1.00  0.00    -0.134 OA 
HETATM    9  C   UNL     1     -12.070  14.246  68.500  1.00  0.00    -0.295 A  
HETATM   10  C   UNL     1     -10.185  12.276  67.775  1.00  0.00    -0.206 A  
HETATM   11  C   UNL     1      -9.894  10.231  66.313  1.00  0.00    -0.219 C  
HETATM   12  H   UNL     1     -11.432   8.943  66.243  1.00  0.00     0.000 HD 
HETATM   13  O   UNL     1     -11.013   9.534  66.857  1.00  0.00    -0.093 OA 
HETATM   14  C   UNL     1     -10.456  13.366  66.928  1.00  0.00    -0.273 A  
HETATM   15  C   UNL     1     -11.391  14.342  67.287  1.00  0.00    -0.350 A  
BRANCH   3  16
HETATM   16  C   UNL     1      -6.575  11.793  68.518  1.00  0.00    -0.059 C  
BRANCH  16  17
HETATM   17  C   UNL     1      -6.503  13.228  68.986  1.00  0.00    -0.102 A  
HETATM   18  C   UNL     1      -5.912  13.560  70.212  1.00  0.00    -0.146 A  
HETATM   19  C   UNL     1      -6.989  15.557  68.702  1.00  0.00    -0.116 A  
HETATM   20  C   UNL     1      -5.908  14.887  70.616  1.00  0.00    -0.126 A  
HETATM   21  C   UNL     1      -7.048  14.259  68.218  1.00  0.00    -0.111 A  
HETATM   22  N   UNL     1      -6.433  15.892  69.888  1.00  0.00    -0.154 NA 
ENDBRANCH  16  17
ENDBRANCH   3  16
ENDBRANCH   2   3
TORSDOF 3
ENDMDL
MODEL      180
REMARK 921   NORMALIZED FREE ENERGY PREDICTED BY IDOCK:   -3.00 KCAL/MOL
REMARK 922        TOTAL FREE ENERGY PREDICTED BY IDOCK:   -4.54 KCAL/MOL
REMARK 923 INTER-LIGAND FREE ENERGY PREDICTED BY IDOCK:   -3.46 KCAL/MOL
REMARK 924 INTRA-LIGAND FREE ENERGY PREDICTED BY IDOCK:   -1.08 KCAL/MOL
REMARK 927      BINDING AFFINITY PREDICTED BY RF-SCORE:    0.00 PKD
ROOT
HETATM    1  C   UNL     1      -6.699  10.892  68.645  1.00  0.00    -0.059 C  
HETATM    2  C   UNL     1      -7.754  10.362  69.613  1.00  0.00    -0.144 C  
ENDROOT
BRANCH   2   3
HETATM    3  N   UNL     1      -7.742   8.921  69.935  1.00  0.00    -0.071 N  
HETATM    4  C   UNL     1      -9.932   7.442  72.386  1.00  0.00    -0.221 A  
HETATM    5  C   UNL     1      -7.405   8.518  71.238  1.00  0.00    -0.091 C  
HETATM    6  C   UNL     1      -7.513   7.026  71.620  1.00  0.00    -0.088 C  
HETATM    7  C   UNL     1     -11.205   6.973  72.720  1.00  0.00    -0.294 A  
HETATM    8  O   UNL     1      -7.077   9.328  72.112  1.00  0.00    -0.309 OA 
HETATM    9  C   UNL     1     -11.503   5.617  72.616  1.00  0.00    -0.339 A  
HETATM   10  C   UNL     1      -8.936   6.563  71.931  1.00  0.00    -0.137 A  
HETATM   11  C   UNL     1      -6.570   6.742  72.814  1.00  0.00    -0.066 C  
HETATM   12  H   UNL     1      -6.362   7.246  74.745  1.00  0.00     0.000 HD 
HETATM   13  O   UNL     1      -6.940   7.420  74.012  1.00  0.00    -0.085 OA 
HETATM   14  C   UNL     1      -9.251   5.195  71.842  1.00  0.00    -0.160 A  
HETATM   15  C   UNL     1     -10.524   4.726  72.182  1.00  0.00    -0.243 A  
BRANCH   3  16
HETATM   16  C   UNL     1      -7.479   7.989  68.821  1.00  0.00    -0.091 C  
BRANCH  16  17
HETATM   17  C   UNL     1      -8.670   7.282  68.217  1.00  0.00    -0.125 A  
HETATM   18  C   UNL     1      -8.505   6.312  67.220  1.00  0.00    -0.108 A  
HETATM   19  C   UNL     1     -11.033   6.946  68.013  1.00  0.00    -0.166 A  
HETATM   20  C   UNL     1      -9.631   5.720  66.667  1.00  0.00    -0.152 A  
HETATM   21  C   UNL     1      -9.969   7.597  68.619  1.00  0.00    -0.181 A  
HETATM   22  N   UNL     1     -10.891   6.017  67.042  1.00  0.00    -0.330 NA 
ENDBRANCH  16  17
ENDBRANCH   3  16
ENDBRANCH   2   3
TORSDOF 3
ENDMDL
MODEL      181
REMARK 921   NORMALIZED FREE ENERGY PREDICTED BY IDOCK:   -2.98 KCAL/MOL
REMARK 922        TOTAL FREE ENERGY PREDICTED BY IDOCK:   -4.52 KCAL/MOL
REMARK 923 INTER-LIGAND FREE ENERGY PREDICTED BY IDOCK:   -3.61 KCAL/MOL
REMARK 924 INTRA-LIGAND FREE ENERGY PREDICTED BY IDOCK:   -0.91 KCAL/MOL
REMARK 927      BINDING AFFINITY PREDICTED BY RF-SCORE:    0.00 PKD
ROOT
HETATM    1  C   UNL     1      -5.369  20.930  69.317  1.00  0.00    -0.402 C  
HETATM    2  C   UNL     1      -5.239  19.477  69.767  1.00  0.00    -0.202 C  
ENDROOT
BRANCH   2   3
HETATM    3  N   UNL     1      -5.608  18.416  68.809  1.00  0.00    -0.185 N  
HETATM    4  C   UNL     1      -8.775  16.699  68.910  1.00  0.00    -0.238 A  
HETATM    5  C   UNL     1      -5.853  17.119  69.291  1.00  0.00    -0.201 C  
HETATM    6  C   UNL     1      -6.363  16.034  68.318  1.00  0.00    -0.119 C  
HETATM    7  C   UNL     1     -10.144  16.703  68.631  1.00  0.00    -0.270 A  
HETATM    8  O   UNL     1      -5.728  16.828  70.486  1.00  0.00    -0.172 OA 
HETATM    9  C   UNL     1     -10.624  16.119  67.462  1.00  0.00    -0.314 A  
HETATM   10  C   UNL     1      -7.859  16.118  68.018  1.00  0.00    -0.150 A  
HETATM   11  C   UNL     1      -5.994  14.640  68.880  1.00  0.00    -0.085 C  
HETATM   12  H   UNL     1      -6.423  13.467  70.450  1.00  0.00     0.000 HD 
HETATM   13  O   UNL     1      -6.649  14.322  70.105  1.00  0.00    -0.145 OA 
HETATM   14  C   UNL     1      -8.362  15.524  66.847  1.00  0.00    -0.290 A  
HETATM   15  C   UNL     1      -9.733  15.524  66.572  1.00  0.00    -0.290 A  
BRANCH   3  16
HETATM   16  C   UNL     1      -5.128  18.570  67.422  1.00  0.00    -0.144 C  
BRANCH  16  17
HETATM   17  C   UNL     1      -6.076  19.202  66.429  1.00  0.00    -0.182 A  
HETATM   18  C   UNL     1      -5.598  19.836  65.276  1.00  0.00    -0.198 A  
HETATM   19  C   UNL     1      -8.284  19.813  65.730  1.00  0.00    -0.099 A  
HETATM   20  C   UNL     1      -6.505  20.437  64.416  1.00  0.00    -0.235 A  
HETATM   21  C   UNL     1      -7.455  19.192  66.651  1.00  0.00    -0.246 A  
HETATM   22  N   UNL     1      -7.838  20.439  64.618  1.00  0.00     0.558 NA 
ENDBRANCH  16  17
ENDBRANCH   3  16
ENDBRANCH   2   3
TORSDOF 3
ENDMDL
MODEL      182
REMARK 921   NORMALIZED FREE ENERGY PREDICTED BY IDOCK:   -2.97 KCAL/MOL
REMARK 922        TOTAL FREE ENERGY PREDICTED BY IDOCK:   -4.51 KCAL/MOL
REMARK 923 INTER-LIGAND FREE ENERGY PREDICTED BY IDOCK:   -4.56 KCAL/MOL
REMARK 924 INTRA-LIGAND FREE ENERGY PREDICTED BY IDOCK:    0.05 KCAL/MOL
REMARK 927      BINDING AFFINITY PREDICTED BY RF-SCORE:    0.00 PKD
ROOT
HETATM    1  C   UNL     1      -5.909  11.541  68.928  1.00  0.00    -0.047 C  
HETATM    2  C   UNL     1      -6.656  12.570  68.083  1.00  0.00    -0.077 C  
ENDROOT
BRANCH   2   3
HETATM    3  N   UNL     1      -8.031  12.931  68.482  1.00  0.00    -0.129 N  
HETATM    4  C   UNL     1     -10.454  10.500  69.583  1.00  0.00    -0.257 A  
HETATM    5  C   UNL     1      -9.111  12.417  67.744  1.00  0.00    -0.193 C  
HETATM    6  C   UNL     1     -10.553  12.683  68.228  1.00  0.00    -0.250 C  
HETATM    7  C   UNL     1     -10.935   9.670  70.599  1.00  0.00    -0.386 A  
HETATM    8  O   UNL     1      -8.945  11.707  66.745  1.00  0.00    -0.176 OA 
HETATM    9  C   UNL     1     -11.981  10.093  71.414  1.00  0.00    -0.447 A  
HETATM   10  C   UNL     1     -11.005  11.774  69.370  1.00  0.00    -0.185 A  
HETATM   11  C   UNL     1     -11.517  12.571  67.023  1.00  0.00    -0.356 C  
HETATM   12  H   UNL     1     -12.181  11.192  65.724  1.00  0.00     0.000 HD 
HETATM   13  O   UNL     1     -11.590  11.261  66.464  1.00  0.00    -0.344 OA 
HETATM   14  C   UNL     1     -12.069  12.181  70.196  1.00  0.00    -0.368 A  
HETATM   15  C   UNL     1     -12.553  11.347  71.208  1.00  0.00    -0.480 A  
BRANCH   3  16
HETATM   16  C   UNL     1      -8.209  14.217  69.183  1.00  0.00     0.097 C  
BRANCH  16  17
HETATM   17  C   UNL     1      -7.533  15.429  68.586  1.00  0.00    -0.130 A  
HETATM   18  C   UNL     1      -7.521  16.656  69.260  1.00  0.00    -0.165 A  
HETATM   19  C   UNL     1      -6.346  16.509  66.807  1.00  0.00    -0.056 A  
HETATM   20  C   UNL     1      -6.924  17.750  68.652  1.00  0.00    -0.247 A  
HETATM   21  C   UNL     1      -6.925  15.363  67.330  1.00  0.00    -0.222 A  
HETATM   22  N   UNL     1      -6.337  17.703  67.440  1.00  0.00    -0.144 NA 
ENDBRANCH  16  17
ENDBRANCH   3  16
ENDBRANCH   2   3
TORSDOF 3
ENDMDL
MODEL      183
REMARK 921   NORMALIZED FREE ENERGY PREDICTED BY IDOCK:   -2.97 KCAL/MOL
REMARK 922        TOTAL FREE ENERGY PREDICTED BY IDOCK:   -4.51 KCAL/MOL
REMARK 923 INTER-LIGAND FREE ENERGY PREDICTED BY IDOCK:   -4.09 KCAL/MOL
REMARK 924 INTRA-LIGAND FREE ENERGY PREDICTED BY IDOCK:   -0.42 KCAL/MOL
REMARK 927      BINDING AFFINITY PREDICTED BY RF-SCORE:    0.00 PKD
ROOT
HETATM    1  C   UNL     1      -6.877  13.650  69.557  1.00  0.00     0.027 C  
HETATM    2  C   UNL     1      -7.130  13.912  68.075  1.00  0.00    -0.144 C  
ENDROOT
BRANCH   2   3
HETATM    3  N   UNL     1      -7.969  12.950  67.332  1.00  0.00    -0.177 N  
HETATM    4  C   UNL     1      -8.347   9.505  68.323  1.00  0.00    -0.118 A  
HETATM    5  C   UNL     1      -7.361  11.828  66.744  1.00  0.00    -0.052 C  
HETATM    6  C   UNL     1      -8.244  10.752  66.077  1.00  0.00    -0.164 C  
HETATM    7  C   UNL     1      -8.936   8.565  69.172  1.00  0.00    -0.146 A  
HETATM    8  O   UNL     1      -6.139  11.643  66.792  1.00  0.00    -0.144 OA 
HETATM    9  C   UNL     1     -10.079   7.878  68.773  1.00  0.00    -0.203 A  
HETATM   10  C   UNL     1      -8.896   9.782  67.060  1.00  0.00    -0.145 A  
HETATM   11  C   UNL     1      -7.400   9.987  65.029  1.00  0.00    -0.140 C  
HETATM   12  H   UNL     1      -5.810   8.765  64.951  1.00  0.00     0.000 HD 
HETATM   13  O   UNL     1      -6.328   9.234  65.594  1.00  0.00    -0.065 OA 
HETATM   14  C   UNL     1     -10.045   9.071  66.669  1.00  0.00    -0.355 A  
HETATM   15  C   UNL     1     -10.631   8.126  67.518  1.00  0.00    -0.291 A  
BRANCH   3  16
HETATM   16  C   UNL     1      -9.211  13.472  66.730  1.00  0.00    -0.240 C  
BRANCH  16  17
HETATM   17  C   UNL     1      -9.740  14.783  67.262  1.00  0.00    -0.230 A  
HETATM   18  C   UNL     1     -10.664  14.817  68.314  1.00  0.00    -0.242 A  
HETATM   19  C   UNL     1      -9.876  17.174  67.197  1.00  0.00    -0.271 A  
HETATM   20  C   UNL     1     -11.151  16.044  68.740  1.00  0.00    -0.338 A  
HETATM   21  C   UNL     1      -9.340  15.997  66.699  1.00  0.00    -0.268 A  
HETATM   22  N   UNL     1     -10.777  17.223  68.204  1.00  0.00    -0.383 NA 
ENDBRANCH  16  17
ENDBRANCH   3  16
ENDBRANCH   2   3
TORSDOF 3
ENDMDL
MODEL      184
REMARK 921   NORMALIZED FREE ENERGY PREDICTED BY IDOCK:   -2.95 KCAL/MOL
REMARK 922        TOTAL FREE ENERGY PREDICTED BY IDOCK:   -4.49 KCAL/MOL
REMARK 923 INTER-LIGAND FREE ENERGY PREDICTED BY IDOCK:   -4.34 KCAL/MOL
REMARK 924 INTRA-LIGAND FREE ENERGY PREDICTED BY IDOCK:   -0.15 KCAL/MOL
REMARK 927      BINDING AFFINITY PREDICTED BY RF-SCORE:    0.00 PKD
ROOT
HETATM    1  C   UNL     1      -6.845   9.075  71.236  1.00  0.00    -0.088 C  
HETATM    2  C   UNL     1      -6.733   7.867  70.310  1.00  0.00    -0.038 C  
ENDROOT
BRANCH   2   3
HETATM    3  N   UNL     1      -7.975   7.319  69.727  1.00  0.00    -0.120 N  
HETATM    4  C   UNL     1      -8.192   6.147  66.325  1.00  0.00    -0.116 A  
HETATM    5  C   UNL     1      -8.566   7.982  68.638  1.00  0.00    -0.128 C  
HETATM    6  C   UNL     1      -9.789   7.350  67.941  1.00  0.00    -0.177 C  
HETATM    7  C   UNL     1      -7.928   5.143  65.390  1.00  0.00    -0.110 A  
HETATM    8  O   UNL     1      -8.104   9.034  68.180  1.00  0.00    -0.104 OA 
HETATM    9  C   UNL     1      -8.909   4.209  65.068  1.00  0.00    -0.131 A  
HETATM   10  C   UNL     1      -9.440   6.229  66.964  1.00  0.00    -0.146 A  
HETATM   11  C   UNL     1     -10.597   8.464  67.232  1.00  0.00    -0.257 C  
HETATM   12  H   UNL     1     -10.388   9.776  65.728  1.00  0.00     0.000 HD 
HETATM   13  O   UNL     1      -9.893   9.092  66.163  1.00  0.00    -0.269 OA 
HETATM   14  C   UNL     1     -10.423   5.283  66.618  1.00  0.00    -0.345 A  
HETATM   15  C   UNL     1     -10.159   4.282  65.678  1.00  0.00    -0.233 A  
BRANCH   3  16
HETATM   16  C   UNL     1      -8.841   6.527  70.621  1.00  0.00    -0.144 C  
BRANCH  16  17
HETATM   17  C   UNL     1     -10.126   7.170  71.086  1.00  0.00    -0.193 A  
HETATM   18  C   UNL     1     -11.360   6.530  70.913  1.00  0.00    -0.393 A  
HETATM   19  C   UNL     1     -11.327   9.001  72.060  1.00  0.00    -0.324 A  
HETATM   20  C   UNL     1     -12.516   7.179  71.319  1.00  0.00    -0.386 A  
HETATM   21  C   UNL     1     -10.120   8.435  71.678  1.00  0.00    -0.308 A  
HETATM   22  N   UNL     1     -12.526   8.401  71.888  1.00  0.00    -0.327 NA 
ENDBRANCH  16  17
ENDBRANCH   3  16
ENDBRANCH   2   3
TORSDOF 3
ENDMDL
MODEL      185
REMARK 921   NORMALIZED FREE ENERGY PREDICTED BY IDOCK:   -2.91 KCAL/MOL
REMARK 922        TOTAL FREE ENERGY PREDICTED BY IDOCK:   -4.44 KCAL/MOL
REMARK 923 INTER-LIGAND FREE ENERGY PREDICTED BY IDOCK:   -3.44 KCAL/MOL
REMARK 924 INTRA-LIGAND FREE ENERGY PREDICTED BY IDOCK:   -1.00 KCAL/MOL
REMARK 927      BINDING AFFINITY PREDICTED BY RF-SCORE:    0.00 PKD
ROOT
HETATM    1  C   UNL     1     -10.933   6.395  67.010  1.00  0.00    -0.463 C  
HETATM    2  C   UNL     1      -9.417   6.215  66.991  1.00  0.00    -0.129 C  
ENDROOT
BRANCH   2   3
HETATM    3  N   UNL     1      -8.679   6.401  68.257  1.00  0.00    -0.117 N  
HETATM    4  C   UNL     1     -10.133   7.961  71.163  1.00  0.00    -0.210 A  
HETATM    5  C   UNL     1      -8.446   7.705  68.724  1.00  0.00    -0.129 C  
HETATM    6  C   UNL     1      -7.789   7.908  70.107  1.00  0.00    -0.097 C  
HETATM    7  C   UNL     1     -10.974   7.864  72.274  1.00  0.00    -0.359 A  
HETATM    8  O   UNL     1      -8.801   8.704  68.087  1.00  0.00    -0.140 OA 
HETATM    9  C   UNL     1     -10.450   7.560  73.527  1.00  0.00    -0.362 A  
HETATM   10  C   UNL     1      -8.750   7.745  71.283  1.00  0.00    -0.140 A  
HETATM   11  C   UNL     1      -7.108   9.297  70.142  1.00  0.00    -0.072 C  
HETATM   12  H   UNL     1      -7.604  11.240  70.066  1.00  0.00     0.000 HD 
HETATM   13  O   UNL     1      -8.021  10.388  70.045  1.00  0.00    -0.103 OA 
HETATM   14  C   UNL     1      -8.236   7.449  72.559  1.00  0.00    -0.123 A  
HETATM   15  C   UNL     1      -9.079   7.358  73.671  1.00  0.00    -0.273 A  
BRANCH   3  16
HETATM   16  C   UNL     1      -7.730   5.338  68.640  1.00  0.00    -0.083 C  
BRANCH  16  17
HETATM   17  C   UNL     1      -8.260   4.217  69.504  1.00  0.00    -0.066 A  
HETATM   18  C   UNL     1      -7.754   2.916  69.391  1.00  0.00    -0.045 A  
HETATM   19  C   UNL     1      -9.766   3.380  71.168  1.00  0.00    -0.152 A  
HETATM   20  C   UNL     1      -8.302   1.913  70.177  1.00  0.00    -0.041 A  
HETATM   21  C   UNL     1      -9.289   4.445  70.420  1.00  0.00    -0.219 A  
HETATM   22  N   UNL     1      -9.297   2.117  71.063  1.00  0.00    -0.123 NA 
ENDBRANCH  16  17
ENDBRANCH   3  16
ENDBRANCH   2   3
TORSDOF 3
ENDMDL
MODEL      186
REMARK 921   NORMALIZED FREE ENERGY PREDICTED BY IDOCK:   -2.88 KCAL/MOL
REMARK 922        TOTAL FREE ENERGY PREDICTED BY IDOCK:   -4.41 KCAL/MOL
REMARK 923 INTER-LIGAND FREE ENERGY PREDICTED BY IDOCK:   -4.34 KCAL/MOL
REMARK 924 INTRA-LIGAND FREE ENERGY PREDICTED BY IDOCK:   -0.07 KCAL/MOL
REMARK 927      BINDING AFFINITY PREDICTED BY RF-SCORE:    0.00 PKD
ROOT
HETATM    1  C   UNL     1     -10.910   8.966  67.896  1.00  0.00    -0.096 C  
HETATM    2  C   UNL     1      -9.598   9.702  67.640  1.00  0.00    -0.142 C  
ENDROOT
BRANCH   2   3
HETATM    3  N   UNL     1      -9.515  11.128  68.016  1.00  0.00    -0.168 N  
HETATM    4  C   UNL     1     -12.136  12.838  69.805  1.00  0.00    -0.305 A  
HETATM    5  C   UNL     1     -10.456  12.027  67.485  1.00  0.00    -0.212 C  
HETATM    6  C   UNL     1     -10.459  13.493  67.970  1.00  0.00    -0.245 C  
HETATM    7  C   UNL     1     -12.783  13.094  71.016  1.00  0.00    -0.361 A  
HETATM    8  O   UNL     1     -11.324  11.671  66.680  1.00  0.00    -0.324 OA 
HETATM    9  C   UNL     1     -12.455  14.223  71.762  1.00  0.00    -0.396 A  
HETATM   10  C   UNL     1     -11.141  13.702  69.321  1.00  0.00    -0.241 A  
HETATM   11  C   UNL     1     -11.109  14.382  66.883  1.00  0.00    -0.323 C  
HETATM   12  H   UNL     1     -12.890  14.647  65.996  1.00  0.00     0.000 HD 
HETATM   13  O   UNL     1     -12.490  14.102  66.663  1.00  0.00    -0.426 OA 
HETATM   14  C   UNL     1     -10.829  14.844  70.082  1.00  0.00    -0.163 A  
HETATM   15  C   UNL     1     -11.482  15.102  71.292  1.00  0.00    -0.395 A  
BRANCH   3  16
HETATM   16  C   UNL     1      -8.186  11.645  68.394  1.00  0.00    -0.155 C  
BRANCH  16  17
HETATM   17  C   UNL     1      -7.228  10.676  69.046  1.00  0.00    -0.095 A  
HETATM   18  C   UNL     1      -5.966  10.423  68.493  1.00  0.00    -0.043 A  
HETATM   19  C   UNL     1      -6.689   9.083  70.752  1.00  0.00    -0.067 A  
HETATM   20  C   UNL     1      -5.139   9.494  69.106  1.00  0.00    -0.036 A  
HETATM   21  C   UNL     1      -7.587   9.987  70.206  1.00  0.00    -0.122 A  
HETATM   22  N   UNL     1      -5.473   8.818  70.224  1.00  0.00    -0.024 NA 
ENDBRANCH  16  17
ENDBRANCH   3  16
ENDBRANCH   2   3
TORSDOF 3
ENDMDL
MODEL      187
REMARK 921   NORMALIZED FREE ENERGY PREDICTED BY IDOCK:   -2.87 KCAL/MOL
REMARK 922        TOTAL FREE ENERGY PREDICTED BY IDOCK:   -4.39 KCAL/MOL
REMARK 923 INTER-LIGAND FREE ENERGY PREDICTED BY IDOCK:   -4.13 KCAL/MOL
REMARK 924 INTRA-LIGAND FREE ENERGY PREDICTED BY IDOCK:   -0.25 KCAL/MOL
REMARK 927      BINDING AFFINITY PREDICTED BY RF-SCORE:    0.00 PKD
ROOT
HETATM    1  C   UNL     1      -6.600   6.988  70.794  1.00  0.00    -0.052 C  
HETATM    2  C   UNL     1      -6.793   8.395  70.234  1.00  0.00    -0.036 C  
ENDROOT
BRANCH   2   3
HETATM    3  N   UNL     1      -7.901   8.619  69.283  1.00  0.00    -0.099 N  
HETATM    4  C   UNL     1      -7.461  10.300  66.125  1.00  0.00    -0.121 A  
HETATM    5  C   UNL     1      -8.269   9.938  68.967  1.00  0.00    -0.124 C  
HETATM    6  C   UNL     1      -9.337  10.185  67.879  1.00  0.00    -0.151 C  
HETATM    7  C   UNL     1      -7.025  10.253  64.798  1.00  0.00    -0.093 A  
HETATM    8  O   UNL     1      -7.724  10.916  69.492  1.00  0.00    -0.115 OA 
HETATM    9  C   UNL     1      -7.928   9.990  63.772  1.00  0.00    -0.153 A  
HETATM   10  C   UNL     1      -8.809  10.076  66.450  1.00  0.00    -0.158 A  
HETATM   11  C   UNL     1      -9.989  11.568  68.119  1.00  0.00    -0.192 C  
HETATM   12  H   UNL     1      -9.490  13.512  68.105  1.00  0.00     0.000 HD 
HETATM   13  O   UNL     1      -9.091  12.663  67.958  1.00  0.00    -0.194 OA 
HETATM   14  C   UNL     1      -9.709   9.822  65.399  1.00  0.00    -0.383 A  
HETATM   15  C   UNL     1      -9.272   9.781  64.072  1.00  0.00    -0.267 A  
BRANCH   3  16
HETATM   16  C   UNL     1      -8.925   7.562  69.187  1.00  0.00    -0.135 C  
BRANCH  16  17
HETATM   17  C   UNL     1     -10.068   7.615  70.174  1.00  0.00    -0.199 A  
HETATM   18  C   UNL     1     -10.032   8.479  71.277  1.00  0.00    -0.284 A  
HETATM   19  C   UNL     1     -12.188   6.841  70.977  1.00  0.00    -0.352 A  
HETATM   20  C   UNL     1     -11.086   8.461  72.178  1.00  0.00    -0.345 A  
HETATM   21  C   UNL     1     -11.179   6.782  70.028  1.00  0.00    -0.380 A  
HETATM   22  N   UNL     1     -12.163   7.661  72.051  1.00  0.00    -0.299 NA 
ENDBRANCH  16  17
ENDBRANCH   3  16
ENDBRANCH   2   3
TORSDOF 3
ENDMDL
MODEL      188
REMARK 921   NORMALIZED FREE ENERGY PREDICTED BY IDOCK:   -2.86 KCAL/MOL
REMARK 922        TOTAL FREE ENERGY PREDICTED BY IDOCK:   -4.38 KCAL/MOL
REMARK 923 INTER-LIGAND FREE ENERGY PREDICTED BY IDOCK:   -4.23 KCAL/MOL
REMARK 924 INTRA-LIGAND FREE ENERGY PREDICTED BY IDOCK:   -0.15 KCAL/MOL
REMARK 927      BINDING AFFINITY PREDICTED BY RF-SCORE:    0.00 PKD
ROOT
HETATM    1  C   UNL     1      -9.025   7.525  66.195  1.00  0.00    -0.188 C  
HETATM    2  C   UNL     1      -9.212   8.985  66.599  1.00  0.00    -0.167 C  
ENDROOT
BRANCH   2   3
HETATM    3  N   UNL     1      -9.303   9.302  68.038  1.00  0.00    -0.134 N  
HETATM    4  C   UNL     1     -11.661   7.710  70.250  1.00  0.00    -0.005 A  
HETATM    5  C   UNL     1     -10.496   9.849  68.540  1.00  0.00    -0.205 C  
HETATM    6  C   UNL     1     -10.648  10.065  70.061  1.00  0.00    -0.344 C  
HETATM    7  C   UNL     1     -12.020   6.592  71.008  1.00  0.00    -0.358 A  
HETATM    8  O   UNL     1     -11.457  10.113  67.808  1.00  0.00    -0.287 OA 
HETATM    9  C   UNL     1     -11.730   6.543  72.368  1.00  0.00    -0.271 A  
HETATM   10  C   UNL     1     -10.997   8.797  70.840  1.00  0.00    -0.315 A  
HETATM   11  C   UNL     1     -11.703  11.169  70.310  1.00  0.00    -0.341 C  
HETATM   12  H   UNL     1     -13.667  11.489  70.044  1.00  0.00     0.000 HD 
HETATM   13  O   UNL     1     -13.019  10.812  69.892  1.00  0.00    -0.118 OA 
HETATM   14  C   UNL     1     -10.721   8.736  72.218  1.00  0.00    -0.322 A  
HETATM   15  C   UNL     1     -11.086   7.619  72.975  1.00  0.00    -0.437 A  
BRANCH   3  16
HETATM   16  C   UNL     1      -8.040   9.611  68.737  1.00  0.00    -0.097 C  
BRANCH  16  17
HETATM   17  C   UNL     1      -7.194  10.728  68.172  1.00  0.00    -0.083 A  
HETATM   18  C   UNL     1      -6.705  10.673  66.861  1.00  0.00    -0.091 A  
HETATM   19  C   UNL     1      -6.046  12.818  68.406  1.00  0.00    -0.069 A  
HETATM   20  C   UNL     1      -5.898  11.703  66.402  1.00  0.00     0.046 A  
HETATM   21  C   UNL     1      -6.853  11.833  68.955  1.00  0.00    -0.102 A  
HETATM   22  N   UNL     1      -5.558  12.774  67.146  1.00  0.00    -0.345 NA 
ENDBRANCH  16  17
ENDBRANCH   3  16
ENDBRANCH   2   3
TORSDOF 3
ENDMDL
MODEL      189
REMARK 921   NORMALIZED FREE ENERGY PREDICTED BY IDOCK:   -2.82 KCAL/MOL
REMARK 922        TOTAL FREE ENERGY PREDICTED BY IDOCK:   -4.34 KCAL/MOL
REMARK 923 INTER-LIGAND FREE ENERGY PREDICTED BY IDOCK:   -4.06 KCAL/MOL
REMARK 924 INTRA-LIGAND FREE ENERGY PREDICTED BY IDOCK:   -0.28 KCAL/MOL
REMARK 927      BINDING AFFINITY PREDICTED BY RF-SCORE:    0.00 PKD
ROOT
HETATM    1  C   UNL     1      -6.678  11.708  67.030  1.00  0.00    -0.145 C  
HETATM    2  C   UNL     1      -7.345  11.426  68.374  1.00  0.00    -0.095 C  
ENDROOT
BRANCH   2   3
HETATM    3  N   UNL     1      -8.436  10.431  68.414  1.00  0.00    -0.119 N  
HETATM    4  C   UNL     1      -8.830   8.063  71.103  1.00  0.00    -0.159 A  
HETATM    5  C   UNL     1      -8.112   9.064  68.393  1.00  0.00    -0.108 C  
HETATM    6  C   UNL     1      -9.234   8.018  68.564  1.00  0.00    -0.135 C  
HETATM    7  C   UNL     1      -9.246   7.800  72.410  1.00  0.00    -0.218 A  
HETATM    8  O   UNL     1      -6.945   8.667  68.298  1.00  0.00    -0.071 OA 
HETATM    9  C   UNL     1     -10.510   7.270  72.651  1.00  0.00    -0.285 A  
HETATM   10  C   UNL     1      -9.677   7.808  70.011  1.00  0.00    -0.176 A  
HETATM   11  C   UNL     1      -8.778   6.682  67.930  1.00  0.00    -0.116 C  
HETATM   12  H   UNL     1      -7.383   5.264  68.200  1.00  0.00     0.000 HD 
HETATM   13  O   UNL     1      -7.664   6.084  68.588  1.00  0.00    -0.092 OA 
HETATM   14  C   UNL     1     -10.946   7.262  70.273  1.00  0.00    -0.281 A  
HETATM   15  C   UNL     1     -11.359   6.994  71.582  1.00  0.00    -0.288 A  
BRANCH   3  16
HETATM   16  C   UNL     1      -9.744  10.851  67.877  1.00  0.00    -0.165 C  
BRANCH  16  17
HETATM   17  C   UNL     1      -9.798  11.245  66.419  1.00  0.00    -0.243 A  
HETATM   18  C   UNL     1      -9.665  10.287  65.406  1.00  0.00    -0.340 A  
HETATM   19  C   UNL     1      -9.967  12.899  64.695  1.00  0.00    -0.129 A  
HETATM   20  C   UNL     1      -9.679  10.703  64.083  1.00  0.00    -0.320 A  
HETATM   21  C   UNL     1      -9.956  12.580  66.044  1.00  0.00    -0.269 A  
HETATM   22  N   UNL     1      -9.827  11.988  63.706  1.00  0.00    -0.301 NA 
ENDBRANCH  16  17
ENDBRANCH   3  16
ENDBRANCH   2   3
TORSDOF 3
ENDMDL
MODEL      190
REMARK 921   NORMALIZED FREE ENERGY PREDICTED BY IDOCK:   -2.78 KCAL/MOL
REMARK 922        TOTAL FREE ENERGY PREDICTED BY IDOCK:   -4.28 KCAL/MOL
REMARK 923 INTER-LIGAND FREE ENERGY PREDICTED BY IDOCK:   -3.42 KCAL/MOL
REMARK 924 INTRA-LIGAND FREE ENERGY PREDICTED BY IDOCK:   -0.86 KCAL/MOL
REMARK 927      BINDING AFFINITY PREDICTED BY RF-SCORE:    0.00 PKD
ROOT
HETATM    1  C   UNL     1     -10.562  11.907  68.976  1.00  0.00    -0.152 C  
HETATM    2  C   UNL     1     -10.506  10.382  69.005  1.00  0.00    -0.219 C  
ENDROOT
BRANCH   2   3
HETATM    3  N   UNL     1      -9.394   9.713  68.301  1.00  0.00    -0.133 N  
HETATM    4  C   UNL     1      -9.577   6.305  67.139  1.00  0.00    -0.151 A  
HETATM    5  C   UNL     1      -8.797   8.584  68.889  1.00  0.00    -0.139 C  
HETATM    6  C   UNL     1      -7.722   7.802  68.104  1.00  0.00    -0.119 C  
HETATM    7  C   UNL     1     -10.038   5.392  66.188  1.00  0.00    -0.173 A  
HETATM    8  O   UNL     1      -9.145   8.159  69.996  1.00  0.00    -0.149 OA 
HETATM    9  C   UNL     1      -9.217   5.002  65.133  1.00  0.00    -0.100 A  
HETATM   10  C   UNL     1      -8.287   6.853  67.048  1.00  0.00    -0.121 A  
HETATM   11  C   UNL     1      -6.825   7.036  69.106  1.00  0.00    -0.061 C  
HETATM   12  H   UNL     1      -6.962   5.549  70.447  1.00  0.00     0.000 HD 
HETATM   13  O   UNL     1      -7.512   6.019  69.832  1.00  0.00    -0.076 OA 
HETATM   14  C   UNL     1      -7.467   6.440  65.982  1.00  0.00    -0.082 A  
HETATM   15  C   UNL     1      -7.928   5.522  65.034  1.00  0.00    -0.113 A  
BRANCH   3  16
HETATM   16  C   UNL     1      -8.580  10.543  67.393  1.00  0.00    -0.122 C  
BRANCH  16  17
HETATM   17  C   UNL     1      -9.018  10.620  65.949  1.00  0.00    -0.192 A  
HETATM   18  C   UNL     1      -8.688   9.607  65.038  1.00  0.00    -0.202 A  
HETATM   19  C   UNL     1     -10.092  11.761  64.137  1.00  0.00    -0.310 A  
HETATM   20  C   UNL     1      -9.077   9.743  63.714  1.00  0.00    -0.230 A  
HETATM   21  C   UNL     1      -9.740  11.718  65.477  1.00  0.00    -0.248 A  
HETATM   22  N   UNL     1      -9.771  10.799  63.244  1.00  0.00    -0.328 NA 
ENDBRANCH  16  17
ENDBRANCH   3  16
ENDBRANCH   2   3
TORSDOF 3
ENDMDL
MODEL      191
REMARK 921   NORMALIZED FREE ENERGY PREDICTED BY IDOCK:   -2.78 KCAL/MOL
REMARK 922        TOTAL FREE ENERGY PREDICTED BY IDOCK:   -4.28 KCAL/MOL
REMARK 923 INTER-LIGAND FREE ENERGY PREDICTED BY IDOCK:   -4.24 KCAL/MOL
REMARK 924 INTRA-LIGAND FREE ENERGY PREDICTED BY IDOCK:   -0.04 KCAL/MOL
REMARK 927      BINDING AFFINITY PREDICTED BY RF-SCORE:    0.00 PKD
ROOT
HETATM    1  C   UNL     1     -11.080  12.033  65.437  1.00  0.00    -0.369 C  
HETATM    2  C   UNL     1     -11.178  11.314  66.780  1.00  0.00    -0.195 C  
ENDROOT
BRANCH   2   3
HETATM    3  N   UNL     1     -10.032  11.409  67.706  1.00  0.00    -0.175 N  
HETATM    4  C   UNL     1      -7.765  14.212  67.736  1.00  0.00    -0.175 A  
HETATM    5  C   UNL     1      -8.731  11.453  67.176  1.00  0.00    -0.155 C  
HETATM    6  C   UNL     1      -7.535  11.681  68.125  1.00  0.00    -0.103 C  
HETATM    7  C   UNL     1      -7.507  15.534  68.109  1.00  0.00    -0.119 A  
HETATM    8  O   UNL     1      -8.513  11.370  65.961  1.00  0.00    -0.151 OA 
HETATM    9  C   UNL     1      -6.801  15.808  69.277  1.00  0.00    -0.184 A  
HETATM   10  C   UNL     1      -7.331  13.140  68.532  1.00  0.00    -0.111 A  
HETATM   11  C   UNL     1      -6.255  11.110  67.468  1.00  0.00    -0.060 C  
HETATM   12  H   UNL     1      -5.083  11.440  65.873  1.00  0.00     0.000 HD 
HETATM   13  O   UNL     1      -5.868  11.790  66.276  1.00  0.00    -0.192 OA 
HETATM   14  C   UNL     1      -6.610  13.435  69.703  1.00  0.00    -0.008 A  
HETATM   15  C   UNL     1      -6.347  14.758  70.072  1.00  0.00    -0.164 A  
BRANCH   3  16
HETATM   16  C   UNL     1     -10.219  10.860  69.062  1.00  0.00    -0.203 C  
BRANCH  16  17
HETATM   17  C   UNL     1     -11.245  11.531  69.944  1.00  0.00    -0.183 A  
HETATM   18  C   UNL     1     -12.066  10.783  70.798  1.00  0.00    -0.473 A  
HETATM   19  C   UNL     1     -12.397  13.486  70.713  1.00  0.00    -0.363 A  
HETATM   20  C   UNL     1     -13.021  11.442  71.557  1.00  0.00    -0.399 A  
HETATM   21  C   UNL     1     -11.421  12.916  69.911  1.00  0.00    -0.147 A  
HETATM   22  N   UNL     1     -13.205  12.777  71.533  1.00  0.00    -0.308 NA 
ENDBRANCH  16  17
ENDBRANCH   3  16
ENDBRANCH   2   3
TORSDOF 3
ENDMDL
MODEL      192
REMARK 921   NORMALIZED FREE ENERGY PREDICTED BY IDOCK:   -2.76 KCAL/MOL
REMARK 922        TOTAL FREE ENERGY PREDICTED BY IDOCK:   -4.27 KCAL/MOL
REMARK 923 INTER-LIGAND FREE ENERGY PREDICTED BY IDOCK:   -3.97 KCAL/MOL
REMARK 924 INTRA-LIGAND FREE ENERGY PREDICTED BY IDOCK:   -0.29 KCAL/MOL
REMARK 927      BINDING AFFINITY PREDICTED BY RF-SCORE:    0.00 PKD
ROOT
HETATM    1  C   UNL     1     -10.088  10.464  65.514  1.00  0.00    -0.352 C  
HETATM    2  C   UNL     1     -10.381  10.849  66.962  1.00  0.00    -0.231 C  
ENDROOT
BRANCH   2   3
HETATM    3  N   UNL     1      -9.645  10.146  68.032  1.00  0.00    -0.144 N  
HETATM    4  C   UNL     1     -10.600   6.892  69.254  1.00  0.00    -0.250 A  
HETATM    5  C   UNL     1     -10.308   9.854  69.236  1.00  0.00    -0.219 C  
HETATM    6  C   UNL     1      -9.590   9.008  70.309  1.00  0.00    -0.230 C  
HETATM    7  C   UNL     1     -10.617   5.507  69.073  1.00  0.00    -0.271 A  
HETATM    8  O   UNL     1     -11.475  10.206  69.445  1.00  0.00    -0.218 OA 
HETATM    9  C   UNL     1      -9.646   4.709  69.672  1.00  0.00    -0.262 A  
HETATM   10  C   UNL     1      -9.604   7.506  70.032  1.00  0.00    -0.164 A  
HETATM   11  C   UNL     1     -10.212   9.317  71.692  1.00  0.00    -0.201 C  
HETATM   12  H   UNL     1     -11.957   9.107  72.660  1.00  0.00     0.000 HD 
HETATM   13  O   UNL     1     -11.576   8.918  71.812  1.00  0.00    -0.306 OA 
HETATM   14  C   UNL     1      -8.638   6.683  70.639  1.00  0.00    -0.142 A  
HETATM   15  C   UNL     1      -8.660   5.296  70.461  1.00  0.00    -0.125 A  
BRANCH   3  16
HETATM   16  C   UNL     1      -8.180  10.318  68.061  1.00  0.00    -0.113 C  
BRANCH  16  17
HETATM   17  C   UNL     1      -7.650  11.651  68.537  1.00  0.00    -0.127 A  
HETATM   18  C   UNL     1      -6.486  11.731  69.312  1.00  0.00    -0.107 A  
HETATM   19  C   UNL     1      -7.820  14.033  68.725  1.00  0.00    -0.097 A  
HETATM   20  C   UNL     1      -6.063  12.974  69.760  1.00  0.00    -0.123 A  
HETATM   21  C   UNL     1      -8.325  12.836  68.239  1.00  0.00    -0.161 A  
HETATM   22  N   UNL     1      -6.705  14.126  69.483  1.00  0.00    -0.126 NA 
ENDBRANCH  16  17
ENDBRANCH   3  16
ENDBRANCH   2   3
TORSDOF 3
ENDMDL
MODEL      193
REMARK 921   NORMALIZED FREE ENERGY PREDICTED BY IDOCK:   -2.74 KCAL/MOL
REMARK 922        TOTAL FREE ENERGY PREDICTED BY IDOCK:   -4.24 KCAL/MOL
REMARK 923 INTER-LIGAND FREE ENERGY PREDICTED BY IDOCK:   -4.20 KCAL/MOL
REMARK 924 INTRA-LIGAND FREE ENERGY PREDICTED BY IDOCK:   -0.04 KCAL/MOL
REMARK 927      BINDING AFFINITY PREDICTED BY RF-SCORE:    0.00 PKD
ROOT
HETATM    1  C   UNL     1     -12.795   8.349  71.892  1.00  0.00    -0.384 C  
HETATM    2  C   UNL     1     -12.379   7.312  70.853  1.00  0.00    -0.248 C  
ENDROOT
BRANCH   2   3
HETATM    3  N   UNL     1     -10.947   6.962  70.754  1.00  0.00    -0.248 N  
HETATM    4  C   UNL     1      -8.452   8.261  73.008  1.00  0.00    -0.262 A  
HETATM    5  C   UNL     1     -10.015   7.979  70.490  1.00  0.00    -0.190 C  
HETATM    6  C   UNL     1      -8.507   7.647  70.512  1.00  0.00    -0.128 C  
HETATM    7  C   UNL     1      -7.840   8.218  74.263  1.00  0.00    -0.290 A  
HETATM    8  O   UNL     1     -10.358   9.151  70.295  1.00  0.00    -0.190 OA 
HETATM    9  C   UNL     1      -6.665   7.494  74.446  1.00  0.00    -0.106 A  
HETATM   10  C   UNL     1      -7.905   7.571  71.914  1.00  0.00    -0.094 A  
HETATM   11  C   UNL     1      -7.751   8.684  69.646  1.00  0.00    -0.089 C  
HETATM   12  H   UNL     1      -7.343  10.649  69.629  1.00  0.00     0.000 HD 
HETATM   13  O   UNL     1      -7.807  10.012  70.160  1.00  0.00    -0.177 OA 
HETATM   14  C   UNL     1      -6.712   6.853  72.115  1.00  0.00    -0.058 A  
HETATM   15  C   UNL     1      -6.097   6.816  73.370  1.00  0.00    -0.059 A  
BRANCH   3  16
HETATM   16  C   UNL     1     -10.622   5.585  70.334  1.00  0.00    -0.280 C  
BRANCH  16  17
HETATM   17  C   UNL     1     -10.394   5.348  68.859  1.00  0.00    -0.260 A  
HETATM   18  C   UNL     1     -11.010   6.154  67.893  1.00  0.00    -0.399 A  
HETATM   19  C   UNL     1      -9.427   4.100  67.058  1.00  0.00    -0.192 A  
HETATM   20  C   UNL     1     -10.802   5.870  66.552  1.00  0.00    -0.139 A  
HETATM   21  C   UNL     1      -9.582   4.301  68.421  1.00  0.00    -0.197 A  
HETATM   22  N   UNL     1     -10.024   4.861  66.113  1.00  0.00    -0.208 NA 
ENDBRANCH  16  17
ENDBRANCH   3  16
ENDBRANCH   2   3
TORSDOF 3
ENDMDL
MODEL      194
REMARK 921   NORMALIZED FREE ENERGY PREDICTED BY IDOCK:   -2.72 KCAL/MOL
REMARK 922        TOTAL FREE ENERGY PREDICTED BY IDOCK:   -4.22 KCAL/MOL
REMARK 923 INTER-LIGAND FREE ENERGY PREDICTED BY IDOCK:   -3.22 KCAL/MOL
REMARK 924 INTRA-LIGAND FREE ENERGY PREDICTED BY IDOCK:   -0.99 KCAL/MOL
REMARK 927      BINDING AFFINITY PREDICTED BY RF-SCORE:    0.00 PKD
ROOT
HETATM    1  C   UNL     1     -12.226   8.227  71.195  1.00  0.00    -0.253 C  
HETATM    2  C   UNL     1     -11.740   7.489  72.439  1.00  0.00    -0.290 C  
ENDROOT
BRANCH   2   3
HETATM    3  N   UNL     1     -10.386   6.900  72.415  1.00  0.00    -0.198 N  
HETATM    4  C   UNL     1      -9.633   3.790  70.755  1.00  0.00    -0.249 A  
HETATM    5  C   UNL     1     -10.179   5.647  73.017  1.00  0.00    -0.189 C  
HETATM    6  C   UNL     1      -8.800   4.964  72.886  1.00  0.00    -0.117 C  
HETATM    7  C   UNL     1      -9.386   3.102  69.564  1.00  0.00    -0.228 A  
HETATM    8  O   UNL     1     -11.084   5.042  73.604  1.00  0.00    -0.308 OA 
HETATM    9  C   UNL     1      -8.080   2.870  69.145  1.00  0.00    -0.069 A  
HETATM   10  C   UNL     1      -8.574   4.267  71.545  1.00  0.00    -0.129 A  
HETATM   11  C   UNL     1      -8.617   3.970  74.058  1.00  0.00    -0.093 C  
HETATM   12  H   UNL     1      -9.421   2.268  74.754  1.00  0.00     0.000 HD 
HETATM   13  O   UNL     1      -9.533   2.878  74.035  1.00  0.00    -0.087 OA 
HETATM   14  C   UNL     1      -7.260   4.014  71.112  1.00  0.00    -0.033 A  
HETATM   15  C   UNL     1      -7.015   3.320  69.923  1.00  0.00    -0.041 A  
BRANCH   3  16
HETATM   16  C   UNL     1      -9.250   7.837  72.335  1.00  0.00    -0.164 C  
BRANCH  16  17
HETATM   17  C   UNL     1      -8.742   8.192  70.957  1.00  0.00    -0.156 A  
HETATM   18  C   UNL     1      -8.863   7.294  69.888  1.00  0.00    -0.142 A  
HETATM   19  C   UNL     1      -7.634   9.685  69.447  1.00  0.00    -0.097 A  
HETATM   20  C   UNL     1      -8.344   7.649  68.652  1.00  0.00    -0.129 A  
HETATM   21  C   UNL     1      -8.113   9.415  70.719  1.00  0.00    -0.157 A  
HETATM   22  N   UNL     1      -7.732   8.825  68.408  1.00  0.00    -0.095 NA 
ENDBRANCH  16  17
ENDBRANCH   3  16
ENDBRANCH   2   3
TORSDOF 3
ENDMDL
MODEL      195
REMARK 921   NORMALIZED FREE ENERGY PREDICTED BY IDOCK:   -2.70 KCAL/MOL
REMARK 922        TOTAL FREE ENERGY PREDICTED BY IDOCK:   -4.19 KCAL/MOL
REMARK 923 INTER-LIGAND FREE ENERGY PREDICTED BY IDOCK:   -3.32 KCAL/MOL
REMARK 924 INTRA-LIGAND FREE ENERGY PREDICTED BY IDOCK:   -0.87 KCAL/MOL
REMARK 927      BINDING AFFINITY PREDICTED BY RF-SCORE:    0.00 PKD
ROOT
HETATM    1  C   UNL     1     -12.283   6.836  70.602  1.00  0.00    -0.312 C  
HETATM    2  C   UNL     1     -10.986   6.219  71.119  1.00  0.00    -0.280 C  
ENDROOT
BRANCH   2   3
HETATM    3  N   UNL     1      -9.823   6.179  70.209  1.00  0.00    -0.167 N  
HETATM    4  C   UNL     1      -9.838   4.372  67.090  1.00  0.00    -0.217 A  
HETATM    5  C   UNL     1      -9.209   4.944  69.943  1.00  0.00    -0.124 C  
HETATM    6  C   UNL     1      -8.077   4.872  68.896  1.00  0.00    -0.083 C  
HETATM    7  C   UNL     1     -10.228   4.308  65.750  1.00  0.00    -0.207 A  
HETATM    8  O   UNL     1      -9.584   3.895  70.480  1.00  0.00    -0.168 OA 
HETATM    9  C   UNL     1      -9.354   4.708  64.744  1.00  0.00    -0.109 A  
HETATM   10  C   UNL     1      -8.566   4.848  67.449  1.00  0.00    -0.104 A  
HETATM   11  C   UNL     1      -7.192   3.638  69.196  1.00  0.00    -0.049 C  
HETATM   12  H   UNL     1      -7.326   1.636  69.224  1.00  0.00     0.000 HD 
HETATM   13  O   UNL     1      -7.869   2.393  69.040  1.00  0.00    -0.049 OA 
HETATM   14  C   UNL     1      -7.691   5.238  66.418  1.00  0.00    -0.092 A  
HETATM   15  C   UNL     1      -8.082   5.167  65.078  1.00  0.00    -0.117 A  
BRANCH   3  16
HETATM   16  C   UNL     1      -9.007   7.404  70.113  1.00  0.00    -0.148 C  
BRANCH  16  17
HETATM   17  C   UNL     1      -9.252   8.307  68.926  1.00  0.00    -0.147 A  
HETATM   18  C   UNL     1     -10.438   9.043  68.810  1.00  0.00    -0.230 A  
HETATM   19  C   UNL     1      -8.594   9.224  66.813  1.00  0.00    -0.127 A  
HETATM   20  C   UNL     1     -10.634   9.825  67.682  1.00  0.00    -0.276 A  
HETATM   21  C   UNL     1      -8.312   8.409  67.899  1.00  0.00    -0.131 A  
HETATM   22  N   UNL     1      -9.738   9.931  66.681  1.00  0.00    -0.187 NA 
ENDBRANCH  16  17
ENDBRANCH   3  16
ENDBRANCH   2   3
TORSDOF 3
ENDMDL
MODEL      196
REMARK 921   NORMALIZED FREE ENERGY PREDICTED BY IDOCK:   -2.69 KCAL/MOL
REMARK 922        TOTAL FREE ENERGY PREDICTED BY IDOCK:   -4.19 KCAL/MOL
REMARK 923 INTER-LIGAND FREE ENERGY PREDICTED BY IDOCK:   -4.38 KCAL/MOL
REMARK 924 INTRA-LIGAND FREE ENERGY PREDICTED BY IDOCK:    0.20 KCAL/MOL
REMARK 927      BINDING AFFINITY PREDICTED BY RF-SCORE:    0.00 PKD
ROOT
HETATM    1  C   UNL     1      -6.949   5.112  65.034  1.00  0.00    -0.061 C  
HETATM    2  C   UNL     1      -8.178   4.985  65.931  1.00  0.00    -0.114 C  
ENDROOT
BRANCH   2   3
HETATM    3  N   UNL     1      -8.878   6.223  66.330  1.00  0.00    -0.139 N  
HETATM    4  C   UNL     1      -8.679   9.284  64.438  1.00  0.00    -0.211 A  
HETATM    5  C   UNL     1      -8.119   7.364  66.642  1.00  0.00    -0.123 C  
HETATM    6  C   UNL     1      -8.843   8.696  66.935  1.00  0.00    -0.147 C  
HETATM    7  C   UNL     1      -9.088  10.031  63.329  1.00  0.00    -0.300 A  
HETATM    8  O   UNL     1      -6.883   7.352  66.635  1.00  0.00    -0.059 OA 
HETATM    9  C   UNL     1     -10.120  10.957  63.449  1.00  0.00    -0.398 A  
HETATM   10  C   UNL     1      -9.304   9.444  65.685  1.00  0.00    -0.309 A  
HETATM   11  C   UNL     1      -7.921   9.589  67.800  1.00  0.00    -0.099 C  
HETATM   12  H   UNL     1      -6.162  10.546  67.666  1.00  0.00     0.000 HD 
HETATM   13  O   UNL     1      -6.728   9.998  67.135  1.00  0.00    -0.072 OA 
HETATM   14  C   UNL     1     -10.338  10.391  65.790  1.00  0.00    -0.257 A  
HETATM   15  C   UNL     1     -10.742  11.142  64.682  1.00  0.00    -0.350 A  
BRANCH   3  16
HETATM   16  C   UNL     1     -10.204   6.068  66.958  1.00  0.00    -0.205 C  
BRANCH  16  17
HETATM   17  C   UNL     1     -10.237   5.720  68.428  1.00  0.00    -0.242 A  
HETATM   18  C   UNL     1     -11.123   6.361  69.304  1.00  0.00    -0.437 A  
HETATM   19  C   UNL     1      -9.407   4.503  70.317  1.00  0.00    -0.148 A  
HETATM   20  C   UNL     1     -11.086   6.035  70.651  1.00  0.00    -0.301 A  
HETATM   21  C   UNL     1      -9.364   4.767  68.956  1.00  0.00    -0.193 A  
HETATM   22  N   UNL     1     -10.247   5.121  71.177  1.00  0.00    -0.220 NA 
ENDBRANCH  16  17
ENDBRANCH   3  16
ENDBRANCH   2   3
TORSDOF 3
ENDMDL
MODEL      197
REMARK 921   NORMALIZED FREE ENERGY PREDICTED BY IDOCK:   -2.69 KCAL/MOL
REMARK 922        TOTAL FREE ENERGY PREDICTED BY IDOCK:   -4.18 KCAL/MOL
REMARK 923 INTER-LIGAND FREE ENERGY PREDICTED BY IDOCK:   -3.15 KCAL/MOL
REMARK 924 INTRA-LIGAND FREE ENERGY PREDICTED BY IDOCK:   -1.03 KCAL/MOL
REMARK 927      BINDING AFFINITY PREDICTED BY RF-SCORE:    0.00 PKD
ROOT
HETATM    1  C   UNL     1     -11.015  11.378  66.058  1.00  0.00    -0.286 C  
HETATM    2  C   UNL     1     -10.223  10.154  66.511  1.00  0.00    -0.223 C  
ENDROOT
BRANCH   2   3
HETATM    3  N   UNL     1      -9.663  10.154  67.877  1.00  0.00    -0.145 N  
HETATM    4  C   UNL     1      -7.317   7.674  69.034  1.00  0.00    -0.086 A  
HETATM    5  C   UNL     1      -9.931   9.064  68.723  1.00  0.00    -0.182 C  
HETATM    6  C   UNL     1      -9.247   8.993  70.105  1.00  0.00    -0.212 C  
HETATM    7  C   UNL     1      -6.006   7.191  69.059  1.00  0.00    -0.022 A  
HETATM    8  O   UNL     1     -10.656   8.125  68.375  1.00  0.00    -0.185 OA 
HETATM    9  C   UNL     1      -5.158   7.516  70.114  1.00  0.00    -0.023 A  
HETATM   10  C   UNL     1      -7.801   8.500  70.061  1.00  0.00    -0.102 A  
HETATM   11  C   UNL     1     -10.100   8.108  71.044  1.00  0.00    -0.187 C  
HETATM   12  H   UNL     1     -10.696   6.199  71.215  1.00  0.00     0.000 HD 
HETATM   13  O   UNL     1     -10.173   6.743  70.639  1.00  0.00    -0.194 OA 
HETATM   14  C   UNL     1      -6.934   8.810  71.125  1.00  0.00    -0.082 A  
HETATM   15  C   UNL     1      -5.624   8.321  71.151  1.00  0.00    -0.033 A  
BRANCH   3  16
HETATM   16  C   UNL     1      -9.395  11.469  68.491  1.00  0.00    -0.170 C  
BRANCH  16  17
HETATM   17  C   UNL     1      -8.128  12.180  68.077  1.00  0.00    -0.155 A  
HETATM   18  C   UNL     1      -6.934  11.474  67.880  1.00  0.00    -0.075 A  
HETATM   19  C   UNL     1      -6.914  14.179  67.558  1.00  0.00    -0.152 A  
HETATM   20  C   UNL     1      -5.787  12.176  67.541  1.00  0.00    -0.122 A  
HETATM   21  C   UNL     1      -8.108  13.565  67.906  1.00  0.00    -0.165 A  
HETATM   22  N   UNL     1      -5.752  13.513  67.377  1.00  0.00    -0.352 NA 
ENDBRANCH  16  17
ENDBRANCH   3  16
ENDBRANCH   2   3
TORSDOF 3
ENDMDL
MODEL      198
REMARK 921   NORMALIZED FREE ENERGY PREDICTED BY IDOCK:   -2.66 KCAL/MOL
REMARK 922        TOTAL FREE ENERGY PREDICTED BY IDOCK:   -4.14 KCAL/MOL
REMARK 923 INTER-LIGAND FREE ENERGY PREDICTED BY IDOCK:   -4.19 KCAL/MOL
REMARK 924 INTRA-LIGAND FREE ENERGY PREDICTED BY IDOCK:    0.04 KCAL/MOL
REMARK 927      BINDING AFFINITY PREDICTED BY RF-SCORE:    0.00 PKD
ROOT
HETATM    1  C   UNL     1      -8.048   8.563  67.931  1.00  0.00    -0.115 C  
HETATM    2  C   UNL     1      -8.840   9.387  68.943  1.00  0.00    -0.136 C  
ENDROOT
BRANCH   2   3
HETATM    3  N   UNL     1      -9.921  10.257  68.438  1.00  0.00    -0.153 N  
HETATM    4  C   UNL     1      -9.660  12.123  65.365  1.00  0.00    -0.112 A  
HETATM    5  C   UNL     1      -9.678  11.635  68.301  1.00  0.00    -0.197 C  
HETATM    6  C   UNL     1     -10.755  12.532  67.655  1.00  0.00    -0.242 C  
HETATM    7  C   UNL     1      -9.708  12.136  63.969  1.00  0.00    -0.118 A  
HETATM    8  O   UNL     1      -8.602  12.147  68.631  1.00  0.00    -0.110 OA 
HETATM    9  C   UNL     1     -10.879  12.502  63.310  1.00  0.00    -0.205 A  
HETATM   10  C   UNL     1     -10.787  12.469  66.129  1.00  0.00    -0.304 A  
HETATM   11  C   UNL     1     -10.554  13.988  68.140  1.00  0.00    -0.248 C  
HETATM   12  H   UNL     1      -9.204  15.468  68.003  1.00  0.00     0.000 HD 
HETATM   13  O   UNL     1      -9.328  14.574  67.706  1.00  0.00    -0.192 OA 
HETATM   14  C   UNL     1     -11.958  12.847  65.447  1.00  0.00    -0.470 A  
HETATM   15  C   UNL     1     -12.002  12.864  64.049  1.00  0.00    -0.521 A  
BRANCH   3  16
HETATM   16  C   UNL     1     -11.307   9.809  68.675  1.00  0.00     0.083 C  
BRANCH  16  17
HETATM   17  C   UNL     1     -11.997  10.323  69.916  1.00  0.00    -0.222 A  
HETATM   18  C   UNL     1     -12.565  11.603  69.951  1.00  0.00    -0.002 A  
HETATM   19  C   UNL     1     -12.676  10.068  72.200  1.00  0.00    -0.265 A  
HETATM   20  C   UNL     1     -13.151  12.045  71.128  1.00  0.00    -0.032 A  
HETATM   21  C   UNL     1     -12.062   9.543  71.073  1.00  0.00    -0.398 A  
HETATM   22  N   UNL     1     -13.218  11.306  72.253  1.00  0.00    -0.229 NA 
ENDBRANCH  16  17
ENDBRANCH   3  16
ENDBRANCH   2   3
TORSDOF 3
ENDMDL
MODEL      199
REMARK 921   NORMALIZED FREE ENERGY PREDICTED BY IDOCK:   -2.64 KCAL/MOL
REMARK 922        TOTAL FREE ENERGY PREDICTED BY IDOCK:   -4.12 KCAL/MOL
REMARK 923 INTER-LIGAND FREE ENERGY PREDICTED BY IDOCK:   -3.76 KCAL/MOL
REMARK 924 INTRA-LIGAND FREE ENERGY PREDICTED BY IDOCK:   -0.36 KCAL/MOL
REMARK 927      BINDING AFFINITY PREDICTED BY RF-SCORE:    0.00 PKD
ROOT
HETATM    1  C   UNL     1     -10.248   8.353  66.791  1.00  0.00    -0.376 C  
HETATM    2  C   UNL     1      -9.140   8.476  67.833  1.00  0.00    -0.140 C  
ENDROOT
BRANCH   2   3
HETATM    3  N   UNL     1      -8.908   9.798  68.449  1.00  0.00    -0.119 N  
HETATM    4  C   UNL     1      -9.396  12.899  66.678  1.00  0.00    -0.240 A  
HETATM    5  C   UNL     1      -7.913  10.634  67.914  1.00  0.00    -0.106 C  
HETATM    6  C   UNL     1      -7.750  12.066  68.468  1.00  0.00    -0.127 C  
HETATM    7  C   UNL     1     -10.275  13.865  66.183  1.00  0.00    -0.307 A  
HETATM    8  O   UNL     1      -7.196  10.280  66.972  1.00  0.00    -0.088 OA 
HETATM    9  C   UNL     1     -10.537  15.019  66.917  1.00  0.00    -0.297 A  
HETATM   10  C   UNL     1      -8.768  13.065  67.923  1.00  0.00    -0.189 A  
HETATM   11  C   UNL     1      -6.305  12.549  68.195  1.00  0.00    -0.076 C  
HETATM   12  H   UNL     1      -5.113  12.988  66.641  1.00  0.00     0.000 HD 
HETATM   13  O   UNL     1      -5.999  12.691  66.809  1.00  0.00    -0.164 OA 
HETATM   14  C   UNL     1      -9.036  14.242  68.647  1.00  0.00    -0.154 A  
HETATM   15  C   UNL     1      -9.912  15.210  68.147  1.00  0.00    -0.221 A  
BRANCH   3  16
HETATM   16  C   UNL     1      -9.251   9.940  69.878  1.00  0.00    -0.212 C  
BRANCH  16  17
HETATM   17  C   UNL     1      -8.756   8.865  70.817  1.00  0.00    -0.245 A  
HETATM   18  C   UNL     1      -7.497   8.275  70.642  1.00  0.00    -0.062 A  
HETATM   19  C   UNL     1      -9.071   7.400  72.686  1.00  0.00    -0.143 A  
HETATM   20  C   UNL     1      -7.105   7.263  71.506  1.00  0.00    -0.067 A  
HETATM   21  C   UNL     1      -9.553   8.412  71.869  1.00  0.00    -0.324 A  
HETATM   22  N   UNL     1      -7.865   6.813  72.524  1.00  0.00    -0.100 NA 
ENDBRANCH  16  17
ENDBRANCH   3  16
ENDBRANCH   2   3
TORSDOF 3
ENDMDL
MODEL      200
REMARK 921   NORMALIZED FREE ENERGY PREDICTED BY IDOCK:   -2.62 KCAL/MOL
REMARK 922        TOTAL FREE ENERGY PREDICTED BY IDOCK:   -4.10 KCAL/MOL
REMARK 923 INTER-LIGAND FREE ENERGY PREDICTED BY IDOCK:   -3.14 KCAL/MOL
REMARK 924 INTRA-LIGAND FREE ENERGY PREDICTED BY IDOCK:   -0.96 KCAL/MOL
REMARK 927      BINDING AFFINITY PREDICTED BY RF-SCORE:    0.00 PKD
ROOT
HETATM    1  C   UNL     1      -6.659   7.013  70.701  1.00  0.00    -0.052 C  
HETATM    2  C   UNL     1      -6.653   8.429  70.131  1.00  0.00    -0.039 C  
ENDROOT
BRANCH   2   3
HETATM    3  N   UNL     1      -7.802   8.852  69.305  1.00  0.00    -0.094 N  
HETATM    4  C   UNL     1      -7.427  10.379  66.061  1.00  0.00    -0.134 A  
HETATM    5  C   UNL     1      -7.947  10.214  68.987  1.00  0.00    -0.115 C  
HETATM    6  C   UNL     1      -9.069  10.649  68.021  1.00  0.00    -0.147 C  
HETATM    7  C   UNL     1      -7.168  10.232  64.696  1.00  0.00    -0.082 A  
HETATM    8  O   UNL     1      -7.168  11.074  69.413  1.00  0.00    -0.122 OA 
HETATM    9  C   UNL     1      -8.219  10.136  63.789  1.00  0.00    -0.163 A  
HETATM   10  C   UNL     1      -8.744  10.423  66.545  1.00  0.00    -0.143 A  
HETATM   11  C   UNL     1      -9.413  12.135  68.285  1.00  0.00    -0.204 C  
HETATM   12  H   UNL     1      -8.558  13.945  68.147  1.00  0.00     0.000 HD 
HETATM   13  O   UNL     1      -8.347  13.034  67.985  1.00  0.00    -0.149 OA 
HETATM   14  C   UNL     1      -9.794  10.335  65.613  1.00  0.00    -0.332 A  
HETATM   15  C   UNL     1      -9.533  10.194  64.246  1.00  0.00    -0.366 A  
BRANCH   3  16
HETATM   16  C   UNL     1      -9.013   8.012  69.363  1.00  0.00    -0.148 C  
BRANCH  16  17
HETATM   17  C   UNL     1      -9.176   6.960  68.291  1.00  0.00    -0.123 A  
HETATM   18  C   UNL     1      -8.494   7.058  67.071  1.00  0.00    -0.121 A  
HETATM   19  C   UNL     1     -10.178   4.951  67.454  1.00  0.00    -0.118 A  
HETATM   20  C   UNL     1      -8.709   6.090  66.102  1.00  0.00    -0.146 A  
HETATM   21  C   UNL     1     -10.034   5.875  68.478  1.00  0.00    -0.185 A  
HETATM   22  N   UNL     1      -9.536   5.039  66.267  1.00  0.00    -0.154 NA 
ENDBRANCH  16  17
ENDBRANCH   3  16
ENDBRANCH   2   3
TORSDOF 3
ENDMDL
MODEL      201
REMARK 921   NORMALIZED FREE ENERGY PREDICTED BY IDOCK:   -2.58 KCAL/MOL
REMARK 922        TOTAL FREE ENERGY PREDICTED BY IDOCK:   -4.05 KCAL/MOL
REMARK 923 INTER-LIGAND FREE ENERGY PREDICTED BY IDOCK:   -3.25 KCAL/MOL
REMARK 924 INTRA-LIGAND FREE ENERGY PREDICTED BY IDOCK:   -0.80 KCAL/MOL
REMARK 927      BINDING AFFINITY PREDICTED BY RF-SCORE:    0.00 PKD
ROOT
HETATM    1  C   UNL     1      -5.683   5.557  65.183  1.00  0.00    -0.017 C  
HETATM    2  C   UNL     1      -6.303   6.067  66.481  1.00  0.00    -0.045 C  
ENDROOT
BRANCH   2   3
HETATM    3  N   UNL     1      -7.663   6.640  66.424  1.00  0.00    -0.100 N  
HETATM    4  C   UNL     1      -8.814   9.182  68.706  1.00  0.00    -0.132 A  
HETATM    5  C   UNL     1      -8.521   6.467  67.524  1.00  0.00    -0.116 C  
HETATM    6  C   UNL     1      -9.896   7.169  67.528  1.00  0.00    -0.192 C  
HETATM    7  C   UNL     1      -8.827  10.526  69.087  1.00  0.00    -0.161 A  
HETATM    8  O   UNL     1      -8.189   5.812  68.518  1.00  0.00    -0.106 OA 
HETATM    9  C   UNL     1      -9.869  11.358  68.688  1.00  0.00    -0.199 A  
HETATM   10  C   UNL     1      -9.839   8.648  67.909  1.00  0.00    -0.211 A  
HETATM   11  C   UNL     1     -10.853   6.396  68.467  1.00  0.00    -0.314 C  
HETATM   12  H   UNL     1     -11.047   5.950  70.415  1.00  0.00     0.000 HD 
HETATM   13  O   UNL     1     -10.460   6.424  69.838  1.00  0.00    -0.187 OA 
HETATM   14  C   UNL     1     -10.890   9.500  67.524  1.00  0.00    -0.239 A  
HETATM   15  C   UNL     1     -10.905  10.844  67.911  1.00  0.00    -0.295 A  
BRANCH   3  16
HETATM   16  C   UNL     1      -8.261   6.813  65.087  1.00  0.00    -0.114 C  
BRANCH  16  17
HETATM   17  C   UNL     1      -8.026   8.133  64.390  1.00  0.00    -0.145 A  
HETATM   18  C   UNL     1      -8.768   9.272  64.728  1.00  0.00    -0.220 A  
HETATM   19  C   UNL     1      -6.922   9.467  62.735  1.00  0.00    -0.095 A  
HETATM   20  C   UNL     1      -8.545  10.449  64.031  1.00  0.00    -0.175 A  
HETATM   21  C   UNL     1      -7.080   8.244  63.369  1.00  0.00    -0.087 A  
HETATM   22  N   UNL     1      -7.638  10.571  63.041  1.00  0.00    -0.099 NA 
ENDBRANCH  16  17
ENDBRANCH   3  16
ENDBRANCH   2   3
TORSDOF 3
ENDMDL
MODEL      202
REMARK 921   NORMALIZED FREE ENERGY PREDICTED BY IDOCK:   -2.57 KCAL/MOL
REMARK 922        TOTAL FREE ENERGY PREDICTED BY IDOCK:   -4.04 KCAL/MOL
REMARK 923 INTER-LIGAND FREE ENERGY PREDICTED BY IDOCK:   -3.62 KCAL/MOL
REMARK 924 INTRA-LIGAND FREE ENERGY PREDICTED BY IDOCK:   -0.43 KCAL/MOL
REMARK 927      BINDING AFFINITY PREDICTED BY RF-SCORE:    0.00 PKD
ROOT
HETATM    1  C   UNL     1     -11.761   6.676  71.007  1.00  0.00    -0.415 C  
HETATM    2  C   UNL     1     -10.259   6.837  71.226  1.00  0.00    -0.202 C  
ENDROOT
BRANCH   2   3
HETATM    3  N   UNL     1      -9.600   8.035  70.668  1.00  0.00    -0.166 N  
HETATM    4  C   UNL     1     -11.246  10.299  68.396  1.00  0.00    -0.284 A  
HETATM    5  C   UNL     1      -9.414   8.125  69.278  1.00  0.00    -0.159 C  
HETATM    6  C   UNL     1      -8.844   9.426  68.673  1.00  0.00    -0.132 C  
HETATM    7  C   UNL     1     -12.150  11.346  68.202  1.00  0.00    -0.030 A  
HETATM    8  O   UNL     1      -9.746   7.213  68.511  1.00  0.00    -0.141 OA 
HETATM    9  C   UNL     1     -11.696  12.660  68.123  1.00  0.00    -0.396 A  
HETATM   10  C   UNL     1      -9.870  10.548  68.526  1.00  0.00    -0.175 A  
HETATM   11  C   UNL     1      -8.187   9.101  67.310  1.00  0.00    -0.114 C  
HETATM   12  H   UNL     1      -8.706   8.452  65.483  1.00  0.00     0.000 HD 
HETATM   13  O   UNL     1      -9.109   8.651  66.320  1.00  0.00    -0.161 OA 
HETATM   14  C   UNL     1      -9.428  11.880  68.434  1.00  0.00    -0.189 A  
HETATM   15  C   UNL     1     -10.333  12.927  68.233  1.00  0.00    -0.248 A  
BRANCH   3  16
HETATM   16  C   UNL     1      -8.660   8.754  71.549  1.00  0.00    -0.186 C  
BRANCH  16  17
HETATM   17  C   UNL     1      -7.769   7.917  72.437  1.00  0.00    -0.134 A  
HETATM   18  C   UNL     1      -6.651   7.250  71.918  1.00  0.00    -0.051 A  
HETATM   19  C   UNL     1      -7.226   6.961  74.565  1.00  0.00    -0.098 A  
HETATM   20  C   UNL     1      -5.888   6.461  72.765  1.00  0.00    -0.038 A  
HETATM   21  C   UNL     1      -8.052   7.765  73.796  1.00  0.00    -0.234 A  
HETATM   22  N   UNL     1      -6.151   6.302  74.077  1.00  0.00    -0.063 NA 
ENDBRANCH  16  17
ENDBRANCH   3  16
ENDBRANCH   2   3
TORSDOF 3
ENDMDL
MODEL      203
REMARK 921   NORMALIZED FREE ENERGY PREDICTED BY IDOCK:   -2.57 KCAL/MOL
REMARK 922        TOTAL FREE ENERGY PREDICTED BY IDOCK:   -4.04 KCAL/MOL
REMARK 923 INTER-LIGAND FREE ENERGY PREDICTED BY IDOCK:   -3.17 KCAL/MOL
REMARK 924 INTRA-LIGAND FREE ENERGY PREDICTED BY IDOCK:   -0.87 KCAL/MOL
REMARK 927      BINDING AFFINITY PREDICTED BY RF-SCORE:    0.00 PKD
ROOT
HETATM    1  C   UNL     1     -12.532   7.110  71.279  1.00  0.00    -0.425 C  
HETATM    2  C   UNL     1     -11.417   6.761  72.262  1.00  0.00    -0.276 C  
ENDROOT
BRANCH   2   3
HETATM    3  N   UNL     1     -10.021   6.851  71.792  1.00  0.00    -0.174 N  
HETATM    4  C   UNL     1      -7.621   4.202  72.255  1.00  0.00    -0.076 A  
HETATM    5  C   UNL     1      -8.980   6.806  72.735  1.00  0.00    -0.127 C  
HETATM    6  C   UNL     1      -7.516   6.771  72.246  1.00  0.00    -0.092 C  
HETATM    7  C   UNL     1      -7.125   2.958  71.857  1.00  0.00    -0.038 A  
HETATM    8  O   UNL     1      -9.198   6.737  73.950  1.00  0.00    -0.152 OA 
HETATM    9  C   UNL     1      -6.041   2.881  70.987  1.00  0.00    -0.018 A  
HETATM   10  C   UNL     1      -7.047   5.393  71.782  1.00  0.00    -0.076 A  
HETATM   11  C   UNL     1      -6.598   7.315  73.366  1.00  0.00    -0.065 C  
HETATM   12  H   UNL     1      -6.013   6.837  75.225  1.00  0.00     0.000 HD 
HETATM   13  O   UNL     1      -6.576   6.503  74.537  1.00  0.00    -0.080 OA 
HETATM   14  C   UNL     1      -5.945   5.296  70.912  1.00  0.00    -0.021 A  
HETATM   15  C   UNL     1      -5.446   4.050  70.519  1.00  0.00    -0.012 A  
BRANCH   3  16
HETATM   16  C   UNL     1      -9.787   7.567  70.523  1.00  0.00    -0.183 C  
BRANCH  16  17
HETATM   17  C   UNL     1      -9.946   6.777  69.244  1.00  0.00    -0.168 A  
HETATM   18  C   UNL     1     -10.640   7.307  68.149  1.00  0.00    -0.228 A  
HETATM   19  C   UNL     1      -9.625   4.786  67.952  1.00  0.00    -0.154 A  
HETATM   20  C   UNL     1     -10.794   6.527  67.012  1.00  0.00    -0.395 A  
HETATM   21  C   UNL     1      -9.427   5.486  69.132  1.00  0.00    -0.169 A  
HETATM   22  N   UNL     1     -10.302   5.278  66.891  1.00  0.00    -0.242 NA 
ENDBRANCH  16  17
ENDBRANCH   3  16
ENDBRANCH   2   3
TORSDOF 3
ENDMDL
MODEL      204
REMARK 921   NORMALIZED FREE ENERGY PREDICTED BY IDOCK:   -2.53 KCAL/MOL
REMARK 922        TOTAL FREE ENERGY PREDICTED BY IDOCK:   -3.99 KCAL/MOL
REMARK 923 INTER-LIGAND FREE ENERGY PREDICTED BY IDOCK:   -2.98 KCAL/MOL
REMARK 924 INTRA-LIGAND FREE ENERGY PREDICTED BY IDOCK:   -1.01 KCAL/MOL
REMARK 927      BINDING AFFINITY PREDICTED BY RF-SCORE:    0.00 PKD
ROOT
HETATM    1  C   UNL     1     -11.042  10.489  69.744  1.00  0.00    -0.354 C  
HETATM    2  C   UNL     1     -10.996   9.290  68.801  1.00  0.00    -0.007 C  
ENDROOT
BRANCH   2   3
HETATM    3  N   UNL     1      -9.822   8.396  68.869  1.00  0.00    -0.175 N  
HETATM    4  C   UNL     1      -9.879   4.993  67.682  1.00  0.00    -0.202 A  
HETATM    5  C   UNL     1      -9.900   7.229  69.647  1.00  0.00    -0.163 C  
HETATM    6  C   UNL     1      -8.728   6.224  69.624  1.00  0.00    -0.136 C  
HETATM    7  C   UNL     1      -9.839   4.104  66.605  1.00  0.00    -0.210 A  
HETATM    8  O   UNL     1     -10.904   6.948  70.312  1.00  0.00    -0.234 OA 
HETATM    9  C   UNL     1      -8.638   3.508  66.231  1.00  0.00    -0.117 A  
HETATM   10  C   UNL     1      -8.714   5.310  68.400  1.00  0.00    -0.099 A  
HETATM   11  C   UNL     1      -8.750   5.393  70.929  1.00  0.00    -0.134 C  
HETATM   12  H   UNL     1      -9.914   4.050  71.861  1.00  0.00     0.000 HD 
HETATM   13  O   UNL     1      -9.900   4.560  71.060  1.00  0.00    -0.176 OA 
HETATM   14  C   UNL     1      -7.511   4.691  68.014  1.00  0.00    -0.073 A  
HETATM   15  C   UNL     1      -7.474   3.797  66.940  1.00  0.00    -0.079 A  
BRANCH   3  16
HETATM   16  C   UNL     1      -8.498   9.013  68.659  1.00  0.00    -0.128 C  
BRANCH  16  17
HETATM   17  C   UNL     1      -8.092   9.308  67.234  1.00  0.00    -0.113 A  
HETATM   18  C   UNL     1      -8.412   8.427  66.193  1.00  0.00    -0.139 A  
HETATM   19  C   UNL     1      -6.981  10.669  65.606  1.00  0.00    -0.078 A  
HETATM   20  C   UNL     1      -7.980   8.721  64.908  1.00  0.00    -0.135 A  
HETATM   21  C   UNL     1      -7.361  10.456  66.922  1.00  0.00    -0.106 A  
HETATM   22  N   UNL     1      -7.271   9.823  64.592  1.00  0.00    -0.125 NA 
ENDBRANCH  16  17
ENDBRANCH   3  16
ENDBRANCH   2   3
TORSDOF 3
ENDMDL
MODEL      205
REMARK 921   NORMALIZED FREE ENERGY PREDICTED BY IDOCK:   -2.50 KCAL/MOL
REMARK 922        TOTAL FREE ENERGY PREDICTED BY IDOCK:   -3.95 KCAL/MOL
REMARK 923 INTER-LIGAND FREE ENERGY PREDICTED BY IDOCK:   -3.34 KCAL/MOL
REMARK 924 INTRA-LIGAND FREE ENERGY PREDICTED BY IDOCK:   -0.62 KCAL/MOL
REMARK 927      BINDING AFFINITY PREDICTED BY RF-SCORE:    0.00 PKD
ROOT
HETATM    1  C   UNL     1      -9.274   3.309  72.907  1.00  0.00    -0.119 C  
HETATM    2  C   UNL     1      -9.257   4.780  72.499  1.00  0.00    -0.128 C  
ENDROOT
BRANCH   2   3
HETATM    3  N   UNL     1      -9.247   5.103  71.058  1.00  0.00    -0.144 N  
HETATM    4  C   UNL     1      -7.485   3.118  68.619  1.00  0.00    -0.049 A  
HETATM    5  C   UNL     1      -8.024   5.411  70.438  1.00  0.00    -0.100 C  
HETATM    6  C   UNL     1      -7.983   5.624  68.910  1.00  0.00    -0.097 C  
HETATM    7  C   UNL     1      -7.435   1.967  67.829  1.00  0.00    -0.055 A  
HETATM    8  O   UNL     1      -6.962   5.464  71.070  1.00  0.00    -0.055 OA 
HETATM    9  C   UNL     1      -7.861   2.005  66.504  1.00  0.00    -0.075 A  
HETATM   10  C   UNL     1      -7.974   4.328  68.100  1.00  0.00    -0.078 A  
HETATM   11  C   UNL     1      -6.758   6.501  68.556  1.00  0.00    -0.068 C  
HETATM   12  H   UNL     1      -4.753   6.418  68.623  1.00  0.00     0.000 HD 
HETATM   13  O   UNL     1      -5.505   5.880  68.840  1.00  0.00    -0.006 OA 
HETATM   14  C   UNL     1      -8.391   4.352  66.757  1.00  0.00    -0.105 A  
HETATM   15  C   UNL     1      -8.334   3.200  65.966  1.00  0.00    -0.101 A  
BRANCH   3  16
HETATM   16  C   UNL     1     -10.484   5.672  70.491  1.00  0.00    -0.277 C  
BRANCH  16  17
HETATM   17  C   UNL     1     -10.892   7.048  70.962  1.00  0.00    -0.264 A  
HETATM   18  C   UNL     1     -11.903   7.216  71.917  1.00  0.00    -0.336 A  
HETATM   19  C   UNL     1     -10.718   9.436  70.873  1.00  0.00    -0.323 A  
HETATM   20  C   UNL     1     -12.270   8.501  72.287  1.00  0.00    -0.389 A  
HETATM   21  C   UNL     1     -10.289   8.192  70.435  1.00  0.00    -0.208 A  
HETATM   22  N   UNL     1     -11.699   9.614  71.785  1.00  0.00    -0.362 NA 
ENDBRANCH  16  17
ENDBRANCH   3  16
ENDBRANCH   2   3
TORSDOF 3
ENDMDL
MODEL      206
REMARK 921   NORMALIZED FREE ENERGY PREDICTED BY IDOCK:   -2.49 KCAL/MOL
REMARK 922        TOTAL FREE ENERGY PREDICTED BY IDOCK:   -3.94 KCAL/MOL
REMARK 923 INTER-LIGAND FREE ENERGY PREDICTED BY IDOCK:   -3.55 KCAL/MOL
REMARK 924 INTRA-LIGAND FREE ENERGY PREDICTED BY IDOCK:   -0.39 KCAL/MOL
REMARK 927      BINDING AFFINITY PREDICTED BY RF-SCORE:    0.00 PKD
ROOT
HETATM    1  C   UNL     1     -10.872  10.647  67.077  1.00  0.00    -0.298 C  
HETATM    2  C   UNL     1     -10.889   9.746  68.308  1.00  0.00    -0.210 C  
ENDROOT
BRANCH   2   3
HETATM    3  N   UNL     1      -9.897   8.654  68.386  1.00  0.00    -0.167 N  
HETATM    4  C   UNL     1      -7.809   7.703  65.606  1.00  0.00    -0.109 A  
HETATM    5  C   UNL     1     -10.053   7.532  67.554  1.00  0.00    -0.200 C  
HETATM    6  C   UNL     1      -8.956   6.447  67.534  1.00  0.00    -0.116 C  
HETATM    7  C   UNL     1      -6.689   7.961  64.811  1.00  0.00    -0.051 A  
HETATM    8  O   UNL     1     -11.018   7.410  66.791  1.00  0.00    -0.249 OA 
HETATM    9  C   UNL     1      -5.481   7.321  65.073  1.00  0.00    -0.032 A  
HETATM   10  C   UNL     1      -7.738   6.806  66.685  1.00  0.00    -0.105 A  
HETATM   11  C   UNL     1      -9.578   5.110  67.063  1.00  0.00    -0.147 C  
HETATM   12  H   UNL     1     -10.427   4.316  65.427  1.00  0.00     0.000 HD 
HETATM   13  O   UNL     1     -10.045   5.136  65.716  1.00  0.00    -0.141 OA 
HETATM   14  C   UNL     1      -6.512   6.161  66.928  1.00  0.00    -0.050 A  
HETATM   15  C   UNL     1      -5.394   6.416  66.128  1.00  0.00    -0.013 A  
BRANCH   3  16
HETATM   16  C   UNL     1      -9.189   8.483  69.669  1.00  0.00    -0.157 C  
BRANCH  16  17
HETATM   17  C   UNL     1      -9.972   7.896  70.819  1.00  0.00    -0.192 A  
HETATM   18  C   UNL     1     -10.261   8.654  71.960  1.00  0.00    -0.407 A  
HETATM   19  C   UNL     1     -11.094   6.062  71.876  1.00  0.00    -0.277 A  
HETATM   20  C   UNL     1     -10.948   8.057  73.007  1.00  0.00    -0.241 A  
HETATM   21  C   UNL     1     -10.407   6.569  70.784  1.00  0.00    -0.241 A  
HETATM   22  N   UNL     1     -11.370   6.777  72.989  1.00  0.00    -0.150 NA 
ENDBRANCH  16  17
ENDBRANCH   3  16
ENDBRANCH   2   3
TORSDOF 3
ENDMDL
MODEL      207
REMARK 921   NORMALIZED FREE ENERGY PREDICTED BY IDOCK:   -2.44 KCAL/MOL
REMARK 922        TOTAL FREE ENERGY PREDICTED BY IDOCK:   -3.89 KCAL/MOL
REMARK 923 INTER-LIGAND FREE ENERGY PREDICTED BY IDOCK:   -2.80 KCAL/MOL
REMARK 924 INTRA-LIGAND FREE ENERGY PREDICTED BY IDOCK:   -1.09 KCAL/MOL
REMARK 927      BINDING AFFINITY PREDICTED BY RF-SCORE:    0.00 PKD
ROOT
HETATM    1  C   UNL     1      -7.647   3.372  64.462  1.00  0.00    -0.076 C  
HETATM    2  C   UNL     1      -8.664   3.720  65.546  1.00  0.00    -0.118 C  
ENDROOT
BRANCH   2   3
HETATM    3  N   UNL     1      -8.183   4.428  66.749  1.00  0.00    -0.102 N  
HETATM    4  C   UNL     1     -10.359   6.328  68.905  1.00  0.00    -0.246 A  
HETATM    5  C   UNL     1      -8.306   5.827  66.810  1.00  0.00    -0.109 C  
HETATM    6  C   UNL     1      -7.925   6.564  68.112  1.00  0.00    -0.110 C  
HETATM    7  C   UNL     1     -11.320   6.340  69.920  1.00  0.00    -0.504 A  
HETATM    8  O   UNL     1      -8.763   6.488  65.870  1.00  0.00    -0.149 OA 
HETATM    9  C   UNL     1     -10.939   6.538  71.244  1.00  0.00    -0.309 A  
HETATM   10  C   UNL     1      -8.997   6.504  69.199  1.00  0.00    -0.130 A  
HETATM   11  C   UNL     1      -7.568   8.031  67.775  1.00  0.00    -0.102 C  
HETATM   12  H   UNL     1      -8.447   9.690  67.065  1.00  0.00     0.000 HD 
HETATM   13  O   UNL     1      -8.666   8.789  67.272  1.00  0.00    -0.127 OA 
HETATM   14  C   UNL     1      -8.632   6.713  70.541  1.00  0.00    -0.143 A  
HETATM   15  C   UNL     1      -9.595   6.731  71.555  1.00  0.00    -0.165 A  
BRANCH   3  16
HETATM   16  C   UNL     1      -7.100   3.784  67.517  1.00  0.00    -0.059 C  
BRANCH  16  17
HETATM   17  C   UNL     1      -7.409   3.376  68.938  1.00  0.00    -0.049 A  
HETATM   18  C   UNL     1      -6.471   3.556  69.963  1.00  0.00    -0.032 A  
HETATM   19  C   UNL     1      -8.858   2.394  70.574  1.00  0.00    -0.078 A  
HETATM   20  C   UNL     1      -6.785   3.127  71.243  1.00  0.00    -0.031 A  
HETATM   21  C   UNL     1      -8.630   2.782  69.263  1.00  0.00    -0.114 A  
HETATM   22  N   UNL     1      -7.958   2.549  71.571  1.00  0.00    -0.050 NA 
ENDBRANCH  16  17
ENDBRANCH   3  16
ENDBRANCH   2   3
TORSDOF 3
ENDMDL
MODEL      208
REMARK 921   NORMALIZED FREE ENERGY PREDICTED BY IDOCK:   -2.44 KCAL/MOL
REMARK 922        TOTAL FREE ENERGY PREDICTED BY IDOCK:   -3.88 KCAL/MOL
REMARK 923 INTER-LIGAND FREE ENERGY PREDICTED BY IDOCK:   -3.52 KCAL/MOL
REMARK 924 INTRA-LIGAND FREE ENERGY PREDICTED BY IDOCK:   -0.36 KCAL/MOL
REMARK 927      BINDING AFFINITY PREDICTED BY RF-SCORE:    0.00 PKD
ROOT
HETATM    1  C   UNL     1      -8.314   8.734  71.538  1.00  0.00    -0.212 C  
HETATM    2  C   UNL     1      -7.515   7.801  70.633  1.00  0.00    -0.070 C  
ENDROOT
BRANCH   2   3
HETATM    3  N   UNL     1      -8.162   7.299  69.404  1.00  0.00    -0.130 N  
HETATM    4  C   UNL     1      -6.646   7.557  66.144  1.00  0.00    -0.046 A  
HETATM    5  C   UNL     1      -8.490   8.211  68.387  1.00  0.00    -0.126 C  
HETATM    6  C   UNL     1      -9.049   7.683  67.048  1.00  0.00    -0.157 C  
HETATM    7  C   UNL     1      -5.711   7.079  65.222  1.00  0.00    -0.032 A  
HETATM    8  O   UNL     1      -8.294   9.426  68.505  1.00  0.00    -0.116 OA 
HETATM    9  C   UNL     1      -6.098   6.179  64.233  1.00  0.00    -0.026 A  
HETATM   10  C   UNL     1      -7.984   7.133  66.101  1.00  0.00    -0.112 A  
HETATM   11  C   UNL     1      -9.865   8.806  66.365  1.00  0.00    -0.282 C  
HETATM   12  H   UNL     1      -9.581  10.621  65.557  1.00  0.00     0.000 HD 
HETATM   13  O   UNL     1      -9.081   9.932  65.976  1.00  0.00    -0.146 OA 
HETATM   14  C   UNL     1      -8.360   6.231  65.089  1.00  0.00    -0.119 A  
HETATM   15  C   UNL     1      -7.424   5.759  64.163  1.00  0.00    -0.072 A  
BRANCH   3  16
HETATM   16  C   UNL     1      -8.962   6.065  69.525  1.00  0.00    -0.131 C  
BRANCH  16  17
HETATM   17  C   UNL     1     -10.169   6.109  70.432  1.00  0.00    -0.256 A  
HETATM   18  C   UNL     1     -11.323   6.814  70.066  1.00  0.00    -0.396 A  
HETATM   19  C   UNL     1     -11.274   5.566  72.487  1.00  0.00    -0.274 A  
HETATM   20  C   UNL     1     -12.390   6.860  70.951  1.00  0.00    -0.313 A  
HETATM   21  C   UNL     1     -10.155   5.471  71.674  1.00  0.00    -0.249 A  
HETATM   22  N   UNL     1     -12.390   6.251  72.153  1.00  0.00    -0.253 NA 
ENDBRANCH  16  17
ENDBRANCH   3  16
ENDBRANCH   2   3
TORSDOF 3
ENDMDL
MODEL      209
REMARK 921   NORMALIZED FREE ENERGY PREDICTED BY IDOCK:   -2.43 KCAL/MOL
REMARK 922        TOTAL FREE ENERGY PREDICTED BY IDOCK:   -3.88 KCAL/MOL
REMARK 923 INTER-LIGAND FREE ENERGY PREDICTED BY IDOCK:   -3.07 KCAL/MOL
REMARK 924 INTRA-LIGAND FREE ENERGY PREDICTED BY IDOCK:   -0.81 KCAL/MOL
REMARK 927      BINDING AFFINITY PREDICTED BY RF-SCORE:    0.00 PKD
ROOT
HETATM    1  C   UNL     1      -5.295   6.003  65.452  1.00  0.00    -0.013 C  
HETATM    2  C   UNL     1      -5.467   6.684  66.807  1.00  0.00    -0.013 C  
ENDROOT
BRANCH   2   3
HETATM    3  N   UNL     1      -6.582   7.639  66.969  1.00  0.00    -0.060 N  
HETATM    4  C   UNL     1      -7.571   9.951  64.387  1.00  0.00    -0.143 A  
HETATM    5  C   UNL     1      -6.310   9.017  66.916  1.00  0.00    -0.059 C  
HETATM    6  C   UNL     1      -7.482  10.021  66.956  1.00  0.00    -0.092 C  
HETATM    7  C   UNL     1      -8.240  10.179  63.182  1.00  0.00    -0.160 A  
HETATM    8  O   UNL     1      -5.162   9.455  66.782  1.00  0.00    -0.037 OA 
HETATM    9  C   UNL     1      -9.546  10.662  63.184  1.00  0.00    -0.382 A  
HETATM   10  C   UNL     1      -8.201  10.194  65.619  1.00  0.00    -0.150 A  
HETATM   11  C   UNL     1      -6.962  11.381  67.479  1.00  0.00    -0.101 C  
HETATM   12  H   UNL     1      -5.698  12.842  66.934  1.00  0.00     0.000 HD 
HETATM   13  O   UNL     1      -6.017  12.007  66.614  1.00  0.00    -0.219 OA 
HETATM   14  C   UNL     1      -9.517  10.692  65.602  1.00  0.00    -0.257 A  
HETATM   15  C   UNL     1     -10.182  10.925  64.395  1.00  0.00    -0.423 A  
BRANCH   3  16
HETATM   16  C   UNL     1      -7.746   7.183  67.752  1.00  0.00    -0.112 C  
BRANCH  16  17
HETATM   17  C   UNL     1      -8.436   5.920  67.292  1.00  0.00    -0.103 A  
HETATM   18  C   UNL     1      -8.541   4.805  68.134  1.00  0.00    -0.106 A  
HETATM   19  C   UNL     1      -9.560   4.633  65.613  1.00  0.00    -0.182 A  
HETATM   20  C   UNL     1      -9.147   3.655  67.651  1.00  0.00    -0.157 A  
HETATM   21  C   UNL     1      -8.964   5.823  66.003  1.00  0.00    -0.157 A  
HETATM   22  N   UNL     1      -9.658   3.545  66.409  1.00  0.00    -0.145 NA 
ENDBRANCH  16  17
ENDBRANCH   3  16
ENDBRANCH   2   3
TORSDOF 3
ENDMDL
MODEL      210
REMARK 921   NORMALIZED FREE ENERGY PREDICTED BY IDOCK:   -2.42 KCAL/MOL
REMARK 922        TOTAL FREE ENERGY PREDICTED BY IDOCK:   -3.87 KCAL/MOL
REMARK 923 INTER-LIGAND FREE ENERGY PREDICTED BY IDOCK:   -3.68 KCAL/MOL
REMARK 924 INTRA-LIGAND FREE ENERGY PREDICTED BY IDOCK:   -0.18 KCAL/MOL
REMARK 927      BINDING AFFINITY PREDICTED BY RF-SCORE:    0.00 PKD
ROOT
HETATM    1  C   UNL     1      -7.592   9.016  70.722  1.00  0.00    -0.131 C  
HETATM    2  C   UNL     1      -7.138   7.559  70.712  1.00  0.00    -0.059 C  
ENDROOT
BRANCH   2   3
HETATM    3  N   UNL     1      -8.103   6.533  70.268  1.00  0.00    -0.119 N  
HETATM    4  C   UNL     1      -7.321   4.062  67.762  1.00  0.00    -0.067 A  
HETATM    5  C   UNL     1      -8.519   6.526  68.926  1.00  0.00    -0.122 C  
HETATM    6  C   UNL     1      -9.426   5.383  68.422  1.00  0.00    -0.153 C  
HETATM    7  C   UNL     1      -6.687   2.864  67.425  1.00  0.00    -0.041 A  
HETATM    8  O   UNL     1      -8.138   7.378  68.115  1.00  0.00    -0.121 OA 
HETATM    9  C   UNL     1      -7.401   1.669  67.421  1.00  0.00    -0.054 A  
HETATM   10  C   UNL     1      -8.681   4.085  68.112  1.00  0.00    -0.120 A  
HETATM   11  C   UNL     1     -10.212   5.873  67.182  1.00  0.00    -0.203 C  
HETATM   12  H   UNL     1      -9.868   6.465  65.295  1.00  0.00     0.000 HD 
HETATM   13  O   UNL     1      -9.387   6.164  66.056  1.00  0.00    -0.145 OA 
HETATM   14  C   UNL     1      -9.389   2.870  68.093  1.00  0.00    -0.258 A  
HETATM   15  C   UNL     1      -8.754   1.673  67.749  1.00  0.00    -0.121 A  
BRANCH   3  16
HETATM   16  C   UNL     1      -9.016   5.986  71.290  1.00  0.00    -0.136 C  
BRANCH  16  17
HETATM   17  C   UNL     1     -10.286   6.757  71.565  1.00  0.00    -0.228 A  
HETATM   18  C   UNL     1     -11.477   6.453  70.892  1.00  0.00    -0.406 A  
HETATM   19  C   UNL     1     -11.478   8.514  72.674  1.00  0.00    -0.197 A  
HETATM   20  C   UNL     1     -12.606   7.217  71.149  1.00  0.00    -0.341 A  
HETATM   21  C   UNL     1     -10.298   7.813  72.478  1.00  0.00    -0.328 A  
HETATM   22  N   UNL     1     -12.632   8.241  72.025  1.00  0.00    -0.336 NA 
ENDBRANCH  16  17
ENDBRANCH   3  16
ENDBRANCH   2   3
TORSDOF 3
ENDMDL
MODEL      211
REMARK 921   NORMALIZED FREE ENERGY PREDICTED BY IDOCK:   -2.42 KCAL/MOL
REMARK 922        TOTAL FREE ENERGY PREDICTED BY IDOCK:   -3.86 KCAL/MOL
REMARK 923 INTER-LIGAND FREE ENERGY PREDICTED BY IDOCK:   -4.89 KCAL/MOL
REMARK 924 INTRA-LIGAND FREE ENERGY PREDICTED BY IDOCK:    1.03 KCAL/MOL
REMARK 927      BINDING AFFINITY PREDICTED BY RF-SCORE:    0.00 PKD
ROOT
HETATM    1  C   UNL     1     -13.275   9.415  72.300  1.00  0.00    -0.528 C  
HETATM    2  C   UNL     1     -12.935   8.455  71.163  1.00  0.00    -0.048 C  
ENDROOT
BRANCH   2   3
HETATM    3  N   UNL     1     -11.511   8.193  70.875  1.00  0.00    -0.274 N  
HETATM    4  C   UNL     1      -9.901   5.061  71.645  1.00  0.00    -0.239 A  
HETATM    5  C   UNL     1     -10.638   7.929  71.945  1.00  0.00    -0.231 C  
HETATM    6  C   UNL     1      -9.177   7.528  71.648  1.00  0.00    -0.152 C  
HETATM    7  C   UNL     1      -9.675   3.722  71.314  1.00  0.00    -0.245 A  
HETATM    8  O   UNL     1     -11.016   7.952  73.122  1.00  0.00    -0.383 OA 
HETATM    9  C   UNL     1      -8.542   3.359  70.591  1.00  0.00    -0.115 A  
HETATM   10  C   UNL     1      -9.001   6.064  71.249  1.00  0.00    -0.139 A  
HETATM   11  C   UNL     1      -8.301   7.871  72.877  1.00  0.00    -0.152 C  
HETATM   12  H   UNL     1      -8.086   7.325  74.796  1.00  0.00     0.000 HD 
HETATM   13  O   UNL     1      -8.623   7.115  74.042  1.00  0.00    -0.145 OA 
HETATM   14  C   UNL     1      -7.856   5.678  70.528  1.00  0.00    -0.099 A  
HETATM   15  C   UNL     1      -7.629   4.337  70.203  1.00  0.00    -0.046 A  
BRANCH   3  16
HETATM   16  C   UNL     1     -10.954   8.791  69.647  1.00  0.00    -0.105 C  
BRANCH  16  17
HETATM   17  C   UNL     1     -11.308  10.231  69.358  1.00  0.00    -0.279 A  
HETATM   18  C   UNL     1     -11.729  11.092  70.380  1.00  0.00    -0.437 A  
HETATM   19  C   UNL     1     -11.616  12.054  67.834  1.00  0.00    -0.337 A  
HETATM   20  C   UNL     1     -12.082  12.394  70.059  1.00  0.00    -0.263 A  
HETATM   21  C   UNL     1     -11.250  10.735  68.057  1.00  0.00    -0.372 A  
HETATM   22  N   UNL     1     -12.035  12.893  68.808  1.00  0.00    -0.298 NA 
ENDBRANCH  16  17
ENDBRANCH   3  16
ENDBRANCH   2   3
TORSDOF 3
ENDMDL
MODEL      212
REMARK 921   NORMALIZED FREE ENERGY PREDICTED BY IDOCK:   -2.40 KCAL/MOL
REMARK 922        TOTAL FREE ENERGY PREDICTED BY IDOCK:   -3.84 KCAL/MOL
REMARK 923 INTER-LIGAND FREE ENERGY PREDICTED BY IDOCK:   -3.50 KCAL/MOL
REMARK 924 INTRA-LIGAND FREE ENERGY PREDICTED BY IDOCK:   -0.35 KCAL/MOL
REMARK 927      BINDING AFFINITY PREDICTED BY RF-SCORE:    0.00 PKD
ROOT
HETATM    1  C   UNL     1      -8.057   8.045  71.935  1.00  0.00    -0.150 C  
HETATM    2  C   UNL     1      -7.313   7.079  71.016  1.00  0.00    -0.077 C  
ENDROOT
BRANCH   2   3
HETATM    3  N   UNL     1      -8.110   6.140  70.201  1.00  0.00    -0.114 N  
HETATM    4  C   UNL     1      -7.786   5.890  66.620  1.00  0.00    -0.101 A  
HETATM    5  C   UNL     1      -8.989   6.655  69.233  1.00  0.00    -0.135 C  
HETATM    6  C   UNL     1      -9.730   5.683  68.290  1.00  0.00    -0.160 C  
HETATM    7  C   UNL     1      -7.069   5.421  65.517  1.00  0.00    -0.067 A  
HETATM    8  O   UNL     1      -9.148   7.871  69.071  1.00  0.00    -0.145 OA 
HETATM    9  C   UNL     1      -7.436   4.231  64.895  1.00  0.00    -0.073 A  
HETATM   10  C   UNL     1      -8.880   5.171  67.129  1.00  0.00    -0.109 A  
HETATM   11  C   UNL     1     -11.015   6.370  67.768  1.00  0.00    -0.332 C  
HETATM   12  H   UNL     1     -11.554   7.928  66.624  1.00  0.00     0.000 HD 
HETATM   13  O   UNL     1     -10.766   7.507  66.945  1.00  0.00    -0.352 OA 
HETATM   14  C   UNL     1      -9.243   3.976  66.482  1.00  0.00    -0.171 A  
HETATM   15  C   UNL     1      -8.528   3.511  65.374  1.00  0.00    -0.107 A  
BRANCH   3  16
HETATM   16  C   UNL     1      -8.419   4.828  70.802  1.00  0.00    -0.101 C  
BRANCH  16  17
HETATM   17  C   UNL     1      -9.274   4.823  72.048  1.00  0.00    -0.167 A  
HETATM   18  C   UNL     1      -8.762   4.382  73.275  1.00  0.00    -0.100 A  
HETATM   19  C   UNL     1     -11.365   5.178  73.162  1.00  0.00    -0.313 A  
HETATM   20  C   UNL     1      -9.598   4.357  74.381  1.00  0.00    -0.122 A  
HETATM   21  C   UNL     1     -10.608   5.231  72.002  1.00  0.00    -0.279 A  
HETATM   22  N   UNL     1     -10.888   4.745  74.351  1.00  0.00    -0.325 NA 
ENDBRANCH  16  17
ENDBRANCH   3  16
ENDBRANCH   2   3
TORSDOF 3
ENDMDL
MODEL      213
REMARK 921   NORMALIZED FREE ENERGY PREDICTED BY IDOCK:   -2.40 KCAL/MOL
REMARK 922        TOTAL FREE ENERGY PREDICTED BY IDOCK:   -3.84 KCAL/MOL
REMARK 923 INTER-LIGAND FREE ENERGY PREDICTED BY IDOCK:   -3.42 KCAL/MOL
REMARK 924 INTRA-LIGAND FREE ENERGY PREDICTED BY IDOCK:   -0.42 KCAL/MOL
REMARK 927      BINDING AFFINITY PREDICTED BY RF-SCORE:    0.00 PKD
ROOT
HETATM    1  C   UNL     1      -8.531   8.478  63.255  1.00  0.00    -0.051 C  
HETATM    2  C   UNL     1      -8.671   9.880  63.842  1.00  0.00    -0.214 C  
ENDROOT
BRANCH   2   3
HETATM    3  N   UNL     1      -8.654  10.024  65.312  1.00  0.00    -0.146 N  
HETATM    4  C   UNL     1      -5.914  11.537  67.099  1.00  0.00    -0.111 A  
HETATM    5  C   UNL     1      -7.656   9.364  66.049  1.00  0.00    -0.099 C  
HETATM    6  C   UNL     1      -7.550   9.610  67.569  1.00  0.00    -0.095 C  
HETATM    7  C   UNL     1      -5.245  12.697  67.500  1.00  0.00    -0.091 A  
HETATM    8  O   UNL     1      -6.818   8.631  65.510  1.00  0.00    -0.072 OA 
HETATM    9  C   UNL     1      -5.492  13.251  68.753  1.00  0.00    -0.074 A  
HETATM   10  C   UNL     1      -6.849  10.915  67.942  1.00  0.00    -0.068 A  
HETATM   11  C   UNL     1      -6.844   8.400  68.227  1.00  0.00    -0.066 C  
HETATM   12  H   UNL     1      -5.054   7.494  68.226  1.00  0.00     0.000 HD 
HETATM   13  O   UNL     1      -5.487   8.236  67.822  1.00  0.00    -0.033 OA 
HETATM   14  C   UNL     1      -7.078  11.484  69.209  1.00  0.00    -0.077 A  
HETATM   15  C   UNL     1      -6.404  12.641  69.610  1.00  0.00    -0.095 A  
BRANCH   3  16
HETATM   16  C   UNL     1      -9.943  10.307  65.972  1.00  0.00    -0.245 C  
BRANCH  16  17
HETATM   17  C   UNL     1     -10.500  11.704  65.831  1.00  0.00    -0.300 A  
HETATM   18  C   UNL     1      -9.827  12.809  66.368  1.00  0.00    -0.269 A  
HETATM   19  C   UNL     1     -12.206  13.221  65.106  1.00  0.00    -0.443 A  
HETATM   20  C   UNL     1     -10.400  14.066  66.248  1.00  0.00    -0.293 A  
HETATM   21  C   UNL     1     -11.717  11.926  65.183  1.00  0.00    -0.244 A  
HETATM   22  N   UNL     1     -11.575  14.296  65.629  1.00  0.00    -0.339 NA 
ENDBRANCH  16  17
ENDBRANCH   3  16
ENDBRANCH   2   3
TORSDOF 3
ENDMDL
MODEL      214
REMARK 921   NORMALIZED FREE ENERGY PREDICTED BY IDOCK:   -2.38 KCAL/MOL
REMARK 922        TOTAL FREE ENERGY PREDICTED BY IDOCK:   -3.82 KCAL/MOL
REMARK 923 INTER-LIGAND FREE ENERGY PREDICTED BY IDOCK:   -4.06 KCAL/MOL
REMARK 924 INTRA-LIGAND FREE ENERGY PREDICTED BY IDOCK:    0.24 KCAL/MOL
REMARK 927      BINDING AFFINITY PREDICTED BY RF-SCORE:    0.00 PKD
ROOT
HETATM    1  C   UNL     1     -12.009  13.060  68.872  1.00  0.00    -0.303 C  
HETATM    2  C   UNL     1     -10.548  13.481  69.018  1.00  0.00    -0.098 C  
ENDROOT
BRANCH   2   3
HETATM    3  N   UNL     1      -9.961  14.331  67.962  1.00  0.00    -0.216 N  
HETATM    4  C   UNL     1     -10.993  17.737  67.388  1.00  0.00    -0.074 A  
HETATM    5  C   UNL     1     -10.789  14.803  66.929  1.00  0.00    -0.316 C  
HETATM    6  C   UNL     1     -10.215  15.794  65.894  1.00  0.00    -0.377 C  
HETATM    7  C   UNL     1     -10.942  19.080  67.770  1.00  0.00    -0.263 A  
HETATM    8  O   UNL     1     -11.983  14.494  66.852  1.00  0.00    -0.403 OA 
HETATM    9  C   UNL     1     -10.050  19.952  67.153  1.00  0.00    -0.573 A  
HETATM   10  C   UNL     1     -10.144  17.239  66.386  1.00  0.00    -0.321 A  
HETATM   11  C   UNL     1     -11.047  15.699  64.592  1.00  0.00    -0.373 C  
HETATM   12  H   UNL     1     -12.911  16.062  63.943  1.00  0.00     0.000 HD 
HETATM   13  O   UNL     1     -12.400  16.120  64.742  1.00  0.00     0.386 OA 
HETATM   14  C   UNL     1      -9.256  18.136  65.766  1.00  0.00     0.387 A  
HETATM   15  C   UNL     1      -9.210  19.481  66.146  1.00  0.00    -0.363 A  
BRANCH   3  16
HETATM   16  C   UNL     1      -8.523  14.155  67.685  1.00  0.00    -0.185 C  
BRANCH  16  17
HETATM   17  C   UNL     1      -7.558  15.025  68.457  1.00  0.00    -0.118 A  
HETATM   18  C   UNL     1      -7.727  16.414  68.518  1.00  0.00    -0.195 A  
HETATM   19  C   UNL     1      -5.579  15.307  69.776  1.00  0.00    -0.111 A  
HETATM   20  C   UNL     1      -6.792  17.173  69.205  1.00  0.00    -0.236 A  
HETATM   21  C   UNL     1      -6.456  14.467  69.108  1.00  0.00    -0.105 A  
HETATM   22  N   UNL     1      -5.721  16.650  69.835  1.00  0.00    -0.203 NA 
ENDBRANCH  16  17
ENDBRANCH   3  16
ENDBRANCH   2   3
TORSDOF 3
ENDMDL
MODEL      215
REMARK 921   NORMALIZED FREE ENERGY PREDICTED BY IDOCK:   -2.29 KCAL/MOL
REMARK 922        TOTAL FREE ENERGY PREDICTED BY IDOCK:   -3.71 KCAL/MOL
REMARK 923 INTER-LIGAND FREE ENERGY PREDICTED BY IDOCK:   -3.40 KCAL/MOL
REMARK 924 INTRA-LIGAND FREE ENERGY PREDICTED BY IDOCK:   -0.31 KCAL/MOL
REMARK 927      BINDING AFFINITY PREDICTED BY RF-SCORE:    0.00 PKD
ROOT
HETATM    1  C   UNL     1     -10.931   4.508  73.781  1.00  0.00    -0.361 C  
HETATM    2  C   UNL     1     -10.538   5.978  73.667  1.00  0.00    -0.264 C  
ENDROOT
BRANCH   2   3
HETATM    3  N   UNL     1      -9.764   6.401  72.482  1.00  0.00    -0.162 N  
HETATM    4  C   UNL     1     -10.938   8.900  70.165  1.00  0.00    -0.245 A  
HETATM    5  C   UNL     1     -10.304   6.183  71.203  1.00  0.00    -0.208 C  
HETATM    6  C   UNL     1      -9.565   6.735  69.965  1.00  0.00    -0.160 C  
HETATM    7  C   UNL     1     -11.139  10.250  69.866  1.00  0.00    -0.362 A  
HETATM    8  O   UNL     1     -11.387   5.610  71.036  1.00  0.00    -0.149 OA 
HETATM    9  C   UNL     1     -10.204  10.949  69.109  1.00  0.00    -0.215 A  
HETATM   10  C   UNL     1      -9.789   8.226  69.718  1.00  0.00    -0.187 A  
HETATM   11  C   UNL     1      -9.972   5.906  68.724  1.00  0.00    -0.152 C  
HETATM   12  H   UNL     1     -11.598   5.524  67.611  1.00  0.00     0.000 HD 
HETATM   13  O   UNL     1     -11.348   6.033  68.373  1.00  0.00    -0.196 OA 
HETATM   14  C   UNL     1      -8.859   8.945  68.945  1.00  0.00    -0.137 A  
HETATM   15  C   UNL     1      -9.066  10.295  68.643  1.00  0.00    -0.152 A  
BRANCH   3  16
HETATM   16  C   UNL     1      -8.296   6.452  72.624  1.00  0.00    -0.122 C  
BRANCH  16  17
HETATM   17  C   UNL     1      -7.588   5.158  72.948  1.00  0.00    -0.097 A  
HETATM   18  C   UNL     1      -7.411   4.167  71.973  1.00  0.00    -0.069 A  
HETATM   19  C   UNL     1      -6.498   3.689  74.495  1.00  0.00    -0.038 A  
HETATM   20  C   UNL     1      -6.791   2.979  72.330  1.00  0.00    -0.026 A  
HETATM   21  C   UNL     1      -7.113   4.904  74.236  1.00  0.00    -0.077 A  
HETATM   22  N   UNL     1      -6.331   2.718  73.569  1.00  0.00    -0.016 NA 
ENDBRANCH  16  17
ENDBRANCH   3  16
ENDBRANCH   2   3
TORSDOF 3
ENDMDL
MODEL      216
REMARK 921   NORMALIZED FREE ENERGY PREDICTED BY IDOCK:   -2.28 KCAL/MOL
REMARK 922        TOTAL FREE ENERGY PREDICTED BY IDOCK:   -3.70 KCAL/MOL
REMARK 923 INTER-LIGAND FREE ENERGY PREDICTED BY IDOCK:   -4.32 KCAL/MOL
REMARK 924 INTRA-LIGAND FREE ENERGY PREDICTED BY IDOCK:    0.62 KCAL/MOL
REMARK 927      BINDING AFFINITY PREDICTED BY RF-SCORE:    0.00 PKD
ROOT
HETATM    1  C   UNL     1      -9.131   7.428  70.266  1.00  0.00    -0.151 C  
HETATM    2  C   UNL     1      -9.211   8.952  70.303  1.00  0.00    -0.185 C  
ENDROOT
BRANCH   2   3
HETATM    3  N   UNL     1      -9.542   9.662  69.051  1.00  0.00    -0.162 N  
HETATM    4  C   UNL     1      -7.703   9.191  65.986  1.00  0.00    -0.095 A  
HETATM    5  C   UNL     1      -8.591  10.533  68.491  1.00  0.00    -0.135 C  
HETATM    6  C   UNL     1      -8.875  11.180  67.118  1.00  0.00    -0.143 C  
HETATM    7  C   UNL     1      -7.443   8.407  64.860  1.00  0.00    -0.091 A  
HETATM    8  O   UNL     1      -7.504  10.756  69.035  1.00  0.00    -0.098 OA 
HETATM    9  C   UNL     1      -8.078   8.681  63.652  1.00  0.00    -0.163 A  
HETATM   10  C   UNL     1      -8.613  10.259  65.928  1.00  0.00    -0.160 A  
HETATM   11  C   UNL     1      -8.048  12.483  66.996  1.00  0.00    -0.105 C  
HETATM   12  H   UNL     1      -6.131  13.069  66.903  1.00  0.00     0.000 HD 
HETATM   13  O   UNL     1      -6.638  12.270  66.978  1.00  0.00    -0.136 OA 
HETATM   14  C   UNL     1      -9.238  10.528  64.697  1.00  0.00    -0.274 A  
HETATM   15  C   UNL     1      -8.972   9.746  63.568  1.00  0.00    -0.272 A  
BRANCH   3  16
HETATM   16  C   UNL     1     -10.970   9.916  68.783  1.00  0.00    -0.179 C  
BRANCH  16  17
HETATM   17  C   UNL     1     -11.398  11.357  68.626  1.00  0.00    -0.327 A  
HETATM   18  C   UNL     1     -11.667  12.157  69.743  1.00  0.00    -0.381 A  
HETATM   19  C   UNL     1     -11.991  13.235  67.262  1.00  0.00    -0.343 A  
HETATM   20  C   UNL     1     -12.097  13.461  69.547  1.00  0.00    -0.278 A  
HETATM   21  C   UNL     1     -11.564  11.919  67.359  1.00  0.00    -0.367 A  
HETATM   22  N   UNL     1     -12.265  14.017  68.330  1.00  0.00    -0.274 NA 
ENDBRANCH  16  17
ENDBRANCH   3  16
ENDBRANCH   2   3
TORSDOF 3
ENDMDL
MODEL      217
REMARK 921   NORMALIZED FREE ENERGY PREDICTED BY IDOCK:   -2.26 KCAL/MOL
REMARK 922        TOTAL FREE ENERGY PREDICTED BY IDOCK:   -3.67 KCAL/MOL
REMARK 923 INTER-LIGAND FREE ENERGY PREDICTED BY IDOCK:   -3.15 KCAL/MOL
REMARK 924 INTRA-LIGAND FREE ENERGY PREDICTED BY IDOCK:   -0.53 KCAL/MOL
REMARK 927      BINDING AFFINITY PREDICTED BY RF-SCORE:    0.00 PKD
ROOT
HETATM    1  C   UNL     1      -5.286  11.813  66.454  1.00  0.00     0.094 C  
HETATM    2  C   UNL     1      -5.977  11.294  67.713  1.00  0.00    -0.048 C  
ENDROOT
BRANCH   2   3
HETATM    3  N   UNL     1      -6.846  12.223  68.463  1.00  0.00    -0.074 N  
HETATM    4  C   UNL     1      -8.237  15.213  67.007  1.00  0.00    -0.262 A  
HETATM    5  C   UNL     1      -6.414  13.545  68.667  1.00  0.00    -0.094 C  
HETATM    6  C   UNL     1      -7.368  14.558  69.336  1.00  0.00    -0.098 C  
HETATM    7  C   UNL     1      -9.200  15.803  66.184  1.00  0.00    -0.385 A  
HETATM    8  O   UNL     1      -5.311  13.943  68.276  1.00  0.00    -0.095 OA 
HETATM    9  C   UNL     1     -10.363  16.334  66.734  1.00  0.00    -0.296 A  
HETATM   10  C   UNL     1      -8.425  15.134  68.396  1.00  0.00    -0.157 A  
HETATM   11  C   UNL     1      -6.530  15.689  69.979  1.00  0.00    -0.088 C  
HETATM   12  H   UNL     1      -5.299  17.175  69.429  1.00  0.00     0.000 HD 
HETATM   13  O   UNL     1      -5.813  16.481  69.035  1.00  0.00    -0.136 OA 
HETATM   14  C   UNL     1      -9.602  15.685  68.936  1.00  0.00    -0.224 A  
HETATM   15  C   UNL     1     -10.562  16.280  68.112  1.00  0.00    -0.307 A  
BRANCH   3  16
HETATM   16  C   UNL     1      -7.772  11.628  69.446  1.00  0.00     0.290 C  
BRANCH  16  17
HETATM   17  C   UNL     1      -9.174  11.319  68.976  1.00  0.00     0.005 A  
HETATM   18  C   UNL     1      -9.610  11.701  67.701  1.00  0.00    -0.184 A  
HETATM   19  C   UNL     1     -11.368  10.434  69.352  1.00  0.00    -0.250 A  
HETATM   20  C   UNL     1     -10.919  11.431  67.331  1.00  0.00    -0.273 A  
HETATM   21  C   UNL     1     -10.082  10.667  69.813  1.00  0.00    -0.052 A  
HETATM   22  N   UNL     1     -11.808  10.806  68.129  1.00  0.00    -0.514 NA 
ENDBRANCH  16  17
ENDBRANCH   3  16
ENDBRANCH   2   3
TORSDOF 3
ENDMDL
MODEL      218
REMARK 921   NORMALIZED FREE ENERGY PREDICTED BY IDOCK:   -2.24 KCAL/MOL
REMARK 922        TOTAL FREE ENERGY PREDICTED BY IDOCK:   -3.66 KCAL/MOL
REMARK 923 INTER-LIGAND FREE ENERGY PREDICTED BY IDOCK:   -2.53 KCAL/MOL
REMARK 924 INTRA-LIGAND FREE ENERGY PREDICTED BY IDOCK:   -1.13 KCAL/MOL
REMARK 927      BINDING AFFINITY PREDICTED BY RF-SCORE:    0.00 PKD
ROOT
HETATM    1  C   UNL     1      -7.462   7.324  65.406  1.00  0.00    -0.087 C  
HETATM    2  C   UNL     1      -6.304   7.147  66.385  1.00  0.00    -0.047 C  
ENDROOT
BRANCH   2   3
HETATM    3  N   UNL     1      -6.626   6.918  67.808  1.00  0.00    -0.053 N  
HETATM    4  C   UNL     1      -9.516   8.348  69.419  1.00  0.00    -0.158 A  
HETATM    5  C   UNL     1      -6.651   8.016  68.685  1.00  0.00    -0.057 C  
HETATM    6  C   UNL     1      -7.109   7.807  70.144  1.00  0.00    -0.054 C  
HETATM    7  C   UNL     1     -10.895   8.317  69.642  1.00  0.00    -0.154 A  
HETATM    8  O   UNL     1      -6.369   9.160  68.312  1.00  0.00    -0.053 OA 
HETATM    9  C   UNL     1     -11.409   7.686  70.771  1.00  0.00    -0.296 A  
HETATM   10  C   UNL     1      -8.626   7.738  70.318  1.00  0.00    -0.138 A  
HETATM   11  C   UNL     1      -6.507   8.927  71.026  1.00  0.00    -0.062 C  
HETATM   12  H   UNL     1      -6.620  10.919  71.249  1.00  0.00     0.000 HD 
HETATM   13  O   UNL     1      -6.989  10.231  70.709  1.00  0.00    -0.332 OA 
HETATM   14  C   UNL     1      -9.162   7.114  71.459  1.00  0.00    -0.148 A  
HETATM   15  C   UNL     1     -10.542   7.090  71.683  1.00  0.00    -0.226 A  
BRANCH   3  16
HETATM   16  C   UNL     1      -6.312   5.586  68.359  1.00  0.00    -0.038 C  
BRANCH  16  17
HETATM   17  C   UNL     1      -7.313   4.482  68.111  1.00  0.00    -0.065 A  
HETATM   18  C   UNL     1      -8.660   4.634  68.464  1.00  0.00    -0.106 A  
HETATM   19  C   UNL     1      -7.861   2.271  67.368  1.00  0.00    -0.065 A  
HETATM   20  C   UNL     1      -9.532   3.576  68.254  1.00  0.00    -0.148 A  
HETATM   21  C   UNL     1      -6.914   3.268  67.547  1.00  0.00    -0.050 A  
HETATM   22  N   UNL     1      -9.161   2.398  67.714  1.00  0.00    -0.188 NA 
ENDBRANCH  16  17
ENDBRANCH   3  16
ENDBRANCH   2   3
TORSDOF 3
ENDMDL
MODEL      219
REMARK 921   NORMALIZED FREE ENERGY PREDICTED BY IDOCK:   -1.90 KCAL/MOL
REMARK 922        TOTAL FREE ENERGY PREDICTED BY IDOCK:   -3.25 KCAL/MOL
REMARK 923 INTER-LIGAND FREE ENERGY PREDICTED BY IDOCK:   -3.04 KCAL/MOL
REMARK 924 INTRA-LIGAND FREE ENERGY PREDICTED BY IDOCK:   -0.21 KCAL/MOL
REMARK 927      BINDING AFFINITY PREDICTED BY RF-SCORE:    0.00 PKD
ROOT
HETATM    1  C   UNL     1     -12.043  10.777  69.520  1.00  0.00    -0.344 C  
HETATM    2  C   UNL     1     -11.155  10.008  70.494  1.00  0.00    -0.331 C  
ENDROOT
BRANCH   2   3
HETATM    3  N   UNL     1     -10.024   9.235  69.942  1.00  0.00    -0.193 N  
HETATM    4  C   UNL     1      -9.693   5.671  70.365  1.00  0.00    -0.233 A  
HETATM    5  C   UNL     1      -9.163   8.563  70.827  1.00  0.00    -0.172 C  
HETATM    6  C   UNL     1      -8.056   7.650  70.257  1.00  0.00    -0.114 C  
HETATM    7  C   UNL     1     -10.080   4.383  69.985  1.00  0.00    -0.136 A  
HETATM    8  O   UNL     1      -9.297   8.634  72.054  1.00  0.00    -0.257 OA 
HETATM    9  C   UNL     1      -9.325   3.669  69.059  1.00  0.00    -0.239 A  
HETATM   10  C   UNL     1      -8.549   6.272  69.818  1.00  0.00    -0.137 A  
HETATM   11  C   UNL     1      -6.923   7.520  71.303  1.00  0.00    -0.050 C  
HETATM   12  H   UNL     1      -6.625   6.775  73.143  1.00  0.00     0.000 HD 
HETATM   13  O   UNL     1      -7.320   6.855  72.500  1.00  0.00    -0.084 OA 
HETATM   14  C   UNL     1      -7.792   5.532  68.891  1.00  0.00    -0.095 A  
HETATM   15  C   UNL     1      -8.177   4.241  68.516  1.00  0.00    -0.087 A  
BRANCH   3  16
HETATM   16  C   UNL     1      -9.490   9.670  68.637  1.00  0.00    -0.146 C  
BRANCH  16  17
HETATM   17  C   UNL     1      -8.659  10.932  68.615  1.00  0.00    -0.153 A  
HETATM   18  C   UNL     1      -7.260  10.876  68.578  1.00  0.00    -0.090 A  
HETATM   19  C   UNL     1      -8.463  13.319  68.672  1.00  0.00     0.017 A  
HETATM   20  C   UNL     1      -6.541  12.062  68.601  1.00  0.00    -0.075 A  
HETATM   21  C   UNL     1      -9.266  12.188  68.661  1.00  0.00    -0.021 A  
HETATM   22  N   UNL     1      -7.112  13.282  68.648  1.00  0.00    -0.100 NA 
ENDBRANCH  16  17
ENDBRANCH   3  16
ENDBRANCH   2   3
TORSDOF 3
ENDMDL
MODEL      220
REMARK 921   NORMALIZED FREE ENERGY PREDICTED BY IDOCK:   -1.87 KCAL/MOL
REMARK 922        TOTAL FREE ENERGY PREDICTED BY IDOCK:   -3.21 KCAL/MOL
REMARK 923 INTER-LIGAND FREE ENERGY PREDICTED BY IDOCK:   -3.13 KCAL/MOL
REMARK 924 INTRA-LIGAND FREE ENERGY PREDICTED BY IDOCK:   -0.09 KCAL/MOL
REMARK 927      BINDING AFFINITY PREDICTED BY RF-SCORE:    0.00 PKD
ROOT
HETATM    1  C   UNL     1      -9.563   3.673  65.357  1.00  0.00    -0.156 C  
HETATM    2  C   UNL     1     -10.411   4.875  65.765  1.00  0.00    -0.186 C  
ENDROOT
BRANCH   2   3
HETATM    3  N   UNL     1     -10.022   5.621  66.979  1.00  0.00    -0.152 N  
HETATM    4  C   UNL     1     -10.496   9.177  67.330  1.00  0.00    -0.339 A  
HETATM    5  C   UNL     1      -9.040   6.621  66.878  1.00  0.00    -0.136 C  
HETATM    6  C   UNL     1      -8.718   7.492  68.111  1.00  0.00    -0.122 C  
HETATM    7  C   UNL     1     -11.359  10.247  67.582  1.00  0.00    -0.088 A  
HETATM    8  O   UNL     1      -8.460   6.866  65.814  1.00  0.00    -0.141 OA 
HETATM    9  C   UNL     1     -11.457  10.783  68.863  1.00  0.00    -0.362 A  
HETATM   10  C   UNL     1      -9.721   8.617  68.359  1.00  0.00    -0.176 A  
HETATM   11  C   UNL     1      -7.284   8.057  67.967  1.00  0.00    -0.094 C  
HETATM   12  H   UNL     1      -6.249   9.306  66.785  1.00  0.00     0.000 HD 
HETATM   13  O   UNL     1      -7.128   8.959  66.873  1.00  0.00    -0.079 OA 
HETATM   14  C   UNL     1      -9.825   9.178  69.645  1.00  0.00    -0.188 A  
HETATM   15  C   UNL     1     -10.685  10.252  69.894  1.00  0.00    -0.344 A  
BRANCH   3  16
HETATM   16  C   UNL     1     -10.190   4.930  68.271  1.00  0.00    -0.032 C  
BRANCH  16  17
HETATM   17  C   UNL     1      -9.119   3.942  68.671  1.00  0.00    -0.193 A  
HETATM   18  C   UNL     1      -9.450   2.708  69.245  1.00  0.00    -0.140 A  
HETATM   19  C   UNL     1      -6.817   3.324  68.916  1.00  0.00    -0.045 A  
HETATM   20  C   UNL     1      -8.430   1.853  69.634  1.00  0.00    -0.048 A  
HETATM   21  C   UNL     1      -7.766   4.247  68.504  1.00  0.00    -0.070 A  
HETATM   22  N   UNL     1      -7.121   2.135  69.482  1.00  0.00    -0.036 NA 
ENDBRANCH  16  17
ENDBRANCH   3  16
ENDBRANCH   2   3
TORSDOF 3
ENDMDL
MODEL      221
REMARK 921   NORMALIZED FREE ENERGY PREDICTED BY IDOCK:   -1.72 KCAL/MOL
REMARK 922        TOTAL FREE ENERGY PREDICTED BY IDOCK:   -3.04 KCAL/MOL
REMARK 923 INTER-LIGAND FREE ENERGY PREDICTED BY IDOCK:   -3.44 KCAL/MOL
REMARK 924 INTRA-LIGAND FREE ENERGY PREDICTED BY IDOCK:    0.39 KCAL/MOL
REMARK 927      BINDING AFFINITY PREDICTED BY RF-SCORE:    0.00 PKD
ROOT
HETATM    1  C   UNL     1     -10.870  12.139  65.555  1.00  0.00    -0.324 C  
HETATM    2  C   UNL     1     -11.063  11.428  66.893  1.00  0.00    -0.295 C  
ENDROOT
BRANCH   2   3
HETATM    3  N   UNL     1      -9.881  11.244  67.760  1.00  0.00    -0.171 N  
HETATM    4  C   UNL     1      -7.388  13.802  68.243  1.00  0.00    -0.118 A  
HETATM    5  C   UNL     1      -8.600  11.298  67.185  1.00  0.00    -0.147 C  
HETATM    6  C   UNL     1      -7.358  11.236  68.099  1.00  0.00    -0.088 C  
HETATM    7  C   UNL     1      -7.007  14.996  68.862  1.00  0.00    -0.114 A  
HETATM    8  O   UNL     1      -8.432  11.452  65.969  1.00  0.00    -0.151 OA 
HETATM    9  C   UNL     1      -6.242  14.969  70.025  1.00  0.00    -0.157 A  
HETATM   10  C   UNL     1      -7.018  12.559  68.782  1.00  0.00    -0.094 A  
HETATM   11  C   UNL     1      -6.153  10.718  67.276  1.00  0.00    -0.056 C  
HETATM   12  H   UNL     1      -5.013  11.281  65.724  1.00  0.00     0.000 HD 
HETATM   13  O   UNL     1      -5.752  11.598  66.228  1.00  0.00    -0.225 OA 
HETATM   14  C   UNL     1      -6.236  12.552  69.951  1.00  0.00    -0.094 A  
HETATM   15  C   UNL     1      -5.851  13.747  70.566  1.00  0.00    -0.169 A  
BRANCH   3  16
HETATM   16  C   UNL     1     -10.068  10.443  68.984  1.00  0.00    -0.213 C  
BRANCH  16  17
HETATM   17  C   UNL     1      -9.837   8.953  68.877  1.00  0.00    -0.182 A  
HETATM   18  C   UNL     1     -10.425   8.202  67.851  1.00  0.00    -0.259 A  
HETATM   19  C   UNL     1      -8.896   6.909  69.698  1.00  0.00    -0.141 A  
HETATM   20  C   UNL     1     -10.217   6.832  67.819  1.00  0.00    -0.171 A  
HETATM   21  C   UNL     1      -9.053   8.282  69.817  1.00  0.00    -0.147 A  
HETATM   22  N   UNL     1      -9.465   6.169  68.721  1.00  0.00    -0.122 NA 
ENDBRANCH  16  17
ENDBRANCH   3  16
ENDBRANCH   2   3
TORSDOF 3
ENDMDL
MODEL      222
REMARK 921   NORMALIZED FREE ENERGY PREDICTED BY IDOCK:   -1.67 KCAL/MOL
REMARK 922        TOTAL FREE ENERGY PREDICTED BY IDOCK:   -2.98 KCAL/MOL
REMARK 923 INTER-LIGAND FREE ENERGY PREDICTED BY IDOCK:   -2.55 KCAL/MOL
REMARK 924 INTRA-LIGAND FREE ENERGY PREDICTED BY IDOCK:   -0.44 KCAL/MOL
REMARK 927      BINDING AFFINITY PREDICTED BY RF-SCORE:    0.00 PKD
ROOT
HETATM    1  C   UNL     1      -8.501   3.903  67.604  1.00  0.00    -0.102 C  
HETATM    2  C   UNL     1      -9.651   4.008  68.602  1.00  0.00    -0.120 C  
ENDROOT
BRANCH   2   3
HETATM    3  N   UNL     1      -9.324   4.293  70.013  1.00  0.00    -0.145 N  
HETATM    4  C   UNL     1      -6.101   5.517  71.069  1.00  0.00    -0.029 A  
HETATM    5  C   UNL     1      -8.301   3.558  70.637  1.00  0.00    -0.067 C  
HETATM    6  C   UNL     1      -7.864   3.935  72.069  1.00  0.00    -0.075 C  
HETATM    7  C   UNL     1      -5.213   6.588  71.190  1.00  0.00    -0.019 A  
HETATM    8  O   UNL     1      -7.696   2.651  70.054  1.00  0.00    -0.043 OA 
HETATM    9  C   UNL     1      -5.127   7.297  72.385  1.00  0.00    -0.036 A  
HETATM   10  C   UNL     1      -6.929   5.141  72.139  1.00  0.00    -0.081 A  
HETATM   11  C   UNL     1      -7.217   2.699  72.738  1.00  0.00    -0.039 C  
HETATM   12  H   UNL     1      -5.605   1.521  72.530  1.00  0.00     0.000 HD 
HETATM   13  O   UNL     1      -6.002   2.279  72.120  1.00  0.00    -0.008 OA 
HETATM   14  C   UNL     1      -6.822   5.862  73.342  1.00  0.00    -0.080 A  
HETATM   15  C   UNL     1      -5.928   6.930  73.464  1.00  0.00    -0.058 A  
BRANCH   3  16
HETATM   16  C   UNL     1     -10.405   4.844  70.853  1.00  0.00    -0.155 C  
BRANCH  16  17
HETATM   17  C   UNL     1     -10.494   6.347  70.968  1.00  0.00    -0.268 A  
HETATM   18  C   UNL     1      -9.837   7.035  71.996  1.00  0.00    -0.171 A  
HETATM   19  C   UNL     1     -11.338   8.464  70.228  1.00  0.00    -0.129 A  
HETATM   20  C   UNL     1      -9.983   8.411  72.083  1.00  0.00    -0.306 A  
HETATM   21  C   UNL     1     -11.258   7.089  70.064  1.00  0.00    -0.310 A  
HETATM   22  N   UNL     1     -10.720   9.140  71.221  1.00  0.00    -0.302 NA 
ENDBRANCH  16  17
ENDBRANCH   3  16
ENDBRANCH   2   3
TORSDOF 3
ENDMDL
MODEL      223
REMARK 921   NORMALIZED FREE ENERGY PREDICTED BY IDOCK:   -1.63 KCAL/MOL
REMARK 922        TOTAL FREE ENERGY PREDICTED BY IDOCK:   -2.93 KCAL/MOL
REMARK 923 INTER-LIGAND FREE ENERGY PREDICTED BY IDOCK:   -3.02 KCAL/MOL
REMARK 924 INTRA-LIGAND FREE ENERGY PREDICTED BY IDOCK:    0.08 KCAL/MOL
REMARK 927      BINDING AFFINITY PREDICTED BY RF-SCORE:    0.00 PKD
ROOT
HETATM    1  C   UNL     1      -5.317   7.753  64.120  1.00  0.00    -0.033 C  
HETATM    2  C   UNL     1      -6.497   8.681  64.397  1.00  0.00    -0.067 C  
ENDROOT
BRANCH   2   3
HETATM    3  N   UNL     1      -7.732   8.090  64.952  1.00  0.00    -0.110 N  
HETATM    4  C   UNL     1      -7.880   6.567  68.215  1.00  0.00    -0.106 A  
HETATM    5  C   UNL     1      -7.756   6.716  65.245  1.00  0.00    -0.099 C  
HETATM    6  C   UNL     1      -8.994   6.114  65.943  1.00  0.00    -0.133 C  
HETATM    7  C   UNL     1      -7.952   6.721  69.602  1.00  0.00    -0.124 A  
HETATM    8  O   UNL     1      -6.792   5.978  65.013  1.00  0.00    -0.048 OA 
HETATM    9  C   UNL     1      -9.181   6.655  70.252  1.00  0.00    -0.156 A  
HETATM   10  C   UNL     1      -9.039   6.354  67.452  1.00  0.00    -0.111 A  
HETATM   11  C   UNL     1      -9.065   4.600  65.626  1.00  0.00    -0.142 C  
HETATM   12  H   UNL     1      -8.023   2.920  65.972  1.00  0.00     0.000 HD 
HETATM   13  O   UNL     1      -7.980   3.849  66.166  1.00  0.00    -0.093 OA 
HETATM   14  C   UNL     1     -10.271   6.280  68.126  1.00  0.00    -0.200 A  
HETATM   15  C   UNL     1     -10.341   6.429  69.515  1.00  0.00    -0.252 A  
BRANCH   3  16
HETATM   16  C   UNL     1      -9.003   8.759  64.617  1.00  0.00     0.084 C  
BRANCH  16  17
HETATM   17  C   UNL     1      -9.400   9.950  65.458  1.00  0.00    -0.280 A  
HETATM   18  C   UNL     1      -9.241   9.938  66.850  1.00  0.00    -0.171 A  
HETATM   19  C   UNL     1     -10.342  12.141  65.685  1.00  0.00    -0.257 A  
HETATM   20  C   UNL     1      -9.658  11.039  67.582  1.00  0.00    -0.168 A  
HETATM   21  C   UNL     1      -9.962  11.085  64.871  1.00  0.00    -0.343 A  
HETATM   22  N   UNL     1     -10.206  12.140  67.030  1.00  0.00    -0.207 NA 
ENDBRANCH  16  17
ENDBRANCH   3  16
ENDBRANCH   2   3
TORSDOF 3
ENDMDL
MODEL      224
REMARK 921   NORMALIZED FREE ENERGY PREDICTED BY IDOCK:   -1.61 KCAL/MOL
REMARK 922        TOTAL FREE ENERGY PREDICTED BY IDOCK:   -2.91 KCAL/MOL
REMARK 923 INTER-LIGAND FREE ENERGY PREDICTED BY IDOCK:   -4.03 KCAL/MOL
REMARK 924 INTRA-LIGAND FREE ENERGY PREDICTED BY IDOCK:    1.12 KCAL/MOL
REMARK 927      BINDING AFFINITY PREDICTED BY RF-SCORE:    0.00 PKD
ROOT
HETATM    1  C   UNL     1     -10.588  13.310  64.398  1.00  0.00    -0.438 C  
HETATM    2  C   UNL     1     -10.936  13.739  65.821  1.00  0.00    -0.280 C  
ENDROOT
BRANCH   2   3
HETATM    3  N   UNL     1     -10.179  14.861  66.414  1.00  0.00    -0.274 N  
HETATM    4  C   UNL     1      -8.228  14.531  69.427  1.00  0.00     0.135 A  
HETATM    5  C   UNL     1     -10.524  15.309  67.700  1.00  0.00    -0.263 C  
HETATM    6  C   UNL     1      -9.660  16.392  68.381  1.00  0.00    -0.219 C  
HETATM    7  C   UNL     1      -7.053  14.096  70.046  1.00  0.00     0.239 A  
HETATM    8  O   UNL     1     -11.469  14.824  68.334  1.00  0.00    -0.285 OA 
HETATM    9  C   UNL     1      -6.002  14.983  70.260  1.00  0.00    -0.150 A  
HETATM   10  C   UNL     1      -8.368  15.862  69.000  1.00  0.00    -0.239 A  
HETATM   11  C   UNL     1     -10.516  17.127  69.441  1.00  0.00    -0.203 C  
HETATM   12  H   UNL     1     -11.449  16.747  71.176  1.00  0.00     0.000 HD 
HETATM   13  O   UNL     1     -10.924  16.297  70.526  1.00  0.00    -0.316 OA 
HETATM   14  C   UNL     1      -7.300  16.747  69.234  1.00  0.00    -0.164 A  
HETATM   15  C   UNL     1      -6.128  16.311  69.860  1.00  0.00    -0.180 A  
BRANCH   3  16
HETATM   16  C   UNL     1      -9.560  15.819  65.479  1.00  0.00    -0.167 C  
BRANCH  16  17
HETATM   17  C   UNL     1      -9.641  17.285  65.837  1.00  0.00    -0.074 A  
HETATM   18  C   UNL     1      -8.488  18.019  66.145  1.00  0.00    -0.141 A  
HETATM   19  C   UNL     1     -10.902  19.276  66.263  1.00  0.00    -0.272 A  
HETATM   20  C   UNL     1      -8.619  19.351  66.508  1.00  0.00    -0.343 A  
HETATM   21  C   UNL     1     -10.873  17.939  65.897  1.00  0.00     0.038 A  
HETATM   22  N   UNL     1      -9.801  19.995  66.574  1.00  0.00    -0.430 NA 
ENDBRANCH  16  17
ENDBRANCH   3  16
ENDBRANCH   2   3
TORSDOF 3
ENDMDL
MODEL      225
REMARK 921   NORMALIZED FREE ENERGY PREDICTED BY IDOCK:   -1.43 KCAL/MOL
REMARK 922        TOTAL FREE ENERGY PREDICTED BY IDOCK:   -2.70 KCAL/MOL
REMARK 923 INTER-LIGAND FREE ENERGY PREDICTED BY IDOCK:   -3.86 KCAL/MOL
REMARK 924 INTRA-LIGAND FREE ENERGY PREDICTED BY IDOCK:    1.16 KCAL/MOL
REMARK 927      BINDING AFFINITY PREDICTED BY RF-SCORE:    0.00 PKD
ROOT
HETATM    1  C   UNL     1      -5.427   7.871  64.205  1.00  0.00    -0.044 C  
HETATM    2  C   UNL     1      -6.436   9.016  64.158  1.00  0.00    -0.083 C  
ENDROOT
BRANCH   2   3
HETATM    3  N   UNL     1      -7.744   8.819  64.814  1.00  0.00    -0.107 N  
HETATM    4  C   UNL     1      -8.234   9.212  68.364  1.00  0.00    -0.115 A  
HETATM    5  C   UNL     1      -7.878   7.797  65.770  1.00  0.00    -0.104 C  
HETATM    6  C   UNL     1      -9.202   7.664  66.554  1.00  0.00    -0.220 C  
HETATM    7  C   UNL     1      -8.400  10.064  69.458  1.00  0.00    -0.180 A  
HETATM    8  O   UNL     1      -6.949   7.030  66.046  1.00  0.00    -0.062 OA 
HETATM    9  C   UNL     1      -9.676  10.365  69.926  1.00  0.00    -0.017 A  
HETATM   10  C   UNL     1      -9.344   8.652  67.710  1.00  0.00    -0.157 A  
HETATM   11  C   UNL     1      -9.345   6.207  67.056  1.00  0.00    -0.124 C  
HETATM   12  H   UNL     1      -8.441   4.934  68.318  1.00  0.00     0.000 HD 
HETATM   13  O   UNL     1      -8.354   5.827  68.009  1.00  0.00    -0.104 OA 
HETATM   14  C   UNL     1     -10.625   8.958  68.203  1.00  0.00    -0.211 A  
HETATM   15  C   UNL     1     -10.789   9.807  69.302  1.00  0.00    -0.240 A  
BRANCH   3  16
HETATM   16  C   UNL     1      -8.941   9.237  64.061  1.00  0.00    -0.064 C  
BRANCH  16  17
HETATM   17  C   UNL     1      -9.589  10.542  64.461  1.00  0.00    -0.359 A  
HETATM   18  C   UNL     1      -9.868  10.829  65.803  1.00  0.00    -0.292 A  
HETATM   19  C   UNL     1     -10.573  12.655  63.908  1.00  0.00    -0.428 A  
HETATM   20  C   UNL     1     -10.502  12.022  66.116  1.00  0.00    -0.236 A  
HETATM   21  C   UNL     1      -9.951  11.486  63.498  1.00  0.00    -0.429 A  
HETATM   22  N   UNL     1     -10.860  12.941  65.198  1.00  0.00    -0.289 NA 
ENDBRANCH  16  17
ENDBRANCH   3  16
ENDBRANCH   2   3
TORSDOF 3
ENDMDL
MODEL      226
REMARK 921   NORMALIZED FREE ENERGY PREDICTED BY IDOCK:   -1.15 KCAL/MOL
REMARK 922        TOTAL FREE ENERGY PREDICTED BY IDOCK:   -2.37 KCAL/MOL
REMARK 923 INTER-LIGAND FREE ENERGY PREDICTED BY IDOCK:   -1.45 KCAL/MOL
REMARK 924 INTRA-LIGAND FREE ENERGY PREDICTED BY IDOCK:   -0.91 KCAL/MOL
REMARK 927      BINDING AFFINITY PREDICTED BY RF-SCORE:    0.00 PKD
ROOT
HETATM    1  C   UNL     1     -10.817  10.384  66.114  1.00  0.00     0.011 C  
HETATM    2  C   UNL     1     -10.355   8.932  66.025  1.00  0.00     0.326 C  
ENDROOT
BRANCH   2   3
HETATM    3  N   UNL     1      -9.587   8.375  67.157  1.00  0.00    -0.167 N  
HETATM    4  C   UNL     1      -7.440   5.497  66.842  1.00  0.00    -0.088 A  
HETATM    5  C   UNL     1      -9.858   7.064  67.585  1.00  0.00    -0.147 C  
HETATM    6  C   UNL     1      -8.976   6.428  68.681  1.00  0.00    -0.125 C  
HETATM    7  C   UNL     1      -6.219   4.958  66.427  1.00  0.00    -0.035 A  
HETATM    8  O   UNL     1     -10.750   6.378  67.072  1.00  0.00    -0.282 OA 
HETATM    9  C   UNL     1      -5.176   4.802  67.335  1.00  0.00    -0.011 A  
HETATM   10  C   UNL     1      -7.636   5.898  68.173  1.00  0.00    -0.089 A  
HETATM   11  C   UNL     1      -9.778   5.308  69.385  1.00  0.00    -0.174 C  
HETATM   12  H   UNL     1     -10.590   3.521  68.968  1.00  0.00     0.000 HD 
HETATM   13  O   UNL     1     -10.098   4.208  68.536  1.00  0.00     0.008 OA 
HETATM   14  C   UNL     1      -6.575   5.723  69.080  1.00  0.00    -0.051 A  
HETATM   15  C   UNL     1      -5.356   5.178  68.664  1.00  0.00    -0.004 A  
BRANCH   3  16
HETATM   16  C   UNL     1      -9.049   9.337  68.138  1.00  0.00    -0.128 C  
BRANCH  16  17
HETATM   17  C   UNL     1      -7.687   9.926  67.854  1.00  0.00    -0.090 A  
HETATM   18  C   UNL     1      -6.516   9.214  68.145  1.00  0.00    -0.059 A  
HETATM   19  C   UNL     1      -6.290  11.723  67.106  1.00  0.00    -0.145 A  
HETATM   20  C   UNL     1      -5.289   9.814  67.904  1.00  0.00    -0.039 A  
HETATM   21  C   UNL     1      -7.561  11.210  67.320  1.00  0.00    -0.126 A  
HETATM   22  N   UNL     1      -5.151  11.053  67.392  1.00  0.00    -0.038 NA 
ENDBRANCH  16  17
ENDBRANCH   3  16
ENDBRANCH   2   3
TORSDOF 3
ENDMDL
MODEL      227
REMARK 921   NORMALIZED FREE ENERGY PREDICTED BY IDOCK:   -0.75 KCAL/MOL
REMARK 922        TOTAL FREE ENERGY PREDICTED BY IDOCK:   -1.90 KCAL/MOL
REMARK 923 INTER-LIGAND FREE ENERGY PREDICTED BY IDOCK:   -2.27 KCAL/MOL
REMARK 924 INTRA-LIGAND FREE ENERGY PREDICTED BY IDOCK:    0.37 KCAL/MOL
REMARK 927      BINDING AFFINITY PREDICTED BY RF-SCORE:    0.00 PKD
ROOT
HETATM    1  C   UNL     1      -5.318  10.539  69.541  1.00  0.00    -0.038 C  
HETATM    2  C   UNL     1      -5.141  11.297  68.228  1.00  0.00    -0.039 C  
ENDROOT
BRANCH   2   3
HETATM    3  N   UNL     1      -6.351  11.641  67.455  1.00  0.00    -0.087 N  
HETATM    4  C   UNL     1      -9.529  10.019  67.966  1.00  0.00    -0.150 A  
HETATM    5  C   UNL     1      -6.941  10.658  66.642  1.00  0.00    -0.119 C  
HETATM    6  C   UNL     1      -8.276  10.967  65.931  1.00  0.00    -0.133 C  
HETATM    7  C   UNL     1     -10.691   9.884  68.731  1.00  0.00    -0.247 A  
HETATM    8  O   UNL     1      -6.455   9.528  66.519  1.00  0.00    -0.065 OA 
HETATM    9  C   UNL     1     -11.851  10.563  68.370  1.00  0.00     0.056 A  
HETATM   10  C   UNL     1      -9.505  10.845  66.830  1.00  0.00    -0.198 A  
HETATM   11  C   UNL     1      -8.410  10.050  64.691  1.00  0.00    -0.165 C  
HETATM   12  H   UNL     1      -8.598   8.101  64.250  1.00  0.00     0.000 HD 
HETATM   13  O   UNL     1      -8.516   8.664  65.010  1.00  0.00    -0.169 OA 
HETATM   14  C   UNL     1     -10.690  11.515  66.475  1.00  0.00    -0.318 A  
HETATM   15  C   UNL     1     -11.853  11.374  67.238  1.00  0.00     0.032 A  
BRANCH   3  16
HETATM   16  C   UNL     1      -6.528  13.058  67.084  1.00  0.00     0.220 C  
BRANCH  16  17
HETATM   17  C   UNL     1      -6.212  14.093  68.139  1.00  0.00    -0.133 A  
HETATM   18  C   UNL     1      -6.002  13.724  69.474  1.00  0.00    -0.107 A  
HETATM   19  C   UNL     1      -5.888  16.367  68.820  1.00  0.00    -0.126 A  
HETATM   20  C   UNL     1      -5.756  14.715  70.412  1.00  0.00    -0.146 A  
HETATM   21  C   UNL     1      -6.149  15.449  67.813  1.00  0.00    -0.173 A  
HETATM   22  N   UNL     1      -5.695  16.028  70.114  1.00  0.00    -0.169 NA 
ENDBRANCH  16  17
ENDBRANCH   3  16
ENDBRANCH   2   3
TORSDOF 3
ENDMDL
MODEL      228
REMARK 921   NORMALIZED FREE ENERGY PREDICTED BY IDOCK:    1.23 KCAL/MOL
REMARK 922        TOTAL FREE ENERGY PREDICTED BY IDOCK:    0.43 KCAL/MOL
REMARK 923 INTER-LIGAND FREE ENERGY PREDICTED BY IDOCK:   -1.16 KCAL/MOL
REMARK 924 INTRA-LIGAND FREE ENERGY PREDICTED BY IDOCK:    1.59 KCAL/MOL
REMARK 927      BINDING AFFINITY PREDICTED BY RF-SCORE:    0.00 PKD
ROOT
HETATM    1  C   UNL     1      -5.846   8.906  63.359  1.00  0.00    -0.077 C  
HETATM    2  C   UNL     1      -6.440   9.518  64.625  1.00  0.00    -0.089 C  
ENDROOT
BRANCH   2   3
HETATM    3  N   UNL     1      -7.344   8.684  65.443  1.00  0.00    -0.083 N  
HETATM    4  C   UNL     1      -6.501   5.343  66.505  1.00  0.00    -0.044 A  
HETATM    5  C   UNL     1      -7.827   7.477  64.908  1.00  0.00    -0.128 C  
HETATM    6  C   UNL     1      -8.666   6.537  65.800  1.00  0.00    -0.129 C  
HETATM    7  C   UNL     1      -5.793   4.511  67.375  1.00  0.00    -0.023 A  
HETATM    8  O   UNL     1      -7.555   7.113  63.758  1.00  0.00    -0.096 OA 
HETATM    9  C   UNL     1      -6.411   3.997  68.512  1.00  0.00    -0.036 A  
HETATM   10  C   UNL     1      -7.839   5.685  66.761  1.00  0.00    -0.101 A  
HETATM   11  C   UNL     1      -9.550   5.644  64.897  1.00  0.00     0.669 C  
HETATM   12  H   UNL     1      -9.351   4.198  63.519  1.00  0.00     0.000 HD 
HETATM   13  O   UNL     1      -8.809   4.747  64.073  1.00  0.00    -0.144 OA 
HETATM   14  C   UNL     1      -8.450   5.148  67.908  1.00  0.00    -0.104 A  
HETATM   15  C   UNL     1      -7.742   4.310  68.776  1.00  0.00    -0.066 A  
BRANCH   3  16
HETATM   16  C   UNL     1      -8.158   9.377  66.459  1.00  0.00    -0.111 C  
BRANCH  16  17
HETATM   17  C   UNL     1      -7.547  10.586  67.127  1.00  0.00    -0.097 A  
HETATM   18  C   UNL     1      -6.303  11.086  66.721  1.00  0.00    -0.114 A  
HETATM   19  C   UNL     1      -7.582  12.308  68.793  1.00  0.00    -0.044 A  
HETATM   20  C   UNL     1      -5.764  12.173  67.393  1.00  0.00    -0.135 A  
HETATM   21  C   UNL     1      -8.195  11.222  68.188  1.00  0.00    -0.140 A  
HETATM   22  N   UNL     1      -6.377  12.795  68.420  1.00  0.00    -0.072 NA 
ENDBRANCH  16  17
ENDBRANCH   3  16
ENDBRANCH   2   3
TORSDOF 3
ENDMDL
MODEL      229
REMARK 921   NORMALIZED FREE ENERGY PREDICTED BY IDOCK:    1.44 KCAL/MOL
REMARK 922        TOTAL FREE ENERGY PREDICTED BY IDOCK:    0.68 KCAL/MOL
REMARK 923 INTER-LIGAND FREE ENERGY PREDICTED BY IDOCK:   -1.75 KCAL/MOL
REMARK 924 INTRA-LIGAND FREE ENERGY PREDICTED BY IDOCK:    2.43 KCAL/MOL
REMARK 927      BINDING AFFINITY PREDICTED BY RF-SCORE:    0.00 PKD
ROOT
HETATM    1  C   UNL     1      -6.513  17.641  68.318  1.00  0.00    -0.188 C  
HETATM    2  C   UNL     1      -6.554  16.135  68.070  1.00  0.00    -0.130 C  
ENDROOT
BRANCH   2   3
HETATM    3  N   UNL     1      -7.735  15.575  67.383  1.00  0.00    -0.175 N  
HETATM    4  C   UNL     1     -10.110  13.412  69.017  1.00  0.00     0.100 A  
HETATM    5  C   UNL     1      -7.845  14.181  67.247  1.00  0.00    -0.132 C  
HETATM    6  C   UNL     1      -9.133  13.579  66.645  1.00  0.00    -0.182 C  
HETATM    7  C   UNL     1     -11.198  13.273  69.883  1.00  0.00     0.049 A  
HETATM    8  O   UNL     1      -6.964  13.410  67.645  1.00  0.00    -0.140 OA 
HETATM    9  C   UNL     1     -12.493  13.202  69.377  1.00  0.00     0.121 A  
HETATM   10  C   UNL     1     -10.300  13.493  67.628  1.00  0.00    -0.239 A  
HETATM   11  C   UNL     1      -8.810  12.185  66.055  1.00  0.00     0.100 C  
HETATM   12  H   UNL     1      -8.220  10.368  66.671  1.00  0.00     0.000 HD 
HETATM   13  O   UNL     1      -8.418  11.224  67.032  1.00  0.00    -0.140 OA 
HETATM   14  C   UNL     1     -11.614  13.409  67.134  1.00  0.00    -0.399 A  
HETATM   15  C   UNL     1     -12.701  13.263  68.001  1.00  0.00     1.112 A  
BRANCH   3  16
HETATM   16  C   UNL     1      -8.395  16.433  66.380  1.00  0.00    -0.328 C  
BRANCH  16  17
HETATM   17  C   UNL     1      -7.731  17.749  66.052  1.00  0.00    -0.223 A  
HETATM   18  C   UNL     1      -6.522  17.793  65.346  1.00  0.00     0.113 A  
HETATM   19  C   UNL     1      -7.631  20.140  66.172  1.00  0.00    -0.266 A  
HETATM   20  C   UNL     1      -5.930  19.024  65.105  1.00  0.00    -0.264 A  
HETATM   21  C   UNL     1      -8.293  18.958  66.468  1.00  0.00    -0.310 A  
HETATM   22  N   UNL     1      -6.459  20.198  65.503  1.00  0.00    -0.235 NA 
ENDBRANCH  16  17
ENDBRANCH   3  16
ENDBRANCH   2   3
TORSDOF 3
ENDMDL
MODEL      230
REMARK 921   NORMALIZED FREE ENERGY PREDICTED BY IDOCK:    3.72 KCAL/MOL
REMARK 922        TOTAL FREE ENERGY PREDICTED BY IDOCK:    3.35 KCAL/MOL
REMARK 923 INTER-LIGAND FREE ENERGY PREDICTED BY IDOCK:    3.24 KCAL/MOL
REMARK 924 INTRA-LIGAND FREE ENERGY PREDICTED BY IDOCK:    0.11 KCAL/MOL
REMARK 927      BINDING AFFINITY PREDICTED BY RF-SCORE:    0.00 PKD
ROOT
HETATM    1  C   UNL     1      -5.718   8.958  63.201  1.00  0.00    -0.073 C  
HETATM    2  C   UNL     1      -6.335   9.411  64.522  1.00  0.00    -0.080 C  
ENDROOT
BRANCH   2   3
HETATM    3  N   UNL     1      -7.382   8.564  65.127  1.00  0.00    -0.080 N  
HETATM    4  C   UNL     1      -7.155   4.970  65.270  1.00  0.00    -0.063 A  
HETATM    5  C   UNL     1      -8.062   7.639  64.317  1.00  0.00    -0.071 C  
HETATM    6  C   UNL     1      -9.066   6.662  64.965  1.00  0.00     0.542 C  
HETATM    7  C   UNL     1      -6.617   3.831  65.876  1.00  0.00    -0.041 A  
HETATM    8  O   UNL     1      -7.843   7.543  63.104  1.00  0.00    -0.133 OA 
HETATM    9  C   UNL     1      -7.331   3.157  66.862  1.00  0.00    -0.070 A  
HETATM   10  C   UNL     1      -8.415   5.461  65.649  1.00  0.00    -0.138 A  
HETATM   11  C   UNL     1     -10.081   6.199  63.892  1.00  0.00     4.010 C  
HETATM   12  H   UNL     1     -10.121   5.145  62.184  1.00  0.00     0.000 HD 
HETATM   13  O   UNL     1      -9.498   5.430  62.843  1.00  0.00     0.355 OA 
HETATM   14  C   UNL     1      -9.127   4.760  66.639  1.00  0.00    -0.117 A  
HETATM   15  C   UNL     1      -8.590   3.618  67.240  1.00  0.00    -0.116 A  
BRANCH   3  16
HETATM   16  C   UNL     1      -8.075   9.103  66.313  1.00  0.00    -0.111 C  
BRANCH  16  17
HETATM   17  C   UNL     1      -7.843   8.398  67.629  1.00  0.00    -0.107 A  
HETATM   18  C   UNL     1      -6.859   7.410  67.757  1.00  0.00    -0.074 A  
HETATM   19  C   UNL     1      -8.397   8.002  69.926  1.00  0.00    -0.121 A  
HETATM   20  C   UNL     1      -6.712   6.763  68.974  1.00  0.00    -0.059 A  
HETATM   21  C   UNL     1      -8.624   8.697  68.748  1.00  0.00    -0.130 A  
HETATM   22  N   UNL     1      -7.460   7.037  70.062  1.00  0.00    -0.088 NA 
ENDBRANCH  16  17
ENDBRANCH   3  16
ENDBRANCH   2   3
TORSDOF 3
ENDMDL
MODEL      231
REMARK 921   NORMALIZED FREE ENERGY PREDICTED BY IDOCK:   11.86 KCAL/MOL
REMARK 922        TOTAL FREE ENERGY PREDICTED BY IDOCK:   12.92 KCAL/MOL
REMARK 923 INTER-LIGAND FREE ENERGY PREDICTED BY IDOCK:   12.84 KCAL/MOL
REMARK 924 INTRA-LIGAND FREE ENERGY PREDICTED BY IDOCK:    0.08 KCAL/MOL
REMARK 927      BINDING AFFINITY PREDICTED BY RF-SCORE:    0.00 PKD
ROOT
HETATM    1  C   UNL     1     -11.516   9.552  65.649  1.00  0.00     3.935 C  
HETATM    2  C   UNL     1     -11.360   8.060  65.369  1.00  0.00     7.826 C  
ENDROOT
BRANCH   2   3
HETATM    3  N   UNL     1     -10.582   7.249  66.327  1.00  0.00     0.388 N  
HETATM    4  C   UNL     1      -7.798   5.183  65.340  1.00  0.00    -0.089 A  
HETATM    5  C   UNL     1     -10.573   5.851  66.186  1.00  0.00     0.124 C  
HETATM    6  C   UNL     1      -9.663   5.004  67.101  1.00  0.00    -0.180 C  
HETATM    7  C   UNL     1      -6.454   5.088  64.970  1.00  0.00    -0.036 A  
HETATM    8  O   UNL     1     -11.230   5.275  65.311  1.00  0.00     0.513 OA 
HETATM    9  C   UNL     1      -5.486   4.777  65.920  1.00  0.00    -0.013 A  
HETATM   10  C   UNL     1      -8.197   4.976  66.670  1.00  0.00    -0.108 A  
HETATM   11  C   UNL     1     -10.235   3.569  67.192  1.00  0.00     1.011 C  
HETATM   12  H   UNL     1     -10.564   1.981  66.010  1.00  0.00     0.000 HD 
HETATM   13  O   UNL     1     -10.213   2.862  65.955  1.00  0.00     0.661 OA 
HETATM   14  C   UNL     1      -7.206   4.651  67.615  1.00  0.00    -0.066 A  
HETATM   15  C   UNL     1      -5.862   4.552  67.242  1.00  0.00    -0.023 A  
BRANCH   3  16
HETATM   16  C   UNL     1     -10.373   7.820  67.672  1.00  0.00    -0.239 C  
BRANCH  16  17
HETATM   17  C   UNL     1      -9.557   9.089  67.764  1.00  0.00    -0.178 A  
HETATM   18  C   UNL     1      -8.292   9.181  67.169  1.00  0.00    -0.117 A  
HETATM   19  C   UNL     1      -9.237  11.326  68.557  1.00  0.00    -0.181 A  
HETATM   20  C   UNL     1      -7.565  10.352  67.318  1.00  0.00    -0.095 A  
HETATM   21  C   UNL     1     -10.034  10.195  68.470  1.00  0.00    -0.177 A  
HETATM   22  N   UNL     1      -8.010  11.427  67.999  1.00  0.00    -0.121 NA 
ENDBRANCH  16  17
ENDBRANCH   3  16
ENDBRANCH   2   3
TORSDOF 3
ENDMDL
