MODEL        1
REMARK 921   NORMALIZED FREE ENERGY PREDICTED BY IDOCK:   -7.36 KCAL/MOL
REMARK 922        TOTAL FREE ENERGY PREDICTED BY IDOCK:   -9.09 KCAL/MOL
REMARK 923 INTER-LIGAND FREE ENERGY PREDICTED BY IDOCK:   -8.65 KCAL/MOL
REMARK 924 INTRA-LIGAND FREE ENERGY PREDICTED BY IDOCK:   -0.44 KCAL/MOL
REMARK 927      BINDING AFFINITY PREDICTED BY RF-SCORE:    0.00 PKD
ROOT
HETATM    1  C   UNL     1     -12.358  13.708  64.999  1.00  0.00    -0.427 C  
HETATM    2  C   UNL     1     -12.627  12.348  64.351  1.00  0.00    -0.489 C  
HETATM    3  C   UNL     1     -11.260  11.670  64.297  1.00  0.00    -0.392 C  
HETATM    4  C   UNL     1     -10.303  12.688  64.923  1.00  0.00    -0.308 C  
HETATM    5  N   UNL     1     -10.969  13.948  64.593  1.00  0.00    -0.394 NA 
HETATM    6  C   UNL     1     -10.172  12.473  66.432  1.00  0.00    -0.260 C  
HETATM    7  C   UNL     1     -11.403  12.897  67.254  1.00  0.00    -0.310 C  
HETATM    8  C   UNL     1     -10.349  15.148  65.132  1.00  0.00    -0.385 C  
HETATM    9  C   UNL     1     -12.533  13.634  66.521  1.00  0.00    -0.337 C  
ENDROOT
BRANCH   7  10
HETATM   10  O   UNL     1     -11.894  11.709  67.896  1.00  0.00    -0.543 OA 
BRANCH  10  11
HETATM   11  C   UNL     1     -11.273  11.465  69.089  1.00  0.00    -0.272 C  
HETATM   12  O   UNL     1     -10.178  10.925  69.185  1.00  0.00    -0.213 OA 
BRANCH  11  13
HETATM   13  C   UNL     1     -12.126  11.794  70.223  1.00  0.00    -0.426 A  
HETATM   14  C   UNL     1     -12.654  10.893  71.135  1.00  0.00    -0.428 A  
HETATM   15  N   UNL     1     -13.318  11.592  72.105  1.00  0.00    -0.562 NA 
HETATM   16  H   UNL     1     -13.801  11.172  72.900  1.00  0.00     0.000 HD 
HETATM   17  C   UNL     1     -13.239  12.941  71.854  1.00  0.00    -0.423 A  
HETATM   18  C   UNL     1     -13.755  14.023  72.577  1.00  0.00    -0.651 A  
HETATM   19  C   UNL     1     -13.503  15.309  72.087  1.00  0.00    -0.546 A  
HETATM   20  C   UNL     1     -12.760  15.502  70.925  1.00  0.00    -0.525 A  
HETATM   21  C   UNL     1     -12.252  14.410  70.217  1.00  0.00    -0.397 A  
HETATM   22  C   UNL     1     -12.499  13.100  70.680  1.00  0.00    -0.363 A  
ENDBRANCH  11  13
ENDBRANCH  10  11
ENDBRANCH   7  10
TORSDOF 3
ENDMDL
MODEL        2
REMARK 921   NORMALIZED FREE ENERGY PREDICTED BY IDOCK:   -6.89 KCAL/MOL
REMARK 922        TOTAL FREE ENERGY PREDICTED BY IDOCK:   -8.54 KCAL/MOL
REMARK 923 INTER-LIGAND FREE ENERGY PREDICTED BY IDOCK:   -7.98 KCAL/MOL
REMARK 924 INTRA-LIGAND FREE ENERGY PREDICTED BY IDOCK:   -0.56 KCAL/MOL
REMARK 927      BINDING AFFINITY PREDICTED BY RF-SCORE:    0.00 PKD
ROOT
HETATM    1  C   UNL     1      -9.291  19.777  66.638  1.00  0.00    -0.387 C  
HETATM    2  C   UNL     1      -7.912  19.593  65.999  1.00  0.00    -0.337 C  
HETATM    3  C   UNL     1      -7.204  18.582  66.899  1.00  0.00    -0.226 C  
HETATM    4  C   UNL     1      -8.229  18.254  67.988  1.00  0.00    -0.264 C  
HETATM    5  N   UNL     1      -8.992  19.501  68.047  1.00  0.00    -0.320 NA 
HETATM    6  C   UNL     1      -9.095  17.056  67.593  1.00  0.00    -0.229 C  
HETATM    7  C   UNL     1     -10.132  17.343  66.492  1.00  0.00    -0.320 C  
HETATM    8  C   UNL     1     -10.133  19.498  68.949  1.00  0.00    -0.401 C  
HETATM    9  C   UNL     1     -10.308  18.798  66.038  1.00  0.00    -0.467 C  
ENDROOT
BRANCH   7  10
HETATM   10  O   UNL     1      -9.793  16.495  65.383  1.00  0.00    -0.530 OA 
BRANCH  10  11
HETATM   11  C   UNL     1     -10.884  15.862  64.856  1.00  0.00    -0.400 C  
HETATM   12  O   UNL     1     -11.740  16.429  64.189  1.00  0.00    -0.921 OA 
BRANCH  11  13
HETATM   13  C   UNL     1     -10.973  14.476  65.295  1.00  0.00    -0.366 A  
HETATM   14  C   UNL     1     -10.610  13.361  64.556  1.00  0.00    -0.425 A  
HETATM   15  N   UNL     1     -10.749  12.251  65.343  1.00  0.00    -0.275 NA 
HETATM   16  H   UNL     1     -10.547  11.296  65.047  1.00  0.00     0.000 HD 
HETATM   17  C   UNL     1     -11.199  12.610  66.592  1.00  0.00    -0.300 A  
HETATM   18  C   UNL     1     -11.471  11.817  67.712  1.00  0.00    -0.381 A  
HETATM   19  C   UNL     1     -11.909  12.464  68.874  1.00  0.00    -0.350 A  
HETATM   20  C   UNL     1     -12.060  13.847  68.910  1.00  0.00    -0.355 A  
HETATM   21  C   UNL     1     -11.783  14.624  67.782  1.00  0.00    -0.386 A  
HETATM   22  C   UNL     1     -11.350  13.998  66.593  1.00  0.00    -0.345 A  
ENDBRANCH  11  13
ENDBRANCH  10  11
ENDBRANCH   7  10
TORSDOF 3
ENDMDL
MODEL        3
REMARK 921   NORMALIZED FREE ENERGY PREDICTED BY IDOCK:   -6.84 KCAL/MOL
REMARK 922        TOTAL FREE ENERGY PREDICTED BY IDOCK:   -8.47 KCAL/MOL
REMARK 923 INTER-LIGAND FREE ENERGY PREDICTED BY IDOCK:   -7.97 KCAL/MOL
REMARK 924 INTRA-LIGAND FREE ENERGY PREDICTED BY IDOCK:   -0.50 KCAL/MOL
REMARK 927      BINDING AFFINITY PREDICTED BY RF-SCORE:    0.00 PKD
ROOT
HETATM    1  C   UNL     1     -10.027  13.909  64.871  1.00  0.00    -0.138 C  
HETATM    2  C   UNL     1     -10.798  15.231  64.843  1.00  0.00    -0.444 C  
HETATM    3  C   UNL     1     -12.145  14.877  64.217  1.00  0.00    -0.373 C  
HETATM    4  C   UNL     1     -12.053  13.375  63.934  1.00  0.00    -0.455 C  
HETATM    5  N   UNL     1     -10.615  13.211  63.723  1.00  0.00    -0.208 NA 
HETATM    6  C   UNL     1     -12.569  12.554  65.118  1.00  0.00    -0.358 C  
HETATM    7  C   UNL     1     -11.638  12.534  66.344  1.00  0.00    -0.391 C  
HETATM    8  C   UNL     1     -10.162  11.846  63.511  1.00  0.00    -0.457 C  
HETATM    9  C   UNL     1     -10.250  13.172  66.198  1.00  0.00    -0.291 C  
ENDROOT
BRANCH   7  10
HETATM   10  O   UNL     1     -12.371  13.137  67.422  1.00  0.00    -0.225 OA 
BRANCH  10  11
HETATM   11  C   UNL     1     -11.870  12.800  68.649  1.00  0.00    -0.304 C  
HETATM   12  O   UNL     1     -11.762  11.646  69.043  1.00  0.00    -0.271 OA 
BRANCH  11  13
HETATM   13  C   UNL     1     -11.614  13.974  69.473  1.00  0.00    -0.350 A  
HETATM   14  C   UNL     1     -10.826  15.060  69.122  1.00  0.00    -0.251 A  
HETATM   15  N   UNL     1     -10.911  15.998  70.114  1.00  0.00    -0.342 NA 
HETATM   16  H   UNL     1     -10.428  16.897  70.110  1.00  0.00     0.000 HD 
HETATM   17  C   UNL     1     -11.740  15.554  71.117  1.00  0.00    -0.391 A  
HETATM   18  C   UNL     1     -12.125  16.178  72.309  1.00  0.00    -0.616 A  
HETATM   19  C   UNL     1     -13.007  15.486  73.147  1.00  0.00    -0.634 A  
HETATM   20  C   UNL     1     -13.488  14.227  72.800  1.00  0.00    -0.590 A  
HETATM   21  C   UNL     1     -13.094  13.619  71.605  1.00  0.00    -0.455 A  
HETATM   22  C   UNL     1     -12.196  14.288  70.744  1.00  0.00    -0.423 A  
ENDBRANCH  11  13
ENDBRANCH  10  11
ENDBRANCH   7  10
TORSDOF 3
ENDMDL
MODEL        4
REMARK 921   NORMALIZED FREE ENERGY PREDICTED BY IDOCK:   -6.80 KCAL/MOL
REMARK 922        TOTAL FREE ENERGY PREDICTED BY IDOCK:   -8.43 KCAL/MOL
REMARK 923 INTER-LIGAND FREE ENERGY PREDICTED BY IDOCK:   -8.08 KCAL/MOL
REMARK 924 INTRA-LIGAND FREE ENERGY PREDICTED BY IDOCK:   -0.35 KCAL/MOL
REMARK 927      BINDING AFFINITY PREDICTED BY RF-SCORE:    0.00 PKD
ROOT
HETATM    1  C   UNL     1     -10.133  13.288  64.916  1.00  0.00    -0.226 C  
HETATM    2  C   UNL     1      -9.703  14.595  65.588  1.00  0.00    -0.302 C  
HETATM    3  C   UNL     1     -11.013  15.296  65.939  1.00  0.00    -0.325 C  
HETATM    4  C   UNL     1     -12.104  14.340  65.447  1.00  0.00    -0.396 C  
HETATM    5  N   UNL     1     -11.422  13.678  64.335  1.00  0.00    -0.383 NA 
HETATM    6  C   UNL     1     -12.519  13.360  66.546  1.00  0.00    -0.255 C  
HETATM    7  C   UNL     1     -11.485  12.263  66.859  1.00  0.00    -0.356 C  
HETATM    8  C   UNL     1     -12.170  12.615  63.682  1.00  0.00    -0.536 C  
HETATM    9  C   UNL     1     -10.256  12.158  65.945  1.00  0.00    -0.272 C  
ENDROOT
BRANCH   7  10
HETATM   10  O   UNL     1     -11.095  12.449  68.228  1.00  0.00    -0.214 OA 
BRANCH  10  11
HETATM   11  C   UNL     1     -11.354  11.351  69.001  1.00  0.00    -0.280 C  
HETATM   12  O   UNL     1     -11.049  10.210  68.679  1.00  0.00    -0.235 OA 
BRANCH  11  13
HETATM   13  C   UNL     1     -12.152  11.687  70.173  1.00  0.00    -0.414 A  
HETATM   14  C   UNL     1     -12.624  10.792  71.121  1.00  0.00    -0.428 A  
HETATM   15  N   UNL     1     -13.244  11.497  72.115  1.00  0.00    -0.559 NA 
HETATM   16  H   UNL     1     -13.682  11.084  72.939  1.00  0.00     0.000 HD 
HETATM   17  C   UNL     1     -13.193  12.844  71.843  1.00  0.00    -0.423 A  
HETATM   18  C   UNL     1     -13.683  13.930  72.578  1.00  0.00    -0.665 A  
HETATM   19  C   UNL     1     -13.470  15.212  72.060  1.00  0.00    -0.520 A  
HETATM   20  C   UNL     1     -12.789  15.397  70.860  1.00  0.00    -0.536 A  
HETATM   21  C   UNL     1     -12.306  14.301  70.140  1.00  0.00    -0.413 A  
HETATM   22  C   UNL     1     -12.515  12.995  70.632  1.00  0.00    -0.347 A  
ENDBRANCH  11  13
ENDBRANCH  10  11
ENDBRANCH   7  10
TORSDOF 3
ENDMDL
MODEL        5
REMARK 921   NORMALIZED FREE ENERGY PREDICTED BY IDOCK:   -6.78 KCAL/MOL
REMARK 922        TOTAL FREE ENERGY PREDICTED BY IDOCK:   -8.41 KCAL/MOL
REMARK 923 INTER-LIGAND FREE ENERGY PREDICTED BY IDOCK:   -8.10 KCAL/MOL
REMARK 924 INTRA-LIGAND FREE ENERGY PREDICTED BY IDOCK:   -0.31 KCAL/MOL
REMARK 927      BINDING AFFINITY PREDICTED BY RF-SCORE:    0.00 PKD
ROOT
HETATM    1  C   UNL     1      -8.802  18.428  68.446  1.00  0.00    -0.320 C  
HETATM    2  C   UNL     1     -10.010  19.329  68.716  1.00  0.00    -0.511 C  
HETATM    3  C   UNL     1     -10.689  19.479  67.357  1.00  0.00    -0.589 C  
HETATM    4  C   UNL     1      -9.825  18.650  66.402  1.00  0.00    -0.367 C  
HETATM    5  N   UNL     1      -8.514  18.750  67.044  1.00  0.00    -0.274 NA 
HETATM    6  C   UNL     1     -10.325  17.207  66.313  1.00  0.00    -0.315 C  
HETATM    7  C   UNL     1     -10.042  16.347  67.558  1.00  0.00    -0.261 C  
HETATM    8  C   UNL     1      -7.449  17.979  66.422  1.00  0.00    -0.262 C  
HETATM    9  C   UNL     1      -9.160  16.952  68.659  1.00  0.00    -0.265 C  
ENDROOT
BRANCH   7  10
HETATM   10  O   UNL     1     -11.321  15.954  68.080  1.00  0.00    -0.345 OA 
BRANCH  10  11
HETATM   11  C   UNL     1     -11.662  14.678  67.726  1.00  0.00    -0.359 C  
HETATM   12  O   UNL     1     -11.844  14.322  66.569  1.00  0.00    -0.385 OA 
BRANCH  11  13
HETATM   13  C   UNL     1     -11.913  13.839  68.890  1.00  0.00    -0.394 A  
HETATM   14  C   UNL     1     -11.516  12.520  69.045  1.00  0.00    -0.304 A  
HETATM   15  N   UNL     1     -11.852  12.109  70.306  1.00  0.00    -0.515 NA 
HETATM   16  H   UNL     1     -11.672  11.178  70.684  1.00  0.00     0.000 HD 
HETATM   17  C   UNL     1     -12.465  13.132  70.990  1.00  0.00    -0.318 A  
HETATM   18  C   UNL     1     -12.961  13.169  72.298  1.00  0.00    -0.354 A  
HETATM   19  C   UNL     1     -13.529  14.369  72.742  1.00  0.00    -0.582 A  
HETATM   20  C   UNL     1     -13.589  15.484  71.911  1.00  0.00    -0.580 A  
HETATM   21  C   UNL     1     -13.087  15.430  70.608  1.00  0.00    -0.405 A  
HETATM   22  C   UNL     1     -12.519  14.230  70.129  1.00  0.00    -0.393 A  
ENDBRANCH  11  13
ENDBRANCH  10  11
ENDBRANCH   7  10
TORSDOF 3
ENDMDL
MODEL        6
REMARK 921   NORMALIZED FREE ENERGY PREDICTED BY IDOCK:   -6.77 KCAL/MOL
REMARK 922        TOTAL FREE ENERGY PREDICTED BY IDOCK:   -8.39 KCAL/MOL
REMARK 923 INTER-LIGAND FREE ENERGY PREDICTED BY IDOCK:   -7.72 KCAL/MOL
REMARK 924 INTRA-LIGAND FREE ENERGY PREDICTED BY IDOCK:   -0.67 KCAL/MOL
REMARK 927      BINDING AFFINITY PREDICTED BY RF-SCORE:    0.00 PKD
ROOT
HETATM    1  C   UNL     1      -8.981  17.870  66.250  1.00  0.00    -0.168 C  
HETATM    2  C   UNL     1      -7.744  17.386  67.012  1.00  0.00    -0.235 C  
HETATM    3  C   UNL     1      -8.012  17.775  68.464  1.00  0.00    -0.294 C  
HETATM    4  C   UNL     1      -9.385  18.452  68.434  1.00  0.00    -0.329 C  
HETATM    5  N   UNL     1      -9.401  19.005  67.080  1.00  0.00    -0.302 NA 
HETATM    6  C   UNL     1     -10.508  17.438  68.666  1.00  0.00    -0.355 C  
HETATM    7  C   UNL     1     -10.779  16.492  67.483  1.00  0.00    -0.283 C  
HETATM    8  C   UNL     1     -10.639  19.657  66.682  1.00  0.00    -0.487 C  
HETATM    9  C   UNL     1     -10.040  16.765  66.165  1.00  0.00    -0.360 C  
ENDROOT
BRANCH   7  10
HETATM   10  O   UNL     1     -10.515  15.162  67.956  1.00  0.00    -0.241 OA 
BRANCH  10  11
HETATM   11  C   UNL     1     -11.555  14.307  67.723  1.00  0.00    -0.354 C  
HETATM   12  O   UNL     1     -12.183  14.274  66.673  1.00  0.00    -0.449 OA 
BRANCH  11  13
HETATM   13  C   UNL     1     -11.910  13.545  68.914  1.00  0.00    -0.384 A  
HETATM   14  C   UNL     1     -11.614  12.211  69.146  1.00  0.00    -0.319 A  
HETATM   15  N   UNL     1     -12.026  11.887  70.410  1.00  0.00    -0.460 NA 
HETATM   16  H   UNL     1     -11.927  10.965  70.838  1.00  0.00     0.000 HD 
HETATM   17  C   UNL     1     -12.591  12.982  71.019  1.00  0.00    -0.299 A  
HETATM   18  C   UNL     1     -13.133  13.118  72.302  1.00  0.00    -0.458 A  
HETATM   19  C   UNL     1     -13.631  14.374  72.666  1.00  0.00    -0.589 A  
HETATM   20  C   UNL     1     -13.581  15.449  71.782  1.00  0.00    -0.596 A  
HETATM   21  C   UNL     1     -13.034  15.295  70.506  1.00  0.00    -0.380 A  
HETATM   22  C   UNL     1     -12.534  14.037  70.106  1.00  0.00    -0.380 A  
ENDBRANCH  11  13
ENDBRANCH  10  11
ENDBRANCH   7  10
TORSDOF 3
ENDMDL
MODEL        7
REMARK 921   NORMALIZED FREE ENERGY PREDICTED BY IDOCK:   -6.76 KCAL/MOL
REMARK 922        TOTAL FREE ENERGY PREDICTED BY IDOCK:   -8.39 KCAL/MOL
REMARK 923 INTER-LIGAND FREE ENERGY PREDICTED BY IDOCK:   -7.78 KCAL/MOL
REMARK 924 INTRA-LIGAND FREE ENERGY PREDICTED BY IDOCK:   -0.61 KCAL/MOL
REMARK 927      BINDING AFFINITY PREDICTED BY RF-SCORE:    0.00 PKD
ROOT
HETATM    1  C   UNL     1     -11.047  13.674  66.169  1.00  0.00    -0.295 C  
HETATM    2  C   UNL     1      -9.987  12.724  66.733  1.00  0.00    -0.237 C  
HETATM    3  C   UNL     1      -8.803  13.627  67.071  1.00  0.00    -0.233 C  
HETATM    4  C   UNL     1      -9.269  15.033  66.681  1.00  0.00    -0.276 C  
HETATM    5  N   UNL     1     -10.207  14.733  65.600  1.00  0.00    -0.334 NA 
HETATM    6  C   UNL     1      -9.940  15.741  67.860  1.00  0.00    -0.227 C  
HETATM    7  C   UNL     1     -11.340  15.212  68.220  1.00  0.00    -0.327 C  
HETATM    8  C   UNL     1     -10.916  15.877  65.048  1.00  0.00    -0.412 C  
HETATM    9  C   UNL     1     -11.977  14.179  67.280  1.00  0.00    -0.449 C  
ENDROOT
BRANCH   7  10
HETATM   10  O   UNL     1     -11.251  14.704  69.560  1.00  0.00    -0.251 OA 
BRANCH  10  11
HETATM   11  C   UNL     1     -12.371  14.972  70.297  1.00  0.00    -0.342 C  
HETATM   12  O   UNL     1     -12.905  16.073  70.342  1.00  0.00    -0.313 OA 
BRANCH  11  13
HETATM   13  C   UNL     1     -12.766  13.837  71.119  1.00  0.00    -0.438 A  
HETATM   14  C   UNL     1     -13.560  13.889  72.255  1.00  0.00    -0.544 A  
HETATM   15  N   UNL     1     -13.785  12.612  72.689  1.00  0.00    -0.670 NA 
HETATM   16  H   UNL     1     -14.341  12.363  73.508  1.00  0.00     0.000 HD 
HETATM   17  C   UNL     1     -13.155  11.712  71.862  1.00  0.00    -0.385 A  
HETATM   18  C   UNL     1     -13.120  10.314  71.913  1.00  0.00    -0.568 A  
HETATM   19  C   UNL     1     -12.402   9.647  70.915  1.00  0.00    -0.346 A  
HETATM   20  C   UNL     1     -11.753  10.352  69.905  1.00  0.00    -0.341 A  
HETATM   21  C   UNL     1     -11.800  11.748  69.868  1.00  0.00    -0.423 A  
HETATM   22  C   UNL     1     -12.507  12.450  70.869  1.00  0.00    -0.367 A  
ENDBRANCH  11  13
ENDBRANCH  10  11
ENDBRANCH   7  10
TORSDOF 3
ENDMDL
MODEL        8
REMARK 921   NORMALIZED FREE ENERGY PREDICTED BY IDOCK:   -6.69 KCAL/MOL
REMARK 922        TOTAL FREE ENERGY PREDICTED BY IDOCK:   -8.30 KCAL/MOL
REMARK 923 INTER-LIGAND FREE ENERGY PREDICTED BY IDOCK:   -7.75 KCAL/MOL
REMARK 924 INTRA-LIGAND FREE ENERGY PREDICTED BY IDOCK:   -0.55 KCAL/MOL
REMARK 927      BINDING AFFINITY PREDICTED BY RF-SCORE:    0.00 PKD
ROOT
HETATM    1  C   UNL     1     -12.406  14.055  64.480  1.00  0.00    -0.378 C  
HETATM    2  C   UNL     1     -12.105  12.670  63.900  1.00  0.00    -0.567 C  
HETATM    3  C   UNL     1     -10.620  12.451  64.179  1.00  0.00    -0.414 C  
HETATM    4  C   UNL     1     -10.174  13.724  64.904  1.00  0.00    -0.348 C  
HETATM    5  N   UNL     1     -11.101  14.710  64.346  1.00  0.00    -0.227 NA 
HETATM    6  C   UNL     1     -10.316  13.579  66.420  1.00  0.00    -0.289 C  
HETATM    7  C   UNL     1     -11.766  13.609  66.939  1.00  0.00    -0.389 C  
HETATM    8  C   UNL     1     -11.003  16.050  64.904  1.00  0.00    -0.384 C  
HETATM    9  C   UNL     1     -12.877  13.949  65.936  1.00  0.00    -0.387 C  
ENDROOT
BRANCH   7  10
HETATM   10  O   UNL     1     -12.003  12.336  67.560  1.00  0.00    -0.513 OA 
BRANCH  10  11
HETATM   11  C   UNL     1     -11.892  12.388  68.921  1.00  0.00    -0.301 C  
HETATM   12  O   UNL     1     -12.187  13.371  69.587  1.00  0.00    -0.291 OA 
BRANCH  11  13
HETATM   13  C   UNL     1     -11.256  11.194  69.461  1.00  0.00    -0.341 A  
HETATM   14  C   UNL     1      -9.974  10.751  69.173  1.00  0.00    -0.187 A  
HETATM   15  N   UNL     1      -9.707   9.655  69.946  1.00  0.00    -0.217 NA 
HETATM   16  H   UNL     1      -8.831   9.131  69.934  1.00  0.00     0.000 HD 
HETATM   17  C   UNL     1     -10.789   9.361  70.742  1.00  0.00    -0.305 A  
HETATM   18  C   UNL     1     -10.961   8.345  71.688  1.00  0.00    -0.345 A  
HETATM   19  C   UNL     1     -12.181   8.295  72.371  1.00  0.00    -0.412 A  
HETATM   20  C   UNL     1     -13.182   9.229  72.121  1.00  0.00    -0.535 A  
HETATM   21  C   UNL     1     -12.993  10.239  71.174  1.00  0.00    -0.503 A  
HETATM   22  C   UNL     1     -11.777  10.308  70.460  1.00  0.00    -0.418 A  
ENDBRANCH  11  13
ENDBRANCH  10  11
ENDBRANCH   7  10
TORSDOF 3
ENDMDL
MODEL        9
REMARK 921   NORMALIZED FREE ENERGY PREDICTED BY IDOCK:   -6.66 KCAL/MOL
REMARK 922        TOTAL FREE ENERGY PREDICTED BY IDOCK:   -8.26 KCAL/MOL
REMARK 923 INTER-LIGAND FREE ENERGY PREDICTED BY IDOCK:   -7.84 KCAL/MOL
REMARK 924 INTRA-LIGAND FREE ENERGY PREDICTED BY IDOCK:   -0.42 KCAL/MOL
REMARK 927      BINDING AFFINITY PREDICTED BY RF-SCORE:    0.00 PKD
ROOT
HETATM    1  C   UNL     1      -9.617  19.049  68.532  1.00  0.00    -0.386 C  
HETATM    2  C   UNL     1     -10.401  19.876  67.509  1.00  0.00    -0.557 C  
HETATM    3  C   UNL     1      -9.597  19.750  66.217  1.00  0.00    -0.515 C  
HETATM    4  C   UNL     1      -8.410  18.856  66.588  1.00  0.00    -0.296 C  
HETATM    5  N   UNL     1      -8.252  19.168  68.009  1.00  0.00    -0.294 NA 
HETATM    6  C   UNL     1      -8.730  17.380  66.345  1.00  0.00    -0.275 C  
HETATM    7  C   UNL     1      -9.711  16.756  67.355  1.00  0.00    -0.245 C  
HETATM    8  C   UNL     1      -7.235  18.402  68.711  1.00  0.00    -0.284 C  
HETATM    9  C   UNL     1     -10.121  17.601  68.568  1.00  0.00    -0.375 C  
ENDROOT
BRANCH   7  10
HETATM   10  O   UNL     1     -10.862  16.343  66.601  1.00  0.00    -0.229 OA 
BRANCH  10  11
HETATM   11  C   UNL     1     -11.198  15.038  66.831  1.00  0.00    -0.323 C  
HETATM   12  O   UNL     1     -11.170  14.517  67.939  1.00  0.00    -0.272 OA 
BRANCH  11  13
HETATM   13  C   UNL     1     -11.456  14.316  65.592  1.00  0.00    -0.329 A  
HETATM   14  C   UNL     1     -12.259  14.749  64.549  1.00  0.00    -0.428 A  
HETATM   15  N   UNL     1     -12.172  13.844  63.527  1.00  0.00    -1.050 NA 
HETATM   16  H   UNL     1     -12.664  13.920  62.636  1.00  0.00     0.000 HD 
HETATM   17  C   UNL     1     -11.326  12.818  63.874  1.00  0.00    -0.442 A  
HETATM   18  C   UNL     1     -10.934  11.689  63.146  1.00  0.00    -0.247 A  
HETATM   19  C   UNL     1     -10.034  10.806  63.753  1.00  0.00    -0.411 A  
HETATM   20  C   UNL     1      -9.545  11.048  65.034  1.00  0.00    -0.291 A  
HETATM   21  C   UNL     1      -9.947  12.181  65.747  1.00  0.00    -0.271 A  
HETATM   22  C   UNL     1     -10.862  13.085  65.164  1.00  0.00    -0.320 A  
ENDBRANCH  11  13
ENDBRANCH  10  11
ENDBRANCH   7  10
TORSDOF 3
ENDMDL
MODEL       10
REMARK 921   NORMALIZED FREE ENERGY PREDICTED BY IDOCK:   -6.60 KCAL/MOL
REMARK 922        TOTAL FREE ENERGY PREDICTED BY IDOCK:   -8.19 KCAL/MOL
REMARK 923 INTER-LIGAND FREE ENERGY PREDICTED BY IDOCK:   -7.68 KCAL/MOL
REMARK 924 INTRA-LIGAND FREE ENERGY PREDICTED BY IDOCK:   -0.51 KCAL/MOL
REMARK 927      BINDING AFFINITY PREDICTED BY RF-SCORE:    0.00 PKD
ROOT
HETATM    1  C   UNL     1     -10.546  13.978  64.905  1.00  0.00    -0.424 C  
HETATM    2  C   UNL     1     -11.971  14.349  64.485  1.00  0.00    -0.487 C  
HETATM    3  C   UNL     1     -12.844  13.910  65.658  1.00  0.00    -0.467 C  
HETATM    4  C   UNL     1     -11.858  13.321  66.671  1.00  0.00    -0.395 C  
HETATM    5  N   UNL     1     -10.798  12.834  65.787  1.00  0.00    -0.269 NA 
HETATM    6  C   UNL     1     -11.361  14.388  67.648  1.00  0.00    -0.348 C  
HETATM    7  C   UNL     1     -10.373  15.405  67.047  1.00  0.00    -0.280 C  
HETATM    8  C   UNL     1      -9.630  12.278  66.453  1.00  0.00    -0.237 C  
HETATM    9  C   UNL     1      -9.863  15.150  65.622  1.00  0.00    -0.378 C  
ENDROOT
BRANCH   7  10
HETATM   10  O   UNL     1     -11.001  16.692  67.147  1.00  0.00    -0.183 OA 
BRANCH  10  11
HETATM   11  C   UNL     1     -10.388  17.505  68.059  1.00  0.00    -0.368 C  
HETATM   12  O   UNL     1     -10.498  17.367  69.271  1.00  0.00    -0.341 OA 
BRANCH  11  13
HETATM   13  C   UNL     1      -9.709  18.625  67.421  1.00  0.00    -0.330 A  
HETATM   14  C   UNL     1     -10.192  19.372  66.358  1.00  0.00    -0.465 A  
HETATM   15  N   UNL     1      -9.315  20.391  66.107  1.00  0.00    -0.642 NA 
HETATM   16  H   UNL     1      -9.429  21.093  65.375  1.00  0.00     0.000 HD 
HETATM   17  C   UNL     1      -8.258  20.333  66.985  1.00  0.00    -0.318 A  
HETATM   18  C   UNL     1      -7.142  21.168  67.106  1.00  0.00    -0.319 A  
HETATM   19  C   UNL     1      -6.219  20.874  68.116  1.00  0.00    -0.374 A  
HETATM   20  C   UNL     1      -6.412  19.794  68.972  1.00  0.00    -0.357 A  
HETATM   21  C   UNL     1      -7.533  18.971  68.838  1.00  0.00    -0.364 A  
HETATM   22  C   UNL     1      -8.476  19.235  67.820  1.00  0.00    -0.340 A  
ENDBRANCH  11  13
ENDBRANCH  10  11
ENDBRANCH   7  10
TORSDOF 3
ENDMDL
MODEL       11
REMARK 921   NORMALIZED FREE ENERGY PREDICTED BY IDOCK:   -6.54 KCAL/MOL
REMARK 922        TOTAL FREE ENERGY PREDICTED BY IDOCK:   -8.12 KCAL/MOL
REMARK 923 INTER-LIGAND FREE ENERGY PREDICTED BY IDOCK:   -7.55 KCAL/MOL
REMARK 924 INTRA-LIGAND FREE ENERGY PREDICTED BY IDOCK:   -0.57 KCAL/MOL
REMARK 927      BINDING AFFINITY PREDICTED BY RF-SCORE:    0.00 PKD
ROOT
HETATM    1  C   UNL     1     -10.766   8.362  71.986  1.00  0.00    -0.317 C  
HETATM    2  C   UNL     1      -9.303   8.792  72.122  1.00  0.00    -0.277 C  
HETATM    3  C   UNL     1      -8.639   8.310  70.834  1.00  0.00    -0.152 C  
HETATM    4  C   UNL     1      -9.769   7.640  70.047  1.00  0.00    -0.172 C  
HETATM    5  N   UNL     1     -10.636   7.177  71.131  1.00  0.00    -0.222 NA 
HETATM    6  C   UNL     1     -10.470   8.639  69.124  1.00  0.00    -0.223 C  
HETATM    7  C   UNL     1     -11.370   9.661  69.841  1.00  0.00    -0.159 C  
HETATM    8  C   UNL     1     -11.883   6.554  70.716  1.00  0.00    -0.332 C  
HETATM    9  C   UNL     1     -11.607   9.473  71.346  1.00  0.00    -0.466 C  
ENDROOT
BRANCH   7  10
HETATM   10  O   UNL     1     -10.816  10.957  69.565  1.00  0.00    -0.239 OA 
BRANCH  10  11
HETATM   11  C   UNL     1     -11.588  11.683  68.701  1.00  0.00    -0.312 C  
HETATM   12  O   UNL     1     -11.920  11.286  67.592  1.00  0.00    -0.634 OA 
BRANCH  11  13
HETATM   13  C   UNL     1     -11.847  13.026  69.201  1.00  0.00    -0.360 A  
HETATM   14  C   UNL     1     -11.598  14.211  68.525  1.00  0.00    -0.316 A  
HETATM   15  N   UNL     1     -12.063  15.251  69.281  1.00  0.00    -0.524 NA 
HETATM   16  H   UNL     1     -12.008  16.235  69.017  1.00  0.00     0.000 HD 
HETATM   17  C   UNL     1     -12.617  14.778  70.448  1.00  0.00    -0.346 A  
HETATM   18  C   UNL     1     -13.219  15.472  71.504  1.00  0.00    -0.589 A  
HETATM   19  C   UNL     1     -13.716  14.719  72.573  1.00  0.00    -0.572 A  
HETATM   20  C   UNL     1     -13.620  13.330  72.579  1.00  0.00    -0.637 A  
HETATM   21  C   UNL     1     -13.016  12.654  71.516  1.00  0.00    -0.380 A  
HETATM   22  C   UNL     1     -12.495  13.387  70.428  1.00  0.00    -0.322 A  
ENDBRANCH  11  13
ENDBRANCH  10  11
ENDBRANCH   7  10
TORSDOF 3
ENDMDL
MODEL       12
REMARK 921   NORMALIZED FREE ENERGY PREDICTED BY IDOCK:   -6.51 KCAL/MOL
REMARK 922        TOTAL FREE ENERGY PREDICTED BY IDOCK:   -8.09 KCAL/MOL
REMARK 923 INTER-LIGAND FREE ENERGY PREDICTED BY IDOCK:   -7.55 KCAL/MOL
REMARK 924 INTRA-LIGAND FREE ENERGY PREDICTED BY IDOCK:   -0.54 KCAL/MOL
REMARK 927      BINDING AFFINITY PREDICTED BY RF-SCORE:    0.00 PKD
ROOT
HETATM    1  C   UNL     1     -10.304  11.936  65.876  1.00  0.00    -0.242 C  
HETATM    2  C   UNL     1     -10.519  11.878  64.361  1.00  0.00    -0.356 C  
HETATM    3  C   UNL     1     -11.899  12.494  64.144  1.00  0.00    -0.487 C  
HETATM    4  C   UNL     1     -12.378  12.866  65.550  1.00  0.00    -0.461 C  
HETATM    5  N   UNL     1     -11.686  11.865  66.362  1.00  0.00    -0.541 NA 
HETATM    6  C   UNL     1     -11.973  14.296  65.913  1.00  0.00    -0.400 C  
HETATM    7  C   UNL     1     -10.474  14.489  66.208  1.00  0.00    -0.301 C  
HETATM    8  C   UNL     1     -11.860  11.993  67.800  1.00  0.00    -0.238 C  
HETATM    9  C   UNL     1      -9.593  13.234  66.279  1.00  0.00    -0.244 C  
ENDROOT
BRANCH   7  10
HETATM   10  O   UNL     1      -9.981  15.410  65.224  1.00  0.00    -0.331 OA 
BRANCH  10  11
HETATM   11  C   UNL     1     -10.500  16.666  65.375  1.00  0.00    -0.233 C  
HETATM   12  O   UNL     1     -11.229  17.201  64.550  1.00  0.00    -1.104 OA 
BRANCH  11  13
HETATM   13  C   UNL     1      -9.975  17.333  66.559  1.00  0.00    -0.310 A  
HETATM   14  C   UNL     1     -10.698  17.669  67.693  1.00  0.00    -0.314 A  
HETATM   15  N   UNL     1      -9.838  18.191  68.620  1.00  0.00    -0.365 NA 
HETATM   16  H   UNL     1     -10.107  18.520  69.547  1.00  0.00     0.000 HD 
HETATM   17  C   UNL     1      -8.557  18.208  68.120  1.00  0.00    -0.274 A  
HETATM   18  C   UNL     1      -7.365  18.641  68.713  1.00  0.00    -0.326 A  
HETATM   19  C   UNL     1      -6.189  18.524  67.964  1.00  0.00    -0.193 A  
HETATM   20  C   UNL     1      -6.207  17.990  66.678  1.00  0.00    -0.208 A  
HETATM   21  C   UNL     1      -7.406  17.562  66.102  1.00  0.00    -0.347 A  
HETATM   22  C   UNL     1      -8.611  17.677  66.829  1.00  0.00    -0.276 A  
ENDBRANCH  11  13
ENDBRANCH  10  11
ENDBRANCH   7  10
TORSDOF 3
ENDMDL
MODEL       13
REMARK 921   NORMALIZED FREE ENERGY PREDICTED BY IDOCK:   -6.50 KCAL/MOL
REMARK 922        TOTAL FREE ENERGY PREDICTED BY IDOCK:   -8.08 KCAL/MOL
REMARK 923 INTER-LIGAND FREE ENERGY PREDICTED BY IDOCK:   -7.61 KCAL/MOL
REMARK 924 INTRA-LIGAND FREE ENERGY PREDICTED BY IDOCK:   -0.47 KCAL/MOL
REMARK 927      BINDING AFFINITY PREDICTED BY RF-SCORE:    0.00 PKD
ROOT
HETATM    1  C   UNL     1      -8.286  18.058  66.379  1.00  0.00    -0.255 C  
HETATM    2  C   UNL     1      -7.182  17.785  67.405  1.00  0.00    -0.201 C  
HETATM    3  C   UNL     1      -7.622  18.545  68.654  1.00  0.00    -0.330 C  
HETATM    4  C   UNL     1      -8.949  19.198  68.258  1.00  0.00    -0.336 C  
HETATM    5  N   UNL     1      -8.763  19.374  66.818  1.00  0.00    -0.304 NA 
HETATM    6  C   UNL     1     -10.135  18.289  68.589  1.00  0.00    -0.407 C  
HETATM    7  C   UNL     1     -10.288  17.065  67.667  1.00  0.00    -0.332 C  
HETATM    8  C   UNL     1      -9.908  19.906  66.096  1.00  0.00    -0.458 C  
HETATM    9  C   UNL     1      -9.371  16.976  66.440  1.00  0.00    -0.295 C  
ENDROOT
BRANCH   7  10
HETATM   10  O   UNL     1     -10.145  15.906  68.503  1.00  0.00    -0.210 OA 
BRANCH  10  11
HETATM   11  C   UNL     1     -11.185  15.030  68.365  1.00  0.00    -0.293 C  
HETATM   12  O   UNL     1     -11.596  14.632  67.282  1.00  0.00    -0.365 OA 
BRANCH  11  13
HETATM   13  C   UNL     1     -11.825  14.739  69.641  1.00  0.00    -0.362 A  
HETATM   14  C   UNL     1     -12.349  15.673  70.521  1.00  0.00    -0.403 A  
HETATM   15  N   UNL     1     -12.948  15.008  71.556  1.00  0.00    -0.329 NA 
HETATM   16  H   UNL     1     -13.415  15.456  72.346  1.00  0.00     0.000 HD 
HETATM   17  C   UNL     1     -12.830  13.650  71.378  1.00  0.00    -0.360 A  
HETATM   18  C   UNL     1     -13.296  12.595  72.171  1.00  0.00    -0.570 A  
HETATM   19  C   UNL     1     -13.041  11.292  71.730  1.00  0.00    -0.527 A  
HETATM   20  C   UNL     1     -12.355  11.058  70.542  1.00  0.00    -0.462 A  
HETATM   21  C   UNL     1     -11.898  12.123  69.762  1.00  0.00    -0.397 A  
HETATM   22  C   UNL     1     -12.130  13.450  70.187  1.00  0.00    -0.415 A  
ENDBRANCH  11  13
ENDBRANCH  10  11
ENDBRANCH   7  10
TORSDOF 3
ENDMDL
MODEL       14
REMARK 921   NORMALIZED FREE ENERGY PREDICTED BY IDOCK:   -6.49 KCAL/MOL
REMARK 922        TOTAL FREE ENERGY PREDICTED BY IDOCK:   -8.06 KCAL/MOL
REMARK 923 INTER-LIGAND FREE ENERGY PREDICTED BY IDOCK:   -7.68 KCAL/MOL
REMARK 924 INTRA-LIGAND FREE ENERGY PREDICTED BY IDOCK:   -0.38 KCAL/MOL
REMARK 927      BINDING AFFINITY PREDICTED BY RF-SCORE:    0.00 PKD
ROOT
HETATM    1  C   UNL     1      -9.192   7.081  71.964  1.00  0.00    -0.138 C  
HETATM    2  C   UNL     1      -9.207   6.730  70.474  1.00  0.00    -0.156 C  
HETATM    3  C   UNL     1     -10.426   5.827  70.304  1.00  0.00    -0.349 C  
HETATM    4  C   UNL     1     -11.028   5.726  71.709  1.00  0.00    -0.256 C  
HETATM    5  N   UNL     1      -9.838   5.898  72.542  1.00  0.00    -0.161 NA 
HETATM    6  C   UNL     1     -12.071   6.820  71.945  1.00  0.00    -0.375 C  
HETATM    7  C   UNL     1     -11.493   8.236  72.128  1.00  0.00    -0.361 C  
HETATM    8  C   UNL     1     -10.076   5.943  73.976  1.00  0.00    -0.249 C  
HETATM    9  C   UNL     1      -9.968   8.377  72.229  1.00  0.00    -0.383 C  
ENDROOT
BRANCH   7  10
HETATM   10  O   UNL     1     -12.015   9.031  71.052  1.00  0.00    -0.287 OA 
BRANCH  10  11
HETATM   11  C   UNL     1     -12.791  10.066  71.494  1.00  0.00    -0.432 C  
HETATM   12  O   UNL     1     -13.774   9.918  72.209  1.00  0.00    -0.356 OA 
BRANCH  11  13
HETATM   13  C   UNL     1     -12.390  11.337  70.905  1.00  0.00    -0.490 A  
HETATM   14  C   UNL     1     -11.578  11.500  69.794  1.00  0.00    -0.326 A  
HETATM   15  N   UNL     1     -11.513  12.832  69.493  1.00  0.00    -0.426 NA 
HETATM   16  H   UNL     1     -10.981  13.231  68.718  1.00  0.00     0.000 HD 
HETATM   17  C   UNL     1     -12.268  13.557  70.385  1.00  0.00    -0.356 A  
HETATM   18  C   UNL     1     -12.501  14.935  70.456  1.00  0.00    -0.419 A  
HETATM   19  C   UNL     1     -13.338  15.399  71.476  1.00  0.00    -0.586 A  
HETATM   20  C   UNL     1     -13.922  14.517  72.382  1.00  0.00    -0.580 A  
HETATM   21  C   UNL     1     -13.679  13.144  72.295  1.00  0.00    -0.647 A  
HETATM   22  C   UNL     1     -12.830  12.647  71.283  1.00  0.00    -0.344 A  
ENDBRANCH  11  13
ENDBRANCH  10  11
ENDBRANCH   7  10
TORSDOF 3
ENDMDL
MODEL       15
REMARK 921   NORMALIZED FREE ENERGY PREDICTED BY IDOCK:   -6.48 KCAL/MOL
REMARK 922        TOTAL FREE ENERGY PREDICTED BY IDOCK:   -8.05 KCAL/MOL
REMARK 923 INTER-LIGAND FREE ENERGY PREDICTED BY IDOCK:   -7.43 KCAL/MOL
REMARK 924 INTRA-LIGAND FREE ENERGY PREDICTED BY IDOCK:   -0.62 KCAL/MOL
REMARK 927      BINDING AFFINITY PREDICTED BY RF-SCORE:    0.00 PKD
ROOT
HETATM    1  C   UNL     1     -10.604  14.048  64.566  1.00  0.00    -0.309 C  
HETATM    2  C   UNL     1     -11.993  14.682  64.460  1.00  0.00    -0.473 C  
HETATM    3  C   UNL     1     -12.910  13.727  65.221  1.00  0.00    -0.430 C  
HETATM    4  C   UNL     1     -11.981  12.614  65.714  1.00  0.00    -0.446 C  
HETATM    5  N   UNL     1     -10.947  12.626  64.679  1.00  0.00    -0.298 NA 
HETATM    6  C   UNL     1     -11.424  12.931  67.103  1.00  0.00    -0.388 C  
HETATM    7  C   UNL     1     -10.358  14.042  67.134  1.00  0.00    -0.265 C  
HETATM    8  C   UNL     1      -9.830  11.720  64.895  1.00  0.00    -0.223 C  
HETATM    9  C   UNL     1      -9.849  14.582  65.790  1.00  0.00    -0.343 C  
ENDROOT
BRANCH   7  10
HETATM   10  O   UNL     1     -10.896  15.099  67.943  1.00  0.00    -0.274 OA 
BRANCH  10  11
HETATM   11  C   UNL     1     -10.241  15.230  69.136  1.00  0.00    -0.242 C  
HETATM   12  O   UNL     1      -9.022  15.246  69.241  1.00  0.00    -0.228 OA 
BRANCH  11  13
HETATM   13  C   UNL     1     -11.160  15.208  70.266  1.00  0.00    -0.289 A  
HETATM   14  C   UNL     1     -11.553  16.304  71.019  1.00  0.00    -0.303 A  
HETATM   15  N   UNL     1     -12.494  15.897  71.924  1.00  0.00    -0.452 NA 
HETATM   16  H   UNL     1     -12.953  16.506  72.604  1.00  0.00     0.000 HD 
HETATM   17  C   UNL     1     -12.733  14.550  71.786  1.00  0.00    -0.343 A  
HETATM   18  C   UNL     1     -13.614  13.717  72.483  1.00  0.00    -0.675 A  
HETATM   19  C   UNL     1     -13.661  12.368  72.112  1.00  0.00    -0.405 A  
HETATM   20  C   UNL     1     -12.861  11.879  71.083  1.00  0.00    -0.346 A  
HETATM   21  C   UNL     1     -11.988  12.726  70.396  1.00  0.00    -0.331 A  
HETATM   22  C   UNL     1     -11.911  14.090  70.755  1.00  0.00    -0.364 A  
ENDBRANCH  11  13
ENDBRANCH  10  11
ENDBRANCH   7  10
TORSDOF 3
ENDMDL
MODEL       16
REMARK 921   NORMALIZED FREE ENERGY PREDICTED BY IDOCK:   -6.45 KCAL/MOL
REMARK 922        TOTAL FREE ENERGY PREDICTED BY IDOCK:   -8.02 KCAL/MOL
REMARK 923 INTER-LIGAND FREE ENERGY PREDICTED BY IDOCK:   -7.30 KCAL/MOL
REMARK 924 INTRA-LIGAND FREE ENERGY PREDICTED BY IDOCK:   -0.72 KCAL/MOL
REMARK 927      BINDING AFFINITY PREDICTED BY RF-SCORE:    0.00 PKD
ROOT
HETATM    1  C   UNL     1     -10.554  16.854  68.420  1.00  0.00    -0.365 C  
HETATM    2  C   UNL     1     -10.653  18.073  67.498  1.00  0.00    -0.402 C  
HETATM    3  C   UNL     1      -9.396  18.004  66.634  1.00  0.00    -0.297 C  
HETATM    4  C   UNL     1      -8.666  16.748  67.118  1.00  0.00    -0.200 C  
HETATM    5  N   UNL     1      -9.100  16.685  68.514  1.00  0.00    -0.226 NA 
HETATM    6  C   UNL     1      -9.090  15.515  66.317  1.00  0.00    -0.369 C  
HETATM    7  C   UNL     1     -10.506  14.997  66.630  1.00  0.00    -0.284 C  
HETATM    8  C   UNL     1      -8.644  15.525  69.263  1.00  0.00    -0.263 C  
HETATM    9  C   UNL     1     -11.260  15.641  67.802  1.00  0.00    -0.297 C  
ENDROOT
BRANCH   7  10
HETATM   10  O   UNL     1     -11.258  15.107  65.411  1.00  0.00    -0.346 OA 
BRANCH  10  11
HETATM   11  C   UNL     1     -12.099  14.046  65.217  1.00  0.00    -0.408 C  
HETATM   12  O   UNL     1     -13.304  14.090  65.427  1.00  0.00    -0.721 OA 
BRANCH  11  13
HETATM   13  C   UNL     1     -11.372  12.833  64.868  1.00  0.00    -0.341 A  
HETATM   14  C   UNL     1     -10.772  12.565  63.647  1.00  0.00    -0.430 A  
HETATM   15  N   UNL     1     -10.109  11.373  63.739  1.00  0.00    -0.323 NA 
HETATM   16  H   UNL     1      -9.580  10.938  62.982  1.00  0.00     0.000 HD 
HETATM   17  C   UNL     1     -10.258  10.844  65.000  1.00  0.00    -0.303 A  
HETATM   18  C   UNL     1      -9.750   9.660  65.545  1.00  0.00    -0.372 A  
HETATM   19  C   UNL     1     -10.054   9.378  66.882  1.00  0.00    -0.314 A  
HETATM   20  C   UNL     1     -10.828  10.252  67.640  1.00  0.00    -0.363 A  
HETATM   21  C   UNL     1     -11.326  11.431  67.080  1.00  0.00    -0.327 A  
HETATM   22  C   UNL     1     -11.045  11.737  65.731  1.00  0.00    -0.351 A  
ENDBRANCH  11  13
ENDBRANCH  10  11
ENDBRANCH   7  10
TORSDOF 3
ENDMDL
MODEL       17
REMARK 921   NORMALIZED FREE ENERGY PREDICTED BY IDOCK:   -6.45 KCAL/MOL
REMARK 922        TOTAL FREE ENERGY PREDICTED BY IDOCK:   -8.02 KCAL/MOL
REMARK 923 INTER-LIGAND FREE ENERGY PREDICTED BY IDOCK:   -7.55 KCAL/MOL
REMARK 924 INTRA-LIGAND FREE ENERGY PREDICTED BY IDOCK:   -0.47 KCAL/MOL
REMARK 927      BINDING AFFINITY PREDICTED BY RF-SCORE:    0.00 PKD
ROOT
HETATM    1  C   UNL     1     -10.835   6.245  72.370  1.00  0.00    -0.243 C  
HETATM    2  C   UNL     1     -10.535   6.724  73.793  1.00  0.00    -0.383 C  
HETATM    3  C   UNL     1      -9.309   7.621  73.647  1.00  0.00    -0.344 C  
HETATM    4  C   UNL     1      -8.992   7.597  72.149  1.00  0.00    -0.133 C  
HETATM    5  N   UNL     1      -9.496   6.277  71.771  1.00  0.00    -0.151 NA 
HETATM    6  C   UNL     1      -9.710   8.730  71.412  1.00  0.00    -0.351 C  
HETATM    7  C   UNL     1     -11.229   8.535  71.250  1.00  0.00    -0.265 C  
HETATM    8  C   UNL     1      -9.427   5.959  70.354  1.00  0.00    -0.163 C  
HETATM    9  C   UNL     1     -11.825   7.185  71.672  1.00  0.00    -0.340 C  
ENDROOT
BRANCH   7  10
HETATM   10  O   UNL     1     -11.857   9.619  71.953  1.00  0.00    -0.367 OA 
BRANCH  10  11
HETATM   11  C   UNL     1     -12.820  10.238  71.207  1.00  0.00    -0.422 C  
HETATM   12  O   UNL     1     -13.869   9.702  70.875  1.00  0.00    -0.173 OA 
BRANCH  11  13
HETATM   13  C   UNL     1     -12.390  11.551  70.745  1.00  0.00    -0.472 A  
HETATM   14  C   UNL     1     -11.540  11.802  69.678  1.00  0.00    -0.323 A  
HETATM   15  N   UNL     1     -11.454  13.155  69.498  1.00  0.00    -0.408 NA 
HETATM   16  H   UNL     1     -10.894  13.614  68.778  1.00  0.00     0.000 HD 
HETATM   17  C   UNL     1     -12.232  13.807  70.426  1.00  0.00    -0.363 A  
HETATM   18  C   UNL     1     -12.455  15.176  70.610  1.00  0.00    -0.442 A  
HETATM   19  C   UNL     1     -13.321  15.558  71.641  1.00  0.00    -0.585 A  
HETATM   20  C   UNL     1     -13.941  14.607  72.446  1.00  0.00    -0.578 A  
HETATM   21  C   UNL     1     -13.708  13.244  72.247  1.00  0.00    -0.686 A  
HETATM   22  C   UNL     1     -12.830  12.828  71.222  1.00  0.00    -0.355 A  
ENDBRANCH  11  13
ENDBRANCH  10  11
ENDBRANCH   7  10
TORSDOF 3
ENDMDL
MODEL       18
REMARK 921   NORMALIZED FREE ENERGY PREDICTED BY IDOCK:   -6.43 KCAL/MOL
REMARK 922        TOTAL FREE ENERGY PREDICTED BY IDOCK:   -8.00 KCAL/MOL
REMARK 923 INTER-LIGAND FREE ENERGY PREDICTED BY IDOCK:   -7.53 KCAL/MOL
REMARK 924 INTRA-LIGAND FREE ENERGY PREDICTED BY IDOCK:   -0.46 KCAL/MOL
REMARK 927      BINDING AFFINITY PREDICTED BY RF-SCORE:    0.00 PKD
ROOT
HETATM    1  C   UNL     1      -9.417  20.035  66.583  1.00  0.00    -0.404 C  
HETATM    2  C   UNL     1      -8.041  19.835  65.943  1.00  0.00    -0.263 C  
HETATM    3  C   UNL     1      -7.311  18.887  66.891  1.00  0.00    -0.224 C  
HETATM    4  C   UNL     1      -8.321  18.605  68.006  1.00  0.00    -0.277 C  
HETATM    5  N   UNL     1      -9.103  19.842  68.002  1.00  0.00    -0.324 NA 
HETATM    6  C   UNL     1      -9.172  17.374  67.687  1.00  0.00    -0.234 C  
HETATM    7  C   UNL     1     -10.222  17.584  66.580  1.00  0.00    -0.342 C  
HETATM    8  C   UNL     1     -10.236  19.872  68.913  1.00  0.00    -0.292 C  
HETATM    9  C   UNL     1     -10.424  19.009  66.048  1.00  0.00    -0.530 C  
ENDROOT
BRANCH   7  10
HETATM   10  O   UNL     1      -9.879  16.680  65.517  1.00  0.00    -0.549 OA 
BRANCH  10  11
HETATM   11  C   UNL     1     -10.966  16.012  65.028  1.00  0.00    -0.380 C  
HETATM   12  O   UNL     1     -11.724  16.476  64.186  1.00  0.00    -0.998 OA 
BRANCH  11  13
HETATM   13  C   UNL     1     -11.188  14.751  65.723  1.00  0.00    -0.337 A  
HETATM   14  C   UNL     1     -11.920  14.580  66.888  1.00  0.00    -0.346 A  
HETATM   15  N   UNL     1     -11.979  13.244  67.174  1.00  0.00    -0.367 NA 
HETATM   16  H   UNL     1     -12.459  12.840  67.979  1.00  0.00     0.000 HD 
HETATM   17  C   UNL     1     -11.298  12.525  66.220  1.00  0.00    -0.338 A  
HETATM   18  C   UNL     1     -11.106  11.144  66.102  1.00  0.00    -0.152 A  
HETATM   19  C   UNL     1     -10.372  10.684  65.002  1.00  0.00    -0.341 A  
HETATM   20  C   UNL     1      -9.861  11.571  64.059  1.00  0.00    -0.306 A  
HETATM   21  C   UNL     1     -10.064  12.947  64.192  1.00  0.00    -0.212 A  
HETATM   22  C   UNL     1     -10.790  13.442  65.297  1.00  0.00    -0.318 A  
ENDBRANCH  11  13
ENDBRANCH  10  11
ENDBRANCH   7  10
TORSDOF 3
ENDMDL
MODEL       19
REMARK 921   NORMALIZED FREE ENERGY PREDICTED BY IDOCK:   -6.43 KCAL/MOL
REMARK 922        TOTAL FREE ENERGY PREDICTED BY IDOCK:   -8.00 KCAL/MOL
REMARK 923 INTER-LIGAND FREE ENERGY PREDICTED BY IDOCK:   -7.27 KCAL/MOL
REMARK 924 INTRA-LIGAND FREE ENERGY PREDICTED BY IDOCK:   -0.72 KCAL/MOL
REMARK 927      BINDING AFFINITY PREDICTED BY RF-SCORE:    0.00 PKD
ROOT
HETATM    1  C   UNL     1     -12.031  12.649  66.429  1.00  0.00    -0.357 C  
HETATM    2  C   UNL     1     -11.877  12.819  67.942  1.00  0.00    -0.392 C  
HETATM    3  C   UNL     1     -10.369  12.887  68.170  1.00  0.00    -0.243 C  
HETATM    4  C   UNL     1      -9.763  12.755  66.770  1.00  0.00    -0.243 C  
HETATM    5  N   UNL     1     -10.783  11.955  66.092  1.00  0.00    -0.268 NA 
HETATM    6  C   UNL     1      -9.565  14.126  66.119  1.00  0.00    -0.278 C  
HETATM    7  C   UNL     1     -10.862  14.816  65.659  1.00  0.00    -0.339 C  
HETATM    8  C   UNL     1     -10.555  11.714  64.676  1.00  0.00    -0.312 C  
HETATM    9  C   UNL     1     -12.166  14.010  65.735  1.00  0.00    -0.475 C  
ENDROOT
BRANCH   7  10
HETATM   10  O   UNL     1     -10.965  16.035  66.412  1.00  0.00    -0.218 OA 
BRANCH  10  11
HETATM   11  C   UNL     1     -10.871  17.147  65.623  1.00  0.00    -0.049 C  
HETATM   12  O   UNL     1     -11.225  17.178  64.451  1.00  0.00    -1.143 OA 
BRANCH  11  13
HETATM   13  C   UNL     1     -10.179  18.236  66.298  1.00  0.00    -0.414 A  
HETATM   14  C   UNL     1     -10.769  19.375  66.824  1.00  0.00    -0.448 A  
HETATM   15  N   UNL     1      -9.807  20.110  67.461  1.00  0.00    -0.412 NA 
HETATM   16  H   UNL     1      -9.971  20.998  67.937  1.00  0.00     0.000 HD 
HETATM   17  C   UNL     1      -8.589  19.480  67.365  1.00  0.00    -0.304 A  
HETATM   18  C   UNL     1      -7.339  19.857  67.870  1.00  0.00    -0.326 A  
HETATM   19  C   UNL     1      -6.259  19.000  67.630  1.00  0.00    -0.209 A  
HETATM   20  C   UNL     1      -6.427  17.815  66.921  1.00  0.00    -0.203 A  
HETATM   21  C   UNL     1      -7.682  17.454  66.425  1.00  0.00    -0.343 A  
HETATM   22  C   UNL     1      -8.789  18.303  66.641  1.00  0.00    -0.294 A  
ENDBRANCH  11  13
ENDBRANCH  10  11
ENDBRANCH   7  10
TORSDOF 3
ENDMDL
MODEL       20
REMARK 921   NORMALIZED FREE ENERGY PREDICTED BY IDOCK:   -6.42 KCAL/MOL
REMARK 922        TOTAL FREE ENERGY PREDICTED BY IDOCK:   -7.98 KCAL/MOL
REMARK 923 INTER-LIGAND FREE ENERGY PREDICTED BY IDOCK:   -7.56 KCAL/MOL
REMARK 924 INTRA-LIGAND FREE ENERGY PREDICTED BY IDOCK:   -0.43 KCAL/MOL
REMARK 927      BINDING AFFINITY PREDICTED BY RF-SCORE:    0.00 PKD
ROOT
HETATM    1  C   UNL     1      -9.790  19.018  68.400  1.00  0.00    -0.392 C  
HETATM    2  C   UNL     1     -10.802  19.585  67.400  1.00  0.00    -0.536 C  
HETATM    3  C   UNL     1     -10.362  19.026  66.049  1.00  0.00    -0.512 C  
HETATM    4  C   UNL     1      -9.130  18.175  66.369  1.00  0.00    -0.241 C  
HETATM    5  N   UNL     1      -8.605  18.863  67.548  1.00  0.00    -0.273 NA 
HETATM    6  C   UNL     1      -9.519  16.724  66.662  1.00  0.00    -0.275 C  
HETATM    7  C   UNL     1     -10.212  16.502  68.019  1.00  0.00    -0.271 C  
HETATM    8  C   UNL     1      -7.450  18.242  68.176  1.00  0.00    -0.263 C  
HETATM    9  C   UNL     1     -10.283  17.691  68.987  1.00  0.00    -0.314 C  
ENDROOT
BRANCH   7  10
HETATM   10  O   UNL     1     -11.524  15.995  67.727  1.00  0.00    -0.228 OA 
BRANCH  10  11
HETATM   11  C   UNL     1     -11.817  14.864  68.437  1.00  0.00    -0.278 C  
HETATM   12  O   UNL     1     -12.029  14.856  69.642  1.00  0.00    -0.296 OA 
BRANCH  11  13
HETATM   13  C   UNL     1     -11.711  13.664  67.616  1.00  0.00    -0.398 A  
HETATM   14  C   UNL     1     -11.564  12.368  68.084  1.00  0.00    -0.341 A  
HETATM   15  N   UNL     1     -11.599  11.513  67.016  1.00  0.00    -0.535 NA 
HETATM   16  H   UNL     1     -11.514  10.498  67.078  1.00  0.00     0.000 HD 
HETATM   17  C   UNL     1     -11.766  12.219  65.849  1.00  0.00    -0.389 A  
HETATM   18  C   UNL     1     -11.867  11.766  64.529  1.00  0.00    -0.235 A  
HETATM   19  C   UNL     1     -12.052  12.724  63.526  1.00  0.00    -0.642 A  
HETATM   20  C   UNL     1     -12.139  14.079  63.836  1.00  0.00    -0.350 A  
HETATM   21  C   UNL     1     -12.037  14.514  65.160  1.00  0.00    -0.363 A  
HETATM   22  C   UNL     1     -11.839  13.571  66.192  1.00  0.00    -0.426 A  
ENDBRANCH  11  13
ENDBRANCH  10  11
ENDBRANCH   7  10
TORSDOF 3
ENDMDL
MODEL       21
REMARK 921   NORMALIZED FREE ENERGY PREDICTED BY IDOCK:   -6.39 KCAL/MOL
REMARK 922        TOTAL FREE ENERGY PREDICTED BY IDOCK:   -7.95 KCAL/MOL
REMARK 923 INTER-LIGAND FREE ENERGY PREDICTED BY IDOCK:   -7.33 KCAL/MOL
REMARK 924 INTRA-LIGAND FREE ENERGY PREDICTED BY IDOCK:   -0.62 KCAL/MOL
REMARK 927      BINDING AFFINITY PREDICTED BY RF-SCORE:    0.00 PKD
ROOT
HETATM    1  C   UNL     1      -9.129  16.109  66.701  1.00  0.00    -0.252 C  
HETATM    2  C   UNL     1      -8.247  14.907  67.048  1.00  0.00    -0.228 C  
HETATM    3  C   UNL     1      -8.590  14.587  68.501  1.00  0.00    -0.175 C  
HETATM    4  C   UNL     1      -9.647  15.626  68.884  1.00  0.00    -0.224 C  
HETATM    5  N   UNL     1      -9.277  16.743  68.015  1.00  0.00    -0.224 NA 
HETATM    6  C   UNL     1     -11.060  15.109  68.605  1.00  0.00    -0.276 C  
HETATM    7  C   UNL     1     -11.442  15.046  67.114  1.00  0.00    -0.297 C  
HETATM    8  C   UNL     1     -10.160  17.898  68.066  1.00  0.00    -0.358 C  
HETATM    9  C   UNL     1     -10.464  15.655  66.100  1.00  0.00    -0.327 C  
ENDROOT
BRANCH   7  10
HETATM   10  O   UNL     1     -11.700  13.665  66.818  1.00  0.00    -0.351 OA 
BRANCH  10  11
HETATM   11  C   UNL     1     -12.431  13.502  65.675  1.00  0.00    -0.479 C  
HETATM   12  O   UNL     1     -13.516  14.036  65.483  1.00  0.00    -0.677 OA 
BRANCH  11  13
HETATM   13  C   UNL     1     -11.834  12.518  64.782  1.00  0.00    -0.440 A  
HETATM   14  C   UNL     1     -12.283  12.191  63.512  1.00  0.00    -0.567 A  
HETATM   15  N   UNL     1     -11.407  11.300  62.956  1.00  0.00    -0.827 NA 
HETATM   16  H   UNL     1     -11.499  10.895  62.023  1.00  0.00     0.000 HD 
HETATM   17  C   UNL     1     -10.385  11.029  63.835  1.00  0.00    -0.372 A  
HETATM   18  C   UNL     1      -9.272  10.194  63.690  1.00  0.00    -0.320 A  
HETATM   19  C   UNL     1      -8.371  10.123  64.759  1.00  0.00    -0.167 A  
HETATM   20  C   UNL     1      -8.577  10.863  65.920  1.00  0.00    -0.179 A  
HETATM   21  C   UNL     1      -9.694  11.693  66.047  1.00  0.00    -0.257 A  
HETATM   22  C   UNL     1     -10.625  11.777  64.989  1.00  0.00    -0.338 A  
ENDBRANCH  11  13
ENDBRANCH  10  11
ENDBRANCH   7  10
TORSDOF 3
ENDMDL
MODEL       22
REMARK 921   NORMALIZED FREE ENERGY PREDICTED BY IDOCK:   -6.38 KCAL/MOL
REMARK 922        TOTAL FREE ENERGY PREDICTED BY IDOCK:   -7.94 KCAL/MOL
REMARK 923 INTER-LIGAND FREE ENERGY PREDICTED BY IDOCK:   -7.37 KCAL/MOL
REMARK 924 INTRA-LIGAND FREE ENERGY PREDICTED BY IDOCK:   -0.57 KCAL/MOL
REMARK 927      BINDING AFFINITY PREDICTED BY RF-SCORE:    0.00 PKD
ROOT
HETATM    1  C   UNL     1     -10.441  13.351  64.456  1.00  0.00    -0.413 C  
HETATM    2  C   UNL     1     -11.884  13.560  63.989  1.00  0.00    -0.476 C  
HETATM    3  C   UNL     1     -12.718  12.670  64.907  1.00  0.00    -0.450 C  
HETATM    4  C   UNL     1     -11.695  12.016  65.841  1.00  0.00    -0.242 C  
HETATM    5  N   UNL     1     -10.508  11.985  64.986  1.00  0.00    -0.276 NA 
HETATM    6  C   UNL     1     -11.485  12.851  67.106  1.00  0.00    -0.388 C  
HETATM    7  C   UNL     1     -10.688  14.152  66.896  1.00  0.00    -0.286 C  
HETATM    8  C   UNL     1      -9.294  11.488  65.615  1.00  0.00    -0.204 C  
HETATM    9  C   UNL     1     -10.054  14.387  65.519  1.00  0.00    -0.382 C  
ENDROOT
BRANCH   7  10
HETATM   10  O   UNL     1     -11.570  15.230  67.249  1.00  0.00    -0.286 OA 
BRANCH  10  11
HETATM   11  C   UNL     1     -11.332  15.711  68.506  1.00  0.00    -0.360 C  
HETATM   12  O   UNL     1     -12.110  15.575  69.441  1.00  0.00    -0.336 OA 
BRANCH  11  13
HETATM   13  C   UNL     1     -10.118  16.514  68.560  1.00  0.00    -0.255 A  
HETATM   14  C   UNL     1      -8.881  16.092  69.022  1.00  0.00    -0.251 A  
HETATM   15  N   UNL     1      -7.975  17.097  68.823  1.00  0.00    -0.266 NA 
HETATM   16  H   UNL     1      -6.986  17.051  69.073  1.00  0.00     0.000 HD 
HETATM   17  C   UNL     1      -8.589  18.179  68.237  1.00  0.00    -0.288 A  
HETATM   18  C   UNL     1      -8.056  19.413  67.845  1.00  0.00    -0.333 A  
HETATM   19  C   UNL     1      -8.926  20.334  67.250  1.00  0.00    -0.472 A  
HETATM   20  C   UNL     1     -10.269  20.028  67.051  1.00  0.00    -0.587 A  
HETATM   21  C   UNL     1     -10.783  18.790  67.447  1.00  0.00    -0.487 A  
HETATM   22  C   UNL     1      -9.933  17.845  68.061  1.00  0.00    -0.333 A  
ENDBRANCH  11  13
ENDBRANCH  10  11
ENDBRANCH   7  10
TORSDOF 3
ENDMDL
MODEL       23
REMARK 921   NORMALIZED FREE ENERGY PREDICTED BY IDOCK:   -6.36 KCAL/MOL
REMARK 922        TOTAL FREE ENERGY PREDICTED BY IDOCK:   -7.92 KCAL/MOL
REMARK 923 INTER-LIGAND FREE ENERGY PREDICTED BY IDOCK:   -7.24 KCAL/MOL
REMARK 924 INTRA-LIGAND FREE ENERGY PREDICTED BY IDOCK:   -0.68 KCAL/MOL
REMARK 927      BINDING AFFINITY PREDICTED BY RF-SCORE:    0.00 PKD
ROOT
HETATM    1  C   UNL     1      -9.289  16.907  68.363  1.00  0.00    -0.255 C  
HETATM    2  C   UNL     1     -10.421  17.924  68.532  1.00  0.00    -0.312 C  
HETATM    3  C   UNL     1     -10.725  18.400  67.114  1.00  0.00    -0.366 C  
HETATM    4  C   UNL     1      -9.749  17.618  66.229  1.00  0.00    -0.263 C  
HETATM    5  N   UNL     1      -8.633  17.410  67.152  1.00  0.00    -0.215 NA 
HETATM    6  C   UNL     1     -10.366  16.303  65.749  1.00  0.00    -0.393 C  
HETATM    7  C   UNL     1     -10.493  15.216  66.832  1.00  0.00    -0.282 C  
HETATM    8  C   UNL     1      -7.538  16.599  66.641  1.00  0.00    -0.279 C  
HETATM    9  C   UNL     1      -9.847  15.488  68.198  1.00  0.00    -0.216 C  
ENDROOT
BRANCH   7  10
HETATM   10  O   UNL     1     -11.896  14.941  66.971  1.00  0.00    -0.327 OA 
BRANCH  10  11
HETATM   11  C   UNL     1     -12.320  13.948  66.132  1.00  0.00    -0.465 C  
HETATM   12  O   UNL     1     -13.285  14.058  65.387  1.00  0.00    -0.761 OA 
BRANCH  11  13
HETATM   13  C   UNL     1     -11.577  12.712  66.334  1.00  0.00    -0.441 A  
HETATM   14  C   UNL     1     -11.554  11.955  67.495  1.00  0.00    -0.304 A  
HETATM   15  N   UNL     1     -10.825  10.821  67.263  1.00  0.00    -0.278 NA 
HETATM   16  H   UNL     1     -10.649  10.088  67.951  1.00  0.00     0.000 HD 
HETATM   17  C   UNL     1     -10.364  10.812  65.967  1.00  0.00    -0.238 A  
HETATM   18  C   UNL     1      -9.594   9.858  65.293  1.00  0.00    -0.361 A  
HETATM   19  C   UNL     1      -9.281  10.108  63.952  1.00  0.00    -0.322 A  
HETATM   20  C   UNL     1      -9.727  11.262  63.314  1.00  0.00    -0.405 A  
HETATM   21  C   UNL     1     -10.496  12.204  64.003  1.00  0.00    -0.418 A  
HETATM   22  C   UNL     1     -10.818  11.985  65.360  1.00  0.00    -0.336 A  
ENDBRANCH  11  13
ENDBRANCH  10  11
ENDBRANCH   7  10
TORSDOF 3
ENDMDL
MODEL       24
REMARK 921   NORMALIZED FREE ENERGY PREDICTED BY IDOCK:   -6.29 KCAL/MOL
REMARK 922        TOTAL FREE ENERGY PREDICTED BY IDOCK:   -7.83 KCAL/MOL
REMARK 923 INTER-LIGAND FREE ENERGY PREDICTED BY IDOCK:   -7.29 KCAL/MOL
REMARK 924 INTRA-LIGAND FREE ENERGY PREDICTED BY IDOCK:   -0.55 KCAL/MOL
REMARK 927      BINDING AFFINITY PREDICTED BY RF-SCORE:    0.00 PKD
ROOT
HETATM    1  C   UNL     1     -11.771  14.084  65.692  1.00  0.00    -0.354 C  
HETATM    2  C   UNL     1     -12.178  12.701  65.178  1.00  0.00    -0.539 C  
HETATM    3  C   UNL     1     -10.947  11.827  65.412  1.00  0.00    -0.352 C  
HETATM    4  C   UNL     1      -9.922  12.770  66.048  1.00  0.00    -0.271 C  
HETATM    5  N   UNL     1     -10.321  14.055  65.473  1.00  0.00    -0.322 NA 
HETATM    6  C   UNL     1     -10.026  12.755  67.574  1.00  0.00    -0.210 C  
HETATM    7  C   UNL     1     -11.264  13.470  68.145  1.00  0.00    -0.272 C  
HETATM    8  C   UNL     1      -9.584  15.214  65.951  1.00  0.00    -0.338 C  
HETATM    9  C   UNL     1     -12.151  14.254  67.168  1.00  0.00    -0.412 C  
ENDROOT
BRANCH   7  10
HETATM   10  O   UNL     1     -12.025  12.471  68.844  1.00  0.00    -0.299 OA 
BRANCH  10  11
HETATM   11  C   UNL     1     -12.116  12.725  70.184  1.00  0.00    -0.298 C  
HETATM   12  O   UNL     1     -11.867  13.813  70.686  1.00  0.00    -0.283 OA 
BRANCH  11  13
HETATM   13  C   UNL     1     -12.407  11.518  70.947  1.00  0.00    -0.460 A  
HETATM   14  C   UNL     1     -13.375  11.390  71.931  1.00  0.00    -0.304 A  
HETATM   15  N   UNL     1     -13.408  10.086  72.342  1.00  0.00    -0.595 NA 
HETATM   16  H   UNL     1     -14.033   9.715  73.060  1.00  0.00     0.000 HD 
HETATM   17  C   UNL     1     -12.478   9.347  71.650  1.00  0.00    -0.378 A  
HETATM   18  C   UNL     1     -12.171   7.984  71.730  1.00  0.00    -0.352 A  
HETATM   19  C   UNL     1     -11.174   7.493  70.879  1.00  0.00    -0.286 A  
HETATM   20  C   UNL     1     -10.519   8.332  69.982  1.00  0.00    -0.231 A  
HETATM   21  C   UNL     1     -10.840   9.690  69.914  1.00  0.00    -0.287 A  
HETATM   22  C   UNL     1     -11.834  10.217  70.768  1.00  0.00    -0.443 A  
ENDBRANCH  11  13
ENDBRANCH  10  11
ENDBRANCH   7  10
TORSDOF 3
ENDMDL
MODEL       25
REMARK 921   NORMALIZED FREE ENERGY PREDICTED BY IDOCK:   -6.28 KCAL/MOL
REMARK 922        TOTAL FREE ENERGY PREDICTED BY IDOCK:   -7.82 KCAL/MOL
REMARK 923 INTER-LIGAND FREE ENERGY PREDICTED BY IDOCK:   -7.33 KCAL/MOL
REMARK 924 INTRA-LIGAND FREE ENERGY PREDICTED BY IDOCK:   -0.49 KCAL/MOL
REMARK 927      BINDING AFFINITY PREDICTED BY RF-SCORE:    0.00 PKD
ROOT
HETATM    1  C   UNL     1     -10.589   7.763  72.357  1.00  0.00    -0.278 C  
HETATM    2  C   UNL     1      -9.247   8.431  72.669  1.00  0.00    -0.325 C  
HETATM    3  C   UNL     1      -8.435   8.280  71.384  1.00  0.00    -0.172 C  
HETATM    4  C   UNL     1      -9.370   7.539  70.424  1.00  0.00    -0.161 C  
HETATM    5  N   UNL     1     -10.186   6.766  71.360  1.00  0.00    -0.198 NA 
HETATM    6  C   UNL     1     -10.202   8.519  69.594  1.00  0.00    -0.209 C  
HETATM    7  C   UNL     1     -11.321   9.237  70.370  1.00  0.00    -0.242 C  
HETATM    8  C   UNL     1     -11.264   5.993  70.764  1.00  0.00    -0.269 C  
HETATM    9  C   UNL     1     -11.595   8.784  71.811  1.00  0.00    -0.416 C  
ENDROOT
BRANCH   7  10
HETATM   10  O   UNL     1     -11.015  10.640  70.321  1.00  0.00    -0.273 OA 
BRANCH  10  11
HETATM   11  C   UNL     1     -12.063  11.388  69.864  1.00  0.00    -0.330 C  
HETATM   12  O   UNL     1     -12.386  11.453  68.685  1.00  0.00    -0.491 OA 
BRANCH  11  13
HETATM   13  C   UNL     1     -12.655  12.197  70.921  1.00  0.00    -0.340 A  
HETATM   14  C   UNL     1     -13.486  11.737  71.931  1.00  0.00    -0.176 A  
HETATM   15  N   UNL     1     -13.755  12.775  72.780  1.00  0.00    -0.698 NA 
HETATM   16  H   UNL     1     -14.344  12.711  73.612  1.00  0.00     0.000 HD 
HETATM   17  C   UNL     1     -13.118  13.915  72.352  1.00  0.00    -0.436 A  
HETATM   18  C   UNL     1     -13.099  15.199  72.909  1.00  0.00    -0.577 A  
HETATM   19  C   UNL     1     -12.340  16.177  72.257  1.00  0.00    -0.538 A  
HETATM   20  C   UNL     1     -11.625  15.878  71.100  1.00  0.00    -0.481 A  
HETATM   21  C   UNL     1     -11.655  14.591  70.559  1.00  0.00    -0.295 A  
HETATM   22  C   UNL     1     -12.421  13.585  71.188  1.00  0.00    -0.424 A  
ENDBRANCH  11  13
ENDBRANCH  10  11
ENDBRANCH   7  10
TORSDOF 3
ENDMDL
MODEL       26
REMARK 921   NORMALIZED FREE ENERGY PREDICTED BY IDOCK:   -6.23 KCAL/MOL
REMARK 922        TOTAL FREE ENERGY PREDICTED BY IDOCK:   -7.76 KCAL/MOL
REMARK 923 INTER-LIGAND FREE ENERGY PREDICTED BY IDOCK:   -7.24 KCAL/MOL
REMARK 924 INTRA-LIGAND FREE ENERGY PREDICTED BY IDOCK:   -0.52 KCAL/MOL
REMARK 927      BINDING AFFINITY PREDICTED BY RF-SCORE:    0.00 PKD
ROOT
HETATM    1  C   UNL     1     -10.366   7.512  69.779  1.00  0.00    -0.221 C  
HETATM    2  C   UNL     1     -11.762   6.883  69.803  1.00  0.00    -0.142 C  
HETATM    3  C   UNL     1     -12.280   7.149  71.214  1.00  0.00    -0.403 C  
HETATM    4  C   UNL     1     -11.146   7.917  71.901  1.00  0.00    -0.267 C  
HETATM    5  N   UNL     1      -9.978   7.397  71.189  1.00  0.00    -0.185 NA 
HETATM    6  C   UNL     1     -11.314   9.428  71.726  1.00  0.00    -0.387 C  
HETATM    7  C   UNL     1     -11.016   9.952  70.309  1.00  0.00    -0.309 C  
HETATM    8  C   UNL     1      -8.704   8.000  71.547  1.00  0.00    -0.136 C  
HETATM    9  C   UNL     1     -10.428   8.965  69.291  1.00  0.00    -0.234 C  
ENDROOT
BRANCH   7  10
HETATM   10  O   UNL     1     -12.238  10.528  69.823  1.00  0.00    -0.266 OA 
BRANCH  10  11
HETATM   11  C   UNL     1     -12.021  11.517  68.904  1.00  0.00    -0.299 C  
HETATM   12  O   UNL     1     -12.013  11.329  67.695  1.00  0.00    -0.634 OA 
BRANCH  11  13
HETATM   13  C   UNL     1     -11.667  12.780  69.539  1.00  0.00    -0.383 A  
HETATM   14  C   UNL     1     -10.738  13.696  69.070  1.00  0.00    -0.165 A  
HETATM   15  N   UNL     1     -10.759  14.794  69.885  1.00  0.00    -0.434 NA 
HETATM   16  H   UNL     1     -10.172  15.621  69.766  1.00  0.00     0.000 HD 
HETATM   17  C   UNL     1     -11.684  14.623  70.887  1.00  0.00    -0.280 A  
HETATM   18  C   UNL     1     -12.050  15.481  71.930  1.00  0.00    -0.489 A  
HETATM   19  C   UNL     1     -13.050  15.046  72.807  1.00  0.00    -0.549 A  
HETATM   20  C   UNL     1     -13.661  13.806  72.640  1.00  0.00    -0.617 A  
HETATM   21  C   UNL     1     -13.284  12.963  71.592  1.00  0.00    -0.416 A  
HETATM   22  C   UNL     1     -12.270  13.370  70.697  1.00  0.00    -0.427 A  
ENDBRANCH  11  13
ENDBRANCH  10  11
ENDBRANCH   7  10
TORSDOF 3
ENDMDL
MODEL       27
REMARK 921   NORMALIZED FREE ENERGY PREDICTED BY IDOCK:   -6.22 KCAL/MOL
REMARK 922        TOTAL FREE ENERGY PREDICTED BY IDOCK:   -7.75 KCAL/MOL
REMARK 923 INTER-LIGAND FREE ENERGY PREDICTED BY IDOCK:   -7.21 KCAL/MOL
REMARK 924 INTRA-LIGAND FREE ENERGY PREDICTED BY IDOCK:   -0.54 KCAL/MOL
REMARK 927      BINDING AFFINITY PREDICTED BY RF-SCORE:    0.00 PKD
ROOT
HETATM    1  C   UNL     1     -10.054  17.028  67.017  1.00  0.00    -0.295 C  
HETATM    2  C   UNL     1     -10.564  15.750  66.345  1.00  0.00    -0.307 C  
HETATM    3  C   UNL     1      -9.741  14.630  66.977  1.00  0.00    -0.247 C  
HETATM    4  C   UNL     1      -8.820  15.343  67.970  1.00  0.00    -0.165 C  
HETATM    5  N   UNL     1      -8.672  16.652  67.333  1.00  0.00    -0.189 NA 
HETATM    6  C   UNL     1      -9.463  15.436  69.356  1.00  0.00    -0.267 C  
HETATM    7  C   UNL     1     -10.618  16.448  69.466  1.00  0.00    -0.320 C  
HETATM    8  C   UNL     1      -7.904  17.633  68.083  1.00  0.00    -0.257 C  
HETATM    9  C   UNL     1     -10.885  17.362  68.262  1.00  0.00    -0.256 C  
ENDROOT
BRANCH   7  10
HETATM   10  O   UNL     1     -11.790  15.693  69.811  1.00  0.00    -0.332 OA 
BRANCH  10  11
HETATM   11  C   UNL     1     -12.017  15.665  71.158  1.00  0.00    -0.409 C  
HETATM   12  O   UNL     1     -11.744  16.591  71.911  1.00  0.00    -0.458 OA 
BRANCH  11  13
HETATM   13  C   UNL     1     -12.490  14.360  71.603  1.00  0.00    -0.427 A  
HETATM   14  C   UNL     1     -13.247  14.111  72.738  1.00  0.00    -0.509 A  
HETATM   15  N   UNL     1     -13.573  12.783  72.761  1.00  0.00    -0.684 NA 
HETATM   16  H   UNL     1     -14.128  12.330  73.488  1.00  0.00     0.000 HD 
HETATM   17  C   UNL     1     -13.046  12.146  71.662  1.00  0.00    -0.310 A  
HETATM   18  C   UNL     1     -13.133  10.805  71.271  1.00  0.00    -0.427 A  
HETATM   19  C   UNL     1     -12.501  10.436  70.078  1.00  0.00    -0.186 A  
HETATM   20  C   UNL     1     -11.819  11.373  69.308  1.00  0.00    -0.417 A  
HETATM   21  C   UNL     1     -11.743  12.708  69.713  1.00  0.00    -0.354 A  
HETATM   22  C   UNL     1     -12.360  13.109  70.918  1.00  0.00    -0.393 A  
ENDBRANCH  11  13
ENDBRANCH  10  11
ENDBRANCH   7  10
TORSDOF 3
ENDMDL
MODEL       28
REMARK 921   NORMALIZED FREE ENERGY PREDICTED BY IDOCK:   -6.21 KCAL/MOL
REMARK 922        TOTAL FREE ENERGY PREDICTED BY IDOCK:   -7.73 KCAL/MOL
REMARK 923 INTER-LIGAND FREE ENERGY PREDICTED BY IDOCK:   -7.19 KCAL/MOL
REMARK 924 INTRA-LIGAND FREE ENERGY PREDICTED BY IDOCK:   -0.54 KCAL/MOL
REMARK 927      BINDING AFFINITY PREDICTED BY RF-SCORE:    0.00 PKD
ROOT
HETATM    1  C   UNL     1     -12.599  13.954  65.181  1.00  0.00    -0.434 C  
HETATM    2  C   UNL     1     -12.889  12.661  64.414  1.00  0.00    -0.344 C  
HETATM    3  C   UNL     1     -11.537  12.240  63.844  1.00  0.00    -0.525 C  
HETATM    4  C   UNL     1     -10.564  13.319  64.327  1.00  0.00    -0.384 C  
HETATM    5  N   UNL     1     -11.452  14.477  64.432  1.00  0.00    -0.316 NA 
HETATM    6  C   UNL     1      -9.936  12.940  65.670  1.00  0.00    -0.245 C  
HETATM    7  C   UNL     1     -10.885  13.039  66.879  1.00  0.00    -0.264 C  
HETATM    8  C   UNL     1     -10.846  15.688  64.964  1.00  0.00    -0.450 C  
HETATM    9  C   UNL     1     -12.271  13.658  66.650  1.00  0.00    -0.437 C  
ENDROOT
BRANCH   7  10
HETATM   10  O   UNL     1     -10.996  11.713  67.420  1.00  0.00    -0.231 OA 
BRANCH  10  11
HETATM   11  C   UNL     1     -10.374  11.589  68.631  1.00  0.00    -0.210 C  
HETATM   12  O   UNL     1      -9.161  11.487  68.762  1.00  0.00    -0.161 OA 
BRANCH  11  13
HETATM   13  C   UNL     1     -11.330  11.454  69.722  1.00  0.00    -0.332 A  
HETATM   14  C   UNL     1     -12.141  12.460  70.224  1.00  0.00    -0.297 A  
HETATM   15  N   UNL     1     -12.965  11.923  71.174  1.00  0.00    -0.250 NA 
HETATM   16  H   UNL     1     -13.664  12.445  71.703  1.00  0.00     0.000 HD 
HETATM   17  C   UNL     1     -12.716  10.578  71.311  1.00  0.00    -0.428 A  
HETATM   18  C   UNL     1     -13.320   9.631  72.146  1.00  0.00    -0.545 A  
HETATM   19  C   UNL     1     -12.868   8.309  72.061  1.00  0.00    -0.369 A  
HETATM   20  C   UNL     1     -11.859   7.952  71.171  1.00  0.00    -0.307 A  
HETATM   21  C   UNL     1     -11.268   8.910  70.343  1.00  0.00    -0.259 A  
HETATM   22  C   UNL     1     -11.695  10.254  70.414  1.00  0.00    -0.404 A  
ENDBRANCH  11  13
ENDBRANCH  10  11
ENDBRANCH   7  10
TORSDOF 3
ENDMDL
MODEL       29
REMARK 921   NORMALIZED FREE ENERGY PREDICTED BY IDOCK:   -6.14 KCAL/MOL
REMARK 922        TOTAL FREE ENERGY PREDICTED BY IDOCK:   -7.66 KCAL/MOL
REMARK 923 INTER-LIGAND FREE ENERGY PREDICTED BY IDOCK:   -7.01 KCAL/MOL
REMARK 924 INTRA-LIGAND FREE ENERGY PREDICTED BY IDOCK:   -0.65 KCAL/MOL
REMARK 927      BINDING AFFINITY PREDICTED BY RF-SCORE:    0.00 PKD
ROOT
HETATM    1  C   UNL     1      -8.345  17.166  66.366  1.00  0.00    -0.280 C  
HETATM    2  C   UNL     1      -7.354  16.623  67.398  1.00  0.00    -0.189 C  
HETATM    3  C   UNL     1      -8.057  16.809  68.741  1.00  0.00    -0.252 C  
HETATM    4  C   UNL     1      -9.404  17.443  68.384  1.00  0.00    -0.285 C  
HETATM    5  N   UNL     1      -9.063  18.168  67.160  1.00  0.00    -0.252 NA 
HETATM    6  C   UNL     1     -10.476  16.375  68.153  1.00  0.00    -0.302 C  
HETATM    7  C   UNL     1     -10.327  15.585  66.840  1.00  0.00    -0.290 C  
HETATM    8  C   UNL     1     -10.173  18.831  66.492  1.00  0.00    -0.413 C  
HETATM    9  C   UNL     1      -9.258  16.050  65.842  1.00  0.00    -0.321 C  
ENDROOT
BRANCH   7  10
HETATM   10  O   UNL     1     -10.123  14.212  67.211  1.00  0.00    -0.251 OA 
BRANCH  10  11
HETATM   11  C   UNL     1     -11.100  13.388  66.726  1.00  0.00    -0.292 C  
HETATM   12  O   UNL     1     -11.669  13.569  65.658  1.00  0.00    -0.319 OA 
BRANCH  11  13
HETATM   13  C   UNL     1     -11.471  12.359  67.688  1.00  0.00    -0.399 A  
HETATM   14  C   UNL     1     -11.342  10.990  67.509  1.00  0.00    -0.257 A  
HETATM   15  N   UNL     1     -11.705  10.363  68.669  1.00  0.00    -0.642 NA 
HETATM   16  H   UNL     1     -11.703   9.352  68.811  1.00  0.00     0.000 HD 
HETATM   17  C   UNL     1     -12.074  11.290  69.614  1.00  0.00    -0.322 A  
HETATM   18  C   UNL     1     -12.502  11.109  70.934  1.00  0.00    -0.509 A  
HETATM   19  C   UNL     1     -12.800  12.253  71.682  1.00  0.00    -0.378 A  
HETATM   20  C   UNL     1     -12.666  13.525  71.131  1.00  0.00    -0.425 A  
HETATM   21  C   UNL     1     -12.235  13.688  69.812  1.00  0.00    -0.350 A  
HETATM   22  C   UNL     1     -11.938  12.551  69.029  1.00  0.00    -0.280 A  
ENDBRANCH  11  13
ENDBRANCH  10  11
ENDBRANCH   7  10
TORSDOF 3
ENDMDL
MODEL       30
REMARK 921   NORMALIZED FREE ENERGY PREDICTED BY IDOCK:   -6.12 KCAL/MOL
REMARK 922        TOTAL FREE ENERGY PREDICTED BY IDOCK:   -7.63 KCAL/MOL
REMARK 923 INTER-LIGAND FREE ENERGY PREDICTED BY IDOCK:   -6.91 KCAL/MOL
REMARK 924 INTRA-LIGAND FREE ENERGY PREDICTED BY IDOCK:   -0.73 KCAL/MOL
REMARK 927      BINDING AFFINITY PREDICTED BY RF-SCORE:    0.00 PKD
ROOT
HETATM    1  C   UNL     1      -8.927  16.721  68.775  1.00  0.00    -0.254 C  
HETATM    2  C   UNL     1     -10.010  17.801  68.726  1.00  0.00    -0.367 C  
HETATM    3  C   UNL     1     -10.028  18.261  67.270  1.00  0.00    -0.343 C  
HETATM    4  C   UNL     1      -8.956  17.409  66.585  1.00  0.00    -0.252 C  
HETATM    5  N   UNL     1      -8.037  17.160  67.696  1.00  0.00    -0.177 NA 
HETATM    6  C   UNL     1      -9.552  16.118  66.018  1.00  0.00    -0.381 C  
HETATM    7  C   UNL     1      -9.933  15.064  67.073  1.00  0.00    -0.242 C  
HETATM    8  C   UNL     1      -6.917  16.280  67.399  1.00  0.00    -0.174 C  
HETATM    9  C   UNL     1      -9.527  15.331  68.529  1.00  0.00    -0.200 C  
ENDROOT
BRANCH   7  10
HETATM   10  O   UNL     1     -11.351  14.869  66.960  1.00  0.00    -0.343 OA 
BRANCH  10  11
HETATM   11  C   UNL     1     -11.689  13.551  66.821  1.00  0.00    -0.391 C  
HETATM   12  O   UNL     1     -12.045  12.841  67.753  1.00  0.00    -0.314 OA 
BRANCH  11  13
HETATM   13  C   UNL     1     -11.443  13.067  65.469  1.00  0.00    -0.352 A  
HETATM   14  C   UNL     1     -11.964  13.606  64.303  1.00  0.00    -0.445 A  
HETATM   15  N   UNL     1     -11.427  12.938  63.237  1.00  0.00    -0.778 NA 
HETATM   16  H   UNL     1     -11.640  13.134  62.258  1.00  0.00     0.000 HD 
HETATM   17  C   UNL     1     -10.560  11.965  63.675  1.00  0.00    -0.446 A  
HETATM   18  C   UNL     1      -9.784  11.057  62.946  1.00  0.00    -0.353 A  
HETATM   19  C   UNL     1      -8.968  10.178  63.666  1.00  0.00    -0.269 A  
HETATM   20  C   UNL     1      -8.927  10.214  65.057  1.00  0.00    -0.227 A  
HETATM   21  C   UNL     1      -9.707  11.129  65.769  1.00  0.00    -0.266 A  
HETATM   22  C   UNL     1     -10.549  12.021  65.070  1.00  0.00    -0.332 A  
ENDBRANCH  11  13
ENDBRANCH  10  11
ENDBRANCH   7  10
TORSDOF 3
ENDMDL
MODEL       31
REMARK 921   NORMALIZED FREE ENERGY PREDICTED BY IDOCK:   -6.11 KCAL/MOL
REMARK 922        TOTAL FREE ENERGY PREDICTED BY IDOCK:   -7.62 KCAL/MOL
REMARK 923 INTER-LIGAND FREE ENERGY PREDICTED BY IDOCK:   -6.91 KCAL/MOL
REMARK 924 INTRA-LIGAND FREE ENERGY PREDICTED BY IDOCK:   -0.71 KCAL/MOL
REMARK 927      BINDING AFFINITY PREDICTED BY RF-SCORE:    0.00 PKD
ROOT
HETATM    1  C   UNL     1      -8.435  18.353  66.343  1.00  0.00    -0.245 C  
HETATM    2  C   UNL     1      -7.307  18.441  67.375  1.00  0.00    -0.221 C  
HETATM    3  C   UNL     1      -7.995  18.897  68.659  1.00  0.00    -0.381 C  
HETATM    4  C   UNL     1      -9.471  19.036  68.275  1.00  0.00    -0.348 C  
HETATM    5  N   UNL     1      -9.366  19.365  66.853  1.00  0.00    -0.314 NA 
HETATM    6  C   UNL     1     -10.234  17.732  68.519  1.00  0.00    -0.382 C  
HETATM    7  C   UNL     1      -9.922  16.604  67.519  1.00  0.00    -0.264 C  
HETATM    8  C   UNL     1     -10.629  19.482  66.140  1.00  0.00    -0.487 C  
HETATM    9  C   UNL     1      -9.040  16.944  66.310  1.00  0.00    -0.302 C  
ENDROOT
BRANCH   7  10
HETATM   10  O   UNL     1      -9.357  15.527  68.283  1.00  0.00    -0.188 OA 
BRANCH  10  11
HETATM   11  C   UNL     1     -10.167  14.426  68.314  1.00  0.00    -0.241 C  
HETATM   12  O   UNL     1     -10.901  14.152  69.255  1.00  0.00    -0.244 OA 
BRANCH  11  13
HETATM   13  C   UNL     1      -9.948  13.557  67.165  1.00  0.00    -0.246 A  
HETATM   14  C   UNL     1      -8.809  12.807  66.915  1.00  0.00    -0.194 A  
HETATM   15  N   UNL     1      -9.022  12.051  65.796  1.00  0.00    -0.423 NA 
HETATM   16  H   UNL     1      -8.343  11.405  65.390  1.00  0.00     0.000 HD 
HETATM   17  C   UNL     1     -10.281  12.285  65.298  1.00  0.00    -0.278 A  
HETATM   18  C   UNL     1     -10.927  11.732  64.187  1.00  0.00    -0.437 A  
HETATM   19  C   UNL     1     -12.236  12.152  63.922  1.00  0.00    -0.587 A  
HETATM   20  C   UNL     1     -12.871  13.080  64.742  1.00  0.00    -0.336 A  
HETATM   21  C   UNL     1     -12.212  13.621  65.849  1.00  0.00    -0.502 A  
HETATM   22  C   UNL     1     -10.887  13.226  66.135  1.00  0.00    -0.290 A  
ENDBRANCH  11  13
ENDBRANCH  10  11
ENDBRANCH   7  10
TORSDOF 3
ENDMDL
MODEL       32
REMARK 921   NORMALIZED FREE ENERGY PREDICTED BY IDOCK:   -6.10 KCAL/MOL
REMARK 922        TOTAL FREE ENERGY PREDICTED BY IDOCK:   -7.61 KCAL/MOL
REMARK 923 INTER-LIGAND FREE ENERGY PREDICTED BY IDOCK:   -6.88 KCAL/MOL
REMARK 924 INTRA-LIGAND FREE ENERGY PREDICTED BY IDOCK:   -0.73 KCAL/MOL
REMARK 927      BINDING AFFINITY PREDICTED BY RF-SCORE:    0.00 PKD
ROOT
HETATM    1  C   UNL     1      -9.294  12.389  66.572  1.00  0.00    -0.233 C  
HETATM    2  C   UNL     1     -10.610  12.974  66.053  1.00  0.00    -0.292 C  
HETATM    3  C   UNL     1     -11.293  11.811  65.338  1.00  0.00    -0.284 C  
HETATM    4  C   UNL     1     -10.323  10.638  65.500  1.00  0.00    -0.227 C  
HETATM    5  N   UNL     1      -9.040  11.338  65.581  1.00  0.00    -0.208 NA 
HETATM    6  C   UNL     1     -10.631   9.833  66.764  1.00  0.00    -0.208 C  
HETATM    7  C   UNL     1     -10.249  10.529  68.084  1.00  0.00    -0.162 C  
HETATM    8  C   UNL     1      -7.880  10.497  65.832  1.00  0.00    -0.151 C  
HETATM    9  C   UNL     1      -9.461  11.843  67.996  1.00  0.00    -0.197 C  
ENDROOT
BRANCH   7  10
HETATM   10  O   UNL     1     -11.471  10.709  68.818  1.00  0.00    -0.266 OA 
BRANCH  10  11
HETATM   11  C   UNL     1     -11.298  10.560  70.165  1.00  0.00    -0.323 C  
HETATM   12  O   UNL     1     -10.509   9.768  70.664  1.00  0.00    -0.289 OA 
BRANCH  11  13
HETATM   13  C   UNL     1     -12.256  11.350  70.927  1.00  0.00    -0.447 A  
HETATM   14  C   UNL     1     -13.074  10.882  71.944  1.00  0.00    -0.432 A  
HETATM   15  N   UNL     1     -13.757  11.941  72.476  1.00  0.00    -0.362 NA 
HETATM   16  H   UNL     1     -14.429  11.877  73.242  1.00  0.00     0.000 HD 
HETATM   17  C   UNL     1     -13.408  13.103  71.830  1.00  0.00    -0.455 A  
HETATM   18  C   UNL     1     -13.841  14.416  72.044  1.00  0.00    -0.567 A  
HETATM   19  C   UNL     1     -13.295  15.419  71.234  1.00  0.00    -0.598 A  
HETATM   20  C   UNL     1     -12.350  15.117  70.258  1.00  0.00    -0.398 A  
HETATM   21  C   UNL     1     -11.927  13.800  70.059  1.00  0.00    -0.407 A  
HETATM   22  C   UNL     1     -12.469  12.766  70.853  1.00  0.00    -0.373 A  
ENDBRANCH  11  13
ENDBRANCH  10  11
ENDBRANCH   7  10
TORSDOF 3
ENDMDL
MODEL       33
REMARK 921   NORMALIZED FREE ENERGY PREDICTED BY IDOCK:   -6.08 KCAL/MOL
REMARK 922        TOTAL FREE ENERGY PREDICTED BY IDOCK:   -7.58 KCAL/MOL
REMARK 923 INTER-LIGAND FREE ENERGY PREDICTED BY IDOCK:   -6.84 KCAL/MOL
REMARK 924 INTRA-LIGAND FREE ENERGY PREDICTED BY IDOCK:   -0.74 KCAL/MOL
REMARK 927      BINDING AFFINITY PREDICTED BY RF-SCORE:    0.00 PKD
ROOT
HETATM    1  C   UNL     1     -10.923  11.784  66.225  1.00  0.00    -0.300 C  
HETATM    2  C   UNL     1     -11.455  12.447  64.951  1.00  0.00    -0.378 C  
HETATM    3  C   UNL     1     -12.334  13.590  65.452  1.00  0.00    -0.517 C  
HETATM    4  C   UNL     1     -12.242  13.506  66.978  1.00  0.00    -0.303 C  
HETATM    5  N   UNL     1     -12.006  12.075  67.170  1.00  0.00    -0.598 NA 
HETATM    6  C   UNL     1     -11.096  14.366  67.513  1.00  0.00    -0.312 C  
HETATM    7  C   UNL     1      -9.687  13.805  67.245  1.00  0.00    -0.242 C  
HETATM    8  C   UNL     1     -11.778  11.655  68.544  1.00  0.00    -0.315 C  
HETATM    9  C   UNL     1      -9.581  12.397  66.643  1.00  0.00    -0.230 C  
ENDROOT
BRANCH   7  10
HETATM   10  O   UNL     1      -9.014  14.770  66.422  1.00  0.00    -0.259 OA 
BRANCH  10  11
HETATM   11  C   UNL     1      -7.968  15.369  67.066  1.00  0.00    -0.224 C  
HETATM   12  O   UNL     1      -7.276  14.805  67.903  1.00  0.00    -0.123 OA 
BRANCH  11  13
HETATM   13  C   UNL     1      -7.866  16.785  66.738  1.00  0.00    -0.281 A  
HETATM   14  C   UNL     1      -6.972  17.352  65.843  1.00  0.00    -0.106 A  
HETATM   15  N   UNL     1      -7.251  18.687  65.735  1.00  0.00    -0.459 NA 
HETATM   16  H   UNL     1      -6.743  19.344  65.141  1.00  0.00     0.000 HD 
HETATM   17  C   UNL     1      -8.313  19.016  66.544  1.00  0.00    -0.305 A  
HETATM   18  C   UNL     1      -8.944  20.249  66.744  1.00  0.00    -0.394 A  
HETATM   19  C   UNL     1     -10.028  20.286  67.628  1.00  0.00    -0.551 A  
HETATM   20  C   UNL     1     -10.465  19.135  68.276  1.00  0.00    -0.377 A  
HETATM   21  C   UNL     1      -9.824  17.911  68.063  1.00  0.00    -0.320 A  
HETATM   22  C   UNL     1      -8.720  17.845  67.186  1.00  0.00    -0.248 A  
ENDBRANCH  11  13
ENDBRANCH  10  11
ENDBRANCH   7  10
TORSDOF 3
ENDMDL
MODEL       34
REMARK 921   NORMALIZED FREE ENERGY PREDICTED BY IDOCK:   -6.07 KCAL/MOL
REMARK 922        TOTAL FREE ENERGY PREDICTED BY IDOCK:   -7.57 KCAL/MOL
REMARK 923 INTER-LIGAND FREE ENERGY PREDICTED BY IDOCK:   -6.96 KCAL/MOL
REMARK 924 INTRA-LIGAND FREE ENERGY PREDICTED BY IDOCK:   -0.61 KCAL/MOL
REMARK 927      BINDING AFFINITY PREDICTED BY RF-SCORE:    0.00 PKD
ROOT
HETATM    1  C   UNL     1     -12.400  14.118  64.359  1.00  0.00    -0.381 C  
HETATM    2  C   UNL     1     -12.118  12.753  63.726  1.00  0.00    -0.596 C  
HETATM    3  C   UNL     1     -10.646  12.486  64.030  1.00  0.00    -0.451 C  
HETATM    4  C   UNL     1     -10.187  13.715  64.820  1.00  0.00    -0.337 C  
HETATM    5  N   UNL     1     -11.076  14.746  64.285  1.00  0.00    -0.082 NA 
HETATM    6  C   UNL     1     -10.370  13.507  66.325  1.00  0.00    -0.293 C  
HETATM    7  C   UNL     1     -11.831  13.551  66.810  1.00  0.00    -0.406 C  
HETATM    8  C   UNL     1     -10.961  16.058  64.902  1.00  0.00    -0.384 C  
HETATM    9  C   UNL     1     -12.909  13.961  65.797  1.00  0.00    -0.437 C  
ENDROOT
BRANCH   7  10
HETATM   10  O   UNL     1     -12.113  12.258  67.369  1.00  0.00    -0.533 OA 
BRANCH  10  11
HETATM   11  C   UNL     1     -11.690  12.144  68.663  1.00  0.00    -0.330 C  
HETATM   12  O   UNL     1     -11.546  13.098  69.416  1.00  0.00    -0.280 OA 
BRANCH  11  13
HETATM   13  C   UNL     1     -11.303  10.778  68.990  1.00  0.00    -0.349 A  
HETATM   14  C   UNL     1     -11.539  10.129  70.192  1.00  0.00    -0.277 A  
HETATM   15  N   UNL     1     -11.115   8.833  70.080  1.00  0.00    -0.373 NA 
HETATM   16  H   UNL     1     -11.172   8.133  70.820  1.00  0.00     0.000 HD 
HETATM   17  C   UNL     1     -10.602   8.611  68.824  1.00  0.00    -0.140 A  
HETATM   18  C   UNL     1     -10.068   7.445  68.263  1.00  0.00    -0.201 A  
HETATM   19  C   UNL     1      -9.629   7.506  66.936  1.00  0.00    -0.242 A  
HETATM   20  C   UNL     1      -9.726   8.684  66.202  1.00  0.00    -0.292 A  
HETATM   21  C   UNL     1     -10.263   9.839  66.777  1.00  0.00    -0.300 A  
HETATM   22  C   UNL     1     -10.705   9.811  68.118  1.00  0.00    -0.280 A  
ENDBRANCH  11  13
ENDBRANCH  10  11
ENDBRANCH   7  10
TORSDOF 3
ENDMDL
MODEL       35
REMARK 921   NORMALIZED FREE ENERGY PREDICTED BY IDOCK:   -6.05 KCAL/MOL
REMARK 922        TOTAL FREE ENERGY PREDICTED BY IDOCK:   -7.55 KCAL/MOL
REMARK 923 INTER-LIGAND FREE ENERGY PREDICTED BY IDOCK:   -6.89 KCAL/MOL
REMARK 924 INTRA-LIGAND FREE ENERGY PREDICTED BY IDOCK:   -0.67 KCAL/MOL
REMARK 927      BINDING AFFINITY PREDICTED BY RF-SCORE:    0.00 PKD
ROOT
HETATM    1  C   UNL     1     -12.337  13.684  64.698  1.00  0.00    -0.371 C  
HETATM    2  C   UNL     1     -12.408  12.244  64.183  1.00  0.00    -0.546 C  
HETATM    3  C   UNL     1     -10.984  11.713  64.332  1.00  0.00    -0.399 C  
HETATM    4  C   UNL     1     -10.197  12.884  64.926  1.00  0.00    -0.275 C  
HETATM    5  N   UNL     1     -10.943  14.026  64.398  1.00  0.00    -0.332 NA 
HETATM    6  C   UNL     1     -10.203  12.837  66.455  1.00  0.00    -0.261 C  
HETATM    7  C   UNL     1     -11.547  13.211  67.108  1.00  0.00    -0.361 C  
HETATM    8  C   UNL     1     -10.497  15.333  64.855  1.00  0.00    -0.302 C  
HETATM    9  C   UNL     1     -12.659  13.747  66.197  1.00  0.00    -0.423 C  
ENDROOT
BRANCH   7  10
HETATM   10  O   UNL     1     -11.986  12.049  67.830  1.00  0.00    -0.538 OA 
BRANCH  10  11
HETATM   11  C   UNL     1     -11.936  12.225  69.184  1.00  0.00    -0.249 C  
HETATM   12  O   UNL     1     -11.851  13.321  69.723  1.00  0.00    -0.308 OA 
BRANCH  11  13
HETATM   13  C   UNL     1     -11.856  10.955  69.895  1.00  0.00    -0.427 A  
HETATM   14  C   UNL     1     -12.879  10.359  70.616  1.00  0.00    -0.313 A  
HETATM   15  N   UNL     1     -12.450   9.136  71.052  1.00  0.00    -0.458 NA 
HETATM   16  H   UNL     1     -13.007   8.485  71.607  1.00  0.00     0.000 HD 
HETATM   17  C   UNL     1     -11.160   8.909  70.633  1.00  0.00    -0.262 A  
HETATM   18  C   UNL     1     -10.331   7.800  70.833  1.00  0.00    -0.208 A  
HETATM   19  C   UNL     1      -9.050   7.838  70.269  1.00  0.00    -0.152 A  
HETATM   20  C   UNL     1      -8.625   8.939  69.530  1.00  0.00    -0.134 A  
HETATM   21  C   UNL     1      -9.467  10.037  69.339  1.00  0.00    -0.237 A  
HETATM   22  C   UNL     1     -10.760  10.032  69.905  1.00  0.00    -0.328 A  
ENDBRANCH  11  13
ENDBRANCH  10  11
ENDBRANCH   7  10
TORSDOF 3
ENDMDL
MODEL       36
REMARK 921   NORMALIZED FREE ENERGY PREDICTED BY IDOCK:   -6.01 KCAL/MOL
REMARK 922        TOTAL FREE ENERGY PREDICTED BY IDOCK:   -7.51 KCAL/MOL
REMARK 923 INTER-LIGAND FREE ENERGY PREDICTED BY IDOCK:   -6.85 KCAL/MOL
REMARK 924 INTRA-LIGAND FREE ENERGY PREDICTED BY IDOCK:   -0.66 KCAL/MOL
REMARK 927      BINDING AFFINITY PREDICTED BY RF-SCORE:    0.00 PKD
ROOT
HETATM    1  C   UNL     1      -9.761  14.923  66.428  1.00  0.00    -0.285 C  
HETATM    2  C   UNL     1      -8.921  13.679  66.725  1.00  0.00    -0.196 C  
HETATM    3  C   UNL     1      -9.422  13.191  68.083  1.00  0.00    -0.222 C  
HETATM    4  C   UNL     1     -10.518  14.189  68.468  1.00  0.00    -0.252 C  
HETATM    5  N   UNL     1     -10.057  15.397  67.785  1.00  0.00    -0.226 NA 
HETATM    6  C   UNL     1     -11.889  13.724  67.974  1.00  0.00    -0.408 C  
HETATM    7  C   UNL     1     -12.104  13.843  66.454  1.00  0.00    -0.455 C  
HETATM    8  C   UNL     1     -10.942  16.548  67.875  1.00  0.00    -0.288 C  
HETATM    9  C   UNL     1     -11.021  14.558  65.634  1.00  0.00    -0.323 C  
ENDROOT
BRANCH   7  10
HETATM   10  O   UNL     1     -12.323  12.510  65.968  1.00  0.00    -0.615 OA 
BRANCH  10  11
HETATM   11  C   UNL     1     -12.110  12.402  64.622  1.00  0.00    -0.415 C  
HETATM   12  O   UNL     1     -12.913  12.777  63.777  1.00  0.00    -0.676 OA 
BRANCH  11  13
HETATM   13  C   UNL     1     -10.889  11.667  64.321  1.00  0.00    -0.418 A  
HETATM   14  C   UNL     1     -10.077  11.854  63.213  1.00  0.00    -0.396 A  
HETATM   15  N   UNL     1      -8.979  11.047  63.335  1.00  0.00    -0.368 NA 
HETATM   16  H   UNL     1      -8.219  10.988  62.657  1.00  0.00     0.000 HD 
HETATM   17  C   UNL     1      -9.048  10.329  64.505  1.00  0.00    -0.234 A  
HETATM   18  C   UNL     1      -8.151   9.399  65.044  1.00  0.00    -0.129 A  
HETATM   19  C   UNL     1      -8.476   8.826  66.279  1.00  0.00    -0.130 A  
HETATM   20  C   UNL     1      -9.646   9.177  66.947  1.00  0.00    -0.233 A  
HETATM   21  C   UNL     1     -10.529  10.108  66.395  1.00  0.00    -0.210 A  
HETATM   22  C   UNL     1     -10.234  10.695  65.145  1.00  0.00    -0.368 A  
ENDBRANCH  11  13
ENDBRANCH  10  11
ENDBRANCH   7  10
TORSDOF 3
ENDMDL
MODEL       37
REMARK 921   NORMALIZED FREE ENERGY PREDICTED BY IDOCK:   -6.01 KCAL/MOL
REMARK 922        TOTAL FREE ENERGY PREDICTED BY IDOCK:   -7.50 KCAL/MOL
REMARK 923 INTER-LIGAND FREE ENERGY PREDICTED BY IDOCK:   -7.05 KCAL/MOL
REMARK 924 INTRA-LIGAND FREE ENERGY PREDICTED BY IDOCK:   -0.46 KCAL/MOL
REMARK 927      BINDING AFFINITY PREDICTED BY RF-SCORE:    0.00 PKD
ROOT
HETATM    1  C   UNL     1      -9.815   9.615  67.119  1.00  0.00    -0.186 C  
HETATM    2  C   UNL     1      -8.828   9.795  68.276  1.00  0.00    -0.119 C  
HETATM    3  C   UNL     1      -7.920  10.940  67.832  1.00  0.00    -0.111 C  
HETATM    4  C   UNL     1      -8.452  11.339  66.453  1.00  0.00    -0.169 C  
HETATM    5  N   UNL     1      -9.007  10.069  65.982  1.00  0.00    -0.144 NA 
HETATM    6  C   UNL     1      -9.513  12.436  66.563  1.00  0.00    -0.242 C  
HETATM    7  C   UNL     1     -10.871  11.969  67.120  1.00  0.00    -0.253 C  
HETATM    8  C   UNL     1      -9.689  10.118  64.699  1.00  0.00    -0.309 C  
HETATM    9  C   UNL     1     -11.074  10.463  67.336  1.00  0.00    -0.297 C  
ENDROOT
BRANCH   7  10
HETATM   10  O   UNL     1     -11.084  12.698  68.339  1.00  0.00    -0.235 OA 
BRANCH  10  11
HETATM   11  C   UNL     1     -11.795  13.849  68.143  1.00  0.00    -0.372 C  
HETATM   12  O   UNL     1     -12.361  14.124  67.093  1.00  0.00    -0.370 OA 
BRANCH  11  13
HETATM   13  C   UNL     1     -11.680  14.758  69.275  1.00  0.00    -0.347 A  
HETATM   14  C   UNL     1     -11.122  16.027  69.249  1.00  0.00    -0.331 A  
HETATM   15  N   UNL     1     -11.288  16.602  70.479  1.00  0.00    -0.451 NA 
HETATM   16  H   UNL     1     -10.969  17.537  70.734  1.00  0.00     0.000 HD 
HETATM   17  C   UNL     1     -11.945  15.737  71.321  1.00  0.00    -0.434 A  
HETATM   18  C   UNL     1     -12.335  15.902  72.655  1.00  0.00    -0.581 A  
HETATM   19  C   UNL     1     -13.015  14.843  73.268  1.00  0.00    -0.635 A  
HETATM   20  C   UNL     1     -13.297  13.672  72.569  1.00  0.00    -0.638 A  
HETATM   21  C   UNL     1     -12.901  13.525  71.238  1.00  0.00    -0.420 A  
HETATM   22  C   UNL     1     -12.204  14.572  70.596  1.00  0.00    -0.401 A  
ENDBRANCH  11  13
ENDBRANCH  10  11
ENDBRANCH   7  10
TORSDOF 3
ENDMDL
MODEL       38
REMARK 921   NORMALIZED FREE ENERGY PREDICTED BY IDOCK:   -5.97 KCAL/MOL
REMARK 922        TOTAL FREE ENERGY PREDICTED BY IDOCK:   -7.46 KCAL/MOL
REMARK 923 INTER-LIGAND FREE ENERGY PREDICTED BY IDOCK:   -6.95 KCAL/MOL
REMARK 924 INTRA-LIGAND FREE ENERGY PREDICTED BY IDOCK:   -0.50 KCAL/MOL
REMARK 927      BINDING AFFINITY PREDICTED BY RF-SCORE:    0.00 PKD
ROOT
HETATM    1  C   UNL     1      -9.050  17.645  66.336  1.00  0.00    -0.234 C  
HETATM    2  C   UNL     1      -7.808  17.012  66.968  1.00  0.00    -0.223 C  
HETATM    3  C   UNL     1      -8.111  16.980  68.464  1.00  0.00    -0.251 C  
HETATM    4  C   UNL     1      -9.508  17.594  68.586  1.00  0.00    -0.284 C  
HETATM    5  N   UNL     1      -9.525  18.495  67.433  1.00  0.00    -0.281 NA 
HETATM    6  C   UNL     1     -10.595  16.520  68.505  1.00  0.00    -0.318 C  
HETATM    7  C   UNL     1     -10.813  15.924  67.102  1.00  0.00    -0.267 C  
HETATM    8  C   UNL     1     -10.781  19.191  67.198  1.00  0.00    -0.471 C  
HETATM    9  C   UNL     1     -10.066  16.571  65.928  1.00  0.00    -0.359 C  
ENDROOT
BRANCH   7  10
HETATM   10  O   UNL     1     -10.505  14.525  67.201  1.00  0.00    -0.264 OA 
BRANCH  10  11
HETATM   11  C   UNL     1     -11.557  13.731  66.840  1.00  0.00    -0.370 C  
HETATM   12  O   UNL     1     -12.535  14.139  66.228  1.00  0.00    -0.466 OA 
BRANCH  11  13
HETATM   13  C   UNL     1     -11.437  12.386  67.388  1.00  0.00    -0.418 A  
HETATM   14  C   UNL     1     -12.034  11.922  68.550  1.00  0.00    -0.212 A  
HETATM   15  N   UNL     1     -11.764  10.588  68.676  1.00  0.00    -0.637 NA 
HETATM   16  H   UNL     1     -12.085   9.997  69.444  1.00  0.00     0.000 HD 
HETATM   17  C   UNL     1     -10.997  10.157  67.619  1.00  0.00    -0.268 A  
HETATM   18  C   UNL     1     -10.498   8.882  67.330  1.00  0.00    -0.348 A  
HETATM   19  C   UNL     1      -9.749   8.730  66.157  1.00  0.00    -0.320 A  
HETATM   20  C   UNL     1      -9.518   9.809  65.309  1.00  0.00    -0.343 A  
HETATM   21  C   UNL     1     -10.025  11.075  65.613  1.00  0.00    -0.299 A  
HETATM   22  C   UNL     1     -10.775  11.262  66.795  1.00  0.00    -0.323 A  
ENDBRANCH  11  13
ENDBRANCH  10  11
ENDBRANCH   7  10
TORSDOF 3
ENDMDL
MODEL       39
REMARK 921   NORMALIZED FREE ENERGY PREDICTED BY IDOCK:   -5.96 KCAL/MOL
REMARK 922        TOTAL FREE ENERGY PREDICTED BY IDOCK:   -7.44 KCAL/MOL
REMARK 923 INTER-LIGAND FREE ENERGY PREDICTED BY IDOCK:   -6.98 KCAL/MOL
REMARK 924 INTRA-LIGAND FREE ENERGY PREDICTED BY IDOCK:   -0.46 KCAL/MOL
REMARK 927      BINDING AFFINITY PREDICTED BY RF-SCORE:    0.00 PKD
ROOT
HETATM    1  C   UNL     1     -10.431   6.841  71.137  1.00  0.00    -0.214 C  
HETATM    2  C   UNL     1     -11.785   6.493  70.513  1.00  0.00    -0.438 C  
HETATM    3  C   UNL     1     -12.791   7.355  71.272  1.00  0.00    -0.365 C  
HETATM    4  C   UNL     1     -11.943   8.140  72.276  1.00  0.00    -0.377 C  
HETATM    5  N   UNL     1     -10.833   7.214  72.498  1.00  0.00    -0.248 NA 
HETATM    6  C   UNL     1     -11.482   9.476  71.690  1.00  0.00    -0.433 C  
HETATM    7  C   UNL     1     -10.384   9.367  70.616  1.00  0.00    -0.284 C  
HETATM    8  C   UNL     1      -9.769   7.702  73.361  1.00  0.00    -0.304 C  
HETATM    9  C   UNL     1      -9.754   7.988  70.376  1.00  0.00    -0.178 C  
ENDROOT
BRANCH   7  10
HETATM   10  O   UNL     1     -10.944   9.896  69.405  1.00  0.00    -0.231 OA 
BRANCH  10  11
HETATM   11  C   UNL     1     -10.184  10.899  68.871  1.00  0.00    -0.198 C  
HETATM   12  O   UNL     1      -8.961  10.927  68.929  1.00  0.00    -0.167 OA 
BRANCH  11  13
HETATM   13  C   UNL     1     -11.004  11.987  68.354  1.00  0.00    -0.276 A  
HETATM   14  C   UNL     1     -11.596  12.990  69.105  1.00  0.00    -0.316 A  
HETATM   15  N   UNL     1     -12.200  13.874  68.254  1.00  0.00    -0.494 NA 
HETATM   16  H   UNL     1     -12.710  14.709  68.544  1.00  0.00     0.000 HD 
HETATM   17  C   UNL     1     -12.020  13.475  66.951  1.00  0.00    -0.399 A  
HETATM   18  C   UNL     1     -12.449  14.071  65.759  1.00  0.00    -0.523 A  
HETATM   19  C   UNL     1     -12.102  13.442  64.558  1.00  0.00    -0.457 A  
HETATM   20  C   UNL     1     -11.352  12.269  64.554  1.00  0.00    -0.385 A  
HETATM   21  C   UNL     1     -10.931  11.688  65.753  1.00  0.00    -0.329 A  
HETATM   22  C   UNL     1     -11.275  12.294  66.981  1.00  0.00    -0.367 A  
ENDBRANCH  11  13
ENDBRANCH  10  11
ENDBRANCH   7  10
TORSDOF 3
ENDMDL
MODEL       40
REMARK 921   NORMALIZED FREE ENERGY PREDICTED BY IDOCK:   -5.95 KCAL/MOL
REMARK 922        TOTAL FREE ENERGY PREDICTED BY IDOCK:   -7.43 KCAL/MOL
REMARK 923 INTER-LIGAND FREE ENERGY PREDICTED BY IDOCK:   -6.93 KCAL/MOL
REMARK 924 INTRA-LIGAND FREE ENERGY PREDICTED BY IDOCK:   -0.50 KCAL/MOL
REMARK 927      BINDING AFFINITY PREDICTED BY RF-SCORE:    0.00 PKD
ROOT
HETATM    1  C   UNL     1     -10.014   7.174  70.837  1.00  0.00    -0.189 C  
HETATM    2  C   UNL     1     -11.272   6.480  70.308  1.00  0.00    -0.433 C  
HETATM    3  C   UNL     1     -12.409   7.052  71.151  1.00  0.00    -0.423 C  
HETATM    4  C   UNL     1     -11.724   8.037  72.103  1.00  0.00    -0.344 C  
HETATM    5  N   UNL     1     -10.396   7.435  72.228  1.00  0.00    -0.206 NA 
HETATM    6  C   UNL     1     -11.676   9.444  71.504  1.00  0.00    -0.465 C  
HETATM    7  C   UNL     1     -10.670   9.622  70.351  1.00  0.00    -0.298 C  
HETATM    8  C   UNL     1      -9.437   8.190  73.019  1.00  0.00    -0.263 C  
HETATM    9  C   UNL     1      -9.720   8.455  70.045  1.00  0.00    -0.176 C  
ENDROOT
BRANCH   7  10
HETATM   10  O   UNL     1     -11.438   9.979  69.192  1.00  0.00    -0.155 OA 
BRANCH  10  11
HETATM   11  C   UNL     1     -11.078  11.195  68.680  1.00  0.00    -0.239 C  
HETATM   12  O   UNL     1     -11.088  12.233  69.329  1.00  0.00    -0.225 OA 
BRANCH  11  13
HETATM   13  C   UNL     1     -10.817  11.126  67.248  1.00  0.00    -0.326 A  
HETATM   14  C   UNL     1     -10.100  10.135  66.597  1.00  0.00    -0.223 A  
HETATM   15  N   UNL     1     -10.158  10.368  65.250  1.00  0.00    -0.306 NA 
HETATM   16  H   UNL     1      -9.714   9.788  64.537  1.00  0.00     0.000 HD 
HETATM   17  C   UNL     1     -10.901  11.497  64.996  1.00  0.00    -0.274 A  
HETATM   18  C   UNL     1     -11.232  12.101  63.779  1.00  0.00    -0.509 A  
HETATM   19  C   UNL     1     -12.029  13.251  63.821  1.00  0.00    -0.551 A  
HETATM   20  C   UNL     1     -12.479  13.768  65.033  1.00  0.00    -0.449 A  
HETATM   21  C   UNL     1     -12.139  13.150  66.240  1.00  0.00    -0.460 A  
HETATM   22  C   UNL     1     -11.328  11.995  66.229  1.00  0.00    -0.415 A  
ENDBRANCH  11  13
ENDBRANCH  10  11
ENDBRANCH   7  10
TORSDOF 3
ENDMDL
MODEL       41
REMARK 921   NORMALIZED FREE ENERGY PREDICTED BY IDOCK:   -5.92 KCAL/MOL
REMARK 922        TOTAL FREE ENERGY PREDICTED BY IDOCK:   -7.40 KCAL/MOL
REMARK 923 INTER-LIGAND FREE ENERGY PREDICTED BY IDOCK:   -7.04 KCAL/MOL
REMARK 924 INTRA-LIGAND FREE ENERGY PREDICTED BY IDOCK:   -0.36 KCAL/MOL
REMARK 927      BINDING AFFINITY PREDICTED BY RF-SCORE:    0.00 PKD
ROOT
HETATM    1  C   UNL     1     -10.386   6.278  70.886  1.00  0.00    -0.205 C  
HETATM    2  C   UNL     1     -11.474   6.265  71.964  1.00  0.00    -0.359 C  
HETATM    3  C   UNL     1     -10.987   7.261  73.013  1.00  0.00    -0.388 C  
HETATM    4  C   UNL     1      -9.655   7.779  72.463  1.00  0.00    -0.192 C  
HETATM    5  N   UNL     1      -9.203   6.629  71.680  1.00  0.00    -0.146 NA 
HETATM    6  C   UNL     1      -9.859   9.029  71.603  1.00  0.00    -0.366 C  
HETATM    7  C   UNL     1     -10.501   8.770  70.228  1.00  0.00    -0.208 C  
HETATM    8  C   UNL     1      -7.972   6.823  70.931  1.00  0.00    -0.106 C  
HETATM    9  C   UNL     1     -10.705   7.311  69.798  1.00  0.00    -0.253 C  
ENDROOT
BRANCH   7  10
HETATM   10  O   UNL     1     -11.745   9.489  70.218  1.00  0.00    -0.223 OA 
BRANCH  10  11
HETATM   11  C   UNL     1     -11.571  10.832  70.032  1.00  0.00    -0.334 C  
HETATM   12  O   UNL     1     -10.708  11.310  69.308  1.00  0.00    -0.219 OA 
BRANCH  11  13
HETATM   13  C   UNL     1     -12.439  11.617  70.900  1.00  0.00    -0.440 A  
HETATM   14  C   UNL     1     -13.202  11.128  71.948  1.00  0.00    -0.382 A  
HETATM   15  N   UNL     1     -13.801  12.182  72.581  1.00  0.00    -0.363 NA 
HETATM   16  H   UNL     1     -14.420  12.104  73.389  1.00  0.00     0.000 HD 
HETATM   17  C   UNL     1     -13.449  13.363  71.970  1.00  0.00    -0.494 A  
HETATM   18  C   UNL     1     -13.811  14.679  72.280  1.00  0.00    -0.583 A  
HETATM   19  C   UNL     1     -13.282  15.701  71.484  1.00  0.00    -0.555 A  
HETATM   20  C   UNL     1     -12.421  15.415  70.428  1.00  0.00    -0.447 A  
HETATM   21  C   UNL     1     -12.069  14.095  70.134  1.00  0.00    -0.411 A  
HETATM   22  C   UNL     1     -12.596  13.042  70.912  1.00  0.00    -0.364 A  
ENDBRANCH  11  13
ENDBRANCH  10  11
ENDBRANCH   7  10
TORSDOF 3
ENDMDL
MODEL       42
REMARK 921   NORMALIZED FREE ENERGY PREDICTED BY IDOCK:   -5.91 KCAL/MOL
REMARK 922        TOTAL FREE ENERGY PREDICTED BY IDOCK:   -7.39 KCAL/MOL
REMARK 923 INTER-LIGAND FREE ENERGY PREDICTED BY IDOCK:   -6.96 KCAL/MOL
REMARK 924 INTRA-LIGAND FREE ENERGY PREDICTED BY IDOCK:   -0.43 KCAL/MOL
REMARK 927      BINDING AFFINITY PREDICTED BY RF-SCORE:    0.00 PKD
ROOT
HETATM    1  C   UNL     1     -10.026   6.688  68.559  1.00  0.00    -0.150 C  
HETATM    2  C   UNL     1     -11.263   6.270  69.358  1.00  0.00    -0.489 C  
HETATM    3  C   UNL     1     -10.987   6.760  70.777  1.00  0.00    -0.306 C  
HETATM    4  C   UNL     1      -9.612   7.428  70.693  1.00  0.00    -0.171 C  
HETATM    5  N   UNL     1      -8.995   6.674  69.602  1.00  0.00    -0.142 NA 
HETATM    6  C   UNL     1      -9.739   8.920  70.375  1.00  0.00    -0.226 C  
HETATM    7  C   UNL     1     -10.152   9.239  68.926  1.00  0.00    -0.195 C  
HETATM    8  C   UNL     1      -7.673   7.125  69.194  1.00  0.00    -0.109 C  
HETATM    9  C   UNL     1     -10.221   8.073  67.930  1.00  0.00    -0.267 C  
ENDROOT
BRANCH   7  10
HETATM   10  O   UNL     1     -11.410   9.927  69.004  1.00  0.00    -0.147 OA 
BRANCH  10  11
HETATM   11  C   UNL     1     -11.263  11.259  69.274  1.00  0.00    -0.272 C  
HETATM   12  O   UNL     1     -10.401  11.962  68.764  1.00  0.00    -0.212 OA 
BRANCH  11  13
HETATM   13  C   UNL     1     -12.159  11.701  70.334  1.00  0.00    -0.462 A  
HETATM   14  C   UNL     1     -12.774  10.888  71.273  1.00  0.00    -0.437 A  
HETATM   15  N   UNL     1     -13.457  11.680  72.155  1.00  0.00    -0.518 NA 
HETATM   16  H   UNL     1     -13.999  11.338  72.949  1.00  0.00     0.000 HD 
HETATM   17  C   UNL     1     -13.306  13.005  71.818  1.00  0.00    -0.378 A  
HETATM   18  C   UNL     1     -13.810  14.154  72.435  1.00  0.00    -0.638 A  
HETATM   19  C   UNL     1     -13.477  15.392  71.874  1.00  0.00    -0.571 A  
HETATM   20  C   UNL     1     -12.666  15.472  70.745  1.00  0.00    -0.511 A  
HETATM   21  C   UNL     1     -12.169  14.313  70.142  1.00  0.00    -0.407 A  
HETATM   22  C   UNL     1     -12.498  13.050  70.679  1.00  0.00    -0.347 A  
ENDBRANCH  11  13
ENDBRANCH  10  11
ENDBRANCH   7  10
TORSDOF 3
ENDMDL
MODEL       43
REMARK 921   NORMALIZED FREE ENERGY PREDICTED BY IDOCK:   -5.91 KCAL/MOL
REMARK 922        TOTAL FREE ENERGY PREDICTED BY IDOCK:   -7.38 KCAL/MOL
REMARK 923 INTER-LIGAND FREE ENERGY PREDICTED BY IDOCK:   -6.90 KCAL/MOL
REMARK 924 INTRA-LIGAND FREE ENERGY PREDICTED BY IDOCK:   -0.49 KCAL/MOL
REMARK 927      BINDING AFFINITY PREDICTED BY RF-SCORE:    0.00 PKD
ROOT
HETATM    1  C   UNL     1      -9.559  10.142  67.692  1.00  0.00    -0.148 C  
HETATM    2  C   UNL     1      -8.940  11.439  68.219  1.00  0.00    -0.175 C  
HETATM    3  C   UNL     1      -8.371  12.125  66.979  1.00  0.00    -0.173 C  
HETATM    4  C   UNL     1      -8.709  11.176  65.826  1.00  0.00    -0.150 C  
HETATM    5  N   UNL     1      -8.723   9.885  66.515  1.00  0.00    -0.128 NA 
HETATM    6  C   UNL     1     -10.062  11.521  65.200  1.00  0.00    -0.313 C  
HETATM    7  C   UNL     1     -11.284  11.154  66.062  1.00  0.00     0.034 C  
HETATM    8  C   UNL     1      -9.108   8.742  65.701  1.00  0.00    -0.191 C  
HETATM    9  C   UNL     1     -11.039  10.344  67.342  1.00  0.00    -0.297 C  
ENDROOT
BRANCH   7  10
HETATM   10  O   UNL     1     -11.962  12.386  66.353  1.00  0.00    -0.559 OA 
BRANCH  10  11
HETATM   11  C   UNL     1     -12.487  12.971  65.234  1.00  0.00    -0.499 C  
HETATM   12  O   UNL     1     -13.241  12.396  64.460  1.00  0.00    -0.834 OA 
BRANCH  11  13
HETATM   13  C   UNL     1     -11.937  14.300  65.006  1.00  0.00    -0.412 A  
HETATM   14  C   UNL     1     -12.117  15.074  63.870  1.00  0.00     0.086 A  
HETATM   15  N   UNL     1     -11.528  16.291  64.072  1.00  0.00    -1.521 NA 
HETATM   16  H   UNL     1     -11.514  17.053  63.393  1.00  0.00     0.000 HD 
HETATM   17  C   UNL     1     -10.960  16.340  65.323  1.00  0.00    -0.236 A  
HETATM   18  C   UNL     1     -10.268  17.378  65.957  1.00  0.00    -0.308 A  
HETATM   19  C   UNL     1      -9.807  17.149  67.259  1.00  0.00    -0.265 A  
HETATM   20  C   UNL     1     -10.037  15.934  67.898  1.00  0.00    -0.235 A  
HETATM   21  C   UNL     1     -10.731  14.909  67.250  1.00  0.00    -0.294 A  
HETATM   22  C   UNL     1     -11.198  15.106  65.933  1.00  0.00    -0.280 A  
ENDBRANCH  11  13
ENDBRANCH  10  11
ENDBRANCH   7  10
TORSDOF 3
ENDMDL
MODEL       44
REMARK 921   NORMALIZED FREE ENERGY PREDICTED BY IDOCK:   -5.90 KCAL/MOL
REMARK 922        TOTAL FREE ENERGY PREDICTED BY IDOCK:   -7.37 KCAL/MOL
REMARK 923 INTER-LIGAND FREE ENERGY PREDICTED BY IDOCK:   -6.80 KCAL/MOL
REMARK 924 INTRA-LIGAND FREE ENERGY PREDICTED BY IDOCK:   -0.57 KCAL/MOL
REMARK 927      BINDING AFFINITY PREDICTED BY RF-SCORE:    0.00 PKD
ROOT
HETATM    1  C   UNL     1     -12.131  14.411  66.476  1.00  0.00    -0.372 C  
HETATM    2  C   UNL     1     -12.903  13.603  65.429  1.00  0.00    -0.440 C  
HETATM    3  C   UNL     1     -11.853  13.215  64.392  1.00  0.00    -0.441 C  
HETATM    4  C   UNL     1     -10.550  13.824  64.918  1.00  0.00    -0.413 C  
HETATM    5  N   UNL     1     -11.054  14.980  65.659  1.00  0.00    -0.344 NA 
HETATM    6  C   UNL     1      -9.798  12.837  65.813  1.00  0.00    -0.222 C  
HETATM    7  C   UNL     1     -10.430  12.611  67.199  1.00  0.00    -0.235 C  
HETATM    8  C   UNL     1     -10.052  15.752  66.378  1.00  0.00    -0.291 C  
HETATM    9  C   UNL     1     -11.614  13.502  67.598  1.00  0.00    -0.374 C  
ENDROOT
BRANCH   7  10
HETATM   10  O   UNL     1     -10.786  11.221  67.262  1.00  0.00    -0.235 OA 
BRANCH  10  11
HETATM   11  C   UNL     1      -9.938  10.499  68.054  1.00  0.00    -0.155 C  
HETATM   12  O   UNL     1      -8.726  10.461  67.890  1.00  0.00    -0.118 OA 
BRANCH  11  13
HETATM   13  C   UNL     1     -10.660   9.680  69.020  1.00  0.00    -0.237 A  
HETATM   14  C   UNL     1     -10.514   8.314  69.200  1.00  0.00    -0.206 A  
HETATM   15  N   UNL     1     -11.288   7.928  70.260  1.00  0.00    -0.428 NA 
HETATM   16  H   UNL     1     -11.366   6.973  70.609  1.00  0.00     0.000 HD 
HETATM   17  C   UNL     1     -11.945   9.015  70.786  1.00  0.00    -0.170 A  
HETATM   18  C   UNL     1     -12.825   9.096  71.871  1.00  0.00    -0.466 A  
HETATM   19  C   UNL     1     -13.338  10.357  72.197  1.00  0.00    -0.374 A  
HETATM   20  C   UNL     1     -12.979  11.488  71.469  1.00  0.00    -0.485 A  
HETATM   21  C   UNL     1     -12.098  11.389  70.389  1.00  0.00    -0.473 A  
HETATM   22  C   UNL     1     -11.572  10.129  70.029  1.00  0.00    -0.323 A  
ENDBRANCH  11  13
ENDBRANCH  10  11
ENDBRANCH   7  10
TORSDOF 3
ENDMDL
MODEL       45
REMARK 921   NORMALIZED FREE ENERGY PREDICTED BY IDOCK:   -5.88 KCAL/MOL
REMARK 922        TOTAL FREE ENERGY PREDICTED BY IDOCK:   -7.35 KCAL/MOL
REMARK 923 INTER-LIGAND FREE ENERGY PREDICTED BY IDOCK:   -6.98 KCAL/MOL
REMARK 924 INTRA-LIGAND FREE ENERGY PREDICTED BY IDOCK:   -0.38 KCAL/MOL
REMARK 927      BINDING AFFINITY PREDICTED BY RF-SCORE:    0.00 PKD
ROOT
HETATM    1  C   UNL     1      -9.548   6.629  72.533  1.00  0.00    -0.153 C  
HETATM    2  C   UNL     1      -8.847   7.050  71.239  1.00  0.00    -0.133 C  
HETATM    3  C   UNL     1      -9.755   6.534  70.125  1.00  0.00    -0.180 C  
HETATM    4  C   UNL     1     -10.916   5.856  70.858  1.00  0.00    -0.265 C  
HETATM    5  N   UNL     1     -10.260   5.424  72.093  1.00  0.00    -0.196 NA 
HETATM    6  C   UNL     1     -12.059   6.839  71.116  1.00  0.00    -0.422 C  
HETATM    7  C   UNL     1     -11.778   7.885  72.211  1.00  0.00    -0.355 C  
HETATM    8  C   UNL     1     -11.127   4.803  73.081  1.00  0.00    -0.310 C  
HETATM    9  C   UNL     1     -10.490   7.733  73.031  1.00  0.00    -0.432 C  
ENDROOT
BRANCH   7  10
HETATM   10  O   UNL     1     -11.833   9.170  71.570  1.00  0.00    -0.307 OA 
BRANCH  10  11
HETATM   11  C   UNL     1     -12.960   9.870  71.897  1.00  0.00    -0.448 C  
HETATM   12  O   UNL     1     -13.951   9.360  72.403  1.00  0.00    -0.426 OA 
BRANCH  11  13
HETATM   13  C   UNL     1     -12.891  11.254  71.446  1.00  0.00    -0.515 A  
HETATM   14  C   UNL     1     -13.241  12.371  72.188  1.00  0.00    -0.385 A  
HETATM   15  N   UNL     1     -12.945  13.490  71.458  1.00  0.00    -0.360 NA 
HETATM   16  H   UNL     1     -13.102  14.449  71.770  1.00  0.00     0.000 HD 
HETATM   17  C   UNL     1     -12.405  13.134  70.245  1.00  0.00    -0.249 A  
HETATM   18  C   UNL     1     -11.949  13.937  69.193  1.00  0.00    -0.404 A  
HETATM   19  C   UNL     1     -11.425  13.293  68.066  1.00  0.00    -0.344 A  
HETATM   20  C   UNL     1     -11.356  11.904  68.002  1.00  0.00    -0.352 A  
HETATM   21  C   UNL     1     -11.815  11.118  69.062  1.00  0.00    -0.418 A  
HETATM   22  C   UNL     1     -12.358  11.739  70.207  1.00  0.00    -0.320 A  
ENDBRANCH  11  13
ENDBRANCH  10  11
ENDBRANCH   7  10
TORSDOF 3
ENDMDL
MODEL       46
REMARK 921   NORMALIZED FREE ENERGY PREDICTED BY IDOCK:   -5.87 KCAL/MOL
REMARK 922        TOTAL FREE ENERGY PREDICTED BY IDOCK:   -7.34 KCAL/MOL
REMARK 923 INTER-LIGAND FREE ENERGY PREDICTED BY IDOCK:   -6.77 KCAL/MOL
REMARK 924 INTRA-LIGAND FREE ENERGY PREDICTED BY IDOCK:   -0.57 KCAL/MOL
REMARK 927      BINDING AFFINITY PREDICTED BY RF-SCORE:    0.00 PKD
ROOT
HETATM    1  C   UNL     1     -11.830  13.234  66.533  1.00  0.00    -0.398 C  
HETATM    2  C   UNL     1     -10.686  12.371  67.073  1.00  0.00    -0.268 C  
HETATM    3  C   UNL     1      -9.495  12.708  66.179  1.00  0.00    -0.177 C  
HETATM    4  C   UNL     1     -10.038  13.744  65.191  1.00  0.00    -0.289 C  
HETATM    5  N   UNL     1     -11.449  13.362  65.123  1.00  0.00    -0.291 NA 
HETATM    6  C   UNL     1      -9.842  15.168  65.716  1.00  0.00    -0.384 C  
HETATM    7  C   UNL     1     -10.773  15.563  66.877  1.00  0.00    -0.317 C  
HETATM    8  C   UNL     1     -12.295  14.224  64.313  1.00  0.00    -0.377 C  
HETATM    9  C   UNL     1     -11.890  14.582  67.262  1.00  0.00    -0.419 C  
ENDROOT
BRANCH   7  10
HETATM   10  O   UNL     1      -9.926  15.846  68.001  1.00  0.00    -0.218 OA 
BRANCH  10  11
HETATM   11  C   UNL     1     -10.358  16.922  68.725  1.00  0.00    -0.324 C  
HETATM   12  O   UNL     1     -11.086  16.831  69.705  1.00  0.00    -0.237 OA 
BRANCH  11  13
HETATM   13  C   UNL     1      -9.964  18.184  68.112  1.00  0.00    -0.368 A  
HETATM   14  C   UNL     1     -10.803  19.065  67.448  1.00  0.00    -0.409 A  
HETATM   15  N   UNL     1     -10.083  20.175  67.102  1.00  0.00    -0.444 NA 
HETATM   16  H   UNL     1     -10.459  20.983  66.603  1.00  0.00     0.000 HD 
HETATM   17  C   UNL     1      -8.781  20.047  67.525  1.00  0.00    -0.344 A  
HETATM   18  C   UNL     1      -7.704  20.931  67.401  1.00  0.00    -0.262 A  
HETATM   19  C   UNL     1      -6.477  20.538  67.949  1.00  0.00    -0.337 A  
HETATM   20  C   UNL     1      -6.340  19.314  68.598  1.00  0.00    -0.278 A  
HETATM   21  C   UNL     1      -7.427  18.444  68.713  1.00  0.00    -0.298 A  
HETATM   22  C   UNL     1      -8.675  18.808  68.161  1.00  0.00    -0.335 A  
ENDBRANCH  11  13
ENDBRANCH  10  11
ENDBRANCH   7  10
TORSDOF 3
ENDMDL
MODEL       47
REMARK 921   NORMALIZED FREE ENERGY PREDICTED BY IDOCK:   -5.87 KCAL/MOL
REMARK 922        TOTAL FREE ENERGY PREDICTED BY IDOCK:   -7.34 KCAL/MOL
REMARK 923 INTER-LIGAND FREE ENERGY PREDICTED BY IDOCK:   -6.83 KCAL/MOL
REMARK 924 INTRA-LIGAND FREE ENERGY PREDICTED BY IDOCK:   -0.51 KCAL/MOL
REMARK 927      BINDING AFFINITY PREDICTED BY RF-SCORE:    0.00 PKD
ROOT
HETATM    1  C   UNL     1      -9.421  17.903  68.513  1.00  0.00    -0.313 C  
HETATM    2  C   UNL     1     -10.413  18.858  67.843  1.00  0.00    -0.459 C  
HETATM    3  C   UNL     1     -10.221  18.623  66.347  1.00  0.00    -0.461 C  
HETATM    4  C   UNL     1      -9.135  17.547  66.263  1.00  0.00    -0.193 C  
HETATM    5  N   UNL     1      -8.377  17.811  67.486  1.00  0.00    -0.224 NA 
HETATM    6  C   UNL     1      -9.744  16.144  66.242  1.00  0.00    -0.332 C  
HETATM    7  C   UNL     1     -10.323  15.671  67.588  1.00  0.00    -0.275 C  
HETATM    8  C   UNL     1      -7.293  16.883  67.766  1.00  0.00    -0.155 C  
HETATM    9  C   UNL     1     -10.080  16.553  68.820  1.00  0.00    -0.255 C  
ENDROOT
BRANCH   7  10
HETATM   10  O   UNL     1     -11.727  15.457  67.375  1.00  0.00    -0.215 OA 
BRANCH  10  11
HETATM   11  C   UNL     1     -12.021  14.151  67.094  1.00  0.00    -0.426 C  
HETATM   12  O   UNL     1     -12.471  13.774  66.020  1.00  0.00    -0.454 OA 
BRANCH  11  13
HETATM   13  C   UNL     1     -11.866  13.295  68.263  1.00  0.00    -0.389 A  
HETATM   14  C   UNL     1     -12.242  13.610  69.560  1.00  0.00    -0.264 A  
HETATM   15  N   UNL     1     -12.024  12.518  70.354  1.00  0.00    -0.519 NA 
HETATM   16  H   UNL     1     -12.217  12.476  71.356  1.00  0.00     0.000 HD 
HETATM   17  C   UNL     1     -11.509  11.484  69.608  1.00  0.00    -0.301 A  
HETATM   18  C   UNL     1     -11.147  10.189  69.994  1.00  0.00    -0.368 A  
HETATM   19  C   UNL     1     -10.658   9.330  69.003  1.00  0.00    -0.225 A  
HETATM   20  C   UNL     1     -10.544   9.752  67.681  1.00  0.00    -0.333 A  
HETATM   21  C   UNL     1     -10.911  11.049  67.313  1.00  0.00    -0.335 A  
HETATM   22  C   UNL     1     -11.397  11.941  68.293  1.00  0.00    -0.335 A  
ENDBRANCH  11  13
ENDBRANCH  10  11
ENDBRANCH   7  10
TORSDOF 3
ENDMDL
MODEL       48
REMARK 921   NORMALIZED FREE ENERGY PREDICTED BY IDOCK:   -5.86 KCAL/MOL
REMARK 922        TOTAL FREE ENERGY PREDICTED BY IDOCK:   -7.32 KCAL/MOL
REMARK 923 INTER-LIGAND FREE ENERGY PREDICTED BY IDOCK:   -6.68 KCAL/MOL
REMARK 924 INTRA-LIGAND FREE ENERGY PREDICTED BY IDOCK:   -0.64 KCAL/MOL
REMARK 927      BINDING AFFINITY PREDICTED BY RF-SCORE:    0.00 PKD
ROOT
HETATM    1  C   UNL     1     -12.123  13.264  67.599  1.00  0.00    -0.249 C  
HETATM    2  C   UNL     1     -11.742  12.520  68.882  1.00  0.00    -0.367 C  
HETATM    3  C   UNL     1     -10.675  11.521  68.444  1.00  0.00    -0.241 C  
HETATM    4  C   UNL     1     -10.515  11.764  66.941  1.00  0.00    -0.223 C  
HETATM    5  N   UNL     1     -11.852  12.240  66.585  1.00  0.00    -0.594 NA 
HETATM    6  C   UNL     1      -9.429  12.804  66.659  1.00  0.00    -0.249 C  
HETATM    7  C   UNL     1      -9.816  14.253  67.007  1.00  0.00    -0.254 C  
HETATM    8  C   UNL     1     -12.024  12.656  65.202  1.00  0.00    -0.428 C  
HETATM    9  C   UNL     1     -11.268  14.525  67.422  1.00  0.00    -0.337 C  
ENDROOT
BRANCH   7  10
HETATM   10  O   UNL     1      -8.899  14.686  68.024  1.00  0.00    -0.159 OA 
BRANCH  10  11
HETATM   11  C   UNL     1      -7.892  15.464  67.523  1.00  0.00    -0.170 C  
HETATM   12  O   UNL     1      -6.904  15.012  66.959  1.00  0.00    -0.213 OA 
BRANCH  11  13
HETATM   13  C   UNL     1      -8.069  16.869  67.864  1.00  0.00    -0.191 A  
HETATM   14  C   UNL     1      -7.322  17.585  68.787  1.00  0.00    -0.260 A  
HETATM   15  N   UNL     1      -7.724  18.892  68.754  1.00  0.00    -0.338 NA 
HETATM   16  H   UNL     1      -7.337  19.637  69.334  1.00  0.00     0.000 HD 
HETATM   17  C   UNL     1      -8.725  19.056  67.826  1.00  0.00    -0.298 A  
HETATM   18  C   UNL     1      -9.422  20.209  67.449  1.00  0.00    -0.531 A  
HETATM   19  C   UNL     1     -10.394  20.082  66.449  1.00  0.00    -0.573 A  
HETATM   20  C   UNL     1     -10.649  18.851  65.850  1.00  0.00    -0.438 A  
HETATM   21  C   UNL     1      -9.942  17.710  66.238  1.00  0.00    -0.324 A  
HETATM   22  C   UNL     1      -8.964  17.806  67.252  1.00  0.00    -0.246 A  
ENDBRANCH  11  13
ENDBRANCH  10  11
ENDBRANCH   7  10
TORSDOF 3
ENDMDL
MODEL       49
REMARK 921   NORMALIZED FREE ENERGY PREDICTED BY IDOCK:   -5.81 KCAL/MOL
REMARK 922        TOTAL FREE ENERGY PREDICTED BY IDOCK:   -7.26 KCAL/MOL
REMARK 923 INTER-LIGAND FREE ENERGY PREDICTED BY IDOCK:   -6.61 KCAL/MOL
REMARK 924 INTRA-LIGAND FREE ENERGY PREDICTED BY IDOCK:   -0.65 KCAL/MOL
REMARK 927      BINDING AFFINITY PREDICTED BY RF-SCORE:    0.00 PKD
ROOT
HETATM    1  C   UNL     1      -9.613   9.368  65.792  1.00  0.00    -0.271 C  
HETATM    2  C   UNL     1     -10.525   8.645  66.787  1.00  0.00    -0.298 C  
HETATM    3  C   UNL     1     -10.135   9.215  68.149  1.00  0.00    -0.225 C  
HETATM    4  C   UNL     1      -9.029  10.228  67.839  1.00  0.00    -0.131 C  
HETATM    5  N   UNL     1      -8.443   9.649  66.630  1.00  0.00    -0.123 NA 
HETATM    6  C   UNL     1      -9.607  11.624  67.599  1.00  0.00    -0.184 C  
HETATM    7  C   UNL     1     -10.349  11.796  66.260  1.00  0.00    -0.224 C  
HETATM    8  C   UNL     1      -7.389  10.433  66.005  1.00  0.00    -0.134 C  
HETATM    9  C   UNL     1     -10.285  10.638  65.255  1.00  0.00    -0.351 C  
ENDROOT
BRANCH   7  10
HETATM   10  O   UNL     1     -11.709  12.120  66.587  1.00  0.00    -0.493 OA 
BRANCH  10  11
HETATM   11  C   UNL     1     -12.092  13.333  66.087  1.00  0.00    -0.421 C  
HETATM   12  O   UNL     1     -12.704  13.469  65.035  1.00  0.00    -0.621 OA 
BRANCH  11  13
HETATM   13  C   UNL     1     -11.570  14.438  66.879  1.00  0.00    -0.404 A  
HETATM   14  C   UNL     1     -10.926  15.562  66.386  1.00  0.00    -0.238 A  
HETATM   15  N   UNL     1     -10.673  16.413  67.427  1.00  0.00    -0.309 NA 
HETATM   16  H   UNL     1     -10.208  17.317  67.343  1.00  0.00     0.000 HD 
HETATM   17  C   UNL     1     -11.137  15.872  68.603  1.00  0.00    -0.337 A  
HETATM   18  C   UNL     1     -11.107  16.387  69.904  1.00  0.00    -0.313 A  
HETATM   19  C   UNL     1     -11.677  15.614  70.921  1.00  0.00    -0.423 A  
HETATM   20  C   UNL     1     -12.258  14.380  70.643  1.00  0.00    -0.414 A  
HETATM   21  C   UNL     1     -12.281  13.881  69.338  1.00  0.00    -0.338 A  
HETATM   22  C   UNL     1     -11.704  14.634  68.293  1.00  0.00    -0.359 A  
ENDBRANCH  11  13
ENDBRANCH  10  11
ENDBRANCH   7  10
TORSDOF 3
ENDMDL
MODEL       50
REMARK 921   NORMALIZED FREE ENERGY PREDICTED BY IDOCK:   -5.80 KCAL/MOL
REMARK 922        TOTAL FREE ENERGY PREDICTED BY IDOCK:   -7.26 KCAL/MOL
REMARK 923 INTER-LIGAND FREE ENERGY PREDICTED BY IDOCK:   -6.90 KCAL/MOL
REMARK 924 INTRA-LIGAND FREE ENERGY PREDICTED BY IDOCK:   -0.36 KCAL/MOL
REMARK 927      BINDING AFFINITY PREDICTED BY RF-SCORE:    0.00 PKD
ROOT
HETATM    1  C   UNL     1      -8.916  11.538  67.254  1.00  0.00    -0.162 C  
HETATM    2  C   UNL     1      -9.436  11.694  65.822  1.00  0.00    -0.244 C  
HETATM    3  C   UNL     1     -10.829  11.070  65.850  1.00  0.00    -0.183 C  
HETATM    4  C   UNL     1     -11.012  10.603  67.297  1.00  0.00    -0.284 C  
HETATM    5  N   UNL     1      -9.628  10.331  67.686  1.00  0.00    -0.151 NA 
HETATM    6  C   UNL     1     -11.659  11.694  68.154  1.00  0.00    -0.389 C  
HETATM    7  C   UNL     1     -10.738  12.880  68.493  1.00  0.00    -0.254 C  
HETATM    8  C   UNL     1      -9.431   9.941  69.073  1.00  0.00    -0.183 C  
HETATM    9  C   UNL     1      -9.258  12.772  68.099  1.00  0.00    -0.212 C  
ENDROOT
BRANCH   7  10
HETATM   10  O   UNL     1     -11.343  14.045  67.909  1.00  0.00    -0.265 OA 
BRANCH  10  11
HETATM   11  C   UNL     1     -10.803  15.208  68.383  1.00  0.00    -0.255 C  
HETATM   12  O   UNL     1     -10.623  15.435  69.572  1.00  0.00    -0.235 OA 
BRANCH  11  13
HETATM   13  C   UNL     1     -10.602  16.186  67.322  1.00  0.00    -0.305 A  
HETATM   14  C   UNL     1     -10.725  15.950  65.961  1.00  0.00    -0.284 A  
HETATM   15  N   UNL     1     -10.556  17.133  65.297  1.00  0.00    -0.662 NA 
HETATM   16  H   UNL     1     -10.597  17.245  64.283  1.00  0.00     0.000 HD 
HETATM   17  C   UNL     1     -10.321  18.150  66.192  1.00  0.00    -0.385 A  
HETATM   18  C   UNL     1     -10.104  19.514  65.967  1.00  0.00    -0.521 A  
HETATM   19  C   UNL     1      -9.906  20.332  67.086  1.00  0.00    -0.606 A  
HETATM   20  C   UNL     1      -9.932  19.804  68.374  1.00  0.00    -0.549 A  
HETATM   21  C   UNL     1     -10.152  18.440  68.579  1.00  0.00    -0.413 A  
HETATM   22  C   UNL     1     -10.344  17.588  67.470  1.00  0.00    -0.356 A  
ENDBRANCH  11  13
ENDBRANCH  10  11
ENDBRANCH   7  10
TORSDOF 3
ENDMDL
MODEL       51
REMARK 921   NORMALIZED FREE ENERGY PREDICTED BY IDOCK:   -5.79 KCAL/MOL
REMARK 922        TOTAL FREE ENERGY PREDICTED BY IDOCK:   -7.24 KCAL/MOL
REMARK 923 INTER-LIGAND FREE ENERGY PREDICTED BY IDOCK:   -6.88 KCAL/MOL
REMARK 924 INTRA-LIGAND FREE ENERGY PREDICTED BY IDOCK:   -0.36 KCAL/MOL
REMARK 927      BINDING AFFINITY PREDICTED BY RF-SCORE:    0.00 PKD
ROOT
HETATM    1  C   UNL     1     -10.491  11.388  66.566  1.00  0.00    -0.249 C  
HETATM    2  C   UNL     1      -9.094  11.679  67.119  1.00  0.00    -0.171 C  
HETATM    3  C   UNL     1      -9.163  13.128  67.595  1.00  0.00    -0.207 C  
HETATM    4  C   UNL     1     -10.598  13.565  67.285  1.00  0.00    -0.263 C  
HETATM    5  N   UNL     1     -10.909  12.724  66.129  1.00  0.00    -0.275 NA 
HETATM    6  C   UNL     1     -11.527  13.299  68.471  1.00  0.00    -0.347 C  
HETATM    7  C   UNL     1     -11.868  11.816  68.705  1.00  0.00    -0.310 C  
HETATM    8  C   UNL     1     -12.269  12.830  65.624  1.00  0.00    -0.444 C  
HETATM    9  C   UNL     1     -11.400  10.801  67.653  1.00  0.00    -0.328 C  
ENDROOT
BRANCH   7  10
HETATM   10  O   UNL     1     -11.360  11.481  70.006  1.00  0.00    -0.244 OA 
BRANCH  10  11
HETATM   11  C   UNL     1     -12.346  11.414  70.951  1.00  0.00    -0.381 C  
HETATM   12  O   UNL     1     -12.974  12.388  71.345  1.00  0.00    -0.361 OA 
BRANCH  11  13
HETATM   13  C   UNL     1     -12.459  10.079  71.524  1.00  0.00    -0.516 A  
HETATM   14  C   UNL     1     -13.639   9.440  71.875  1.00  0.00    -0.410 A  
HETATM   15  N   UNL     1     -13.341   8.170  72.286  1.00  0.00    -0.532 NA 
HETATM   16  H   UNL     1     -14.026   7.482  72.599  1.00  0.00     0.000 HD 
HETATM   17  C   UNL     1     -11.985   7.955  72.215  1.00  0.00    -0.337 A  
HETATM   18  C   UNL     1     -11.237   6.812  72.521  1.00  0.00    -0.305 A  
HETATM   19  C   UNL     1      -9.852   6.875  72.335  1.00  0.00    -0.172 A  
HETATM   20  C   UNL     1      -9.244   8.032  71.856  1.00  0.00    -0.222 A  
HETATM   21  C   UNL     1     -10.006   9.163  71.554  1.00  0.00    -0.358 A  
HETATM   22  C   UNL     1     -11.404   9.134  71.742  1.00  0.00    -0.451 A  
ENDBRANCH  11  13
ENDBRANCH  10  11
ENDBRANCH   7  10
TORSDOF 3
ENDMDL
MODEL       52
REMARK 921   NORMALIZED FREE ENERGY PREDICTED BY IDOCK:   -5.78 KCAL/MOL
REMARK 922        TOTAL FREE ENERGY PREDICTED BY IDOCK:   -7.23 KCAL/MOL
REMARK 923 INTER-LIGAND FREE ENERGY PREDICTED BY IDOCK:   -6.84 KCAL/MOL
REMARK 924 INTRA-LIGAND FREE ENERGY PREDICTED BY IDOCK:   -0.39 KCAL/MOL
REMARK 927      BINDING AFFINITY PREDICTED BY RF-SCORE:    0.00 PKD
ROOT
HETATM    1  C   UNL     1     -10.392  13.425  64.368  1.00  0.00    -0.325 C  
HETATM    2  C   UNL     1     -10.112  14.725  65.127  1.00  0.00    -0.358 C  
HETATM    3  C   UNL     1     -11.388  14.989  65.922  1.00  0.00    -0.273 C  
HETATM    4  C   UNL     1     -12.310  13.818  65.567  1.00  0.00    -0.475 C  
HETATM    5  N   UNL     1     -11.849  13.491  64.218  1.00  0.00    -0.410 NA 
HETATM    6  C   UNL     1     -12.131  12.655  66.545  1.00  0.00    -0.296 C  
HETATM    7  C   UNL     1     -10.818  11.869  66.381  1.00  0.00    -0.279 C  
HETATM    8  C   UNL     1     -12.477  12.332  63.603  1.00  0.00    -0.541 C  
HETATM    9  C   UNL     1      -9.928  12.207  65.178  1.00  0.00    -0.251 C  
ENDROOT
BRANCH   7  10
HETATM   10  O   UNL     1     -10.097  12.019  67.614  1.00  0.00    -0.192 OA 
BRANCH  10  11
HETATM   11  C   UNL     1      -9.605  10.831  68.081  1.00  0.00    -0.160 C  
HETATM   12  O   UNL     1      -8.588  10.304  67.650  1.00  0.00    -0.118 OA 
BRANCH  11  13
HETATM   13  C   UNL     1     -10.505  10.211  69.045  1.00  0.00    -0.239 A  
HETATM   14  C   UNL     1     -10.524   8.870  69.396  1.00  0.00    -0.222 A  
HETATM   15  N   UNL     1     -11.438   8.695  70.398  1.00  0.00    -0.426 NA 
HETATM   16  H   UNL     1     -11.652   7.802  70.844  1.00  0.00     0.000 HD 
HETATM   17  C   UNL     1     -12.027   9.896  70.717  1.00  0.00    -0.323 A  
HETATM   18  C   UNL     1     -13.000  10.194  71.678  1.00  0.00    -0.561 A  
HETATM   19  C   UNL     1     -13.408  11.527  71.795  1.00  0.00    -0.356 A  
HETATM   20  C   UNL     1     -12.859  12.519  70.987  1.00  0.00    -0.246 A  
HETATM   21  C   UNL     1     -11.887  12.204  70.034  1.00  0.00    -0.383 A  
HETATM   22  C   UNL     1     -11.463  10.865  69.885  1.00  0.00    -0.402 A  
ENDBRANCH  11  13
ENDBRANCH  10  11
ENDBRANCH   7  10
TORSDOF 3
ENDMDL
MODEL       53
REMARK 921   NORMALIZED FREE ENERGY PREDICTED BY IDOCK:   -5.78 KCAL/MOL
REMARK 922        TOTAL FREE ENERGY PREDICTED BY IDOCK:   -7.23 KCAL/MOL
REMARK 923 INTER-LIGAND FREE ENERGY PREDICTED BY IDOCK:   -6.46 KCAL/MOL
REMARK 924 INTRA-LIGAND FREE ENERGY PREDICTED BY IDOCK:   -0.76 KCAL/MOL
REMARK 927      BINDING AFFINITY PREDICTED BY RF-SCORE:    0.00 PKD
ROOT
HETATM    1  C   UNL     1      -8.894   5.774  68.124  1.00  0.00    -0.105 C  
HETATM    2  C   UNL     1      -9.205   4.923  66.890  1.00  0.00    -0.124 C  
HETATM    3  C   UNL     1     -10.603   5.362  66.462  1.00  0.00    -0.353 C  
HETATM    4  C   UNL     1     -10.996   6.437  67.480  1.00  0.00    -0.364 C  
HETATM    5  N   UNL     1     -10.242   6.006  68.656  1.00  0.00    -0.170 NA 
HETATM    6  C   UNL     1     -10.586   7.831  67.000  1.00  0.00    -0.396 C  
HETATM    7  C   UNL     1      -9.073   8.115  67.056  1.00  0.00    -0.143 C  
HETATM    8  C   UNL     1     -10.324   6.884  69.813  1.00  0.00    -0.206 C  
HETATM    9  C   UNL     1      -8.175   7.070  67.731  1.00  0.00    -0.114 C  
ENDROOT
BRANCH   7  10
HETATM   10  O   UNL     1      -8.655   8.359  65.704  1.00  0.00    -0.157 OA 
BRANCH  10  11
HETATM   11  C   UNL     1      -8.306   9.664  65.492  1.00  0.00    -0.139 C  
HETATM   12  O   UNL     1      -7.434  10.244  66.127  1.00  0.00    -0.109 OA 
BRANCH  11  13
HETATM   13  C   UNL     1      -9.182  10.311  64.524  1.00  0.00    -0.295 A  
HETATM   14  C   UNL     1      -9.146  10.138  63.149  1.00  0.00    -0.277 A  
HETATM   15  N   UNL     1     -10.184  10.836  62.595  1.00  0.00    -0.774 NA 
HETATM   16  H   UNL     1     -10.391  10.879  61.597  1.00  0.00     0.000 HD 
HETATM   17  C   UNL     1     -10.907  11.469  63.578  1.00  0.00    -0.398 A  
HETATM   18  C   UNL     1     -12.046  12.276  63.479  1.00  0.00    -0.649 A  
HETATM   19  C   UNL     1     -12.588  12.782  64.666  1.00  0.00    -0.491 A  
HETATM   20  C   UNL     1     -12.015  12.484  65.899  1.00  0.00    -0.472 A  
HETATM   21  C   UNL     1     -10.879  11.675  65.980  1.00  0.00    -0.339 A  
HETATM   22  C   UNL     1     -10.303  11.160  64.798  1.00  0.00    -0.387 A  
ENDBRANCH  11  13
ENDBRANCH  10  11
ENDBRANCH   7  10
TORSDOF 3
ENDMDL
MODEL       54
REMARK 921   NORMALIZED FREE ENERGY PREDICTED BY IDOCK:   -5.73 KCAL/MOL
REMARK 922        TOTAL FREE ENERGY PREDICTED BY IDOCK:   -7.17 KCAL/MOL
REMARK 923 INTER-LIGAND FREE ENERGY PREDICTED BY IDOCK:   -6.74 KCAL/MOL
REMARK 924 INTRA-LIGAND FREE ENERGY PREDICTED BY IDOCK:   -0.43 KCAL/MOL
REMARK 927      BINDING AFFINITY PREDICTED BY RF-SCORE:    0.00 PKD
ROOT
HETATM    1  C   UNL     1      -9.932   7.790  70.896  1.00  0.00    -0.183 C  
HETATM    2  C   UNL     1     -10.752   7.177  69.758  1.00  0.00    -0.257 C  
HETATM    3  C   UNL     1     -12.024   6.667  70.432  1.00  0.00    -0.342 C  
HETATM    4  C   UNL     1     -11.846   7.027  71.909  1.00  0.00    -0.305 C  
HETATM    5  N   UNL     1     -10.389   6.992  72.038  1.00  0.00    -0.198 NA 
HETATM    6  C   UNL     1     -12.427   8.408  72.218  1.00  0.00    -0.417 C  
HETATM    7  C   UNL     1     -11.606   9.592  71.674  1.00  0.00    -0.381 C  
HETATM    8  C   UNL     1      -9.863   7.383  73.337  1.00  0.00    -0.294 C  
HETATM    9  C   UNL     1     -10.238   9.285  71.049  1.00  0.00    -0.384 C  
ENDROOT
BRANCH   7  10
HETATM   10  O   UNL     1     -12.455  10.282  70.743  1.00  0.00    -0.308 OA 
BRANCH  10  11
HETATM   11  C   UNL     1     -12.782  11.540  71.167  1.00  0.00    -0.356 C  
HETATM   12  O   UNL     1     -13.516  11.764  72.121  1.00  0.00    -0.446 OA 
BRANCH  11  13
HETATM   13  C   UNL     1     -12.268  12.567  70.271  1.00  0.00    -0.345 A  
HETATM   14  C   UNL     1     -12.076  13.903  70.587  1.00  0.00    -0.347 A  
HETATM   15  N   UNL     1     -11.490  14.524  69.519  1.00  0.00    -0.274 NA 
HETATM   16  H   UNL     1     -11.237  15.513  69.484  1.00  0.00     0.000 HD 
HETATM   17  C   UNL     1     -11.290  13.624  68.499  1.00  0.00    -0.290 A  
HETATM   18  C   UNL     1     -10.718  13.809  67.235  1.00  0.00    -0.286 A  
HETATM   19  C   UNL     1     -10.629  12.693  66.395  1.00  0.00    -0.272 A  
HETATM   20  C   UNL     1     -11.087  11.445  66.808  1.00  0.00    -0.343 A  
HETATM   21  C   UNL     1     -11.655  11.279  68.074  1.00  0.00    -0.343 A  
HETATM   22  C   UNL     1     -11.769  12.389  68.940  1.00  0.00    -0.372 A  
ENDBRANCH  11  13
ENDBRANCH  10  11
ENDBRANCH   7  10
TORSDOF 3
ENDMDL
MODEL       55
REMARK 921   NORMALIZED FREE ENERGY PREDICTED BY IDOCK:   -5.73 KCAL/MOL
REMARK 922        TOTAL FREE ENERGY PREDICTED BY IDOCK:   -7.17 KCAL/MOL
REMARK 923 INTER-LIGAND FREE ENERGY PREDICTED BY IDOCK:   -6.94 KCAL/MOL
REMARK 924 INTRA-LIGAND FREE ENERGY PREDICTED BY IDOCK:   -0.23 KCAL/MOL
REMARK 927      BINDING AFFINITY PREDICTED BY RF-SCORE:    0.00 PKD
ROOT
HETATM    1  C   UNL     1      -9.160  19.417  68.546  1.00  0.00    -0.375 C  
HETATM    2  C   UNL     1     -10.077  20.116  67.539  1.00  0.00    -0.549 C  
HETATM    3  C   UNL     1      -9.640  19.573  66.181  1.00  0.00    -0.431 C  
HETATM    4  C   UNL     1      -8.506  18.597  66.504  1.00  0.00    -0.291 C  
HETATM    5  N   UNL     1      -7.964  19.184  67.729  1.00  0.00    -0.268 NA 
HETATM    6  C   UNL     1      -9.039  17.179  66.721  1.00  0.00    -0.266 C  
HETATM    7  C   UNL     1      -9.801  16.970  68.042  1.00  0.00    -0.275 C  
HETATM    8  C   UNL     1      -6.896  18.432  68.369  1.00  0.00    -0.241 C  
HETATM    9  C   UNL     1      -9.798  18.120  69.059  1.00  0.00    -0.259 C  
ENDROOT
BRANCH   7  10
HETATM   10  O   UNL     1     -11.142  16.601  67.685  1.00  0.00    -0.244 OA 
BRANCH  10  11
HETATM   11  C   UNL     1     -11.685  15.696  68.553  1.00  0.00    -0.327 C  
HETATM   12  O   UNL     1     -12.131  15.995  69.653  1.00  0.00    -0.276 OA 
BRANCH  11  13
HETATM   13  C   UNL     1     -11.544  14.328  68.072  1.00  0.00    -0.364 A  
HETATM   14  C   UNL     1     -11.143  13.949  66.800  1.00  0.00    -0.303 A  
HETATM   15  N   UNL     1     -11.039  12.585  66.764  1.00  0.00    -0.266 NA 
HETATM   16  H   UNL     1     -10.760  12.042  65.946  1.00  0.00     0.000 HD 
HETATM   17  C   UNL     1     -11.364  12.053  67.990  1.00  0.00    -0.296 A  
HETATM   18  C   UNL     1     -11.387  10.720  68.414  1.00  0.00    -0.367 A  
HETATM   19  C   UNL     1     -11.748  10.468  69.743  1.00  0.00    -0.354 A  
HETATM   20  C   UNL     1     -12.065  11.511  70.609  1.00  0.00    -0.450 A  
HETATM   21  C   UNL     1     -12.035  12.837  70.169  1.00  0.00    -0.371 A  
HETATM   22  C   UNL     1     -11.686  13.120  68.831  1.00  0.00    -0.368 A  
ENDBRANCH  11  13
ENDBRANCH  10  11
ENDBRANCH   7  10
TORSDOF 3
ENDMDL
MODEL       56
REMARK 921   NORMALIZED FREE ENERGY PREDICTED BY IDOCK:   -5.72 KCAL/MOL
REMARK 922        TOTAL FREE ENERGY PREDICTED BY IDOCK:   -7.16 KCAL/MOL
REMARK 923 INTER-LIGAND FREE ENERGY PREDICTED BY IDOCK:   -6.89 KCAL/MOL
REMARK 924 INTRA-LIGAND FREE ENERGY PREDICTED BY IDOCK:   -0.27 KCAL/MOL
REMARK 927      BINDING AFFINITY PREDICTED BY RF-SCORE:    0.00 PKD
ROOT
HETATM    1  C   UNL     1     -10.618  11.732  65.196  1.00  0.00    -0.283 C  
HETATM    2  C   UNL     1     -10.941  11.663  63.701  1.00  0.00    -0.507 C  
HETATM    3  C   UNL     1     -12.350  12.241  63.586  1.00  0.00    -0.664 C  
HETATM    4  C   UNL     1     -12.735  12.605  65.022  1.00  0.00    -0.324 C  
HETATM    5  N   UNL     1     -11.958  11.625  65.782  1.00  0.00    -0.180 NA 
HETATM    6  C   UNL     1     -12.343  14.046  65.354  1.00  0.00    -0.495 C  
HETATM    7  C   UNL     1     -10.832  14.280  65.538  1.00  0.00    -0.322 C  
HETATM    8  C   UNL     1     -12.030  11.752  67.230  1.00  0.00     0.066 C  
HETATM    9  C   UNL     1      -9.915  13.049  65.545  1.00  0.00    -0.226 C  
ENDROOT
BRANCH   7  10
HETATM   10  O   UNL     1     -10.437  15.212  64.519  1.00  0.00    -0.184 OA 
BRANCH  10  11
HETATM   11  C   UNL     1     -10.567  16.512  64.921  1.00  0.00    -0.032 C  
HETATM   12  O   UNL     1     -11.335  17.309  64.397  1.00  0.00    -1.052 OA 
BRANCH  11  13
HETATM   13  C   UNL     1      -9.592  16.865  65.944  1.00  0.00    -0.170 A  
HETATM   14  C   UNL     1      -8.340  16.292  66.110  1.00  0.00    -0.225 A  
HETATM   15  N   UNL     1      -7.686  16.955  67.111  1.00  0.00    -0.167 NA 
HETATM   16  H   UNL     1      -6.744  16.737  67.438  1.00  0.00     0.000 HD 
HETATM   17  C   UNL     1      -8.481  17.958  67.613  1.00  0.00    -0.234 A  
HETATM   18  C   UNL     1      -8.224  18.889  68.627  1.00  0.00    -0.380 A  
HETATM   19  C   UNL     1      -9.226  19.820  68.921  1.00  0.00    -0.226 A  
HETATM   20  C   UNL     1     -10.431  19.821  68.224  1.00  0.00    -0.449 A  
HETATM   21  C   UNL     1     -10.671  18.886  67.214  1.00  0.00    -0.523 A  
HETATM   22  C   UNL     1      -9.683  17.927  66.902  1.00  0.00    -0.309 A  
ENDBRANCH  11  13
ENDBRANCH  10  11
ENDBRANCH   7  10
TORSDOF 3
ENDMDL
MODEL       57
REMARK 921   NORMALIZED FREE ENERGY PREDICTED BY IDOCK:   -5.69 KCAL/MOL
REMARK 922        TOTAL FREE ENERGY PREDICTED BY IDOCK:   -7.13 KCAL/MOL
REMARK 923 INTER-LIGAND FREE ENERGY PREDICTED BY IDOCK:   -6.65 KCAL/MOL
REMARK 924 INTRA-LIGAND FREE ENERGY PREDICTED BY IDOCK:   -0.47 KCAL/MOL
REMARK 927      BINDING AFFINITY PREDICTED BY RF-SCORE:    0.00 PKD
ROOT
HETATM    1  C   UNL     1      -8.846  15.738  66.307  1.00  0.00    -0.343 C  
HETATM    2  C   UNL     1      -8.378  14.624  67.247  1.00  0.00    -0.234 C  
HETATM    3  C   UNL     1      -8.773  15.106  68.641  1.00  0.00    -0.174 C  
HETATM    4  C   UNL     1      -9.443  16.461  68.403  1.00  0.00    -0.220 C  
HETATM    5  N   UNL     1      -8.761  16.908  67.188  1.00  0.00    -0.197 NA 
HETATM    6  C   UNL     1     -10.953  16.306  68.204  1.00  0.00    -0.343 C  
HETATM    7  C   UNL     1     -11.367  15.693  66.853  1.00  0.00    -0.017 C  
HETATM    8  C   UNL     1      -9.237  18.162  66.625  1.00  0.00    -0.290 C  
HETATM    9  C   UNL     1     -10.270  15.469  65.804  1.00  0.00    -0.390 C  
ENDROOT
BRANCH   7  10
HETATM   10  O   UNL     1     -12.050  14.466  67.156  1.00  0.00    -0.414 OA 
BRANCH  10  11
HETATM   11  C   UNL     1     -12.330  13.734  66.036  1.00  0.00    -0.457 C  
HETATM   12  O   UNL     1     -13.140  14.080  65.186  1.00  0.00    -0.776 OA 
BRANCH  11  13
HETATM   13  C   UNL     1     -11.658  12.441  66.049  1.00  0.00    -0.455 A  
HETATM   14  C   UNL     1     -11.046  11.830  64.966  1.00  0.00    -0.284 A  
HETATM   15  N   UNL     1     -10.446  10.679  65.396  1.00  0.00    -0.228 NA 
HETATM   16  H   UNL     1      -9.923  10.035  64.801  1.00  0.00     0.000 HD 
HETATM   17  C   UNL     1     -10.649  10.515  66.746  1.00  0.00    -0.222 A  
HETATM   18  C   UNL     1     -10.214   9.500  67.605  1.00  0.00    -0.273 A  
HETATM   19  C   UNL     1     -10.561   9.601  68.957  1.00  0.00    -0.237 A  
HETATM   20  C   UNL     1     -11.307  10.678  69.427  1.00  0.00    -0.348 A  
HETATM   21  C   UNL     1     -11.732  11.684  68.556  1.00  0.00    -0.378 A  
HETATM   22  C   UNL     1     -11.406  11.604  67.184  1.00  0.00    -0.373 A  
ENDBRANCH  11  13
ENDBRANCH  10  11
ENDBRANCH   7  10
TORSDOF 3
ENDMDL
MODEL       58
REMARK 921   NORMALIZED FREE ENERGY PREDICTED BY IDOCK:   -5.69 KCAL/MOL
REMARK 922        TOTAL FREE ENERGY PREDICTED BY IDOCK:   -7.12 KCAL/MOL
REMARK 923 INTER-LIGAND FREE ENERGY PREDICTED BY IDOCK:   -6.78 KCAL/MOL
REMARK 924 INTRA-LIGAND FREE ENERGY PREDICTED BY IDOCK:   -0.34 KCAL/MOL
REMARK 927      BINDING AFFINITY PREDICTED BY RF-SCORE:    0.00 PKD
ROOT
HETATM    1  C   UNL     1     -12.406  13.554  64.875  1.00  0.00    -0.407 C  
HETATM    2  C   UNL     1     -12.657  12.316  64.010  1.00  0.00    -0.521 C  
HETATM    3  C   UNL     1     -11.263  11.788  63.681  1.00  0.00    -0.519 C  
HETATM    4  C   UNL     1     -10.309  12.758  64.384  1.00  0.00    -0.364 C  
HETATM    5  N   UNL     1     -11.098  13.990  64.375  1.00  0.00    -0.337 NA 
HETATM    6  C   UNL     1      -9.980  12.284  65.801  1.00  0.00    -0.273 C  
HETATM    7  C   UNL     1     -11.127  12.436  66.817  1.00  0.00    -0.285 C  
HETATM    8  C   UNL     1     -10.502  15.123  65.065  1.00  0.00    -0.389 C  
HETATM    9  C   UNL     1     -12.387  13.187  66.364  1.00  0.00    -0.300 C  
ENDROOT
BRANCH   7  10
HETATM   10  O   UNL     1     -11.451  11.111  67.267  1.00  0.00    -0.473 OA 
BRANCH  10  11
HETATM   11  C   UNL     1     -10.706  10.729  68.348  1.00  0.00    -0.217 C  
HETATM   12  O   UNL     1      -9.915  11.467  68.920  1.00  0.00    -0.187 OA 
BRANCH  11  13
HETATM   13  C   UNL     1     -10.865   9.312  68.644  1.00  0.00    -0.120 A  
HETATM   14  C   UNL     1     -10.666   8.266  67.757  1.00  0.00    -0.095 A  
HETATM   15  N   UNL     1     -10.818   7.086  68.432  1.00  0.00    -0.401 NA 
HETATM   16  H   UNL     1     -10.724   6.158  68.016  1.00  0.00     0.000 HD 
HETATM   17  C   UNL     1     -11.115   7.330  69.752  1.00  0.00    -0.182 A  
HETATM   18  C   UNL     1     -11.341   6.436  70.804  1.00  0.00    -0.411 A  
HETATM   19  C   UNL     1     -11.612   6.975  72.066  1.00  0.00    -0.322 A  
HETATM   20  C   UNL     1     -11.647   8.352  72.265  1.00  0.00    -0.453 A  
HETATM   21  C   UNL     1     -11.417   9.231  71.204  1.00  0.00    -0.403 A  
HETATM   22  C   UNL     1     -11.153   8.717  69.916  1.00  0.00    -0.119 A  
ENDBRANCH  11  13
ENDBRANCH  10  11
ENDBRANCH   7  10
TORSDOF 3
ENDMDL
MODEL       59
REMARK 921   NORMALIZED FREE ENERGY PREDICTED BY IDOCK:   -5.67 KCAL/MOL
REMARK 922        TOTAL FREE ENERGY PREDICTED BY IDOCK:   -7.10 KCAL/MOL
REMARK 923 INTER-LIGAND FREE ENERGY PREDICTED BY IDOCK:   -6.91 KCAL/MOL
REMARK 924 INTRA-LIGAND FREE ENERGY PREDICTED BY IDOCK:   -0.19 KCAL/MOL
REMARK 927      BINDING AFFINITY PREDICTED BY RF-SCORE:    0.00 PKD
ROOT
HETATM    1  C   UNL     1      -9.241  17.875  66.727  1.00  0.00    -0.271 C  
HETATM    2  C   UNL     1      -9.083  16.559  65.961  1.00  0.00    -0.290 C  
HETATM    3  C   UNL     1      -8.419  15.612  66.958  1.00  0.00    -0.257 C  
HETATM    4  C   UNL     1      -8.247  16.451  68.228  1.00  0.00    -0.177 C  
HETATM    5  N   UNL     1      -8.118  17.795  67.666  1.00  0.00    -0.219 NA 
HETATM    6  C   UNL     1      -9.459  16.315  69.151  1.00  0.00    -0.246 C  
HETATM    7  C   UNL     1     -10.728  17.039  68.662  1.00  0.00    -0.333 C  
HETATM    8  C   UNL     1      -8.024  18.875  68.636  1.00  0.00    -0.346 C  
HETATM    9  C   UNL     1     -10.604  17.941  67.427  1.00  0.00    -0.370 C  
ENDROOT
BRANCH   7  10
HETATM   10  O   UNL     1     -11.724  16.024  68.462  1.00  0.00    -0.375 OA 
BRANCH  10  11
HETATM   11  C   UNL     1     -11.973  15.303  69.596  1.00  0.00    -0.338 C  
HETATM   12  O   UNL     1     -12.198  15.813  70.686  1.00  0.00    -0.392 OA 
BRANCH  11  13
HETATM   13  C   UNL     1     -11.802  13.873  69.381  1.00  0.00    -0.384 A  
HETATM   14  C   UNL     1     -11.071  13.284  68.360  1.00  0.00    -0.270 A  
HETATM   15  N   UNL     1     -11.068  11.929  68.552  1.00  0.00    -0.224 NA 
HETATM   16  H   UNL     1     -10.602  11.255  67.944  1.00  0.00     0.000 HD 
HETATM   17  C   UNL     1     -11.785  11.609  69.681  1.00  0.00    -0.350 A  
HETATM   18  C   UNL     1     -12.037  10.361  70.262  1.00  0.00    -0.370 A  
HETATM   19  C   UNL     1     -12.795  10.336  71.438  1.00  0.00    -0.544 A  
HETATM   20  C   UNL     1     -13.273  11.513  72.009  1.00  0.00    -0.443 A  
HETATM   21  C   UNL     1     -13.011  12.750  71.415  1.00  0.00    -0.359 A  
HETATM   22  C   UNL     1     -12.258  12.806  70.222  1.00  0.00    -0.351 A  
ENDBRANCH  11  13
ENDBRANCH  10  11
ENDBRANCH   7  10
TORSDOF 3
ENDMDL
MODEL       60
REMARK 921   NORMALIZED FREE ENERGY PREDICTED BY IDOCK:   -5.65 KCAL/MOL
REMARK 922        TOTAL FREE ENERGY PREDICTED BY IDOCK:   -7.08 KCAL/MOL
REMARK 923 INTER-LIGAND FREE ENERGY PREDICTED BY IDOCK:   -6.68 KCAL/MOL
REMARK 924 INTRA-LIGAND FREE ENERGY PREDICTED BY IDOCK:   -0.41 KCAL/MOL
REMARK 927      BINDING AFFINITY PREDICTED BY RF-SCORE:    0.00 PKD
ROOT
HETATM    1  C   UNL     1      -9.058  18.992  68.581  1.00  0.00    -0.359 C  
HETATM    2  C   UNL     1     -10.050  19.934  67.894  1.00  0.00    -0.571 C  
HETATM    3  C   UNL     1      -9.549  20.036  66.455  1.00  0.00    -0.539 C  
HETATM    4  C   UNL     1      -8.306  19.143  66.417  1.00  0.00    -0.318 C  
HETATM    5  N   UNL     1      -7.841  19.241  67.800  1.00  0.00    -0.269 NA 
HETATM    6  C   UNL     1      -8.666  17.709  66.020  1.00  0.00    -0.051 C  
HETATM    7  C   UNL     1      -9.399  16.902  67.108  1.00  0.00    -0.234 C  
HETATM    8  C   UNL     1      -6.692  18.417  68.137  1.00  0.00    -0.222 C  
HETATM    9  C   UNL     1      -9.535  17.537  68.498  1.00  0.00    -0.296 C  
ENDROOT
BRANCH   7  10
HETATM   10  O   UNL     1     -10.686  16.565  66.566  1.00  0.00    -0.260 OA 
BRANCH  10  11
HETATM   11  C   UNL     1     -10.754  15.264  66.151  1.00  0.00    -0.320 C  
HETATM   12  O   UNL     1     -10.603  14.917  64.987  1.00  0.00    -0.386 OA 
BRANCH  11  13
HETATM   13  C   UNL     1     -11.162  14.370  67.226  1.00  0.00    -0.334 A  
HETATM   14  C   UNL     1     -11.880  14.729  68.356  1.00  0.00    -0.286 A  
HETATM   15  N   UNL     1     -12.151  13.599  69.078  1.00  0.00    -0.340 NA 
HETATM   16  H   UNL     1     -12.669  13.578  69.958  1.00  0.00     0.000 HD 
HETATM   17  C   UNL     1     -11.624  12.497  68.448  1.00  0.00    -0.322 A  
HETATM   18  C   UNL     1     -11.664  11.146  68.812  1.00  0.00    -0.394 A  
HETATM   19  C   UNL     1     -11.047  10.226  67.958  1.00  0.00    -0.336 A  
HETATM   20  C   UNL     1     -10.422  10.642  66.786  1.00  0.00    -0.303 A  
HETATM   21  C   UNL     1     -10.392  11.994  66.437  1.00  0.00    -0.246 A  
HETATM   22  C   UNL     1     -10.997  12.948  67.284  1.00  0.00    -0.289 A  
ENDBRANCH  11  13
ENDBRANCH  10  11
ENDBRANCH   7  10
TORSDOF 3
ENDMDL
MODEL       61
REMARK 921   NORMALIZED FREE ENERGY PREDICTED BY IDOCK:   -5.62 KCAL/MOL
REMARK 922        TOTAL FREE ENERGY PREDICTED BY IDOCK:   -7.05 KCAL/MOL
REMARK 923 INTER-LIGAND FREE ENERGY PREDICTED BY IDOCK:   -6.48 KCAL/MOL
REMARK 924 INTRA-LIGAND FREE ENERGY PREDICTED BY IDOCK:   -0.56 KCAL/MOL
REMARK 927      BINDING AFFINITY PREDICTED BY RF-SCORE:    0.00 PKD
ROOT
HETATM    1  C   UNL     1      -8.615  15.459  67.147  1.00  0.00    -0.210 C  
HETATM    2  C   UNL     1      -8.469  14.729  68.484  1.00  0.00    -0.159 C  
HETATM    3  C   UNL     1      -9.460  15.426  69.413  1.00  0.00    -0.267 C  
HETATM    4  C   UNL     1     -10.109  16.506  68.542  1.00  0.00    -0.255 C  
HETATM    5  N   UNL     1      -9.031  16.793  67.594  1.00  0.00    -0.209 NA 
HETATM    6  C   UNL     1     -11.370  15.980  67.853  1.00  0.00    -0.218 C  
HETATM    7  C   UNL     1     -11.112  14.990  66.701  1.00  0.00    -0.326 C  
HETATM    8  C   UNL     1      -9.357  17.742  66.542  1.00  0.00    -0.279 C  
HETATM    9  C   UNL     1      -9.659  14.772  66.258  1.00  0.00    -0.339 C  
ENDROOT
BRANCH   7  10
HETATM   10  O   UNL     1     -11.725  13.749  67.086  1.00  0.00    -0.342 OA 
BRANCH  10  11
HETATM   11  C   UNL     1     -12.023  12.958  66.012  1.00  0.00    -0.446 C  
HETATM   12  O   UNL     1     -12.980  13.152  65.273  1.00  0.00    -0.661 OA 
BRANCH  11  13
HETATM   13  C   UNL     1     -11.155  11.790  65.939  1.00  0.00    -0.355 A  
HETATM   14  C   UNL     1     -10.963  10.853  66.943  1.00  0.00    -0.223 A  
HETATM   15  N   UNL     1     -10.156   9.859  66.463  1.00  0.00    -0.227 NA 
HETATM   16  H   UNL     1      -9.855   9.042  66.996  1.00  0.00     0.000 HD 
HETATM   17  C   UNL     1      -9.808  10.120  65.159  1.00  0.00    -0.325 A  
HETATM   18  C   UNL     1      -9.014   9.381  64.274  1.00  0.00    -0.204 A  
HETATM   19  C   UNL     1      -8.841   9.888  62.981  1.00  0.00    -0.251 A  
HETATM   20  C   UNL     1      -9.444  11.080  62.591  1.00  0.00    -0.322 A  
HETATM   21  C   UNL     1     -10.234  11.804  63.487  1.00  0.00    -0.483 A  
HETATM   22  C   UNL     1     -10.418  11.324  64.802  1.00  0.00    -0.384 A  
ENDBRANCH  11  13
ENDBRANCH  10  11
ENDBRANCH   7  10
TORSDOF 3
ENDMDL
MODEL       62
REMARK 921   NORMALIZED FREE ENERGY PREDICTED BY IDOCK:   -5.60 KCAL/MOL
REMARK 922        TOTAL FREE ENERGY PREDICTED BY IDOCK:   -7.02 KCAL/MOL
REMARK 923 INTER-LIGAND FREE ENERGY PREDICTED BY IDOCK:   -6.72 KCAL/MOL
REMARK 924 INTRA-LIGAND FREE ENERGY PREDICTED BY IDOCK:   -0.30 KCAL/MOL
REMARK 927      BINDING AFFINITY PREDICTED BY RF-SCORE:    0.00 PKD
ROOT
HETATM    1  C   UNL     1     -10.165   7.271  70.756  1.00  0.00    -0.197 C  
HETATM    2  C   UNL     1     -11.365   6.573  70.110  1.00  0.00    -0.463 C  
HETATM    3  C   UNL     1     -12.555   6.973  70.979  1.00  0.00    -0.338 C  
HETATM    4  C   UNL     1     -11.956   7.876  72.060  1.00  0.00    -0.319 C  
HETATM    5  N   UNL     1     -10.597   7.342  72.156  1.00  0.00    -0.214 NA 
HETATM    6  C   UNL     1     -11.980   9.345  71.632  1.00  0.00    -0.465 C  
HETATM    7  C   UNL     1     -10.959   9.717  70.541  1.00  0.00    -0.313 C  
HETATM    8  C   UNL     1      -9.705   8.053  73.060  1.00  0.00    -0.278 C  
HETATM    9  C   UNL     1      -9.932   8.652  70.130  1.00  0.00    -0.193 C  
ENDROOT
BRANCH   7  10
HETATM   10  O   UNL     1     -11.719  10.164  69.408  1.00  0.00    -0.153 OA 
BRANCH  10  11
HETATM   11  C   UNL     1     -11.755  11.527  69.307  1.00  0.00    -0.330 C  
HETATM   12  O   UNL     1     -11.967  12.271  70.256  1.00  0.00    -0.344 OA 
BRANCH  11  13
HETATM   13  C   UNL     1     -11.650  11.973  67.924  1.00  0.00    -0.405 A  
HETATM   14  C   UNL     1     -12.097  13.185  67.422  1.00  0.00    -0.263 A  
HETATM   15  N   UNL     1     -11.732  13.274  66.107  1.00  0.00    -0.356 NA 
HETATM   16  H   UNL     1     -11.936  14.067  65.497  1.00  0.00     0.000 HD 
HETATM   17  C   UNL     1     -11.051  12.142  65.727  1.00  0.00    -0.319 A  
HETATM   18  C   UNL     1     -10.486  11.804  64.492  1.00  0.00    -0.352 A  
HETATM   19  C   UNL     1      -9.827  10.573  64.396  1.00  0.00    -0.405 A  
HETATM   20  C   UNL     1      -9.735   9.721  65.494  1.00  0.00    -0.382 A  
HETATM   21  C   UNL     1     -10.304  10.076  66.719  1.00  0.00    -0.283 A  
HETATM   22  C   UNL     1     -10.984  11.307  66.844  1.00  0.00    -0.348 A  
ENDBRANCH  11  13
ENDBRANCH  10  11
ENDBRANCH   7  10
TORSDOF 3
ENDMDL
MODEL       63
REMARK 921   NORMALIZED FREE ENERGY PREDICTED BY IDOCK:   -5.60 KCAL/MOL
REMARK 922        TOTAL FREE ENERGY PREDICTED BY IDOCK:   -7.02 KCAL/MOL
REMARK 923 INTER-LIGAND FREE ENERGY PREDICTED BY IDOCK:   -6.56 KCAL/MOL
REMARK 924 INTRA-LIGAND FREE ENERGY PREDICTED BY IDOCK:   -0.46 KCAL/MOL
REMARK 927      BINDING AFFINITY PREDICTED BY RF-SCORE:    0.00 PKD
ROOT
HETATM    1  C   UNL     1     -10.100   7.619  69.005  1.00  0.00    -0.198 C  
HETATM    2  C   UNL     1     -10.970   7.847  70.243  1.00  0.00    -0.249 C  
HETATM    3  C   UNL     1     -10.317   9.026  70.960  1.00  0.00    -0.348 C  
HETATM    4  C   UNL     1      -9.119   9.394  70.080  1.00  0.00    -0.231 C  
HETATM    5  N   UNL     1      -8.798   8.100  69.479  1.00  0.00    -0.142 NA 
HETATM    6  C   UNL     1      -9.500  10.447  69.037  1.00  0.00    -0.205 C  
HETATM    7  C   UNL     1     -10.380   9.926  67.885  1.00  0.00    -0.212 C  
HETATM    8  C   UNL     1      -7.729   8.113  68.492  1.00  0.00    -0.112 C  
HETATM    9  C   UNL     1     -10.632   8.414  67.806  1.00  0.00    -0.238 C  
ENDROOT
BRANCH   7  10
HETATM   10  O   UNL     1     -11.617  10.653  67.958  1.00  0.00    -0.464 OA 
BRANCH  10  11
HETATM   11  C   UNL     1     -11.534  11.886  67.373  1.00  0.00    -0.323 C  
HETATM   12  O   UNL     1     -11.149  12.067  66.225  1.00  0.00    -0.289 OA 
BRANCH  11  13
HETATM   13  C   UNL     1     -11.825  12.956  68.318  1.00  0.00    -0.372 A  
HETATM   14  C   UNL     1     -11.815  14.314  68.040  1.00  0.00    -0.344 A  
HETATM   15  N   UNL     1     -12.234  14.990  69.153  1.00  0.00    -0.564 NA 
HETATM   16  H   UNL     1     -12.321  16.005  69.221  1.00  0.00     0.000 HD 
HETATM   17  C   UNL     1     -12.521  14.105  70.165  1.00  0.00    -0.331 A  
HETATM   18  C   UNL     1     -12.986  14.343  71.463  1.00  0.00    -0.406 A  
HETATM   19  C   UNL     1     -13.210  13.232  72.285  1.00  0.00    -0.567 A  
HETATM   20  C   UNL     1     -12.983  11.939  71.821  1.00  0.00    -0.455 A  
HETATM   21  C   UNL     1     -12.519  11.720  70.521  1.00  0.00    -0.317 A  
HETATM   22  C   UNL     1     -12.274  12.822  69.672  1.00  0.00    -0.188 A  
ENDBRANCH  11  13
ENDBRANCH  10  11
ENDBRANCH   7  10
TORSDOF 3
ENDMDL
MODEL       64
REMARK 921   NORMALIZED FREE ENERGY PREDICTED BY IDOCK:   -5.60 KCAL/MOL
REMARK 922        TOTAL FREE ENERGY PREDICTED BY IDOCK:   -7.02 KCAL/MOL
REMARK 923 INTER-LIGAND FREE ENERGY PREDICTED BY IDOCK:   -6.60 KCAL/MOL
REMARK 924 INTRA-LIGAND FREE ENERGY PREDICTED BY IDOCK:   -0.41 KCAL/MOL
REMARK 927      BINDING AFFINITY PREDICTED BY RF-SCORE:    0.00 PKD
ROOT
HETATM    1  C   UNL     1     -10.035  10.649  66.394  1.00  0.00    -0.222 C  
HETATM    2  C   UNL     1     -11.048  10.401  67.515  1.00  0.00    -0.336 C  
HETATM    3  C   UNL     1     -10.385  10.972  68.765  1.00  0.00    -0.217 C  
HETATM    4  C   UNL     1      -9.039  11.513  68.273  1.00  0.00    -0.185 C  
HETATM    5  N   UNL     1      -8.773  10.626  67.140  1.00  0.00    -0.130 NA 
HETATM    6  C   UNL     1      -9.150  12.980  67.855  1.00  0.00    -0.207 C  
HETATM    7  C   UNL     1      -9.902  13.221  66.533  1.00  0.00    -0.281 C  
HETATM    8  C   UNL     1      -7.576  10.930  66.372  1.00  0.00    -0.146 C  
HETATM    9  C   UNL     1     -10.300  11.993  65.704  1.00  0.00    -0.288 C  
ENDROOT
BRANCH   7  10
HETATM   10  O   UNL     1     -11.052  14.018  66.859  1.00  0.00    -0.294 OA 
BRANCH  10  11
HETATM   11  C   UNL     1     -10.998  15.266  66.304  1.00  0.00    -0.300 C  
HETATM   12  O   UNL     1     -10.966  15.470  65.097  1.00  0.00    -0.377 OA 
BRANCH  11  13
HETATM   13  C   UNL     1     -10.845  16.304  67.314  1.00  0.00    -0.216 A  
HETATM   14  C   UNL     1     -10.924  16.124  68.686  1.00  0.00    -0.336 A  
HETATM   15  N   UNL     1     -10.631  17.311  69.299  1.00  0.00    -0.367 NA 
HETATM   16  H   UNL     1     -10.616  17.459  70.309  1.00  0.00     0.000 HD 
HETATM   17  C   UNL     1     -10.359  18.276  68.358  1.00  0.00    -0.343 A  
HETATM   18  C   UNL     1     -10.004  19.620  68.523  1.00  0.00    -0.542 A  
HETATM   19  C   UNL     1      -9.767  20.374  67.368  1.00  0.00    -0.597 A  
HETATM   20  C   UNL     1      -9.876  19.802  66.104  1.00  0.00    -0.544 A  
HETATM   21  C   UNL     1     -10.230  18.459  65.957  1.00  0.00    -0.354 A  
HETATM   22  C   UNL     1     -10.486  17.676  67.104  1.00  0.00    -0.319 A  
ENDBRANCH  11  13
ENDBRANCH  10  11
ENDBRANCH   7  10
TORSDOF 3
ENDMDL
MODEL       65
REMARK 921   NORMALIZED FREE ENERGY PREDICTED BY IDOCK:   -5.59 KCAL/MOL
REMARK 922        TOTAL FREE ENERGY PREDICTED BY IDOCK:   -7.01 KCAL/MOL
REMARK 923 INTER-LIGAND FREE ENERGY PREDICTED BY IDOCK:   -6.60 KCAL/MOL
REMARK 924 INTRA-LIGAND FREE ENERGY PREDICTED BY IDOCK:   -0.40 KCAL/MOL
REMARK 927      BINDING AFFINITY PREDICTED BY RF-SCORE:    0.00 PKD
ROOT
HETATM    1  C   UNL     1      -7.729  19.218  67.951  1.00  0.00    -0.283 C  
HETATM    2  C   UNL     1      -8.581  19.444  69.202  1.00  0.00    -0.148 C  
HETATM    3  C   UNL     1      -9.960  19.818  68.666  1.00  0.00    -0.535 C  
HETATM    4  C   UNL     1      -9.804  19.777  67.143  1.00  0.00    -0.386 C  
HETATM    5  N   UNL     1      -8.388  20.111  66.992  1.00  0.00    -0.320 NA 
HETATM    6  C   UNL     1     -10.140  18.391  66.588  1.00  0.00    -0.399 C  
HETATM    7  C   UNL     1      -9.088  17.305  66.878  1.00  0.00    -0.236 C  
HETATM    8  C   UNL     1      -7.874  20.072  65.632  1.00  0.00    -0.098 C  
HETATM    9  C   UNL     1      -7.765  17.746  67.521  1.00  0.00    -0.214 C  
ENDROOT
BRANCH   7  10
HETATM   10  O   UNL     1      -9.742  16.307  67.677  1.00  0.00    -0.230 OA 
BRANCH  10  11
HETATM   11  C   UNL     1      -9.534  15.041  67.206  1.00  0.00    -0.208 C  
HETATM   12  O   UNL     1      -8.426  14.532  67.098  1.00  0.00    -0.200 OA 
BRANCH  11  13
HETATM   13  C   UNL     1     -10.766  14.431  66.725  1.00  0.00    -0.292 A  
HETATM   14  C   UNL     1     -12.035  14.638  67.243  1.00  0.00    -0.284 A  
HETATM   15  N   UNL     1     -12.939  13.968  66.465  1.00  0.00    -0.289 NA 
HETATM   16  H   UNL     1     -13.947  13.953  66.623  1.00  0.00     0.000 HD 
HETATM   17  C   UNL     1     -12.292  13.320  65.439  1.00  0.00    -0.479 A  
HETATM   18  C   UNL     1     -12.809  12.531  64.405  1.00  0.00    -0.366 A  
HETATM   19  C   UNL     1     -11.904  12.003  63.478  1.00  0.00    -0.587 A  
HETATM   20  C   UNL     1     -10.540  12.262  63.580  1.00  0.00    -0.501 A  
HETATM   21  C   UNL     1     -10.041  13.053  64.619  1.00  0.00    -0.253 A  
HETATM   22  C   UNL     1     -10.929  13.590  65.576  1.00  0.00    -0.295 A  
ENDBRANCH  11  13
ENDBRANCH  10  11
ENDBRANCH   7  10
TORSDOF 3
ENDMDL
MODEL       66
REMARK 921   NORMALIZED FREE ENERGY PREDICTED BY IDOCK:   -5.57 KCAL/MOL
REMARK 922        TOTAL FREE ENERGY PREDICTED BY IDOCK:   -6.98 KCAL/MOL
REMARK 923 INTER-LIGAND FREE ENERGY PREDICTED BY IDOCK:   -6.36 KCAL/MOL
REMARK 924 INTRA-LIGAND FREE ENERGY PREDICTED BY IDOCK:   -0.63 KCAL/MOL
REMARK 927      BINDING AFFINITY PREDICTED BY RF-SCORE:    0.00 PKD
ROOT
HETATM    1  C   UNL     1      -8.812  15.984  67.703  1.00  0.00    -0.185 C  
HETATM    2  C   UNL     1      -8.863  15.746  69.215  1.00  0.00    -0.262 C  
HETATM    3  C   UNL     1     -10.352  15.656  69.540  1.00  0.00    -0.277 C  
HETATM    4  C   UNL     1     -11.052  15.844  68.191  1.00  0.00    -0.338 C  
HETATM    5  N   UNL     1     -10.084  16.681  67.482  1.00  0.00    -0.267 NA 
HETATM    6  C   UNL     1     -11.286  14.502  67.495  1.00  0.00    -0.333 C  
HETATM    7  C   UNL     1     -10.019  13.843  66.918  1.00  0.00    -0.264 C  
HETATM    8  C   UNL     1     -10.409  16.983  66.097  1.00  0.00    -0.319 C  
HETATM    9  C   UNL     1      -8.717  14.656  66.942  1.00  0.00    -0.251 C  
ENDROOT
BRANCH   7  10
HETATM   10  O   UNL     1      -9.860  12.594  67.608  1.00  0.00    -0.202 OA 
BRANCH  10  11
HETATM   11  C   UNL     1     -10.593  11.587  67.043  1.00  0.00    -0.242 C  
HETATM   12  O   UNL     1     -11.056  11.640  65.911  1.00  0.00    -0.303 OA 
BRANCH  11  13
HETATM   13  C   UNL     1     -10.869  10.517  67.992  1.00  0.00    -0.312 A  
HETATM   14  C   UNL     1     -10.454   9.199  67.878  1.00  0.00    -0.237 A  
HETATM   15  N   UNL     1     -10.824   8.525  69.009  1.00  0.00    -0.424 NA 
HETATM   16  H   UNL     1     -10.641   7.537  69.186  1.00  0.00     0.000 HD 
HETATM   17  C   UNL     1     -11.478   9.373  69.872  1.00  0.00    -0.022 A  
HETATM   18  C   UNL     1     -12.018   9.125  71.139  1.00  0.00    -0.374 A  
HETATM   19  C   UNL     1     -12.621  10.197  71.807  1.00  0.00    -0.500 A  
HETATM   20  C   UNL     1     -12.673  11.463  71.231  1.00  0.00    -0.498 A  
HETATM   21  C   UNL     1     -12.127  11.693  69.966  1.00  0.00    -0.395 A  
HETATM   22  C   UNL     1     -11.522  10.628  69.263  1.00  0.00    -0.351 A  
ENDBRANCH  11  13
ENDBRANCH  10  11
ENDBRANCH   7  10
TORSDOF 3
ENDMDL
MODEL       67
REMARK 921   NORMALIZED FREE ENERGY PREDICTED BY IDOCK:   -5.56 KCAL/MOL
REMARK 922        TOTAL FREE ENERGY PREDICTED BY IDOCK:   -6.98 KCAL/MOL
REMARK 923 INTER-LIGAND FREE ENERGY PREDICTED BY IDOCK:   -6.26 KCAL/MOL
REMARK 924 INTRA-LIGAND FREE ENERGY PREDICTED BY IDOCK:   -0.71 KCAL/MOL
REMARK 927      BINDING AFFINITY PREDICTED BY RF-SCORE:    0.00 PKD
ROOT
HETATM    1  C   UNL     1     -12.018  12.751  66.940  1.00  0.00    -0.310 C  
HETATM    2  C   UNL     1     -11.262  12.370  65.665  1.00  0.00    -0.360 C  
HETATM    3  C   UNL     1      -9.912  13.073  65.794  1.00  0.00    -0.260 C  
HETATM    4  C   UNL     1      -9.987  13.804  67.137  1.00  0.00    -0.243 C  
HETATM    5  N   UNL     1     -11.424  14.058  67.244  1.00  0.00    -0.330 NA 
HETATM    6  C   UNL     1      -9.461  12.929  68.276  1.00  0.00    -0.206 C  
HETATM    7  C   UNL     1     -10.389  11.770  68.683  1.00  0.00    -0.214 C  
HETATM    8  C   UNL     1     -11.862  14.680  68.484  1.00  0.00    -0.311 C  
HETATM    9  C   UNL     1     -11.785  11.715  68.046  1.00  0.00    -0.351 C  
ENDROOT
BRANCH   7  10
HETATM   10  O   UNL     1      -9.661  10.557  68.433  1.00  0.00    -0.150 OA 
BRANCH  10  11
HETATM   11  C   UNL     1      -9.394   9.861  69.579  1.00  0.00    -0.220 C  
HETATM   12  O   UNL     1      -8.338   9.944  70.192  1.00  0.00    -0.192 OA 
BRANCH  11  13
HETATM   13  C   UNL     1     -10.455   8.916  69.900  1.00  0.00    -0.223 A  
HETATM   14  C   UNL     1     -10.513   7.589  69.501  1.00  0.00    -0.226 A  
HETATM   15  N   UNL     1     -11.607   7.007  70.080  1.00  0.00    -0.536 NA 
HETATM   16  H   UNL     1     -11.886   6.033  69.954  1.00  0.00     0.000 HD 
HETATM   17  C   UNL     1     -12.277   7.924  70.855  1.00  0.00    -0.121 A  
HETATM   18  C   UNL     1     -13.431   7.774  71.633  1.00  0.00    -0.401 A  
HETATM   19  C   UNL     1     -13.885   8.891  72.341  1.00  0.00    -0.518 A  
HETATM   20  C   UNL     1     -13.207  10.106  72.278  1.00  0.00    -0.359 A  
HETATM   21  C   UNL     1     -12.056  10.238  71.497  1.00  0.00    -0.407 A  
HETATM   22  C   UNL     1     -11.579   9.130  70.762  1.00  0.00    -0.329 A  
ENDBRANCH  11  13
ENDBRANCH  10  11
ENDBRANCH   7  10
TORSDOF 3
ENDMDL
MODEL       68
REMARK 921   NORMALIZED FREE ENERGY PREDICTED BY IDOCK:   -5.53 KCAL/MOL
REMARK 922        TOTAL FREE ENERGY PREDICTED BY IDOCK:   -6.94 KCAL/MOL
REMARK 923 INTER-LIGAND FREE ENERGY PREDICTED BY IDOCK:   -6.58 KCAL/MOL
REMARK 924 INTRA-LIGAND FREE ENERGY PREDICTED BY IDOCK:   -0.36 KCAL/MOL
REMARK 927      BINDING AFFINITY PREDICTED BY RF-SCORE:    0.00 PKD
ROOT
HETATM    1  C   UNL     1     -10.411  13.147  64.398  1.00  0.00    -0.368 C  
HETATM    2  C   UNL     1     -10.125  14.572  64.879  1.00  0.00    -0.245 C  
HETATM    3  C   UNL     1     -11.464  15.072  65.415  1.00  0.00    -0.287 C  
HETATM    4  C   UNL     1     -12.424  13.897  65.207  1.00  0.00    -0.478 C  
HETATM    5  N   UNL     1     -11.830  13.246  64.040  1.00  0.00    -0.433 NA 
HETATM    6  C   UNL     1     -12.456  12.983  66.434  1.00  0.00    -0.044 C  
HETATM    7  C   UNL     1     -11.198  12.118  66.629  1.00  0.00    -0.324 C  
HETATM    8  C   UNL     1     -12.466  12.008  63.619  1.00  0.00    -0.525 C  
HETATM    9  C   UNL     1     -10.144  12.128  65.512  1.00  0.00    -0.275 C  
ENDROOT
BRANCH   7  10
HETATM   10  O   UNL     1     -10.622  12.513  67.884  1.00  0.00    -0.209 OA 
BRANCH  10  11
HETATM   11  C   UNL     1     -10.192  11.445  68.622  1.00  0.00    -0.208 C  
HETATM   12  O   UNL     1      -9.188  10.798  68.354  1.00  0.00    -0.150 OA 
BRANCH  11  13
HETATM   13  C   UNL     1     -11.139  11.091  69.671  1.00  0.00    -0.320 A  
HETATM   14  C   UNL     1     -12.102  11.927  70.215  1.00  0.00    -0.325 A  
HETATM   15  N   UNL     1     -12.855  11.205  71.100  1.00  0.00    -0.385 NA 
HETATM   16  H   UNL     1     -13.636  11.578  71.642  1.00  0.00     0.000 HD 
HETATM   17  C   UNL     1     -12.409   9.906  71.152  1.00  0.00    -0.370 A  
HETATM   18  C   UNL     1     -12.881   8.822  71.902  1.00  0.00    -0.423 A  
HETATM   19  C   UNL     1     -12.233   7.592  71.740  1.00  0.00    -0.345 A  
HETATM   20  C   UNL     1     -11.164   7.454  70.859  1.00  0.00    -0.292 A  
HETATM   21  C   UNL     1     -10.707   8.547  70.118  1.00  0.00    -0.240 A  
HETATM   22  C   UNL     1     -11.333   9.803  70.268  1.00  0.00    -0.333 A  
ENDBRANCH  11  13
ENDBRANCH  10  11
ENDBRANCH   7  10
TORSDOF 3
ENDMDL
MODEL       69
REMARK 921   NORMALIZED FREE ENERGY PREDICTED BY IDOCK:   -5.51 KCAL/MOL
REMARK 922        TOTAL FREE ENERGY PREDICTED BY IDOCK:   -6.92 KCAL/MOL
REMARK 923 INTER-LIGAND FREE ENERGY PREDICTED BY IDOCK:   -6.82 KCAL/MOL
REMARK 924 INTRA-LIGAND FREE ENERGY PREDICTED BY IDOCK:   -0.09 KCAL/MOL
REMARK 927      BINDING AFFINITY PREDICTED BY RF-SCORE:    0.00 PKD
ROOT
HETATM    1  C   UNL     1     -11.975   7.000  71.325  1.00  0.00    -0.346 C  
HETATM    2  C   UNL     1     -13.458   7.292  71.083  1.00  0.00    -0.243 C  
HETATM    3  C   UNL     1     -13.695   8.650  71.740  1.00  0.00    -0.456 C  
HETATM    4  C   UNL     1     -12.329   9.044  72.310  1.00  0.00    -0.332 C  
HETATM    5  N   UNL     1     -11.741   7.731  72.575  1.00  0.00    -0.350 NA 
HETATM    6  C   UNL     1     -11.518   9.855  71.296  1.00  0.00    -0.435 C  
HETATM    7  C   UNL     1     -10.961   9.040  70.115  1.00  0.00    -0.233 C  
HETATM    8  C   UNL     1     -10.368   7.743  73.056  1.00  0.00    -0.347 C  
HETATM    9  C   UNL     1     -11.118   7.514  70.161  1.00  0.00    -0.246 C  
ENDROOT
BRANCH   7  10
HETATM   10  O   UNL     1     -11.558   9.584  68.927  1.00  0.00     0.213 OA 
BRANCH  10  11
HETATM   11  C   UNL     1     -10.915  10.707  68.485  1.00  0.00    -0.248 C  
HETATM   12  O   UNL     1     -10.755  11.709  69.169  1.00  0.00    -0.208 OA 
BRANCH  11  13
HETATM   13  C   UNL     1     -10.571  10.616  67.072  1.00  0.00    -0.317 A  
HETATM   14  C   UNL     1      -9.817   9.614  66.480  1.00  0.00    -0.235 A  
HETATM   15  N   UNL     1      -9.796   9.826  65.129  1.00  0.00    -0.405 NA 
HETATM   16  H   UNL     1      -9.311   9.235  64.452  1.00  0.00     0.000 HD 
HETATM   17  C   UNL     1     -10.521  10.951  64.814  1.00  0.00    -0.303 A  
HETATM   18  C   UNL     1     -10.779  11.536  63.569  1.00  0.00    -0.483 A  
HETATM   19  C   UNL     1     -11.575  12.687  63.547  1.00  0.00    -0.584 A  
HETATM   20  C   UNL     1     -12.095  13.223  64.722  1.00  0.00    -0.456 A  
HETATM   21  C   UNL     1     -11.828  12.624  65.956  1.00  0.00    -0.492 A  
HETATM   22  C   UNL     1     -11.019  11.469  66.012  1.00  0.00    -0.316 A  
ENDBRANCH  11  13
ENDBRANCH  10  11
ENDBRANCH   7  10
TORSDOF 3
ENDMDL
MODEL       70
REMARK 921   NORMALIZED FREE ENERGY PREDICTED BY IDOCK:   -5.50 KCAL/MOL
REMARK 922        TOTAL FREE ENERGY PREDICTED BY IDOCK:   -6.91 KCAL/MOL
REMARK 923 INTER-LIGAND FREE ENERGY PREDICTED BY IDOCK:   -6.51 KCAL/MOL
REMARK 924 INTRA-LIGAND FREE ENERGY PREDICTED BY IDOCK:   -0.40 KCAL/MOL
REMARK 927      BINDING AFFINITY PREDICTED BY RF-SCORE:    0.00 PKD
ROOT
HETATM    1  C   UNL     1      -9.861   7.362  70.909  1.00  0.00    -0.177 C  
HETATM    2  C   UNL     1     -10.977   6.489  70.328  1.00  0.00    -0.365 C  
HETATM    3  C   UNL     1     -11.993   6.362  71.460  1.00  0.00    -0.331 C  
HETATM    4  C   UNL     1     -11.391   7.174  72.610  1.00  0.00    -0.268 C  
HETATM    5  N   UNL     1      -9.960   7.040  72.336  1.00  0.00    -0.164 NA 
HETATM    6  C   UNL     1     -11.861   8.630  72.567  1.00  0.00    -0.342 C  
HETATM    7  C   UNL     1     -11.239   9.477  71.441  1.00  0.00    -0.382 C  
HETATM    8  C   UNL     1      -9.078   7.788  73.218  1.00  0.00    -0.244 C  
HETATM    9  C   UNL     1     -10.114   8.845  70.610  1.00  0.00    -0.262 C  
ENDROOT
BRANCH   7  10
HETATM   10  O   UNL     1     -12.326   9.898  70.601  1.00  0.00    -0.273 OA 
BRANCH  10  11
HETATM   11  C   UNL     1     -12.409  11.258  70.496  1.00  0.00    -0.356 C  
HETATM   12  O   UNL     1     -12.901  11.975  71.358  1.00  0.00    -0.381 OA 
BRANCH  11  13
HETATM   13  C   UNL     1     -11.973  11.731  69.189  1.00  0.00    -0.356 A  
HETATM   14  C   UNL     1     -11.743  10.943  68.072  1.00  0.00    -0.124 A  
HETATM   15  N   UNL     1     -11.442  11.759  67.016  1.00  0.00    -0.471 NA 
HETATM   16  H   UNL     1     -11.230  11.437  66.071  1.00  0.00     0.000 HD 
HETATM   17  C   UNL     1     -11.468  13.075  67.413  1.00  0.00    -0.332 A  
HETATM   18  C   UNL     1     -11.238  14.242  66.675  1.00  0.00    -0.337 A  
HETATM   19  C   UNL     1     -11.350  15.465  67.346  1.00  0.00    -0.243 A  
HETATM   20  C   UNL     1     -11.686  15.515  68.696  1.00  0.00    -0.363 A  
HETATM   21  C   UNL     1     -11.914  14.340  69.417  1.00  0.00    -0.381 A  
HETATM   22  C   UNL     1     -11.797  13.090  68.770  1.00  0.00    -0.355 A  
ENDBRANCH  11  13
ENDBRANCH  10  11
ENDBRANCH   7  10
TORSDOF 3
ENDMDL
MODEL       71
REMARK 921   NORMALIZED FREE ENERGY PREDICTED BY IDOCK:   -5.47 KCAL/MOL
REMARK 922        TOTAL FREE ENERGY PREDICTED BY IDOCK:   -6.86 KCAL/MOL
REMARK 923 INTER-LIGAND FREE ENERGY PREDICTED BY IDOCK:   -6.33 KCAL/MOL
REMARK 924 INTRA-LIGAND FREE ENERGY PREDICTED BY IDOCK:   -0.54 KCAL/MOL
REMARK 927      BINDING AFFINITY PREDICTED BY RF-SCORE:    0.00 PKD
ROOT
HETATM    1  C   UNL     1     -10.343  13.464  64.529  1.00  0.00    -0.373 C  
HETATM    2  C   UNL     1     -10.075  14.587  65.535  1.00  0.00    -0.394 C  
HETATM    3  C   UNL     1     -11.341  14.650  66.387  1.00  0.00    -0.348 C  
HETATM    4  C   UNL     1     -12.245  13.556  65.812  1.00  0.00    -0.461 C  
HETATM    5  N   UNL     1     -11.804  13.525  64.418  1.00  0.00    -0.396 NA 
HETATM    6  C   UNL     1     -12.023  12.221  66.527  1.00  0.00    -0.274 C  
HETATM    7  C   UNL     1     -10.697  11.517  66.184  1.00  0.00    -0.274 C  
HETATM    8  C   UNL     1     -12.420  12.502  63.587  1.00  0.00    -0.470 C  
HETATM    9  C   UNL     1      -9.838  12.118  65.063  1.00  0.00    -0.182 C  
ENDROOT
BRANCH   7  10
HETATM   10  O   UNL     1      -9.955  11.427  67.410  1.00  0.00    -0.184 OA 
BRANCH  10  11
HETATM   11  C   UNL     1      -9.196  10.292  67.481  1.00  0.00    -0.141 C  
HETATM   12  O   UNL     1      -8.039  10.226  67.088  1.00  0.00    -0.119 OA 
BRANCH  11  13
HETATM   13  C   UNL     1      -9.970   9.149  67.947  1.00  0.00    -0.228 A  
HETATM   14  C   UNL     1     -10.328   8.044  67.191  1.00  0.00    -0.325 A  
HETATM   15  N   UNL     1     -10.963   7.146  68.004  1.00  0.00    -0.475 NA 
HETATM   16  H   UNL     1     -11.331   6.243  67.702  1.00  0.00     0.000 HD 
HETATM   17  C   UNL     1     -11.033   7.636  69.287  1.00  0.00    -0.014 A  
HETATM   18  C   UNL     1     -11.579   7.063  70.441  1.00  0.00    -0.341 A  
HETATM   19  C   UNL     1     -11.494   7.794  71.631  1.00  0.00    -0.299 A  
HETATM   20  C   UNL     1     -10.880   9.043  71.663  1.00  0.00    -0.437 A  
HETATM   21  C   UNL     1     -10.338   9.600  70.501  1.00  0.00    -0.359 A  
HETATM   22  C   UNL     1     -10.420   8.891  69.283  1.00  0.00    -0.234 A  
ENDBRANCH  11  13
ENDBRANCH  10  11
ENDBRANCH   7  10
TORSDOF 3
ENDMDL
MODEL       72
REMARK 921   NORMALIZED FREE ENERGY PREDICTED BY IDOCK:   -5.46 KCAL/MOL
REMARK 922        TOTAL FREE ENERGY PREDICTED BY IDOCK:   -6.86 KCAL/MOL
REMARK 923 INTER-LIGAND FREE ENERGY PREDICTED BY IDOCK:   -6.91 KCAL/MOL
REMARK 924 INTRA-LIGAND FREE ENERGY PREDICTED BY IDOCK:    0.05 KCAL/MOL
REMARK 927      BINDING AFFINITY PREDICTED BY RF-SCORE:    0.00 PKD
ROOT
HETATM    1  C   UNL     1      -8.440  17.263  68.477  1.00  0.00    -0.267 C  
HETATM    2  C   UNL     1      -8.918  17.642  67.072  1.00  0.00    -0.258 C  
HETATM    3  C   UNL     1      -7.941  16.941  66.132  1.00  0.00    -0.290 C  
HETATM    4  C   UNL     1      -6.973  16.205  67.062  1.00  0.00    -0.199 C  
HETATM    5  N   UNL     1      -7.005  17.065  68.245  1.00  0.00    -0.174 NA 
HETATM    6  C   UNL     1      -7.459  14.784  67.358  1.00  0.00    -0.221 C  
HETATM    7  C   UNL     1      -8.672  14.700  68.303  1.00  0.00    -0.173 C  
HETATM    8  C   UNL     1      -6.238  16.592  69.387  1.00  0.00    -0.205 C  
HETATM    9  C   UNL     1      -9.147  15.996  68.973  1.00  0.00    -0.242 C  
ENDROOT
BRANCH   7  10
HETATM   10  O   UNL     1      -9.732  14.089  67.551  1.00  0.00    -0.224 OA 
BRANCH  10  11
HETATM   11  C   UNL     1     -10.969  14.517  67.947  1.00  0.00    -0.269 C  
HETATM   12  O   UNL     1     -11.495  15.542  67.534  1.00  0.00    -0.297 OA 
BRANCH  11  13
HETATM   13  C   UNL     1     -11.516  13.687  69.012  1.00  0.00    -0.346 A  
HETATM   14  C   UNL     1     -11.311  12.325  69.171  1.00  0.00    -0.272 A  
HETATM   15  N   UNL     1     -11.906  11.928  70.337  1.00  0.00    -0.509 NA 
HETATM   16  H   UNL     1     -11.907  10.972  70.696  1.00  0.00     0.000 HD 
HETATM   17  C   UNL     1     -12.502  13.002  70.955  1.00  0.00    -0.310 A  
HETATM   18  C   UNL     1     -13.209  13.068  72.161  1.00  0.00    -0.558 A  
HETATM   19  C   UNL     1     -13.698  14.318  72.558  1.00  0.00    -0.608 A  
HETATM   20  C   UNL     1     -13.480  15.453  71.781  1.00  0.00    -0.581 A  
HETATM   21  C   UNL     1     -12.771  15.368  70.580  1.00  0.00    -0.490 A  
HETATM   22  C   UNL     1     -12.275  14.119  70.148  1.00  0.00    -0.415 A  
ENDBRANCH  11  13
ENDBRANCH  10  11
ENDBRANCH   7  10
TORSDOF 3
ENDMDL
MODEL       73
REMARK 921   NORMALIZED FREE ENERGY PREDICTED BY IDOCK:   -5.46 KCAL/MOL
REMARK 922        TOTAL FREE ENERGY PREDICTED BY IDOCK:   -6.86 KCAL/MOL
REMARK 923 INTER-LIGAND FREE ENERGY PREDICTED BY IDOCK:   -6.31 KCAL/MOL
REMARK 924 INTRA-LIGAND FREE ENERGY PREDICTED BY IDOCK:   -0.55 KCAL/MOL
REMARK 927      BINDING AFFINITY PREDICTED BY RF-SCORE:    0.00 PKD
ROOT
HETATM    1  C   UNL     1      -5.788  16.324  67.565  1.00  0.00    -0.155 C  
HETATM    2  C   UNL     1      -5.576  15.837  69.002  1.00  0.00    -0.104 C  
HETATM    3  C   UNL     1      -5.585  17.110  69.844  1.00  0.00    -0.225 C  
HETATM    4  C   UNL     1      -5.806  18.238  68.833  1.00  0.00    -0.207 C  
HETATM    5  N   UNL     1      -5.200  17.666  67.630  1.00  0.00    -0.128 NA 
HETATM    6  C   UNL     1      -7.295  18.538  68.652  1.00  0.00    -0.313 C  
HETATM    7  C   UNL     1      -8.078  17.472  67.864  1.00  0.00    -0.230 C  
HETATM    8  C   UNL     1      -5.319  18.469  66.423  1.00  0.00    -0.141 C  
HETATM    9  C   UNL     1      -7.279  16.339  67.206  1.00  0.00    -0.223 C  
ENDROOT
BRANCH   7  10
HETATM   10  O   UNL     1      -9.071  16.950  68.760  1.00  0.00    -0.256 OA 
BRANCH  10  11
HETATM   11  C   UNL     1     -10.337  17.049  68.255  1.00  0.00    -0.347 C  
HETATM   12  O   UNL     1     -10.757  18.039  67.669  1.00  0.00    -0.415 OA 
BRANCH  11  13
HETATM   13  C   UNL     1     -11.159  15.902  68.616  1.00  0.00    -0.337 A  
HETATM   14  C   UNL     1     -11.624  14.927  67.748  1.00  0.00    -0.339 A  
HETATM   15  N   UNL     1     -12.275  13.969  68.476  1.00  0.00    -0.537 NA 
HETATM   16  H   UNL     1     -12.715  13.135  68.084  1.00  0.00     0.000 HD 
HETATM   17  C   UNL     1     -12.250  14.291  69.812  1.00  0.00    -0.339 A  
HETATM   18  C   UNL     1     -12.775  13.605  70.913  1.00  0.00    -0.382 A  
HETATM   19  C   UNL     1     -12.584  14.170  72.180  1.00  0.00    -0.328 A  
HETATM   20  C   UNL     1     -11.890  15.367  72.334  1.00  0.00    -0.558 A  
HETATM   21  C   UNL     1     -11.371  16.037  71.224  1.00  0.00    -0.397 A  
HETATM   22  C   UNL     1     -11.558  15.498  69.932  1.00  0.00    -0.348 A  
ENDBRANCH  11  13
ENDBRANCH  10  11
ENDBRANCH   7  10
TORSDOF 3
ENDMDL
MODEL       74
REMARK 921   NORMALIZED FREE ENERGY PREDICTED BY IDOCK:   -5.45 KCAL/MOL
REMARK 922        TOTAL FREE ENERGY PREDICTED BY IDOCK:   -6.85 KCAL/MOL
REMARK 923 INTER-LIGAND FREE ENERGY PREDICTED BY IDOCK:   -6.37 KCAL/MOL
REMARK 924 INTRA-LIGAND FREE ENERGY PREDICTED BY IDOCK:   -0.47 KCAL/MOL
REMARK 927      BINDING AFFINITY PREDICTED BY RF-SCORE:    0.00 PKD
ROOT
HETATM    1  C   UNL     1      -9.007   7.218  68.653  1.00  0.00    -0.128 C  
HETATM    2  C   UNL     1      -7.794   8.151  68.602  1.00  0.00    -0.114 C  
HETATM    3  C   UNL     1      -8.076   9.084  67.427  1.00  0.00    -0.108 C  
HETATM    4  C   UNL     1      -9.433   8.624  66.888  1.00  0.00    -0.180 C  
HETATM    5  N   UNL     1      -9.415   7.205  67.244  1.00  0.00    -0.135 NA 
HETATM    6  C   UNL     1     -10.582   9.381  67.558  1.00  0.00    -0.333 C  
HETATM    7  C   UNL     1     -10.855   8.980  69.019  1.00  0.00    -0.067 C  
HETATM    8  C   UNL     1     -10.631   6.466  66.943  1.00  0.00    -0.309 C  
HETATM    9  C   UNL     1     -10.089   7.777  69.585  1.00  0.00    -0.196 C  
ENDROOT
BRANCH   7  10
HETATM   10  O   UNL     1     -10.628  10.155  69.813  1.00  0.00    -0.227 OA 
BRANCH  10  11
HETATM   11  C   UNL     1     -11.787  10.685  70.308  1.00  0.00    -0.342 C  
HETATM   12  O   UNL     1     -12.698  10.009  70.768  1.00  0.00    -0.315 OA 
BRANCH  11  13
HETATM   13  C   UNL     1     -11.862  12.124  70.096  1.00  0.00    -0.368 A  
HETATM   14  C   UNL     1     -11.344  12.817  69.013  1.00  0.00    -0.294 A  
HETATM   15  N   UNL     1     -11.699  14.133  69.126  1.00  0.00    -0.304 NA 
HETATM   16  H   UNL     1     -11.449  14.865  68.460  1.00  0.00     0.000 HD 
HETATM   17  C   UNL     1     -12.443  14.326  70.266  1.00  0.00    -0.361 A  
HETATM   18  C   UNL     1     -13.022  15.494  70.775  1.00  0.00    -0.490 A  
HETATM   19  C   UNL     1     -13.750  15.390  71.966  1.00  0.00    -0.613 A  
HETATM   20  C   UNL     1     -13.895  14.166  72.614  1.00  0.00    -0.504 A  
HETATM   21  C   UNL     1     -13.310  13.010  72.091  1.00  0.00    -0.622 A  
HETATM   22  C   UNL     1     -12.561  13.085  70.896  1.00  0.00    -0.364 A  
ENDBRANCH  11  13
ENDBRANCH  10  11
ENDBRANCH   7  10
TORSDOF 3
ENDMDL
MODEL       75
REMARK 921   NORMALIZED FREE ENERGY PREDICTED BY IDOCK:   -5.45 KCAL/MOL
REMARK 922        TOTAL FREE ENERGY PREDICTED BY IDOCK:   -6.84 KCAL/MOL
REMARK 923 INTER-LIGAND FREE ENERGY PREDICTED BY IDOCK:   -6.42 KCAL/MOL
REMARK 924 INTRA-LIGAND FREE ENERGY PREDICTED BY IDOCK:   -0.42 KCAL/MOL
REMARK 927      BINDING AFFINITY PREDICTED BY RF-SCORE:    0.00 PKD
ROOT
HETATM    1  C   UNL     1      -8.505  17.672  66.305  1.00  0.00    -0.202 C  
HETATM    2  C   UNL     1      -7.445  17.384  67.371  1.00  0.00    -0.201 C  
HETATM    3  C   UNL     1      -8.050  17.914  68.669  1.00  0.00    -0.283 C  
HETATM    4  C   UNL     1      -9.418  18.466  68.257  1.00  0.00    -0.324 C  
HETATM    5  N   UNL     1      -9.163  18.855  66.870  1.00  0.00    -0.294 NA 
HETATM    6  C   UNL     1     -10.506  17.396  68.373  1.00  0.00    -0.384 C  
HETATM    7  C   UNL     1     -10.453  16.299  67.294  1.00  0.00    -0.300 C  
HETATM    8  C   UNL     1     -10.315  19.352  66.134  1.00  0.00    -0.504 C  
HETATM    9  C   UNL     1      -9.455  16.479  66.141  1.00  0.00    -0.347 C  
ENDROOT
BRANCH   7  10
HETATM   10  O   UNL     1     -10.227  15.060  67.983  1.00  0.00    -0.225 OA 
BRANCH  10  11
HETATM   11  C   UNL     1     -11.128  14.094  67.631  1.00  0.00    -0.282 C  
HETATM   12  O   UNL     1     -11.707  14.068  66.553  1.00  0.00    -0.355 OA 
BRANCH  11  13
HETATM   13  C   UNL     1     -11.413  13.189  68.737  1.00  0.00    -0.348 A  
HETATM   14  C   UNL     1     -12.088  13.514  69.903  1.00  0.00    -0.341 A  
HETATM   15  N   UNL     1     -12.242  12.378  70.649  1.00  0.00    -0.427 NA 
HETATM   16  H   UNL     1     -12.706  12.334  71.557  1.00  0.00     0.000 HD 
HETATM   17  C   UNL     1     -11.681  11.304  69.999  1.00  0.00    -0.346 A  
HETATM   18  C   UNL     1     -11.612   9.959  70.377  1.00  0.00    -0.356 A  
HETATM   19  C   UNL     1     -10.985   9.069  69.497  1.00  0.00    -0.118 A  
HETATM   20  C   UNL     1     -10.457   9.511  68.287  1.00  0.00    -0.265 A  
HETATM   21  C   UNL     1     -10.536  10.858  67.925  1.00  0.00    -0.227 A  
HETATM   22  C   UNL     1     -11.152  11.781  68.797  1.00  0.00    -0.293 A  
ENDBRANCH  11  13
ENDBRANCH  10  11
ENDBRANCH   7  10
TORSDOF 3
ENDMDL
MODEL       76
REMARK 921   NORMALIZED FREE ENERGY PREDICTED BY IDOCK:   -5.44 KCAL/MOL
REMARK 922        TOTAL FREE ENERGY PREDICTED BY IDOCK:   -6.84 KCAL/MOL
REMARK 923 INTER-LIGAND FREE ENERGY PREDICTED BY IDOCK:   -6.92 KCAL/MOL
REMARK 924 INTRA-LIGAND FREE ENERGY PREDICTED BY IDOCK:    0.08 KCAL/MOL
REMARK 927      BINDING AFFINITY PREDICTED BY RF-SCORE:    0.00 PKD
ROOT
HETATM    1  C   UNL     1      -9.604  18.852  68.640  1.00  0.00    -0.391 C  
HETATM    2  C   UNL     1     -10.555  19.623  67.722  1.00  0.00    -0.530 C  
HETATM    3  C   UNL     1      -9.667  20.132  66.588  1.00  0.00    -0.568 C  
HETATM    4  C   UNL     1      -8.269  19.612  66.934  1.00  0.00    -0.294 C  
HETATM    5  N   UNL     1      -8.339  19.553  68.394  1.00  0.00    -0.349 NA 
HETATM    6  C   UNL     1      -8.014  18.241  66.303  1.00  0.00    -0.267 C  
HETATM    7  C   UNL     1      -8.776  17.076  66.961  1.00  0.00    -0.221 C  
HETATM    8  C   UNL     1      -7.169  19.001  69.058  1.00  0.00    -0.316 C  
HETATM    9  C   UNL     1      -9.552  17.368  68.253  1.00  0.00    -0.292 C  
ENDROOT
BRANCH   7  10
HETATM   10  O   UNL     1      -9.641  16.534  65.952  1.00  0.00    -0.415 OA 
BRANCH  10  11
HETATM   11  C   UNL     1     -10.433  15.526  66.427  1.00  0.00    -0.306 C  
HETATM   12  O   UNL     1     -11.462  15.715  67.062  1.00  0.00    -0.145 OA 
BRANCH  11  13
HETATM   13  C   UNL     1      -9.835  14.215  66.208  1.00  0.00    -0.321 A  
HETATM   14  C   UNL     1      -8.799  13.659  66.942  1.00  0.00    -0.187 A  
HETATM   15  N   UNL     1      -8.585  12.383  66.497  1.00  0.00    -0.398 NA 
HETATM   16  H   UNL     1      -7.878  11.747  66.866  1.00  0.00     0.000 HD 
HETATM   17  C   UNL     1      -9.460  12.083  65.480  1.00  0.00    -0.104 A  
HETATM   18  C   UNL     1      -9.611  10.905  64.741  1.00  0.00    -0.301 A  
HETATM   19  C   UNL     1     -10.611  10.877  63.762  1.00  0.00    -0.255 A  
HETATM   20  C   UNL     1     -11.428  11.982  63.540  1.00  0.00    -0.536 A  
HETATM   21  C   UNL     1     -11.264  13.150  64.288  1.00  0.00    -0.422 A  
HETATM   22  C   UNL     1     -10.256  13.212  65.275  1.00  0.00    -0.299 A  
ENDBRANCH  11  13
ENDBRANCH  10  11
ENDBRANCH   7  10
TORSDOF 3
ENDMDL
MODEL       77
REMARK 921   NORMALIZED FREE ENERGY PREDICTED BY IDOCK:   -5.44 KCAL/MOL
REMARK 922        TOTAL FREE ENERGY PREDICTED BY IDOCK:   -6.83 KCAL/MOL
REMARK 923 INTER-LIGAND FREE ENERGY PREDICTED BY IDOCK:   -6.44 KCAL/MOL
REMARK 924 INTRA-LIGAND FREE ENERGY PREDICTED BY IDOCK:   -0.40 KCAL/MOL
REMARK 927      BINDING AFFINITY PREDICTED BY RF-SCORE:    0.00 PKD
ROOT
HETATM    1  C   UNL     1      -7.527   8.808  69.871  1.00  0.00    -0.053 C  
HETATM    2  C   UNL     1      -6.705   9.949  69.266  1.00  0.00    -0.055 C  
HETATM    3  C   UNL     1      -7.051   9.925  67.779  1.00  0.00    -0.087 C  
HETATM    4  C   UNL     1      -8.052   8.775  67.636  1.00  0.00    -0.106 C  
HETATM    5  N   UNL     1      -7.633   7.896  68.728  1.00  0.00    -0.098 NA 
HETATM    6  C   UNL     1      -9.491   9.267  67.801  1.00  0.00    -0.160 C  
HETATM    7  C   UNL     1      -9.888   9.635  69.242  1.00  0.00    -0.189 C  
HETATM    8  C   UNL     1      -8.455   6.714  68.934  1.00  0.00    -0.123 C  
HETATM    9  C   UNL     1      -8.889   9.315  70.362  1.00  0.00    -0.271 C  
ENDROOT
BRANCH   7  10
HETATM   10  O   UNL     1     -10.217  11.033  69.230  1.00  0.00    -0.204 OA 
BRANCH  10  11
HETATM   11  C   UNL     1     -11.543  11.256  68.980  1.00  0.00    -0.319 C  
HETATM   12  O   UNL     1     -12.032  11.241  67.858  1.00  0.00    -0.630 OA 
BRANCH  11  13
HETATM   13  C   UNL     1     -12.265  11.647  70.184  1.00  0.00    -0.367 A  
HETATM   14  C   UNL     1     -12.672  10.798  71.201  1.00  0.00    -0.431 A  
HETATM   15  N   UNL     1     -13.230  11.550  72.199  1.00  0.00    -0.559 NA 
HETATM   16  H   UNL     1     -13.612  11.176  73.068  1.00  0.00     0.000 HD 
HETATM   17  C   UNL     1     -13.201  12.882  71.860  1.00  0.00    -0.423 A  
HETATM   18  C   UNL     1     -13.647  14.001  72.572  1.00  0.00    -0.670 A  
HETATM   19  C   UNL     1     -13.473  15.258  71.981  1.00  0.00    -0.547 A  
HETATM   20  C   UNL     1     -12.871  15.385  70.732  1.00  0.00    -0.524 A  
HETATM   21  C   UNL     1     -12.430  14.257  70.036  1.00  0.00    -0.355 A  
HETATM   22  C   UNL     1     -12.603  12.975  70.602  1.00  0.00    -0.270 A  
ENDBRANCH  11  13
ENDBRANCH  10  11
ENDBRANCH   7  10
TORSDOF 3
ENDMDL
MODEL       78
REMARK 921   NORMALIZED FREE ENERGY PREDICTED BY IDOCK:   -5.41 KCAL/MOL
REMARK 922        TOTAL FREE ENERGY PREDICTED BY IDOCK:   -6.80 KCAL/MOL
REMARK 923 INTER-LIGAND FREE ENERGY PREDICTED BY IDOCK:   -6.22 KCAL/MOL
REMARK 924 INTRA-LIGAND FREE ENERGY PREDICTED BY IDOCK:   -0.58 KCAL/MOL
REMARK 927      BINDING AFFINITY PREDICTED BY RF-SCORE:    0.00 PKD
ROOT
HETATM    1  C   UNL     1     -12.148  12.673  66.247  1.00  0.00    -0.289 C  
HETATM    2  C   UNL     1     -11.484  11.667  67.191  1.00  0.00    -0.344 C  
HETATM    3  C   UNL     1     -10.009  11.688  66.799  1.00  0.00    -0.229 C  
HETATM    4  C   UNL     1      -9.928  12.707  65.660  1.00  0.00    -0.242 C  
HETATM    5  N   UNL     1     -11.266  12.591  65.078  1.00  0.00    -0.297 NA 
HETATM    6  C   UNL     1      -9.642  14.113  66.193  1.00  0.00    -0.278 C  
HETATM    7  C   UNL     1     -10.825  14.785  66.914  1.00  0.00    -0.316 C  
HETATM    8  C   UNL     1     -11.562  13.515  63.994  1.00  0.00    -0.353 C  
HETATM    9  C   UNL     1     -12.184  14.072  66.874  1.00  0.00    -0.415 C  
ENDROOT
BRANCH   7  10
HETATM   10  O   UNL     1     -10.401  15.011  68.268  1.00  0.00    -0.230 OA 
BRANCH  10  11
HETATM   11  C   UNL     1     -11.030  16.080  68.841  1.00  0.00    -0.309 C  
HETATM   12  O   UNL     1     -11.123  17.178  68.307  1.00  0.00    -0.310 OA 
BRANCH  11  13
HETATM   13  C   UNL     1     -11.449  15.797  70.208  1.00  0.00    -0.369 A  
HETATM   14  C   UNL     1     -11.501  16.709  71.250  1.00  0.00     0.144 A  
HETATM   15  N   UNL     1     -12.034  16.088  72.346  1.00  0.00    -0.504 NA 
HETATM   16  H   UNL     1     -12.186  16.532  73.253  1.00  0.00     0.000 HD 
HETATM   17  C   UNL     1     -12.337  14.780  72.049  1.00  0.00    -0.341 A  
HETATM   18  C   UNL     1     -12.903  13.783  72.852  1.00  0.00    -0.159 A  
HETATM   19  C   UNL     1     -13.116  12.527  72.272  1.00  0.00    -0.335 A  
HETATM   20  C   UNL     1     -12.780  12.285  70.942  1.00  0.00    -0.277 A  
HETATM   21  C   UNL     1     -12.217  13.293  70.156  1.00  0.00    -0.376 A  
HETATM   22  C   UNL     1     -11.980  14.567  70.716  1.00  0.00    -0.388 A  
ENDBRANCH  11  13
ENDBRANCH  10  11
ENDBRANCH   7  10
TORSDOF 3
ENDMDL
MODEL       79
REMARK 921   NORMALIZED FREE ENERGY PREDICTED BY IDOCK:   -5.39 KCAL/MOL
REMARK 922        TOTAL FREE ENERGY PREDICTED BY IDOCK:   -6.77 KCAL/MOL
REMARK 923 INTER-LIGAND FREE ENERGY PREDICTED BY IDOCK:   -6.12 KCAL/MOL
REMARK 924 INTRA-LIGAND FREE ENERGY PREDICTED BY IDOCK:   -0.65 KCAL/MOL
REMARK 927      BINDING AFFINITY PREDICTED BY RF-SCORE:    0.00 PKD
ROOT
HETATM    1  C   UNL     1      -5.895  18.263  67.701  1.00  0.00    -0.156 C  
HETATM    2  C   UNL     1      -5.844  18.777  69.143  1.00  0.00    -0.235 C  
HETATM    3  C   UNL     1      -7.102  19.629  69.292  1.00  0.00    -0.366 C  
HETATM    4  C   UNL     1      -7.789  19.542  67.926  1.00  0.00    -0.295 C  
HETATM    5  N   UNL     1      -6.641  19.340  67.042  1.00  0.00    -0.192 NA 
HETATM    6  C   UNL     1      -8.779  18.376  67.876  1.00  0.00    -0.296 C  
HETATM    7  C   UNL     1      -8.131  16.981  67.810  1.00  0.00    -0.190 C  
HETATM    8  C   UNL     1      -6.959  19.125  65.639  1.00  0.00    -0.260 C  
HETATM    9  C   UNL     1      -6.609  16.908  67.627  1.00  0.00    -0.163 C  
ENDROOT
BRANCH   7  10
HETATM   10  O   UNL     1      -8.542  16.284  68.996  1.00  0.00    -0.242 OA 
BRANCH  10  11
HETATM   11  C   UNL     1      -8.761  14.953  68.773  1.00  0.00    -0.182 C  
HETATM   12  O   UNL     1      -7.876  14.108  68.803  1.00  0.00    -0.137 OA 
BRANCH  11  13
HETATM   13  C   UNL     1     -10.133  14.689  68.362  1.00  0.00    -0.237 A  
HETATM   14  C   UNL     1     -11.263  14.835  69.152  1.00  0.00    -0.271 A  
HETATM   15  N   UNL     1     -12.367  14.585  68.385  1.00  0.00    -0.605 NA 
HETATM   16  H   UNL     1     -13.331  14.623  68.718  1.00  0.00     0.000 HD 
HETATM   17  C   UNL     1     -11.990  14.275  67.099  1.00  0.00    -0.417 A  
HETATM   18  C   UNL     1     -12.774  13.963  65.982  1.00  0.00    -0.410 A  
HETATM   19  C   UNL     1     -12.110  13.702  64.778  1.00  0.00    -0.435 A  
HETATM   20  C   UNL     1     -10.722  13.759  64.697  1.00  0.00    -0.427 A  
HETATM   21  C   UNL     1      -9.955  14.074  65.822  1.00  0.00    -0.319 A  
HETATM   22  C   UNL     1     -10.596  14.331  67.054  1.00  0.00    -0.280 A  
ENDBRANCH  11  13
ENDBRANCH  10  11
ENDBRANCH   7  10
TORSDOF 3
ENDMDL
MODEL       80
REMARK 921   NORMALIZED FREE ENERGY PREDICTED BY IDOCK:   -5.38 KCAL/MOL
REMARK 922        TOTAL FREE ENERGY PREDICTED BY IDOCK:   -6.76 KCAL/MOL
REMARK 923 INTER-LIGAND FREE ENERGY PREDICTED BY IDOCK:   -6.16 KCAL/MOL
REMARK 924 INTRA-LIGAND FREE ENERGY PREDICTED BY IDOCK:   -0.60 KCAL/MOL
REMARK 927      BINDING AFFINITY PREDICTED BY RF-SCORE:    0.00 PKD
ROOT
HETATM    1  C   UNL     1      -9.295   9.610  65.968  1.00  0.00    -0.207 C  
HETATM    2  C   UNL     1     -10.260   8.646  66.664  1.00  0.00    -0.343 C  
HETATM    3  C   UNL     1     -10.232   9.069  68.131  1.00  0.00    -0.247 C  
HETATM    4  C   UNL     1      -9.256  10.248  68.173  1.00  0.00    -0.136 C  
HETATM    5  N   UNL     1      -8.366   9.921  67.059  1.00  0.00    -0.120 NA 
HETATM    6  C   UNL     1      -9.985  11.578  67.969  1.00  0.00    -0.197 C  
HETATM    7  C   UNL     1     -10.472  11.835  66.531  1.00  0.00    -0.230 C  
HETATM    8  C   UNL     1      -7.345  10.913  66.758  1.00  0.00    -0.134 C  
HETATM    9  C   UNL     1     -10.038  10.844  65.442  1.00  0.00    -0.336 C  
ENDROOT
BRANCH   7  10
HETATM   10  O   UNL     1     -11.903  11.934  66.598  1.00  0.00    -0.591 OA 
BRANCH  10  11
HETATM   11  C   UNL     1     -12.364  13.153  66.185  1.00  0.00    -0.315 C  
HETATM   12  O   UNL     1     -12.943  13.333  65.121  1.00  0.00    -0.705 OA 
BRANCH  11  13
HETATM   13  C   UNL     1     -11.963  14.221  67.090  1.00  0.00    -0.449 A  
HETATM   14  C   UNL     1     -12.384  14.379  68.402  1.00  0.00     0.007 A  
HETATM   15  N   UNL     1     -11.715  15.439  68.950  1.00  0.00    -0.382 NA 
HETATM   16  H   UNL     1     -11.835  15.773  69.907  1.00  0.00     0.000 HD 
HETATM   17  C   UNL     1     -10.858  15.988  68.025  1.00  0.00    -0.335 A  
HETATM   18  C   UNL     1      -9.977  17.068  68.145  1.00  0.00    -0.287 A  
HETATM   19  C   UNL     1      -9.203  17.400  67.028  1.00  0.00    -0.252 A  
HETATM   20  C   UNL     1      -9.305  16.675  65.844  1.00  0.00    -0.192 A  
HETATM   21  C   UNL     1     -10.189  15.599  65.742  1.00  0.00    -0.391 A  
HETATM   22  C   UNL     1     -10.992  15.247  66.849  1.00  0.00    -0.315 A  
ENDBRANCH  11  13
ENDBRANCH  10  11
ENDBRANCH   7  10
TORSDOF 3
ENDMDL
MODEL       81
REMARK 921   NORMALIZED FREE ENERGY PREDICTED BY IDOCK:   -5.38 KCAL/MOL
REMARK 922        TOTAL FREE ENERGY PREDICTED BY IDOCK:   -6.76 KCAL/MOL
REMARK 923 INTER-LIGAND FREE ENERGY PREDICTED BY IDOCK:   -5.98 KCAL/MOL
REMARK 924 INTRA-LIGAND FREE ENERGY PREDICTED BY IDOCK:   -0.78 KCAL/MOL
REMARK 927      BINDING AFFINITY PREDICTED BY RF-SCORE:    0.00 PKD
ROOT
HETATM    1  C   UNL     1     -10.257   6.414  72.014  1.00  0.00    -0.194 C  
HETATM    2  C   UNL     1      -9.919   6.833  73.447  1.00  0.00    -0.247 C  
HETATM    3  C   UNL     1      -8.922   7.979  73.288  1.00  0.00    -0.338 C  
HETATM    4  C   UNL     1      -8.761   8.139  71.773  1.00  0.00    -0.151 C  
HETATM    5  N   UNL     1      -9.021   6.775  71.313  1.00  0.00    -0.140 NA 
HETATM    6  C   UNL     1      -9.766   9.148  71.212  1.00  0.00    -0.351 C  
HETATM    7  C   UNL     1     -11.222   8.648  71.158  1.00  0.00    -0.272 C  
HETATM    8  C   UNL     1      -9.033   6.591  69.870  1.00  0.00    -0.143 C  
HETATM    9  C   UNL     1     -11.484   7.174  71.496  1.00  0.00    -0.298 C  
ENDROOT
BRANCH   7  10
HETATM   10  O   UNL     1     -11.982   9.516  72.013  1.00  0.00    -0.348 OA 
BRANCH  10  11
HETATM   11  C   UNL     1     -13.029  10.107  71.361  1.00  0.00    -0.429 C  
HETATM   12  O   UNL     1     -14.069   9.526  71.084  1.00  0.00    -0.150 OA 
BRANCH  11  13
HETATM   13  C   UNL     1     -12.702  11.457  70.920  1.00  0.00    -0.397 A  
HETATM   14  C   UNL     1     -12.833  12.614  71.671  1.00  0.00    -0.264 A  
HETATM   15  N   UNL     1     -12.335  13.663  70.948  1.00  0.00    -0.366 NA 
HETATM   16  H   UNL     1     -12.307  14.632  71.267  1.00  0.00     0.000 HD 
HETATM   17  C   UNL     1     -11.876  13.222  69.729  1.00  0.00    -0.325 A  
HETATM   18  C   UNL     1     -11.282  13.933  68.680  1.00  0.00    -0.298 A  
HETATM   19  C   UNL     1     -10.893  13.211  67.546  1.00  0.00    -0.269 A  
HETATM   20  C   UNL     1     -11.087  11.834  67.471  1.00  0.00    -0.330 A  
HETATM   21  C   UNL     1     -11.681  11.140  68.529  1.00  0.00    -0.368 A  
HETATM   22  C   UNL     1     -12.093  11.843  69.681  1.00  0.00    -0.304 A  
ENDBRANCH  11  13
ENDBRANCH  10  11
ENDBRANCH   7  10
TORSDOF 3
ENDMDL
MODEL       82
REMARK 921   NORMALIZED FREE ENERGY PREDICTED BY IDOCK:   -5.36 KCAL/MOL
REMARK 922        TOTAL FREE ENERGY PREDICTED BY IDOCK:   -6.74 KCAL/MOL
REMARK 923 INTER-LIGAND FREE ENERGY PREDICTED BY IDOCK:   -6.14 KCAL/MOL
REMARK 924 INTRA-LIGAND FREE ENERGY PREDICTED BY IDOCK:   -0.59 KCAL/MOL
REMARK 927      BINDING AFFINITY PREDICTED BY RF-SCORE:    0.00 PKD
ROOT
HETATM    1  C   UNL     1      -8.639   9.181  68.326  1.00  0.00    -0.129 C  
HETATM    2  C   UNL     1      -8.084  10.607  68.378  1.00  0.00    -0.123 C  
HETATM    3  C   UNL     1      -9.089  11.440  67.587  1.00  0.00    -0.155 C  
HETATM    4  C   UNL     1     -10.154  10.434  67.140  1.00  0.00    -0.208 C  
HETATM    5  N   UNL     1      -9.365   9.205  67.052  1.00  0.00    -0.143 NA 
HETATM    6  C   UNL     1     -11.286  10.332  68.164  1.00  0.00    -0.294 C  
HETATM    7  C   UNL     1     -10.916   9.594  69.465  1.00  0.00    -0.208 C  
HETATM    8  C   UNL     1     -10.113   8.000  66.726  1.00  0.00    -0.287 C  
HETATM    9  C   UNL     1      -9.548   8.903  69.530  1.00  0.00    -0.171 C  
ENDROOT
BRANCH   7  10
HETATM   10  O   UNL     1     -11.064  10.547  70.529  1.00  0.00    -0.300 OA 
BRANCH  10  11
HETATM   11  C   UNL     1     -12.337  10.581  71.028  1.00  0.00    -0.399 C  
HETATM   12  O   UNL     1     -13.072   9.604  71.075  1.00  0.00    -0.319 OA 
BRANCH  11  13
HETATM   13  C   UNL     1     -12.753  11.937  71.363  1.00  0.00    -0.395 A  
HETATM   14  C   UNL     1     -13.528  12.306  72.451  1.00  0.00    -0.104 A  
HETATM   15  N   UNL     1     -13.621  13.670  72.477  1.00  0.00    -0.630 NA 
HETATM   16  H   UNL     1     -14.135  14.207  73.177  1.00  0.00     0.000 HD 
HETATM   17  C   UNL     1     -12.922  14.213  71.425  1.00  0.00    -0.351 A  
HETATM   18  C   UNL     1     -12.733  15.552  71.066  1.00  0.00    -0.526 A  
HETATM   19  C   UNL     1     -11.948  15.816  69.937  1.00  0.00    -0.346 A  
HETATM   20  C   UNL     1     -11.373  14.781  69.206  1.00  0.00    -0.317 A  
HETATM   21  C   UNL     1     -11.571  13.449  69.580  1.00  0.00    -0.334 A  
HETATM   22  C   UNL     1     -12.367  13.151  70.708  1.00  0.00    -0.404 A  
ENDBRANCH  11  13
ENDBRANCH  10  11
ENDBRANCH   7  10
TORSDOF 3
ENDMDL
MODEL       83
REMARK 921   NORMALIZED FREE ENERGY PREDICTED BY IDOCK:   -5.30 KCAL/MOL
REMARK 922        TOTAL FREE ENERGY PREDICTED BY IDOCK:   -6.67 KCAL/MOL
REMARK 923 INTER-LIGAND FREE ENERGY PREDICTED BY IDOCK:   -6.17 KCAL/MOL
REMARK 924 INTRA-LIGAND FREE ENERGY PREDICTED BY IDOCK:   -0.50 KCAL/MOL
REMARK 927      BINDING AFFINITY PREDICTED BY RF-SCORE:    0.00 PKD
ROOT
HETATM    1  C   UNL     1     -11.073  16.417  68.169  1.00  0.00    -0.320 C  
HETATM    2  C   UNL     1     -10.012  16.895  67.174  1.00  0.00    -0.276 C  
HETATM    3  C   UNL     1      -8.722  16.221  67.634  1.00  0.00    -0.188 C  
HETATM    4  C   UNL     1      -9.134  15.400  68.859  1.00  0.00    -0.218 C  
HETATM    5  N   UNL     1     -10.258  16.188  69.366  1.00  0.00    -0.252 NA 
HETATM    6  C   UNL     1      -9.546  13.980  68.463  1.00  0.00    -0.201 C  
HETATM    7  C   UNL     1     -10.906  13.878  67.747  1.00  0.00    -0.250 C  
HETATM    8  C   UNL     1     -10.956  15.623  70.510  1.00  0.00    -0.350 C  
HETATM    9  C   UNL     1     -11.766  15.146  67.663  1.00  0.00    -0.233 C  
ENDROOT
BRANCH   7  10
HETATM   10  O   UNL     1     -10.638  13.348  66.439  1.00  0.00    -0.280 OA 
BRANCH  10  11
HETATM   11  C   UNL     1     -11.457  12.301  66.121  1.00  0.00    -0.374 C  
HETATM   12  O   UNL     1     -12.536  12.431  65.557  1.00  0.00    -0.643 OA 
BRANCH  11  13
HETATM   13  C   UNL     1     -10.959  11.040  66.654  1.00  0.00    -0.253 A  
HETATM   14  C   UNL     1     -10.145  10.137  65.987  1.00  0.00    -0.248 A  
HETATM   15  N   UNL     1      -9.814   9.128  66.849  1.00  0.00    -0.198 NA 
HETATM   16  H   UNL     1      -9.222   8.330  66.615  1.00  0.00     0.000 HD 
HETATM   17  C   UNL     1     -10.395   9.344  68.076  1.00  0.00    -0.220 A  
HETATM   18  C   UNL     1     -10.324   8.587  69.251  1.00  0.00    -0.227 A  
HETATM   19  C   UNL     1     -11.013   9.064  70.372  1.00  0.00    -0.283 A  
HETATM   20  C   UNL     1     -11.737  10.252  70.317  1.00  0.00    -0.388 A  
HETATM   21  C   UNL     1     -11.796  10.996  69.136  1.00  0.00    -0.407 A  
HETATM   22  C   UNL     1     -11.119  10.535  67.986  1.00  0.00    -0.361 A  
ENDBRANCH  11  13
ENDBRANCH  10  11
ENDBRANCH   7  10
TORSDOF 3
ENDMDL
MODEL       84
REMARK 921   NORMALIZED FREE ENERGY PREDICTED BY IDOCK:   -5.30 KCAL/MOL
REMARK 922        TOTAL FREE ENERGY PREDICTED BY IDOCK:   -6.67 KCAL/MOL
REMARK 923 INTER-LIGAND FREE ENERGY PREDICTED BY IDOCK:   -6.18 KCAL/MOL
REMARK 924 INTRA-LIGAND FREE ENERGY PREDICTED BY IDOCK:   -0.49 KCAL/MOL
REMARK 927      BINDING AFFINITY PREDICTED BY RF-SCORE:    0.00 PKD
ROOT
HETATM    1  C   UNL     1      -8.592   6.556  67.383  1.00  0.00    -0.118 C  
HETATM    2  C   UNL     1      -8.949   8.013  67.078  1.00  0.00    -0.156 C  
HETATM    3  C   UNL     1     -10.471   8.019  66.960  1.00  0.00    -0.410 C  
HETATM    4  C   UNL     1     -10.881   6.564  67.209  1.00  0.00    -0.390 C  
HETATM    5  N   UNL     1      -9.699   5.848  66.731  1.00  0.00    -0.146 NA 
HETATM    6  C   UNL     1     -11.158   6.313  68.693  1.00  0.00    -0.409 C  
HETATM    7  C   UNL     1      -9.904   6.272  69.586  1.00  0.00    -0.163 C  
HETATM    8  C   UNL     1      -9.723   4.405  66.910  1.00  0.00    -0.210 C  
HETATM    9  C   UNL     1      -8.533   6.311  68.896  1.00  0.00    -0.120 C  
ENDROOT
BRANCH   7  10
HETATM   10  O   UNL     1     -10.039   7.350  70.526  1.00  0.00    -0.191 OA 
BRANCH  10  11
HETATM   11  C   UNL     1     -11.016   7.118  71.452  1.00  0.00    -0.234 C  
HETATM   12  O   UNL     1     -11.205   6.029  71.980  1.00  0.00    -0.263 OA 
BRANCH  11  13
HETATM   13  C   UNL     1     -11.884   8.274  71.630  1.00  0.00    -0.345 A  
HETATM   14  C   UNL     1     -12.909   8.391  72.556  1.00  0.00    -0.207 A  
HETATM   15  N   UNL     1     -13.425   9.655  72.479  1.00  0.00    -0.646 NA 
HETATM   16  H   UNL     1     -14.192  10.009  73.052  1.00  0.00     0.000 HD 
HETATM   17  C   UNL     1     -12.760  10.380  71.518  1.00  0.00    -0.459 A  
HETATM   18  C   UNL     1     -12.939  11.706  71.108  1.00  0.00    -0.308 A  
HETATM   19  C   UNL     1     -12.095  12.193  70.103  1.00  0.00    -0.368 A  
HETATM   20  C   UNL     1     -11.110  11.386  69.540  1.00  0.00    -0.274 A  
HETATM   21  C   UNL     1     -10.945  10.064  69.963  1.00  0.00    -0.352 A  
HETATM   22  C   UNL     1     -11.789   9.542  70.967  1.00  0.00    -0.408 A  
ENDBRANCH  11  13
ENDBRANCH  10  11
ENDBRANCH   7  10
TORSDOF 3
ENDMDL
MODEL       85
REMARK 921   NORMALIZED FREE ENERGY PREDICTED BY IDOCK:   -5.30 KCAL/MOL
REMARK 922        TOTAL FREE ENERGY PREDICTED BY IDOCK:   -6.66 KCAL/MOL
REMARK 923 INTER-LIGAND FREE ENERGY PREDICTED BY IDOCK:   -6.45 KCAL/MOL
REMARK 924 INTRA-LIGAND FREE ENERGY PREDICTED BY IDOCK:   -0.21 KCAL/MOL
REMARK 927      BINDING AFFINITY PREDICTED BY RF-SCORE:    0.00 PKD
ROOT
HETATM    1  C   UNL     1      -9.211  17.633  67.097  1.00  0.00    -0.245 C  
HETATM    2  C   UNL     1      -9.261  16.543  66.023  1.00  0.00    -0.295 C  
HETATM    3  C   UNL     1      -8.696  15.301  66.709  1.00  0.00    -0.304 C  
HETATM    4  C   UNL     1      -8.366  15.765  68.131  1.00  0.00    -0.160 C  
HETATM    5  N   UNL     1      -8.075  17.181  67.908  1.00  0.00    -0.197 NA 
HETATM    6  C   UNL     1      -9.552  15.551  69.074  1.00  0.00    -0.238 C  
HETATM    7  C   UNL     1     -10.727  16.525  68.866  1.00  0.00    -0.337 C  
HETATM    8  C   UNL     1      -7.801  17.962  69.104  1.00  0.00     0.018 C  
HETATM    9  C   UNL     1     -10.526  17.688  67.884  1.00  0.00    -0.392 C  
ENDROOT
BRANCH   7  10
HETATM   10  O   UNL     1     -11.858  15.724  68.492  1.00  0.00    -0.363 OA 
BRANCH  10  11
HETATM   11  C   UNL     1     -11.857  14.500  69.100  1.00  0.00    -0.319 C  
HETATM   12  O   UNL     1     -11.919  14.346  70.313  1.00  0.00    -0.282 OA 
BRANCH  11  13
HETATM   13  C   UNL     1     -11.635  13.419  68.148  1.00  0.00    -0.376 A  
HETATM   14  C   UNL     1     -11.273  12.118  68.461  1.00  0.00    -0.260 A  
HETATM   15  N   UNL     1     -11.256  11.381  67.310  1.00  0.00    -0.328 NA 
HETATM   16  H   UNL     1     -11.023  10.389  67.254  1.00  0.00     0.000 HD 
HETATM   17  C   UNL     1     -11.600  12.169  66.237  1.00  0.00    -0.360 A  
HETATM   18  C   UNL     1     -11.723  11.842  64.882  1.00  0.00    -0.262 A  
HETATM   19  C   UNL     1     -12.110  12.859  64.002  1.00  0.00    -0.526 A  
HETATM   20  C   UNL     1     -12.369  14.147  64.464  1.00  0.00    -0.419 A  
HETATM   21  C   UNL     1     -12.242  14.456  65.820  1.00  0.00    -0.353 A  
HETATM   22  C   UNL     1     -11.843  13.453  66.731  1.00  0.00    -0.452 A  
ENDBRANCH  11  13
ENDBRANCH  10  11
ENDBRANCH   7  10
TORSDOF 3
ENDMDL
MODEL       86
REMARK 921   NORMALIZED FREE ENERGY PREDICTED BY IDOCK:   -5.29 KCAL/MOL
REMARK 922        TOTAL FREE ENERGY PREDICTED BY IDOCK:   -6.66 KCAL/MOL
REMARK 923 INTER-LIGAND FREE ENERGY PREDICTED BY IDOCK:   -6.20 KCAL/MOL
REMARK 924 INTRA-LIGAND FREE ENERGY PREDICTED BY IDOCK:   -0.46 KCAL/MOL
REMARK 927      BINDING AFFINITY PREDICTED BY RF-SCORE:    0.00 PKD
ROOT
HETATM    1  C   UNL     1      -7.985   9.878  67.141  1.00  0.00    -0.109 C  
HETATM    2  C   UNL     1      -8.376  10.365  65.743  1.00  0.00    -0.158 C  
HETATM    3  C   UNL     1      -9.154   9.201  65.134  1.00  0.00    -0.234 C  
HETATM    4  C   UNL     1      -9.159   8.129  66.228  1.00  0.00    -0.185 C  
HETATM    5  N   UNL     1      -7.910   8.429  66.928  1.00  0.00    -0.095 NA 
HETATM    6  C   UNL     1     -10.385   8.266  67.134  1.00  0.00    -0.387 C  
HETATM    7  C   UNL     1     -10.346   9.466  68.098  1.00  0.00    -0.211 C  
HETATM    8  C   UNL     1      -7.644   7.626  68.111  1.00  0.00    -0.114 C  
HETATM    9  C   UNL     1      -9.045  10.277  68.176  1.00  0.00    -0.136 C  
ENDROOT
BRANCH   7  10
HETATM   10  O   UNL     1     -11.457  10.306  67.748  1.00  0.00    -0.351 OA 
BRANCH  10  11
HETATM   11  C   UNL     1     -11.541  11.418  68.538  1.00  0.00    -0.318 C  
HETATM   12  O   UNL     1     -11.453  11.390  69.759  1.00  0.00    -0.280 OA 
BRANCH  11  13
HETATM   13  C   UNL     1     -11.883  12.608  67.770  1.00  0.00    -0.381 A  
HETATM   14  C   UNL     1     -12.147  13.866  68.288  1.00  0.00    -0.287 A  
HETATM   15  N   UNL     1     -12.330  14.736  67.249  1.00  0.00    -0.430 NA 
HETATM   16  H   UNL     1     -12.538  15.730  67.350  1.00  0.00     0.000 HD 
HETATM   17  C   UNL     1     -12.193  14.078  66.050  1.00  0.00    -0.458 A  
HETATM   18  C   UNL     1     -12.286  14.564  64.741  1.00  0.00    -0.441 A  
HETATM   19  C   UNL     1     -12.082  13.655  63.696  1.00  0.00    -0.397 A  
HETATM   20  C   UNL     1     -11.792  12.318  63.955  1.00  0.00    -0.553 A  
HETATM   21  C   UNL     1     -11.702  11.851  65.268  1.00  0.00    -0.232 A  
HETATM   22  C   UNL     1     -11.914  12.741  66.343  1.00  0.00    -0.443 A  
ENDBRANCH  11  13
ENDBRANCH  10  11
ENDBRANCH   7  10
TORSDOF 3
ENDMDL
MODEL       87
REMARK 921   NORMALIZED FREE ENERGY PREDICTED BY IDOCK:   -5.29 KCAL/MOL
REMARK 922        TOTAL FREE ENERGY PREDICTED BY IDOCK:   -6.65 KCAL/MOL
REMARK 923 INTER-LIGAND FREE ENERGY PREDICTED BY IDOCK:   -6.30 KCAL/MOL
REMARK 924 INTRA-LIGAND FREE ENERGY PREDICTED BY IDOCK:   -0.35 KCAL/MOL
REMARK 927      BINDING AFFINITY PREDICTED BY RF-SCORE:    0.00 PKD
ROOT
HETATM    1  C   UNL     1      -8.463  11.338  66.175  1.00  0.00    -0.135 C  
HETATM    2  C   UNL     1      -9.387  11.650  64.995  1.00  0.00    -0.052 C  
HETATM    3  C   UNL     1     -10.107  10.333  64.713  1.00  0.00    -0.336 C  
HETATM    4  C   UNL     1      -9.549   9.359  65.754  1.00  0.00    -0.271 C  
HETATM    5  N   UNL     1      -8.210   9.908  65.969  1.00  0.00    -0.117 NA 
HETATM    6  C   UNL     1     -10.395   9.364  67.029  1.00  0.00    -0.322 C  
HETATM    7  C   UNL     1     -10.242  10.624  67.902  1.00  0.00    -0.177 C  
HETATM    8  C   UNL     1      -7.418   9.250  66.997  1.00  0.00    -0.091 C  
HETATM    9  C   UNL     1      -9.158  11.637  67.509  1.00  0.00    -0.172 C  
ENDROOT
BRANCH   7  10
HETATM   10  O   UNL     1     -11.536  11.245  67.950  1.00  0.00    -0.441 OA 
BRANCH  10  11
HETATM   11  C   UNL     1     -11.981  11.428  69.230  1.00  0.00    -0.332 C  
HETATM   12  O   UNL     1     -12.347  10.514  69.957  1.00  0.00    -0.284 OA 
BRANCH  11  13
HETATM   13  C   UNL     1     -12.097  12.840  69.569  1.00  0.00    -0.265 A  
HETATM   14  C   UNL     1     -11.678  13.904  68.784  1.00  0.00    -0.357 A  
HETATM   15  N   UNL     1     -12.046  15.070  69.398  1.00  0.00    -0.471 NA 
HETATM   16  H   UNL     1     -11.861  16.005  69.034  1.00  0.00     0.000 HD 
HETATM   17  C   UNL     1     -12.701  14.799  70.576  1.00  0.00    -0.343 A  
HETATM   18  C   UNL     1     -13.259  15.672  71.517  1.00  0.00    -0.555 A  
HETATM   19  C   UNL     1     -13.888  15.107  72.632  1.00  0.00    -0.567 A  
HETATM   20  C   UNL     1     -13.961  13.726  72.791  1.00  0.00    -0.183 A  
HETATM   21  C   UNL     1     -13.400  12.869  71.841  1.00  0.00    -0.530 A  
HETATM   22  C   UNL     1     -12.748  13.410  70.711  1.00  0.00    -0.301 A  
ENDBRANCH  11  13
ENDBRANCH  10  11
ENDBRANCH   7  10
TORSDOF 3
ENDMDL
MODEL       88
REMARK 921   NORMALIZED FREE ENERGY PREDICTED BY IDOCK:   -5.27 KCAL/MOL
REMARK 922        TOTAL FREE ENERGY PREDICTED BY IDOCK:   -6.64 KCAL/MOL
REMARK 923 INTER-LIGAND FREE ENERGY PREDICTED BY IDOCK:   -6.44 KCAL/MOL
REMARK 924 INTRA-LIGAND FREE ENERGY PREDICTED BY IDOCK:   -0.20 KCAL/MOL
REMARK 927      BINDING AFFINITY PREDICTED BY RF-SCORE:    0.00 PKD
ROOT
HETATM    1  C   UNL     1     -11.732  14.491  66.731  1.00  0.00    -0.377 C  
HETATM    2  C   UNL     1     -12.712  13.853  65.742  1.00  0.00    -0.503 C  
HETATM    3  C   UNL     1     -11.863  12.872  64.939  1.00  0.00    -0.409 C  
HETATM    4  C   UNL     1     -10.455  13.012  65.526  1.00  0.00    -0.285 C  
HETATM    5  N   UNL     1     -10.474  14.401  65.983  1.00  0.00    -0.291 NA 
HETATM    6  C   UNL     1     -10.230  12.022  66.670  1.00  0.00    -0.229 C  
HETATM    7  C   UNL     1     -10.973  12.362  67.975  1.00  0.00    -0.225 C  
HETATM    8  C   UNL     1      -9.283  14.847  66.689  1.00  0.00    -0.276 C  
HETATM    9  C   UNL     1     -11.701  13.711  68.052  1.00  0.00    -0.387 C  
ENDROOT
BRANCH   7  10
HETATM   10  O   UNL     1     -11.876  11.274  68.225  1.00  0.00    -0.516 OA 
BRANCH  10  11
HETATM   11  C   UNL     1     -11.776  10.793  69.501  1.00  0.00    -0.312 C  
HETATM   12  O   UNL     1     -12.174  11.400  70.487  1.00  0.00    -0.352 OA 
BRANCH  11  13
HETATM   13  C   UNL     1     -11.023   9.548  69.555  1.00  0.00    -0.217 A  
HETATM   14  C   UNL     1     -10.248   9.019  68.534  1.00  0.00    -0.200 A  
HETATM   15  N   UNL     1      -9.624   7.894  68.999  1.00  0.00    -0.154 NA 
HETATM   16  H   UNL     1      -8.992   7.308  68.452  1.00  0.00     0.000 HD 
HETATM   17  C   UNL     1      -9.971   7.667  70.310  1.00  0.00    -0.189 A  
HETATM   18  C   UNL     1      -9.569   6.650  71.184  1.00  0.00    -0.177 A  
HETATM   19  C   UNL     1     -10.078   6.678  72.488  1.00  0.00    -0.189 A  
HETATM   20  C   UNL     1     -10.946   7.686  72.898  1.00  0.00    -0.456 A  
HETATM   21  C   UNL     1     -11.335   8.694  72.012  1.00  0.00    -0.432 A  
HETATM   22  C   UNL     1     -10.847   8.686  70.687  1.00  0.00    -0.265 A  
ENDBRANCH  11  13
ENDBRANCH  10  11
ENDBRANCH   7  10
TORSDOF 3
ENDMDL
MODEL       89
REMARK 921   NORMALIZED FREE ENERGY PREDICTED BY IDOCK:   -5.27 KCAL/MOL
REMARK 922        TOTAL FREE ENERGY PREDICTED BY IDOCK:   -6.63 KCAL/MOL
REMARK 923 INTER-LIGAND FREE ENERGY PREDICTED BY IDOCK:   -6.09 KCAL/MOL
REMARK 924 INTRA-LIGAND FREE ENERGY PREDICTED BY IDOCK:   -0.54 KCAL/MOL
REMARK 927      BINDING AFFINITY PREDICTED BY RF-SCORE:    0.00 PKD
ROOT
HETATM    1  C   UNL     1     -11.398  12.643  64.649  1.00  0.00    -0.318 C  
HETATM    2  C   UNL     1     -12.392  13.776  64.381  1.00  0.00    -0.389 C  
HETATM    3  C   UNL     1     -12.882  14.194  65.765  1.00  0.00    -0.363 C  
HETATM    4  C   UNL     1     -12.132  13.273  66.732  1.00  0.00    -0.345 C  
HETATM    5  N   UNL     1     -11.930  12.088  65.898  1.00  0.00    -0.519 NA 
HETATM    6  C   UNL     1     -10.812  13.901  67.185  1.00  0.00    -0.288 C  
HETATM    7  C   UNL     1      -9.707  13.928  66.113  1.00  0.00    -0.272 C  
HETATM    8  C   UNL     1     -11.148  11.020  66.502  1.00  0.00    -0.106 C  
HETATM    9  C   UNL     1      -9.972  13.187  64.796  1.00  0.00    -0.149 C  
ENDROOT
BRANCH   7  10
HETATM   10  O   UNL     1      -9.405  15.312  65.875  1.00  0.00    -0.326 OA 
BRANCH  10  11
HETATM   11  C   UNL     1      -8.388  15.769  66.667  1.00  0.00    -0.284 C  
HETATM   12  O   UNL     1      -7.480  15.060  67.080  1.00  0.00    -0.166 OA 
BRANCH  11  13
HETATM   13  C   UNL     1      -8.592  17.155  67.067  1.00  0.00    -0.239 A  
HETATM   14  C   UNL     1      -9.571  17.618  67.932  1.00  0.00    -0.282 A  
HETATM   15  N   UNL     1      -9.377  18.957  68.133  1.00  0.00    -0.312 NA 
HETATM   16  H   UNL     1      -9.957  19.548  68.729  1.00  0.00     0.000 HD 
HETATM   17  C   UNL     1      -8.287  19.391  67.417  1.00  0.00    -0.292 A  
HETATM   18  C   UNL     1      -7.717  20.666  67.329  1.00  0.00    -0.359 A  
HETATM   19  C   UNL     1      -6.583  20.815  66.522  1.00  0.00    -0.331 A  
HETATM   20  C   UNL     1      -6.041  19.730  65.839  1.00  0.00    -0.198 A  
HETATM   21  C   UNL     1      -6.622  18.463  65.940  1.00  0.00    -0.306 A  
HETATM   22  C   UNL     1      -7.773  18.284  66.737  1.00  0.00    -0.247 A  
ENDBRANCH  11  13
ENDBRANCH  10  11
ENDBRANCH   7  10
TORSDOF 3
ENDMDL
MODEL       90
REMARK 921   NORMALIZED FREE ENERGY PREDICTED BY IDOCK:   -5.25 KCAL/MOL
REMARK 922        TOTAL FREE ENERGY PREDICTED BY IDOCK:   -6.61 KCAL/MOL
REMARK 923 INTER-LIGAND FREE ENERGY PREDICTED BY IDOCK:   -5.99 KCAL/MOL
REMARK 924 INTRA-LIGAND FREE ENERGY PREDICTED BY IDOCK:   -0.63 KCAL/MOL
REMARK 927      BINDING AFFINITY PREDICTED BY RF-SCORE:    0.00 PKD
ROOT
HETATM    1  C   UNL     1     -11.725  12.038  66.433  1.00  0.00    -0.252 C  
HETATM    2  C   UNL     1     -10.534  11.077  66.396  1.00  0.00    -0.312 C  
HETATM    3  C   UNL     1      -9.803  11.422  65.100  1.00  0.00    -0.302 C  
HETATM    4  C   UNL     1     -10.625  12.559  64.486  1.00  0.00    -0.336 C  
HETATM    5  N   UNL     1     -11.960  12.257  65.002  1.00  0.00    -0.378 NA 
HETATM    6  C   UNL     1     -10.113  13.925  64.950  1.00  0.00    -0.294 C  
HETATM    7  C   UNL     1     -10.439  14.275  66.413  1.00  0.00    -0.282 C  
HETATM    8  C   UNL     1     -12.996  13.223  64.670  1.00  0.00     0.006 C  
HETATM    9  C   UNL     1     -11.367  13.326  67.185  1.00  0.00    -0.351 C  
ENDROOT
BRANCH   7  10
HETATM   10  O   UNL     1      -9.179  14.424  67.086  1.00  0.00    -0.203 OA 
BRANCH  10  11
HETATM   11  C   UNL     1      -9.257  15.261  68.164  1.00  0.00    -0.183 C  
HETATM   12  O   UNL     1      -9.190  14.879  69.325  1.00  0.00    -0.178 OA 
BRANCH  11  13
HETATM   13  C   UNL     1      -9.566  16.629  67.769  1.00  0.00    -0.236 A  
HETATM   14  C   UNL     1     -10.707  17.339  68.111  1.00  0.00    -0.363 A  
HETATM   15  N   UNL     1     -10.586  18.615  67.635  1.00  0.00    -0.419 NA 
HETATM   16  H   UNL     1     -11.286  19.349  67.748  1.00  0.00     0.000 HD 
HETATM   17  C   UNL     1      -9.386  18.765  66.982  1.00  0.00    -0.297 A  
HETATM   18  C   UNL     1      -8.838  19.889  66.353  1.00  0.00    -0.420 A  
HETATM   19  C   UNL     1      -7.570  19.755  65.775  1.00  0.00    -0.301 A  
HETATM   20  C   UNL     1      -6.880  18.547  65.833  1.00  0.00    -0.318 A  
HETATM   21  C   UNL     1      -7.442  17.436  66.466  1.00  0.00    -0.315 A  
HETATM   22  C   UNL     1      -8.724  17.537  67.048  1.00  0.00    -0.254 A  
ENDBRANCH  11  13
ENDBRANCH  10  11
ENDBRANCH   7  10
TORSDOF 3
ENDMDL
MODEL       91
REMARK 921   NORMALIZED FREE ENERGY PREDICTED BY IDOCK:   -5.25 KCAL/MOL
REMARK 922        TOTAL FREE ENERGY PREDICTED BY IDOCK:   -6.61 KCAL/MOL
REMARK 923 INTER-LIGAND FREE ENERGY PREDICTED BY IDOCK:   -6.10 KCAL/MOL
REMARK 924 INTRA-LIGAND FREE ENERGY PREDICTED BY IDOCK:   -0.51 KCAL/MOL
REMARK 927      BINDING AFFINITY PREDICTED BY RF-SCORE:    0.00 PKD
ROOT
HETATM    1  C   UNL     1     -10.637   8.553  69.114  1.00  0.00    -0.173 C  
HETATM    2  C   UNL     1     -10.267   9.791  69.937  1.00  0.00    -0.291 C  
HETATM    3  C   UNL     1      -8.801   9.582  70.308  1.00  0.00    -0.281 C  
HETATM    4  C   UNL     1      -8.431   8.240  69.670  1.00  0.00    -0.125 C  
HETATM    5  N   UNL     1      -9.723   7.554  69.678  1.00  0.00    -0.167 NA 
HETATM    6  C   UNL     1      -7.879   8.433  68.255  1.00  0.00    -0.110 C  
HETATM    7  C   UNL     1      -8.930   8.819  67.198  1.00  0.00    -0.131 C  
HETATM    8  C   UNL     1      -9.744   6.246  69.042  1.00  0.00    -0.130 C  
HETATM    9  C   UNL     1     -10.406   8.800  67.618  1.00  0.00    -0.317 C  
ENDROOT
BRANCH   7  10
HETATM   10  O   UNL     1      -8.551  10.112  66.702  1.00  0.00    -0.125 OA 
BRANCH  10  11
HETATM   11  C   UNL     1      -8.148  10.074  65.396  1.00  0.00    -0.143 C  
HETATM   12  O   UNL     1      -7.010   9.789  65.046  1.00  0.00    -0.106 OA 
BRANCH  11  13
HETATM   13  C   UNL     1      -9.190  10.543  64.491  1.00  0.00    -0.278 A  
HETATM   14  C   UNL     1      -9.350  10.165  63.167  1.00  0.00    -0.298 A  
HETATM   15  N   UNL     1     -10.492  10.742  62.684  1.00  0.00    -0.724 NA 
HETATM   16  H   UNL     1     -10.848  10.629  61.734  1.00  0.00     0.000 HD 
HETATM   17  C   UNL     1     -11.093  11.496  63.665  1.00  0.00    -0.385 A  
HETATM   18  C   UNL     1     -12.273  12.247  63.626  1.00  0.00    -0.665 A  
HETATM   19  C   UNL     1     -12.658  12.911  64.797  1.00  0.00    -0.493 A  
HETATM   20  C   UNL     1     -11.894  12.819  65.957  1.00  0.00    -0.495 A  
HETATM   21  C   UNL     1     -10.719  12.063  65.978  1.00  0.00    -0.317 A  
HETATM   22  C   UNL     1     -10.300  11.392  64.809  1.00  0.00    -0.349 A  
ENDBRANCH  11  13
ENDBRANCH  10  11
ENDBRANCH   7  10
TORSDOF 3
ENDMDL
MODEL       92
REMARK 921   NORMALIZED FREE ENERGY PREDICTED BY IDOCK:   -5.25 KCAL/MOL
REMARK 922        TOTAL FREE ENERGY PREDICTED BY IDOCK:   -6.61 KCAL/MOL
REMARK 923 INTER-LIGAND FREE ENERGY PREDICTED BY IDOCK:   -5.89 KCAL/MOL
REMARK 924 INTRA-LIGAND FREE ENERGY PREDICTED BY IDOCK:   -0.71 KCAL/MOL
REMARK 927      BINDING AFFINITY PREDICTED BY RF-SCORE:    0.00 PKD
ROOT
HETATM    1  C   UNL     1      -8.972   7.231  68.176  1.00  0.00    -0.132 C  
HETATM    2  C   UNL     1      -9.926   7.632  67.049  1.00  0.00    -0.310 C  
HETATM    3  C   UNL     1     -11.025   6.572  67.080  1.00  0.00    -0.480 C  
HETATM    4  C   UNL     1     -10.625   5.639  68.227  1.00  0.00    -0.181 C  
HETATM    5  N   UNL     1      -9.169   5.778  68.214  1.00  0.00    -0.117 NA 
HETATM    6  C   UNL     1     -11.245   6.091  69.552  1.00  0.00    -0.416 C  
HETATM    7  C   UNL     1     -10.616   7.358  70.160  1.00  0.00    -0.230 C  
HETATM    8  C   UNL     1      -8.460   5.069  69.268  1.00  0.00    -0.088 C  
HETATM    9  C   UNL     1      -9.355   7.922  69.491  1.00  0.00    -0.156 C  
ENDROOT
BRANCH   7  10
HETATM   10  O   UNL     1     -11.658   8.345  70.212  1.00  0.00    -0.148 OA 
BRANCH  10  11
HETATM   11  C   UNL     1     -11.609   9.098  71.352  1.00  0.00    -0.341 C  
HETATM   12  O   UNL     1     -11.314   8.645  72.451  1.00  0.00    -0.359 OA 
BRANCH  11  13
HETATM   13  C   UNL     1     -12.081  10.458  71.127  1.00  0.00    -0.487 A  
HETATM   14  C   UNL     1     -12.979  11.152  71.924  1.00  0.00    -0.372 A  
HETATM   15  N   UNL     1     -13.096  12.426  71.441  1.00  0.00    -0.290 NA 
HETATM   16  H   UNL     1     -13.693  13.150  71.842  1.00  0.00     0.000 HD 
HETATM   17  C   UNL     1     -12.292  12.590  70.337  1.00  0.00    -0.232 A  
HETATM   18  C   UNL     1     -12.085  13.717  69.534  1.00  0.00    -0.386 A  
HETATM   19  C   UNL     1     -11.183  13.598  68.470  1.00  0.00    -0.310 A  
HETATM   20  C   UNL     1     -10.514  12.402  68.228  1.00  0.00    -0.234 A  
HETATM   21  C   UNL     1     -10.731  11.287  69.041  1.00  0.00    -0.257 A  
HETATM   22  C   UNL     1     -11.644  11.373  70.115  1.00  0.00    -0.368 A  
ENDBRANCH  11  13
ENDBRANCH  10  11
ENDBRANCH   7  10
TORSDOF 3
ENDMDL
MODEL       93
REMARK 921   NORMALIZED FREE ENERGY PREDICTED BY IDOCK:   -5.25 KCAL/MOL
REMARK 922        TOTAL FREE ENERGY PREDICTED BY IDOCK:   -6.61 KCAL/MOL
REMARK 923 INTER-LIGAND FREE ENERGY PREDICTED BY IDOCK:   -5.93 KCAL/MOL
REMARK 924 INTRA-LIGAND FREE ENERGY PREDICTED BY IDOCK:   -0.68 KCAL/MOL
REMARK 927      BINDING AFFINITY PREDICTED BY RF-SCORE:    0.00 PKD
ROOT
HETATM    1  C   UNL     1      -8.126   9.441  67.708  1.00  0.00    -0.107 C  
HETATM    2  C   UNL     1      -7.081  10.294  66.985  1.00  0.00    -0.090 C  
HETATM    3  C   UNL     1      -7.474  10.216  65.512  1.00  0.00    -0.146 C  
HETATM    4  C   UNL     1      -8.721   9.328  65.494  1.00  0.00    -0.175 C  
HETATM    5  N   UNL     1      -8.483   8.478  66.661  1.00  0.00    -0.111 NA 
HETATM    6  C   UNL     1      -9.998  10.160  65.626  1.00  0.00    -0.348 C  
HETATM    7  C   UNL     1     -10.247  10.743  67.030  1.00  0.00    -0.217 C  
HETATM    8  C   UNL     1      -9.553   7.549  66.991  1.00  0.00    -0.170 C  
HETATM    9  C   UNL     1      -9.313  10.299  68.164  1.00  0.00    -0.144 C  
ENDROOT
BRANCH   7  10
HETATM   10  O   UNL     1     -10.239  12.172  66.885  1.00  0.00    -0.207 OA 
BRANCH  10  11
HETATM   11  C   UNL     1     -11.499  12.701  66.846  1.00  0.00    -0.343 C  
HETATM   12  O   UNL     1     -12.250  12.591  65.885  1.00  0.00    -0.593 OA 
BRANCH  11  13
HETATM   13  C   UNL     1     -11.782  13.520  68.017  1.00  0.00    -0.394 A  
HETATM   14  C   UNL     1     -11.834  14.904  68.050  1.00  0.00    -0.268 A  
HETATM   15  N   UNL     1     -12.222  15.296  69.302  1.00  0.00    -0.572 NA 
HETATM   16  H   UNL     1     -12.342  16.265  69.600  1.00  0.00     0.000 HD 
HETATM   17  C   UNL     1     -12.427  14.196  70.100  1.00  0.00    -0.331 A  
HETATM   18  C   UNL     1     -12.837  14.117  71.436  1.00  0.00    -0.428 A  
HETATM   19  C   UNL     1     -12.980  12.843  71.996  1.00  0.00    -0.385 A  
HETATM   20  C   UNL     1     -12.730  11.697  71.245  1.00  0.00    -0.444 A  
HETATM   21  C   UNL     1     -12.323  11.795  69.912  1.00  0.00    -0.200 A  
HETATM   22  C   UNL     1     -12.159  13.067  69.323  1.00  0.00    -0.251 A  
ENDBRANCH  11  13
ENDBRANCH  10  11
ENDBRANCH   7  10
TORSDOF 3
ENDMDL
MODEL       94
REMARK 921   NORMALIZED FREE ENERGY PREDICTED BY IDOCK:   -5.24 KCAL/MOL
REMARK 922        TOTAL FREE ENERGY PREDICTED BY IDOCK:   -6.60 KCAL/MOL
REMARK 923 INTER-LIGAND FREE ENERGY PREDICTED BY IDOCK:   -6.08 KCAL/MOL
REMARK 924 INTRA-LIGAND FREE ENERGY PREDICTED BY IDOCK:   -0.52 KCAL/MOL
REMARK 927      BINDING AFFINITY PREDICTED BY RF-SCORE:    0.00 PKD
ROOT
HETATM    1  C   UNL     1      -8.991   7.855  70.422  1.00  0.00    -0.147 C  
HETATM    2  C   UNL     1      -7.769   8.586  69.860  1.00  0.00    -0.091 C  
HETATM    3  C   UNL     1      -8.008   8.633  68.353  1.00  0.00    -0.113 C  
HETATM    4  C   UNL     1      -9.353   7.929  68.155  1.00  0.00    -0.142 C  
HETATM    5  N   UNL     1      -9.359   7.001  69.287  1.00  0.00    -0.146 NA 
HETATM    6  C   UNL     1     -10.514   8.924  68.209  1.00  0.00    -0.243 C  
HETATM    7  C   UNL     1     -10.834   9.470  69.613  1.00  0.00    -0.235 C  
HETATM    8  C   UNL     1     -10.572   6.216  69.451  1.00  0.00    -0.286 C  
HETATM    9  C   UNL     1     -10.096   8.848  70.806  1.00  0.00    -0.282 C  
ENDROOT
BRANCH   7  10
HETATM   10  O   UNL     1     -10.619  10.889  69.557  1.00  0.00    -0.229 OA 
BRANCH  10  11
HETATM   11  C   UNL     1     -11.729  11.601  69.918  1.00  0.00    -0.337 C  
HETATM   12  O   UNL     1     -12.546  11.210  70.742  1.00  0.00    -0.347 OA 
BRANCH  11  13
HETATM   13  C   UNL     1     -11.890  12.803  69.111  1.00  0.00    -0.352 A  
HETATM   14  C   UNL     1     -12.136  14.080  69.592  1.00  0.00    -0.355 A  
HETATM   15  N   UNL     1     -12.127  14.952  68.537  1.00  0.00    -0.581 NA 
HETATM   16  H   UNL     1     -12.281  15.958  68.610  1.00  0.00     0.000 HD 
HETATM   17  C   UNL     1     -11.880  14.276  67.366  1.00  0.00    -0.409 A  
HETATM   18  C   UNL     1     -11.770  14.755  66.056  1.00  0.00    -0.248 A  
HETATM   19  C   UNL     1     -11.493  13.827  65.046  1.00  0.00    -0.340 A  
HETATM   20  C   UNL     1     -11.327  12.476  65.341  1.00  0.00    -0.363 A  
HETATM   21  C   UNL     1     -11.438  12.015  66.655  1.00  0.00    -0.411 A  
HETATM   22  C   UNL     1     -11.728  12.926  67.693  1.00  0.00    -0.422 A  
ENDBRANCH  11  13
ENDBRANCH  10  11
ENDBRANCH   7  10
TORSDOF 3
ENDMDL
MODEL       95
REMARK 921   NORMALIZED FREE ENERGY PREDICTED BY IDOCK:   -5.24 KCAL/MOL
REMARK 922        TOTAL FREE ENERGY PREDICTED BY IDOCK:   -6.60 KCAL/MOL
REMARK 923 INTER-LIGAND FREE ENERGY PREDICTED BY IDOCK:   -6.01 KCAL/MOL
REMARK 924 INTRA-LIGAND FREE ENERGY PREDICTED BY IDOCK:   -0.59 KCAL/MOL
REMARK 927      BINDING AFFINITY PREDICTED BY RF-SCORE:    0.00 PKD
ROOT
HETATM    1  C   UNL     1      -7.001  19.194  66.483  1.00  0.00    -0.208 C  
HETATM    2  C   UNL     1      -6.198  18.392  65.456  1.00  0.00    -0.297 C  
HETATM    3  C   UNL     1      -5.760  17.136  66.207  1.00  0.00    -0.070 C  
HETATM    4  C   UNL     1      -6.346  17.305  67.611  1.00  0.00    -0.150 C  
HETATM    5  N   UNL     1      -6.373  18.762  67.737  1.00  0.00    -0.204 NA 
HETATM    6  C   UNL     1      -7.741  16.683  67.709  1.00  0.00    -0.176 C  
HETATM    7  C   UNL     1      -8.851  17.468  66.986  1.00  0.00    -0.240 C  
HETATM    8  C   UNL     1      -6.973  19.277  68.957  1.00  0.00    -0.346 C  
HETATM    9  C   UNL     1      -8.492  18.844  66.408  1.00  0.00    -0.302 C  
ENDROOT
BRANCH   7  10
HETATM   10  O   UNL     1      -9.366  16.599  65.966  1.00  0.00    -0.381 OA 
BRANCH  10  11
HETATM   11  C   UNL     1     -10.690  16.307  66.146  1.00  0.00    -0.197 C  
HETATM   12  O   UNL     1     -11.370  16.779  67.047  1.00  0.00     0.222 OA 
BRANCH  11  13
HETATM   13  C   UNL     1     -11.149  15.273  65.229  1.00  0.00    -0.382 A  
HETATM   14  C   UNL     1     -11.991  15.460  64.144  1.00  0.00    -0.097 A  
HETATM   15  N   UNL     1     -12.110  14.273  63.474  1.00  0.00    -0.980 NA 
HETATM   16  H   UNL     1     -12.672  14.130  62.634  1.00  0.00     0.000 HD 
HETATM   17  C   UNL     1     -11.362  13.301  64.096  1.00  0.00    -0.386 A  
HETATM   18  C   UNL     1     -11.178  11.955  63.760  1.00  0.00    -0.519 A  
HETATM   19  C   UNL     1     -10.335  11.193  64.578  1.00  0.00    -0.400 A  
HETATM   20  C   UNL     1      -9.701  11.759  65.680  1.00  0.00    -0.256 A  
HETATM   21  C   UNL     1      -9.895  13.105  65.999  1.00  0.00    -0.266 A  
HETATM   22  C   UNL     1     -10.748  13.897  65.200  1.00  0.00    -0.371 A  
ENDBRANCH  11  13
ENDBRANCH  10  11
ENDBRANCH   7  10
TORSDOF 3
ENDMDL
MODEL       96
REMARK 921   NORMALIZED FREE ENERGY PREDICTED BY IDOCK:   -5.24 KCAL/MOL
REMARK 922        TOTAL FREE ENERGY PREDICTED BY IDOCK:   -6.59 KCAL/MOL
REMARK 923 INTER-LIGAND FREE ENERGY PREDICTED BY IDOCK:   -6.12 KCAL/MOL
REMARK 924 INTRA-LIGAND FREE ENERGY PREDICTED BY IDOCK:   -0.47 KCAL/MOL
REMARK 927      BINDING AFFINITY PREDICTED BY RF-SCORE:    0.00 PKD
ROOT
HETATM    1  C   UNL     1     -10.085  14.911  66.895  1.00  0.00    -0.242 C  
HETATM    2  C   UNL     1     -10.488  14.713  68.359  1.00  0.00    -0.243 C  
HETATM    3  C   UNL     1     -11.886  14.103  68.293  1.00  0.00    -0.391 C  
HETATM    4  C   UNL     1     -12.186  13.990  66.796  1.00  0.00    -0.404 C  
HETATM    5  N   UNL     1     -11.394  15.099  66.262  1.00  0.00    -0.276 NA 
HETATM    6  C   UNL     1     -11.743  12.635  66.242  1.00  0.00    -0.460 C  
HETATM    7  C   UNL     1     -10.219  12.459  66.105  1.00  0.00    -0.242 C  
HETATM    8  C   UNL     1     -11.386  15.225  64.813  1.00  0.00    -0.391 C  
HETATM    9  C   UNL     1      -9.332  13.685  66.363  1.00  0.00    -0.203 C  
ENDROOT
BRANCH   7  10
HETATM   10  O   UNL     1      -9.856  11.369  66.967  1.00  0.00    -0.188 OA 
BRANCH  10  11
HETATM   11  C   UNL     1     -10.108  10.150  66.403  1.00  0.00    -0.236 C  
HETATM   12  O   UNL     1     -10.144   9.956  65.195  1.00  0.00    -0.309 OA 
BRANCH  11  13
HETATM   13  C   UNL     1     -10.461   9.151  67.403  1.00  0.00    -0.339 A  
HETATM   14  C   UNL     1     -10.362   7.776  67.253  1.00  0.00    -0.301 A  
HETATM   15  N   UNL     1     -10.693   7.183  68.440  1.00  0.00    -0.348 NA 
HETATM   16  H   UNL     1     -10.703   6.176  68.607  1.00  0.00     0.000 HD 
HETATM   17  C   UNL     1     -11.011   8.139  69.376  1.00  0.00    -0.002 A  
HETATM   18  C   UNL     1     -11.394   7.997  70.714  1.00  0.00    -0.282 A  
HETATM   19  C   UNL     1     -11.644   9.164  71.444  1.00  0.00    -0.411 A  
HETATM   20  C   UNL     1     -11.508  10.420  70.858  1.00  0.00    -0.385 A  
HETATM   21  C   UNL     1     -11.123  10.543  69.521  1.00  0.00    -0.320 A  
HETATM   22  C   UNL     1     -10.875   9.383  68.755  1.00  0.00    -0.147 A  
ENDBRANCH  11  13
ENDBRANCH  10  11
ENDBRANCH   7  10
TORSDOF 3
ENDMDL
MODEL       97
REMARK 921   NORMALIZED FREE ENERGY PREDICTED BY IDOCK:   -5.22 KCAL/MOL
REMARK 922        TOTAL FREE ENERGY PREDICTED BY IDOCK:   -6.57 KCAL/MOL
REMARK 923 INTER-LIGAND FREE ENERGY PREDICTED BY IDOCK:   -6.13 KCAL/MOL
REMARK 924 INTRA-LIGAND FREE ENERGY PREDICTED BY IDOCK:   -0.43 KCAL/MOL
REMARK 927      BINDING AFFINITY PREDICTED BY RF-SCORE:    0.00 PKD
ROOT
HETATM    1  C   UNL     1      -9.771  16.911  66.729  1.00  0.00    -0.266 C  
HETATM    2  C   UNL     1      -8.492  16.377  66.080  1.00  0.00    -0.329 C  
HETATM    3  C   UNL     1      -7.617  15.945  67.254  1.00  0.00    -0.236 C  
HETATM    4  C   UNL     1      -8.458  16.257  68.495  1.00  0.00    -0.206 C  
HETATM    5  N   UNL     1      -9.260  17.385  68.020  1.00  0.00    -0.259 NA 
HETATM    6  C   UNL     1      -9.317  15.057  68.900  1.00  0.00    -0.208 C  
HETATM    7  C   UNL     1     -10.514  14.777  67.973  1.00  0.00    -0.246 C  
HETATM    8  C   UNL     1     -10.258  17.884  68.953  1.00  0.00    -0.330 C  
HETATM    9  C   UNL     1     -10.819  15.800  66.871  1.00  0.00    -0.265 C  
ENDROOT
BRANCH   7  10
HETATM   10  O   UNL     1     -10.300  13.469  67.417  1.00  0.00    -0.235 OA 
BRANCH  10  11
HETATM   11  C   UNL     1     -11.403  12.668  67.525  1.00  0.00    -0.308 C  
HETATM   12  O   UNL     1     -12.285  12.613  66.678  1.00  0.00    -0.517 OA 
BRANCH  11  13
HETATM   13  C   UNL     1     -11.467  12.002  68.819  1.00  0.00    -0.355 A  
HETATM   14  C   UNL     1     -11.999  12.533  69.984  1.00  0.00    -0.299 A  
HETATM   15  N   UNL     1     -11.964  11.572  70.957  1.00  0.00    -0.311 NA 
HETATM   16  H   UNL     1     -12.296  11.698  71.914  1.00  0.00     0.000 HD 
HETATM   17  C   UNL     1     -11.417  10.413  70.459  1.00  0.00    -0.345 A  
HETATM   18  C   UNL     1     -11.196   9.181  71.084  1.00  0.00    -0.395 A  
HETATM   19  C   UNL     1     -10.630   8.157  70.317  1.00  0.00    -0.228 A  
HETATM   20  C   UNL     1     -10.306   8.360  68.978  1.00  0.00    -0.231 A  
HETATM   21  C   UNL     1     -10.535   9.596  68.369  1.00  0.00    -0.258 A  
HETATM   22  C   UNL     1     -11.094  10.652  69.121  1.00  0.00    -0.309 A  
ENDBRANCH  11  13
ENDBRANCH  10  11
ENDBRANCH   7  10
TORSDOF 3
ENDMDL
MODEL       98
REMARK 921   NORMALIZED FREE ENERGY PREDICTED BY IDOCK:   -5.13 KCAL/MOL
REMARK 922        TOTAL FREE ENERGY PREDICTED BY IDOCK:   -6.47 KCAL/MOL
REMARK 923 INTER-LIGAND FREE ENERGY PREDICTED BY IDOCK:   -5.89 KCAL/MOL
REMARK 924 INTRA-LIGAND FREE ENERGY PREDICTED BY IDOCK:   -0.57 KCAL/MOL
REMARK 927      BINDING AFFINITY PREDICTED BY RF-SCORE:    0.00 PKD
ROOT
HETATM    1  C   UNL     1     -11.203   6.073  70.549  1.00  0.00    -0.292 C  
HETATM    2  C   UNL     1     -12.183   7.176  70.955  1.00  0.00    -0.384 C  
HETATM    3  C   UNL     1     -11.295   8.360  71.331  1.00  0.00    -0.317 C  
HETATM    4  C   UNL     1      -9.867   7.854  71.109  1.00  0.00    -0.165 C  
HETATM    5  N   UNL     1     -10.030   6.422  71.358  1.00  0.00    -0.184 NA 
HETATM    6  C   UNL     1      -9.387   8.151  69.687  1.00  0.00    -0.159 C  
HETATM    7  C   UNL     1     -10.028   7.278  68.593  1.00  0.00    -0.166 C  
HETATM    8  C   UNL     1      -8.845   5.607  71.141  1.00  0.00    -0.135 C  
HETATM    9  C   UNL     1     -10.924   6.115  69.041  1.00  0.00    -0.436 C  
ENDROOT
BRANCH   7  10
HETATM   10  O   UNL     1     -10.741   8.172  67.724  1.00  0.00    -0.194 OA 
BRANCH  10  11
HETATM   11  C   UNL     1      -9.985   8.580  66.660  1.00  0.00    -0.293 C  
HETATM   12  O   UNL     1      -9.091   7.905  66.165  1.00  0.00    -0.173 OA 
BRANCH  11  13
HETATM   13  C   UNL     1     -10.278   9.956  66.281  1.00  0.00    -0.282 A  
HETATM   14  C   UNL     1     -10.154  10.495  65.009  1.00  0.00    -0.321 A  
HETATM   15  N   UNL     1     -10.613  11.783  65.035  1.00  0.00    -0.277 NA 
HETATM   16  H   UNL     1     -10.637  12.411  64.231  1.00  0.00     0.000 HD 
HETATM   17  C   UNL     1     -11.040  12.108  66.301  1.00  0.00    -0.310 A  
HETATM   18  C   UNL     1     -11.590  13.300  66.787  1.00  0.00    -0.408 A  
HETATM   19  C   UNL     1     -11.953  13.343  68.138  1.00  0.00    -0.356 A  
HETATM   20  C   UNL     1     -11.777  12.235  68.963  1.00  0.00    -0.376 A  
HETATM   21  C   UNL     1     -11.227  11.053  68.461  1.00  0.00    -0.329 A  
HETATM   22  C   UNL     1     -10.841  10.983  67.105  1.00  0.00    -0.336 A  
ENDBRANCH  11  13
ENDBRANCH  10  11
ENDBRANCH   7  10
TORSDOF 3
ENDMDL
MODEL       99
REMARK 921   NORMALIZED FREE ENERGY PREDICTED BY IDOCK:   -5.12 KCAL/MOL
REMARK 922        TOTAL FREE ENERGY PREDICTED BY IDOCK:   -6.46 KCAL/MOL
REMARK 923 INTER-LIGAND FREE ENERGY PREDICTED BY IDOCK:   -5.98 KCAL/MOL
REMARK 924 INTRA-LIGAND FREE ENERGY PREDICTED BY IDOCK:   -0.48 KCAL/MOL
REMARK 927      BINDING AFFINITY PREDICTED BY RF-SCORE:    0.00 PKD
ROOT
HETATM    1  C   UNL     1      -9.227   7.880  69.684  1.00  0.00    -0.153 C  
HETATM    2  C   UNL     1      -7.862   8.069  69.017  1.00  0.00    -0.109 C  
HETATM    3  C   UNL     1      -8.052   7.542  67.597  1.00  0.00    -0.118 C  
HETATM    4  C   UNL     1      -9.514   7.090  67.547  1.00  0.00    -0.126 C  
HETATM    5  N   UNL     1      -9.748   6.725  68.944  1.00  0.00    -0.137 NA 
HETATM    6  C   UNL     1     -10.429   8.222  67.077  1.00  0.00    -0.384 C  
HETATM    7  C   UNL     1     -10.652   9.344  68.109  1.00  0.00    -0.212 C  
HETATM    8  C   UNL     1     -11.107   6.323  69.270  1.00  0.00    -0.393 C  
HETATM    9  C   UNL     1     -10.095   9.134  69.523  1.00  0.00    -0.202 C  
ENDROOT
BRANCH   7  10
HETATM   10  O   UNL     1     -10.130  10.546  67.522  1.00  0.00    -0.176 OA 
BRANCH  10  11
HETATM   11  C   UNL     1     -11.071  11.533  67.426  1.00  0.00    -0.282 C  
HETATM   12  O   UNL     1     -12.160  11.487  67.984  1.00  0.00    -0.617 OA 
BRANCH  11  13
HETATM   13  C   UNL     1     -10.680  12.567  66.477  1.00  0.00    -0.266 A  
HETATM   14  C   UNL     1     -10.389  12.375  65.135  1.00  0.00    -0.287 A  
HETATM   15  N   UNL     1     -10.160  13.594  64.560  1.00  0.00    -0.655 NA 
HETATM   16  H   UNL     1      -9.925  13.742  63.577  1.00  0.00     0.000 HD 
HETATM   17  C   UNL     1     -10.295  14.593  65.495  1.00  0.00    -0.362 A  
HETATM   18  C   UNL     1     -10.165  15.979  65.357  1.00  0.00    -0.333 A  
HETATM   19  C   UNL     1     -10.376  16.767  66.494  1.00  0.00    -0.301 A  
HETATM   20  C   UNL     1     -10.711  16.188  67.715  1.00  0.00    -0.325 A  
HETATM   21  C   UNL     1     -10.839  14.802  67.835  1.00  0.00    -0.269 A  
HETATM   22  C   UNL     1     -10.620  13.980  66.708  1.00  0.00    -0.277 A  
ENDBRANCH  11  13
ENDBRANCH  10  11
ENDBRANCH   7  10
TORSDOF 3
ENDMDL
MODEL      100
REMARK 921   NORMALIZED FREE ENERGY PREDICTED BY IDOCK:   -5.12 KCAL/MOL
REMARK 922        TOTAL FREE ENERGY PREDICTED BY IDOCK:   -6.46 KCAL/MOL
REMARK 923 INTER-LIGAND FREE ENERGY PREDICTED BY IDOCK:   -5.70 KCAL/MOL
REMARK 924 INTRA-LIGAND FREE ENERGY PREDICTED BY IDOCK:   -0.75 KCAL/MOL
REMARK 927      BINDING AFFINITY PREDICTED BY RF-SCORE:    0.00 PKD
ROOT
HETATM    1  C   UNL     1     -10.417  12.311  65.253  1.00  0.00    -0.282 C  
HETATM    2  C   UNL     1     -10.807  12.666  63.816  1.00  0.00    -0.466 C  
HETATM    3  C   UNL     1     -12.212  13.250  63.932  1.00  0.00    -0.491 C  
HETATM    4  C   UNL     1     -12.529  13.194  65.429  1.00  0.00    -0.481 C  
HETATM    5  N   UNL     1     -11.731  12.041  65.846  1.00  0.00    -0.473 NA 
HETATM    6  C   UNL     1     -12.108  14.484  66.135  1.00  0.00    -0.300 C  
HETATM    7  C   UNL     1     -10.588  14.660  66.308  1.00  0.00    -0.306 C  
HETATM    8  C   UNL     1     -11.736  11.756  67.273  1.00  0.00    -0.217 C  
HETATM    9  C   UNL     1      -9.684  13.479  65.926  1.00  0.00    -0.199 C  
ENDROOT
BRANCH   7  10
HETATM   10  O   UNL     1     -10.228  15.841  65.575  1.00  0.00    -0.344 OA 
BRANCH  10  11
HETATM   11  C   UNL     1      -9.857  16.872  66.394  1.00  0.00    -0.305 C  
HETATM   12  O   UNL     1     -10.635  17.722  66.807  1.00  0.00    -0.318 OA 
BRANCH  11  13
HETATM   13  C   UNL     1      -8.416  16.913  66.598  1.00  0.00    -0.285 A  
HETATM   14  C   UNL     1      -7.508  17.651  65.854  1.00  0.00    -0.150 A  
HETATM   15  N   UNL     1      -6.267  17.504  66.411  1.00  0.00    -0.208 NA 
HETATM   16  H   UNL     1      -5.414  17.942  66.060  1.00  0.00     0.000 HD 
HETATM   17  C   UNL     1      -6.335  16.680  67.510  1.00  0.00    -0.162 A  
HETATM   18  C   UNL     1      -5.326  16.263  68.385  1.00  0.00    -0.105 A  
HETATM   19  C   UNL     1      -5.693  15.424  69.444  1.00  0.00    -0.102 A  
HETATM   20  C   UNL     1      -7.016  15.028  69.620  1.00  0.00    -0.191 A  
HETATM   21  C   UNL     1      -8.010  15.456  68.737  1.00  0.00    -0.158 A  
HETATM   22  C   UNL     1      -7.669  16.293  67.653  1.00  0.00    -0.161 A  
ENDBRANCH  11  13
ENDBRANCH  10  11
ENDBRANCH   7  10
TORSDOF 3
ENDMDL
MODEL      101
REMARK 921   NORMALIZED FREE ENERGY PREDICTED BY IDOCK:   -5.12 KCAL/MOL
REMARK 922        TOTAL FREE ENERGY PREDICTED BY IDOCK:   -6.45 KCAL/MOL
REMARK 923 INTER-LIGAND FREE ENERGY PREDICTED BY IDOCK:   -5.76 KCAL/MOL
REMARK 924 INTRA-LIGAND FREE ENERGY PREDICTED BY IDOCK:   -0.69 KCAL/MOL
REMARK 927      BINDING AFFINITY PREDICTED BY RF-SCORE:    0.00 PKD
ROOT
HETATM    1  C   UNL     1     -10.594   8.338  69.488  1.00  0.00    -0.213 C  
HETATM    2  C   UNL     1     -10.939   8.838  70.893  1.00  0.00    -0.315 C  
HETATM    3  C   UNL     1      -9.586   9.112  71.546  1.00  0.00    -0.278 C  
HETATM    4  C   UNL     1      -8.560   8.754  70.468  1.00  0.00    -0.169 C  
HETATM    5  N   UNL     1      -9.281   7.725  69.718  1.00  0.00    -0.150 NA 
HETATM    6  C   UNL     1      -8.211   9.970  69.607  1.00  0.00    -0.185 C  
HETATM    7  C   UNL     1      -9.315  10.405  68.626  1.00  0.00    -0.167 C  
HETATM    8  C   UNL     1      -8.603   7.217  68.536  1.00  0.00    -0.124 C  
HETATM    9  C   UNL     1     -10.547   9.500  68.489  1.00  0.00    -0.247 C  
ENDROOT
BRANCH   7  10
HETATM   10  O   UNL     1      -9.695  11.737  69.006  1.00  0.00    -0.042 OA 
BRANCH  10  11
HETATM   11  C   UNL     1      -9.334  12.670  68.074  1.00  0.00    -0.209 C  
HETATM   12  O   UNL     1      -8.201  13.120  67.970  1.00  0.00    -0.137 OA 
BRANCH  11  13
HETATM   13  C   UNL     1     -10.482  13.159  67.322  1.00  0.00    -0.243 A  
HETATM   14  C   UNL     1     -11.453  14.031  67.790  1.00  0.00    -0.322 A  
HETATM   15  N   UNL     1     -12.306  14.327  66.763  1.00  0.00    -0.559 NA 
HETATM   16  H   UNL     1     -13.112  14.948  66.834  1.00  0.00     0.000 HD 
HETATM   17  C   UNL     1     -11.919  13.666  65.621  1.00  0.00    -0.395 A  
HETATM   18  C   UNL     1     -12.482  13.678  64.340  1.00  0.00    -0.316 A  
HETATM   19  C   UNL     1     -11.858  12.910  63.350  1.00  0.00    -0.576 A  
HETATM   20  C   UNL     1     -10.714  12.168  63.633  1.00  0.00    -0.518 A  
HETATM   21  C   UNL     1     -10.165  12.169  64.918  1.00  0.00    -0.309 A  
HETATM   22  C   UNL     1     -10.779  12.925  65.939  1.00  0.00    -0.291 A  
ENDBRANCH  11  13
ENDBRANCH  10  11
ENDBRANCH   7  10
TORSDOF 3
ENDMDL
MODEL      102
REMARK 921   NORMALIZED FREE ENERGY PREDICTED BY IDOCK:   -5.11 KCAL/MOL
REMARK 922        TOTAL FREE ENERGY PREDICTED BY IDOCK:   -6.44 KCAL/MOL
REMARK 923 INTER-LIGAND FREE ENERGY PREDICTED BY IDOCK:   -5.78 KCAL/MOL
REMARK 924 INTRA-LIGAND FREE ENERGY PREDICTED BY IDOCK:   -0.66 KCAL/MOL
REMARK 927      BINDING AFFINITY PREDICTED BY RF-SCORE:    0.00 PKD
ROOT
HETATM    1  C   UNL     1      -8.897   8.384  66.217  1.00  0.00    -0.159 C  
HETATM    2  C   UNL     1      -9.881   7.338  66.749  1.00  0.00    -0.281 C  
HETATM    3  C   UNL     1      -9.843   7.512  68.266  1.00  0.00    -0.177 C  
HETATM    4  C   UNL     1      -8.842   8.648  68.497  1.00  0.00    -0.142 C  
HETATM    5  N   UNL     1      -7.960   8.491  67.340  1.00  0.00    -0.102 NA 
HETATM    6  C   UNL     1      -9.542  10.009  68.519  1.00  0.00    -0.157 C  
HETATM    7  C   UNL     1     -10.026  10.509  67.146  1.00  0.00    -0.193 C  
HETATM    8  C   UNL     1      -6.918   9.497  67.203  1.00  0.00    -0.085 C  
HETATM    9  C   UNL     1      -9.614   9.703  65.906  1.00  0.00    -0.321 C  
ENDROOT
BRANCH   7  10
HETATM   10  O   UNL     1     -11.454  10.625  67.234  1.00  0.00    -0.412 OA 
BRANCH  10  11
HETATM   11  C   UNL     1     -11.858  11.891  67.558  1.00  0.00    -0.179 C  
HETATM   12  O   UNL     1     -12.288  12.203  68.661  1.00  0.00    -0.168 OA 
BRANCH  11  13
HETATM   13  C   UNL     1     -11.843  12.779  66.404  1.00  0.00    -0.472 A  
HETATM   14  C   UNL     1     -12.445  12.533  65.179  1.00  0.00    -0.379 A  
HETATM   15  N   UNL     1     -12.293  13.640  64.389  1.00  0.00    -0.592 NA 
HETATM   16  H   UNL     1     -12.644  13.728  63.434  1.00  0.00     0.000 HD 
HETATM   17  C   UNL     1     -11.601  14.615  65.068  1.00  0.00    -0.385 A  
HETATM   18  C   UNL     1     -11.229  15.902  64.662  1.00  0.00    -0.361 A  
HETATM   19  C   UNL     1     -10.533  16.695  65.581  1.00  0.00    -0.313 A  
HETATM   20  C   UNL     1     -10.231  16.219  66.854  1.00  0.00    -0.288 A  
HETATM   21  C   UNL     1     -10.611  14.933  67.243  1.00  0.00    -0.272 A  
HETATM   22  C   UNL     1     -11.304  14.105  66.333  1.00  0.00    -0.342 A  
ENDBRANCH  11  13
ENDBRANCH  10  11
ENDBRANCH   7  10
TORSDOF 3
ENDMDL
MODEL      103
REMARK 921   NORMALIZED FREE ENERGY PREDICTED BY IDOCK:   -5.09 KCAL/MOL
REMARK 922        TOTAL FREE ENERGY PREDICTED BY IDOCK:   -6.42 KCAL/MOL
REMARK 923 INTER-LIGAND FREE ENERGY PREDICTED BY IDOCK:   -5.74 KCAL/MOL
REMARK 924 INTRA-LIGAND FREE ENERGY PREDICTED BY IDOCK:   -0.68 KCAL/MOL
REMARK 927      BINDING AFFINITY PREDICTED BY RF-SCORE:    0.00 PKD
ROOT
HETATM    1  C   UNL     1      -9.140   6.599  69.664  1.00  0.00    -0.142 C  
HETATM    2  C   UNL     1      -8.148   6.067  68.627  1.00  0.00    -0.107 C  
HETATM    3  C   UNL     1      -8.984   5.858  67.367  1.00  0.00    -0.108 C  
HETATM    4  C   UNL     1     -10.397   6.289  67.768  1.00  0.00    -0.195 C  
HETATM    5  N   UNL     1     -10.391   5.990  69.200  1.00  0.00    -0.205 NA 
HETATM    6  C   UNL     1     -10.627   7.774  67.480  1.00  0.00    -0.319 C  
HETATM    7  C   UNL     1      -9.898   8.737  68.435  1.00  0.00    -0.171 C  
HETATM    8  C   UNL     1     -11.591   6.373  69.927  1.00  0.00    -0.353 C  
HETATM    9  C   UNL     1      -9.179   8.133  69.649  1.00  0.00    -0.155 C  
ENDROOT
BRANCH   7  10
HETATM   10  O   UNL     1      -8.991   9.503  67.627  1.00  0.00    -0.119 OA 
BRANCH  10  11
HETATM   11  C   UNL     1      -9.079  10.845  67.869  1.00  0.00    -0.149 C  
HETATM   12  O   UNL     1      -8.288  11.460  68.572  1.00  0.00    -0.146 OA 
BRANCH  11  13
HETATM   13  C   UNL     1     -10.294  11.421  67.307  1.00  0.00    -0.230 A  
HETATM   14  C   UNL     1     -11.320  12.017  68.023  1.00  0.00    -0.296 A  
HETATM   15  N   UNL     1     -12.234  12.519  67.139  1.00  0.00    -0.416 NA 
HETATM   16  H   UNL     1     -13.090  13.011  67.400  1.00  0.00     0.000 HD 
HETATM   17  C   UNL     1     -11.834  12.266  65.848  1.00  0.00    -0.354 A  
HETATM   18  C   UNL     1     -12.444  12.600  64.634  1.00  0.00    -0.538 A  
HETATM   19  C   UNL     1     -11.792  12.222  63.455  1.00  0.00    -0.601 A  
HETATM   20  C   UNL     1     -10.577  11.544  63.493  1.00  0.00    -0.487 A  
HETATM   21  C   UNL     1      -9.981  11.219  64.714  1.00  0.00    -0.327 A  
HETATM   22  C   UNL     1     -10.621  11.577  65.921  1.00  0.00    -0.318 A  
ENDBRANCH  11  13
ENDBRANCH  10  11
ENDBRANCH   7  10
TORSDOF 3
ENDMDL
MODEL      104
REMARK 921   NORMALIZED FREE ENERGY PREDICTED BY IDOCK:   -5.08 KCAL/MOL
REMARK 922        TOTAL FREE ENERGY PREDICTED BY IDOCK:   -6.41 KCAL/MOL
REMARK 923 INTER-LIGAND FREE ENERGY PREDICTED BY IDOCK:   -5.97 KCAL/MOL
REMARK 924 INTRA-LIGAND FREE ENERGY PREDICTED BY IDOCK:   -0.44 KCAL/MOL
REMARK 927      BINDING AFFINITY PREDICTED BY RF-SCORE:    0.00 PKD
ROOT
HETATM    1  C   UNL     1     -11.042   5.931  68.486  1.00  0.00    -0.087 C  
HETATM    2  C   UNL     1     -11.172   6.574  69.869  1.00  0.00    -0.456 C  
HETATM    3  C   UNL     1      -9.762   6.517  70.453  1.00  0.00    -0.186 C  
HETATM    4  C   UNL     1      -8.921   5.849  69.361  1.00  0.00    -0.121 C  
HETATM    5  N   UNL     1      -9.923   5.009  68.704  1.00  0.00    -0.160 NA 
HETATM    6  C   UNL     1      -8.315   6.886  68.414  1.00  0.00    -0.120 C  
HETATM    7  C   UNL     1      -9.318   7.546  67.450  1.00  0.00    -0.140 C  
HETATM    8  C   UNL     1      -9.462   4.282  67.531  1.00  0.00    -0.178 C  
HETATM    9  C   UNL     1     -10.747   6.989  67.415  1.00  0.00    -0.383 C  
ENDROOT
BRANCH   7  10
HETATM   10  O   UNL     1      -9.319   8.949  67.761  1.00  0.00    -0.139 OA 
BRANCH  10  11
HETATM   11  C   UNL     1      -9.268   9.732  66.642  1.00  0.00    -0.150 C  
HETATM   12  O   UNL     1      -8.337   9.720  65.848  1.00  0.00    -0.121 OA 
BRANCH  11  13
HETATM   13  C   UNL     1     -10.380  10.672  66.586  1.00  0.00    -0.297 A  
HETATM   14  C   UNL     1     -11.143  11.098  67.662  1.00  0.00    -0.287 A  
HETATM   15  N   UNL     1     -12.023  12.049  67.224  1.00  0.00    -0.590 NA 
HETATM   16  H   UNL     1     -12.703  12.531  67.813  1.00  0.00     0.000 HD 
HETATM   17  C   UNL     1     -11.858  12.262  65.876  1.00  0.00    -0.354 A  
HETATM   18  C   UNL     1     -12.524  13.142  65.015  1.00  0.00    -0.516 A  
HETATM   19  C   UNL     1     -12.130  13.157  63.672  1.00  0.00    -0.583 A  
HETATM   20  C   UNL     1     -11.108  12.330  63.215  1.00  0.00    -0.389 A  
HETATM   21  C   UNL     1     -10.453  11.459  64.088  1.00  0.00    -0.421 A  
HETATM   22  C   UNL     1     -10.835  11.413  65.446  1.00  0.00    -0.292 A  
ENDBRANCH  11  13
ENDBRANCH  10  11
ENDBRANCH   7  10
TORSDOF 3
ENDMDL
MODEL      105
REMARK 921   NORMALIZED FREE ENERGY PREDICTED BY IDOCK:   -5.06 KCAL/MOL
REMARK 922        TOTAL FREE ENERGY PREDICTED BY IDOCK:   -6.39 KCAL/MOL
REMARK 923 INTER-LIGAND FREE ENERGY PREDICTED BY IDOCK:   -5.90 KCAL/MOL
REMARK 924 INTRA-LIGAND FREE ENERGY PREDICTED BY IDOCK:   -0.49 KCAL/MOL
REMARK 927      BINDING AFFINITY PREDICTED BY RF-SCORE:    0.00 PKD
ROOT
HETATM    1  C   UNL     1      -8.304  18.741  66.394  1.00  0.00    -0.280 C  
HETATM    2  C   UNL     1      -7.427  18.527  67.631  1.00  0.00    -0.236 C  
HETATM    3  C   UNL     1      -8.341  18.850  68.810  1.00  0.00    -0.345 C  
HETATM    4  C   UNL     1      -9.680  19.223  68.168  1.00  0.00    -0.363 C  
HETATM    5  N   UNL     1      -9.239  19.761  66.881  1.00  0.00    -0.340 NA 
HETATM    6  C   UNL     1     -10.581  17.996  68.011  1.00  0.00    -0.361 C  
HETATM    7  C   UNL     1     -10.150  17.014  66.906  1.00  0.00    -0.298 C  
HETATM    8  C   UNL     1     -10.300  20.140  65.961  1.00  0.00    -0.372 C  
HETATM    9  C   UNL     1      -8.999  17.438  65.983  1.00  0.00    -0.086 C  
ENDROOT
BRANCH   7  10
HETATM   10  O   UNL     1      -9.856  15.769  67.559  1.00  0.00    -0.226 OA 
BRANCH  10  11
HETATM   11  C   UNL     1     -10.699  14.764  67.174  1.00  0.00    -0.299 C  
HETATM   12  O   UNL     1     -11.800  14.958  66.673  1.00  0.00    -0.291 OA 
BRANCH  11  13
HETATM   13  C   UNL     1     -10.192  13.453  67.554  1.00  0.00    -0.226 A  
HETATM   14  C   UNL     1      -8.977  12.907  67.172  1.00  0.00    -0.219 A  
HETATM   15  N   UNL     1      -8.819  11.706  67.808  1.00  0.00    -0.154 NA 
HETATM   16  H   UNL     1      -8.009  11.093  67.706  1.00  0.00     0.000 HD 
HETATM   17  C   UNL     1      -9.908  11.446  68.605  1.00  0.00    -0.193 A  
HETATM   18  C   UNL     1     -10.173  10.353  69.438  1.00  0.00    -0.257 A  
HETATM   19  C   UNL     1     -11.374  10.361  70.156  1.00  0.00    -0.397 A  
HETATM   20  C   UNL     1     -12.267  11.424  70.048  1.00  0.00    -0.377 A  
HETATM   21  C   UNL     1     -11.986  12.507  69.212  1.00  0.00    -0.304 A  
HETATM   22  C   UNL     1     -10.787  12.522  68.467  1.00  0.00    -0.271 A  
ENDBRANCH  11  13
ENDBRANCH  10  11
ENDBRANCH   7  10
TORSDOF 3
ENDMDL
MODEL      106
REMARK 921   NORMALIZED FREE ENERGY PREDICTED BY IDOCK:   -5.06 KCAL/MOL
REMARK 922        TOTAL FREE ENERGY PREDICTED BY IDOCK:   -6.38 KCAL/MOL
REMARK 923 INTER-LIGAND FREE ENERGY PREDICTED BY IDOCK:   -5.96 KCAL/MOL
REMARK 924 INTRA-LIGAND FREE ENERGY PREDICTED BY IDOCK:   -0.42 KCAL/MOL
REMARK 927      BINDING AFFINITY PREDICTED BY RF-SCORE:    0.00 PKD
ROOT
HETATM    1  C   UNL     1     -11.584   6.593  71.578  1.00  0.00    -0.309 C  
HETATM    2  C   UNL     1     -11.612   7.903  72.370  1.00  0.00    -0.436 C  
HETATM    3  C   UNL     1     -10.199   8.042  72.930  1.00  0.00    -0.384 C  
HETATM    4  C   UNL     1      -9.458   6.804  72.418  1.00  0.00    -0.143 C  
HETATM    5  N   UNL     1     -10.554   5.842  72.304  1.00  0.00    -0.208 NA 
HETATM    6  C   UNL     1      -8.779   7.080  71.074  1.00  0.00    -0.139 C  
HETATM    7  C   UNL     1      -9.740   7.190  69.876  1.00  0.00    -0.170 C  
HETATM    8  C   UNL     1     -10.199   4.548  71.744  1.00  0.00    -0.156 C  
HETATM    9  C   UNL     1     -11.217   6.846  70.110  1.00  0.00    -0.361 C  
ENDROOT
BRANCH   7  10
HETATM   10  O   UNL     1      -9.596   8.522  69.358  1.00  0.00    -0.167 OA 
BRANCH  10  11
HETATM   11  C   UNL     1     -10.035   8.633  68.069  1.00  0.00    -0.182 C  
HETATM   12  O   UNL     1      -9.800   7.804  67.199  1.00  0.00    -0.169 OA 
BRANCH  11  13
HETATM   13  C   UNL     1     -10.691   9.911  67.826  1.00  0.00    -0.332 A  
HETATM   14  C   UNL     1     -11.441  10.630  68.744  1.00  0.00    -0.262 A  
HETATM   15  N   UNL     1     -11.807  11.818  68.173  1.00  0.00    -0.519 NA 
HETATM   16  H   UNL     1     -12.365  12.538  68.632  1.00  0.00     0.000 HD 
HETATM   17  C   UNL     1     -11.314  11.900  66.893  1.00  0.00    -0.330 A  
HETATM   18  C   UNL     1     -11.428  12.926  65.948  1.00  0.00    -0.387 A  
HETATM   19  C   UNL     1     -10.801  12.742  64.711  1.00  0.00    -0.335 A  
HETATM   20  C   UNL     1     -10.084  11.580  64.437  1.00  0.00    -0.328 A  
HETATM   21  C   UNL     1      -9.978  10.566  65.392  1.00  0.00    -0.353 A  
HETATM   22  C   UNL     1     -10.610  10.719  66.645  1.00  0.00    -0.291 A  
ENDBRANCH  11  13
ENDBRANCH  10  11
ENDBRANCH   7  10
TORSDOF 3
ENDMDL
MODEL      107
REMARK 921   NORMALIZED FREE ENERGY PREDICTED BY IDOCK:   -5.05 KCAL/MOL
REMARK 922        TOTAL FREE ENERGY PREDICTED BY IDOCK:   -6.38 KCAL/MOL
REMARK 923 INTER-LIGAND FREE ENERGY PREDICTED BY IDOCK:   -5.63 KCAL/MOL
REMARK 924 INTRA-LIGAND FREE ENERGY PREDICTED BY IDOCK:   -0.75 KCAL/MOL
REMARK 927      BINDING AFFINITY PREDICTED BY RF-SCORE:    0.00 PKD
ROOT
HETATM    1  C   UNL     1     -12.336  13.920  65.144  1.00  0.00    -0.449 C  
HETATM    2  C   UNL     1     -12.747  12.825  64.156  1.00  0.00    -0.314 C  
HETATM    3  C   UNL     1     -11.427  12.223  63.679  1.00  0.00    -0.572 C  
HETATM    4  C   UNL     1     -10.351  13.013  64.430  1.00  0.00    -0.374 C  
HETATM    5  N   UNL     1     -11.021  14.300  64.617  1.00  0.00    -0.388 NA 
HETATM    6  C   UNL     1      -9.994  12.341  65.757  1.00  0.00    -0.273 C  
HETATM    7  C   UNL     1     -11.067  12.465  66.855  1.00  0.00    -0.287 C  
HETATM    8  C   UNL     1     -10.285  15.284  65.397  1.00  0.00    -0.383 C  
HETATM    9  C   UNL     1     -12.272  13.372  66.575  1.00  0.00    -0.414 C  
ENDROOT
BRANCH   7  10
HETATM   10  O   UNL     1     -11.488  11.127  67.165  1.00  0.00    -0.461 OA 
BRANCH  10  11
HETATM   11  C   UNL     1     -11.412  10.851  68.501  1.00  0.00    -0.310 C  
HETATM   12  O   UNL     1     -12.098  11.408  69.348  1.00  0.00    -0.315 OA 
BRANCH  11  13
HETATM   13  C   UNL     1     -10.329   9.924  68.804  1.00  0.00    -0.222 A  
HETATM   14  C   UNL     1     -10.444   8.548  68.926  1.00  0.00    -0.188 A  
HETATM   15  N   UNL     1      -9.197   8.022  69.117  1.00  0.00    -0.151 NA 
HETATM   16  H   UNL     1      -8.994   7.028  69.237  1.00  0.00     0.000 HD 
HETATM   17  C   UNL     1      -8.255   9.024  69.125  1.00  0.00    -0.121 A  
HETATM   18  C   UNL     1      -6.866   8.953  69.277  1.00  0.00    -0.050 A  
HETATM   19  C   UNL     1      -6.146  10.152  69.226  1.00  0.00    -0.037 A  
HETATM   20  C   UNL     1      -6.792  11.368  69.025  1.00  0.00    -0.102 A  
HETATM   21  C   UNL     1      -8.180  11.421  68.874  1.00  0.00    -0.054 A  
HETATM   22  C   UNL     1      -8.935  10.229  68.932  1.00  0.00    -0.164 A  
ENDBRANCH  11  13
ENDBRANCH  10  11
ENDBRANCH   7  10
TORSDOF 3
ENDMDL
MODEL      108
REMARK 921   NORMALIZED FREE ENERGY PREDICTED BY IDOCK:   -5.04 KCAL/MOL
REMARK 922        TOTAL FREE ENERGY PREDICTED BY IDOCK:   -6.36 KCAL/MOL
REMARK 923 INTER-LIGAND FREE ENERGY PREDICTED BY IDOCK:   -5.76 KCAL/MOL
REMARK 924 INTRA-LIGAND FREE ENERGY PREDICTED BY IDOCK:   -0.60 KCAL/MOL
REMARK 927      BINDING AFFINITY PREDICTED BY RF-SCORE:    0.00 PKD
ROOT
HETATM    1  C   UNL     1     -12.145   6.596  71.225  1.00  0.00    -0.341 C  
HETATM    2  C   UNL     1     -13.318   7.500  71.613  1.00  0.00    -0.414 C  
HETATM    3  C   UNL     1     -12.683   8.629  72.421  1.00  0.00    -0.423 C  
HETATM    4  C   UNL     1     -11.189   8.296  72.437  1.00  0.00    -0.381 C  
HETATM    5  N   UNL     1     -11.220   6.836  72.338  1.00  0.00    -0.255 NA 
HETATM    6  C   UNL     1     -10.462   8.947  71.258  1.00  0.00    -0.357 C  
HETATM    7  C   UNL     1     -10.747   8.303  69.889  1.00  0.00    -0.234 C  
HETATM    8  C   UNL     1      -9.924   6.185  72.238  1.00  0.00    -0.166 C  
HETATM    9  C   UNL     1     -11.565   7.005  69.866  1.00  0.00    -0.179 C  
ENDROOT
BRANCH   7  10
HETATM   10  O   UNL     1     -11.366   9.318  69.083  1.00  0.00     0.042 OA 
BRANCH  10  11
HETATM   11  C   UNL     1     -10.614   9.652  67.992  1.00  0.00    -0.243 C  
HETATM   12  O   UNL     1     -10.361   8.876  67.080  1.00  0.00    -0.249 OA 
BRANCH  11  13
HETATM   13  C   UNL     1     -10.042  10.986  68.114  1.00  0.00    -0.195 A  
HETATM   14  C   UNL     1      -8.773  11.289  68.584  1.00  0.00    -0.136 A  
HETATM   15  N   UNL     1      -8.571  12.636  68.455  1.00  0.00    -0.344 NA 
HETATM   16  H   UNL     1      -7.717  13.127  68.726  1.00  0.00     0.000 HD 
HETATM   17  C   UNL     1      -9.683  13.232  67.910  1.00  0.00    -0.224 A  
HETATM   18  C   UNL     1      -9.920  14.574  67.592  1.00  0.00    -0.224 A  
HETATM   19  C   UNL     1     -11.157  14.897  67.022  1.00  0.00    -0.338 A  
HETATM   20  C   UNL     1     -12.112  13.914  66.777  1.00  0.00    -0.476 A  
HETATM   21  C   UNL     1     -11.858  12.578  67.100  1.00  0.00    -0.386 A  
HETATM   22  C   UNL     1     -10.623  12.224  67.685  1.00  0.00    -0.238 A  
ENDBRANCH  11  13
ENDBRANCH  10  11
ENDBRANCH   7  10
TORSDOF 3
ENDMDL
MODEL      109
REMARK 921   NORMALIZED FREE ENERGY PREDICTED BY IDOCK:   -5.01 KCAL/MOL
REMARK 922        TOTAL FREE ENERGY PREDICTED BY IDOCK:   -6.33 KCAL/MOL
REMARK 923 INTER-LIGAND FREE ENERGY PREDICTED BY IDOCK:   -5.82 KCAL/MOL
REMARK 924 INTRA-LIGAND FREE ENERGY PREDICTED BY IDOCK:   -0.51 KCAL/MOL
REMARK 927      BINDING AFFINITY PREDICTED BY RF-SCORE:    0.00 PKD
ROOT
HETATM    1  C   UNL     1      -9.781  11.339  67.024  1.00  0.00    -0.186 C  
HETATM    2  C   UNL     1     -10.499  11.830  65.764  1.00  0.00    -0.302 C  
HETATM    3  C   UNL     1     -11.805  12.432  66.275  1.00  0.00    -0.431 C  
HETATM    4  C   UNL     1     -11.744  12.248  67.794  1.00  0.00    -0.337 C  
HETATM    5  N   UNL     1     -10.918  11.045  67.903  1.00  0.00    -0.242 NA 
HETATM    6  C   UNL     1     -11.105  13.460  68.475  1.00  0.00    -0.299 C  
HETATM    7  C   UNL     1      -9.583  13.586  68.275  1.00  0.00    -0.218 C  
HETATM    8  C   UNL     1     -10.583  10.633  69.257  1.00  0.00    -0.233 C  
HETATM    9  C   UNL     1      -8.855  12.425  67.585  1.00  0.00    -0.177 C  
ENDROOT
BRANCH   7  10
HETATM   10  O   UNL     1      -9.365  14.821  67.575  1.00  0.00    -0.189 OA 
BRANCH  10  11
HETATM   11  C   UNL     1      -8.884  15.807  68.391  1.00  0.00    -0.185 C  
HETATM   12  O   UNL     1      -8.332  15.591  69.462  1.00  0.00    -0.250 OA 
BRANCH  11  13
HETATM   13  C   UNL     1      -9.230  17.135  67.901  1.00  0.00    -0.241 A  
HETATM   14  C   UNL     1     -10.499  17.570  67.552  1.00  0.00    -0.355 A  
HETATM   15  N   UNL     1     -10.432  18.899  67.234  1.00  0.00    -0.416 NA 
HETATM   16  H   UNL     1     -11.226  19.470  66.942  1.00  0.00     0.000 HD 
HETATM   17  C   UNL     1      -9.141  19.353  67.366  1.00  0.00    -0.299 A  
HETATM   18  C   UNL     1      -8.612  20.632  67.159  1.00  0.00    -0.299 A  
HETATM   19  C   UNL     1      -7.243  20.812  67.389  1.00  0.00    -0.406 A  
HETATM   20  C   UNL     1      -6.442  19.755  67.813  1.00  0.00    -0.257 A  
HETATM   21  C   UNL     1      -6.988  18.485  68.016  1.00  0.00    -0.236 A  
HETATM   22  C   UNL     1      -8.364  18.270  67.782  1.00  0.00    -0.261 A  
ENDBRANCH  11  13
ENDBRANCH  10  11
ENDBRANCH   7  10
TORSDOF 3
ENDMDL
MODEL      110
REMARK 921   NORMALIZED FREE ENERGY PREDICTED BY IDOCK:   -4.95 KCAL/MOL
REMARK 922        TOTAL FREE ENERGY PREDICTED BY IDOCK:   -6.26 KCAL/MOL
REMARK 923 INTER-LIGAND FREE ENERGY PREDICTED BY IDOCK:   -5.80 KCAL/MOL
REMARK 924 INTRA-LIGAND FREE ENERGY PREDICTED BY IDOCK:   -0.45 KCAL/MOL
REMARK 927      BINDING AFFINITY PREDICTED BY RF-SCORE:    0.00 PKD
ROOT
HETATM    1  C   UNL     1     -10.356  13.350  65.168  1.00  0.00    -0.336 C  
HETATM    2  C   UNL     1      -9.815  14.645  65.780  1.00  0.00    -0.359 C  
HETATM    3  C   UNL     1     -10.980  15.198  66.598  1.00  0.00    -0.318 C  
HETATM    4  C   UNL     1     -12.106  14.180  66.401  1.00  0.00    -0.451 C  
HETATM    5  N   UNL     1     -11.787  13.656  65.072  1.00  0.00    -0.344 NA 
HETATM    6  C   UNL     1     -12.070  13.097  67.481  1.00  0.00    -0.300 C  
HETATM    7  C   UNL     1     -10.921  12.081  67.341  1.00  0.00    -0.261 C  
HETATM    8  C   UNL     1     -12.637  12.573  64.603  1.00  0.00    -0.426 C  
HETATM    9  C   UNL     1     -10.059  12.149  66.074  1.00  0.00    -0.259 C  
ENDROOT
BRANCH   7  10
HETATM   10  O   UNL     1     -10.115  12.214  68.522  1.00  0.00    -0.209 OA 
BRANCH  10  11
HETATM   11  C   UNL     1      -9.481  11.050  68.857  1.00  0.00    -0.155 C  
HETATM   12  O   UNL     1      -8.334  10.783  68.522  1.00  0.00    -0.123 OA 
BRANCH  11  13
HETATM   13  C   UNL     1     -10.374  10.120  69.534  1.00  0.00    -0.263 A  
HETATM   14  C   UNL     1     -11.382  10.458  70.424  1.00  0.00    -0.337 A  
HETATM   15  N   UNL     1     -12.060   9.322  70.768  1.00  0.00    -0.443 NA 
HETATM   16  H   UNL     1     -12.852   9.286  71.411  1.00  0.00     0.000 HD 
HETATM   17  C   UNL     1     -11.520   8.234  70.122  1.00  0.00     0.010 A  
HETATM   18  C   UNL     1     -11.894   6.886  70.163  1.00  0.00    -0.266 A  
HETATM   19  C   UNL     1     -11.164   5.987  69.378  1.00  0.00    -0.397 A  
HETATM   20  C   UNL     1     -10.108   6.423  68.582  1.00  0.00    -0.179 A  
HETATM   21  C   UNL     1      -9.750   7.773  68.552  1.00  0.00    -0.165 A  
HETATM   22  C   UNL     1     -10.461   8.702  69.342  1.00  0.00    -0.224 A  
ENDBRANCH  11  13
ENDBRANCH  10  11
ENDBRANCH   7  10
TORSDOF 3
ENDMDL
MODEL      111
REMARK 921   NORMALIZED FREE ENERGY PREDICTED BY IDOCK:   -4.94 KCAL/MOL
REMARK 922        TOTAL FREE ENERGY PREDICTED BY IDOCK:   -6.24 KCAL/MOL
REMARK 923 INTER-LIGAND FREE ENERGY PREDICTED BY IDOCK:   -5.65 KCAL/MOL
REMARK 924 INTRA-LIGAND FREE ENERGY PREDICTED BY IDOCK:   -0.59 KCAL/MOL
REMARK 927      BINDING AFFINITY PREDICTED BY RF-SCORE:    0.00 PKD
ROOT
HETATM    1  C   UNL     1      -8.374  10.482  66.850  1.00  0.00    -0.126 C  
HETATM    2  C   UNL     1      -7.583  10.387  65.542  1.00  0.00    -0.144 C  
HETATM    3  C   UNL     1      -8.579   9.823  64.531  1.00  0.00    -0.199 C  
HETATM    4  C   UNL     1      -9.873   9.637  65.329  1.00  0.00    -0.199 C  
HETATM    5  N   UNL     1      -9.347   9.399  66.673  1.00  0.00    -0.154 NA 
HETATM    6  C   UNL     1     -10.753  10.887  65.258  1.00  0.00    -0.194 C  
HETATM    7  C   UNL     1     -10.240  12.086  66.077  1.00  0.00    -0.226 C  
HETATM    8  C   UNL     1     -10.344   9.265  67.724  1.00  0.00    -0.237 C  
HETATM    9  C   UNL     1      -9.031  11.860  66.995  1.00  0.00    -0.190 C  
ENDROOT
BRANCH   7  10
HETATM   10  O   UNL     1      -9.984  13.141  65.137  1.00  0.00    -0.244 OA 
BRANCH  10  11
HETATM   11  C   UNL     1     -10.958  14.101  65.150  1.00  0.00    -0.356 C  
HETATM   12  O   UNL     1     -11.819  14.203  64.287  1.00  0.00    -0.422 OA 
BRANCH  11  13
HETATM   13  C   UNL     1     -10.762  15.060  66.229  1.00  0.00    -0.322 A  
HETATM   14  C   UNL     1     -10.124  16.286  66.125  1.00  0.00    -0.344 A  
HETATM   15  N   UNL     1     -10.227  16.935  67.324  1.00  0.00    -0.291 NA 
HETATM   16  H   UNL     1      -9.844  17.860  67.523  1.00  0.00     0.000 HD 
HETATM   17  C   UNL     1     -10.921  16.161  68.224  1.00  0.00    -0.340 A  
HETATM   18  C   UNL     1     -11.272  16.422  69.553  1.00  0.00    -0.250 A  
HETATM   19  C   UNL     1     -12.006  15.444  70.233  1.00  0.00    -0.386 A  
HETATM   20  C   UNL     1     -12.377  14.258  69.604  1.00  0.00    -0.312 A  
HETATM   21  C   UNL     1     -12.019  14.015  68.276  1.00  0.00    -0.384 A  
HETATM   22  C   UNL     1     -11.269  14.979  67.567  1.00  0.00    -0.333 A  
ENDBRANCH  11  13
ENDBRANCH  10  11
ENDBRANCH   7  10
TORSDOF 3
ENDMDL
MODEL      112
REMARK 921   NORMALIZED FREE ENERGY PREDICTED BY IDOCK:   -4.94 KCAL/MOL
REMARK 922        TOTAL FREE ENERGY PREDICTED BY IDOCK:   -6.24 KCAL/MOL
REMARK 923 INTER-LIGAND FREE ENERGY PREDICTED BY IDOCK:   -5.70 KCAL/MOL
REMARK 924 INTRA-LIGAND FREE ENERGY PREDICTED BY IDOCK:   -0.54 KCAL/MOL
REMARK 927      BINDING AFFINITY PREDICTED BY RF-SCORE:    0.00 PKD
ROOT
HETATM    1  C   UNL     1      -7.870  10.010  66.588  1.00  0.00    -0.111 C  
HETATM    2  C   UNL     1      -8.602  11.178  67.256  1.00  0.00    -0.140 C  
HETATM    3  C   UNL     1     -10.073  10.957  66.911  1.00  0.00    -0.253 C  
HETATM    4  C   UNL     1     -10.082   9.675  66.073  1.00  0.00    -0.248 C  
HETATM    5  N   UNL     1      -8.757   9.729  65.454  1.00  0.00    -0.145 NA 
HETATM    6  C   UNL     1     -10.268   8.438  66.953  1.00  0.00    -0.383 C  
HETATM    7  C   UNL     1      -9.040   8.056  67.800  1.00  0.00    -0.131 C  
HETATM    8  C   UNL     1      -8.398   8.580  64.638  1.00  0.00    -0.146 C  
HETATM    9  C   UNL     1      -7.735   8.825  67.552  1.00  0.00    -0.101 C  
ENDROOT
BRANCH   7  10
HETATM   10  O   UNL     1      -9.445   8.157  69.174  1.00  0.00    -0.154 OA 
BRANCH  10  11
HETATM   11  C   UNL     1     -10.075   7.028  69.618  1.00  0.00    -0.186 C  
HETATM   12  O   UNL     1      -9.792   5.900  69.236  1.00  0.00    -0.147 OA 
BRANCH  11  13
HETATM   13  C   UNL     1     -11.203   7.340  70.485  1.00  0.00    -0.305 A  
HETATM   14  C   UNL     1     -11.877   6.445  71.301  1.00  0.00    -0.273 A  
HETATM   15  N   UNL     1     -12.807   7.133  72.030  1.00  0.00    -0.518 NA 
HETATM   16  H   UNL     1     -13.442   6.714  72.711  1.00  0.00     0.000 HD 
HETATM   17  C   UNL     1     -12.763   8.470  71.712  1.00  0.00    -0.349 A  
HETATM   18  C   UNL     1     -13.516   9.539  72.211  1.00  0.00    -0.521 A  
HETATM   19  C   UNL     1     -13.241  10.816  71.709  1.00  0.00    -0.523 A  
HETATM   20  C   UNL     1     -12.248  11.012  70.753  1.00  0.00    -0.480 A  
HETATM   21  C   UNL     1     -11.505   9.933  70.267  1.00  0.00    -0.349 A  
HETATM   22  C   UNL     1     -11.768   8.631  70.746  1.00  0.00    -0.239 A  
ENDBRANCH  11  13
ENDBRANCH  10  11
ENDBRANCH   7  10
TORSDOF 3
ENDMDL
MODEL      113
REMARK 921   NORMALIZED FREE ENERGY PREDICTED BY IDOCK:   -4.93 KCAL/MOL
REMARK 922        TOTAL FREE ENERGY PREDICTED BY IDOCK:   -6.24 KCAL/MOL
REMARK 923 INTER-LIGAND FREE ENERGY PREDICTED BY IDOCK:   -5.55 KCAL/MOL
REMARK 924 INTRA-LIGAND FREE ENERGY PREDICTED BY IDOCK:   -0.69 KCAL/MOL
REMARK 927      BINDING AFFINITY PREDICTED BY RF-SCORE:    0.00 PKD
ROOT
HETATM    1  C   UNL     1      -9.782   8.631  69.122  1.00  0.00    -0.173 C  
HETATM    2  C   UNL     1      -8.310   9.047  69.171  1.00  0.00    -0.123 C  
HETATM    3  C   UNL     1      -7.726   8.550  67.850  1.00  0.00    -0.103 C  
HETATM    4  C   UNL     1      -8.906   7.887  67.134  1.00  0.00    -0.132 C  
HETATM    5  N   UNL     1      -9.714   7.440  68.269  1.00  0.00    -0.150 NA 
HETATM    6  C   UNL     1      -9.648   8.888  66.245  1.00  0.00    -0.328 C  
HETATM    7  C   UNL     1     -10.496   9.924  67.006  1.00  0.00    -0.230 C  
HETATM    8  C   UNL     1     -10.989   6.828  67.930  1.00  0.00    -0.227 C  
HETATM    9  C   UNL     1     -10.648   9.747  68.523  1.00  0.00    -0.252 C  
ENDROOT
BRANCH   7  10
HETATM   10  O   UNL     1      -9.945  11.212  66.690  1.00  0.00    -0.197 OA 
BRANCH  10  11
HETATM   11  C   UNL     1     -10.841  12.022  66.050  1.00  0.00    -0.289 C  
HETATM   12  O   UNL     1     -11.466  11.686  65.053  1.00  0.00    -0.234 OA 
BRANCH  11  13
HETATM   13  C   UNL     1     -10.857  13.366  66.613  1.00  0.00    -0.285 A  
HETATM   14  C   UNL     1     -10.510  14.532  65.949  1.00  0.00    -0.312 A  
HETATM   15  N   UNL     1     -10.747  15.593  66.778  1.00  0.00    -0.309 NA 
HETATM   16  H   UNL     1     -10.579  16.571  66.538  1.00  0.00     0.000 HD 
HETATM   17  C   UNL     1     -11.245  15.152  67.981  1.00  0.00    -0.323 A  
HETATM   18  C   UNL     1     -11.637  15.877  69.113  1.00  0.00    -0.382 A  
HETATM   19  C   UNL     1     -12.130  15.155  70.206  1.00  0.00    -0.385 A  
HETATM   20  C   UNL     1     -12.231  13.767  70.162  1.00  0.00    -0.425 A  
HETATM   21  C   UNL     1     -11.836  13.060  69.023  1.00  0.00    -0.362 A  
HETATM   22  C   UNL     1     -11.325  13.760  67.909  1.00  0.00    -0.328 A  
ENDBRANCH  11  13
ENDBRANCH  10  11
ENDBRANCH   7  10
TORSDOF 3
ENDMDL
MODEL      114
REMARK 921   NORMALIZED FREE ENERGY PREDICTED BY IDOCK:   -4.92 KCAL/MOL
REMARK 922        TOTAL FREE ENERGY PREDICTED BY IDOCK:   -6.22 KCAL/MOL
REMARK 923 INTER-LIGAND FREE ENERGY PREDICTED BY IDOCK:   -5.72 KCAL/MOL
REMARK 924 INTRA-LIGAND FREE ENERGY PREDICTED BY IDOCK:   -0.49 KCAL/MOL
REMARK 927      BINDING AFFINITY PREDICTED BY RF-SCORE:    0.00 PKD
ROOT
HETATM    1  C   UNL     1      -9.047   8.629  71.118  1.00  0.00    -0.209 C  
HETATM    2  C   UNL     1      -7.730   9.200  70.586  1.00  0.00    -0.152 C  
HETATM    3  C   UNL     1      -7.525   8.504  69.243  1.00  0.00    -0.082 C  
HETATM    4  C   UNL     1      -8.741   7.585  69.097  1.00  0.00    -0.136 C  
HETATM    5  N   UNL     1      -9.053   7.301  70.497  1.00  0.00    -0.157 NA 
HETATM    6  C   UNL     1      -9.888   8.293  68.373  1.00  0.00    -0.187 C  
HETATM    7  C   UNL     1     -10.610   9.370  69.204  1.00  0.00    -0.218 C  
HETATM    8  C   UNL     1     -10.245   6.500  70.725  1.00  0.00    -0.187 C  
HETATM    9  C   UNL     1     -10.235   9.498  70.687  1.00  0.00    -0.364 C  
ENDROOT
BRANCH   7  10
HETATM   10  O   UNL     1     -10.418  10.614  68.514  1.00  0.00    -0.172 OA 
BRANCH  10  11
HETATM   11  C   UNL     1     -11.598  11.241  68.227  1.00  0.00    -0.300 C  
HETATM   12  O   UNL     1     -12.616  11.108  68.894  1.00  0.00    -0.358 OA 
BRANCH  11  13
HETATM   13  C   UNL     1     -11.534  11.970  66.967  1.00  0.00    -0.402 A  
HETATM   14  C   UNL     1     -12.023  13.247  66.738  1.00  0.00    -0.382 A  
HETATM   15  N   UNL     1     -11.689  13.620  65.465  1.00  0.00    -0.325 NA 
HETATM   16  H   UNL     1     -11.926  14.516  65.038  1.00  0.00     0.000 HD 
HETATM   17  C   UNL     1     -10.987  12.613  64.845  1.00  0.00    -0.293 A  
HETATM   18  C   UNL     1     -10.440  12.558  63.559  1.00  0.00    -0.360 A  
HETATM   19  C   UNL     1      -9.752  11.395  63.196  1.00  0.00    -0.413 A  
HETATM   20  C   UNL     1      -9.613  10.336  64.089  1.00  0.00    -0.376 A  
HETATM   21  C   UNL     1     -10.165  10.408  65.371  1.00  0.00    -0.329 A  
HETATM   22  C   UNL     1     -10.874  11.565  65.761  1.00  0.00    -0.319 A  
ENDBRANCH  11  13
ENDBRANCH  10  11
ENDBRANCH   7  10
TORSDOF 3
ENDMDL
MODEL      115
REMARK 921   NORMALIZED FREE ENERGY PREDICTED BY IDOCK:   -4.91 KCAL/MOL
REMARK 922        TOTAL FREE ENERGY PREDICTED BY IDOCK:   -6.21 KCAL/MOL
REMARK 923 INTER-LIGAND FREE ENERGY PREDICTED BY IDOCK:   -5.47 KCAL/MOL
REMARK 924 INTRA-LIGAND FREE ENERGY PREDICTED BY IDOCK:   -0.74 KCAL/MOL
REMARK 927      BINDING AFFINITY PREDICTED BY RF-SCORE:    0.00 PKD
ROOT
HETATM    1  C   UNL     1      -7.054   9.455  65.353  1.00  0.00    -0.091 C  
HETATM    2  C   UNL     1      -6.199  10.518  64.657  1.00  0.00    -0.021 C  
HETATM    3  C   UNL     1      -6.582  10.413  63.183  1.00  0.00    -0.085 C  
HETATM    4  C   UNL     1      -7.632   9.300  63.137  1.00  0.00    -0.108 C  
HETATM    5  N   UNL     1      -7.225   8.476  64.275  1.00  0.00    -0.092 NA 
HETATM    6  C   UNL     1      -9.046   9.864  63.298  1.00  0.00    -0.294 C  
HETATM    7  C   UNL     1      -9.393  10.341  64.720  1.00  0.00    -0.260 C  
HETATM    8  C   UNL     1      -8.091   7.347  64.575  1.00  0.00    -0.079 C  
HETATM    9  C   UNL     1      -8.382  10.051  65.838  1.00  0.00    -0.129 C  
ENDROOT
BRANCH   7  10
HETATM   10  O   UNL     1      -9.663  11.749  64.623  1.00  0.00    -0.227 OA 
BRANCH  10  11
HETATM   11  C   UNL     1     -10.991  12.038  64.772  1.00  0.00    -0.311 C  
HETATM   12  O   UNL     1     -11.837  11.794  63.921  1.00  0.00    -0.396 OA 
BRANCH  11  13
HETATM   13  C   UNL     1     -11.251  12.788  65.993  1.00  0.00    -0.335 A  
HETATM   14  C   UNL     1     -11.466  14.155  66.080  1.00  0.00    -0.342 A  
HETATM   15  N   UNL     1     -11.769  14.467  67.376  1.00  0.00    -0.388 NA 
HETATM   16  H   UNL     1     -11.974  15.407  67.718  1.00  0.00     0.000 HD 
HETATM   17  C   UNL     1     -11.759  13.332  68.152  1.00  0.00    -0.362 A  
HETATM   18  C   UNL     1     -12.019  13.173  69.518  1.00  0.00    -0.354 A  
HETATM   19  C   UNL     1     -11.950  11.878  70.044  1.00  0.00    -0.409 A  
HETATM   20  C   UNL     1     -11.641  10.790  69.233  1.00  0.00    -0.376 A  
HETATM   21  C   UNL     1     -11.385  10.967  67.871  1.00  0.00    -0.380 A  
HETATM   22  C   UNL     1     -11.436  12.263  67.313  1.00  0.00    -0.426 A  
ENDBRANCH  11  13
ENDBRANCH  10  11
ENDBRANCH   7  10
TORSDOF 3
ENDMDL
MODEL      116
REMARK 921   NORMALIZED FREE ENERGY PREDICTED BY IDOCK:   -4.90 KCAL/MOL
REMARK 922        TOTAL FREE ENERGY PREDICTED BY IDOCK:   -6.20 KCAL/MOL
REMARK 923 INTER-LIGAND FREE ENERGY PREDICTED BY IDOCK:   -5.50 KCAL/MOL
REMARK 924 INTRA-LIGAND FREE ENERGY PREDICTED BY IDOCK:   -0.69 KCAL/MOL
REMARK 927      BINDING AFFINITY PREDICTED BY RF-SCORE:    0.00 PKD
ROOT
HETATM    1  C   UNL     1      -6.656  11.573  67.141  1.00  0.00    -0.124 C  
HETATM    2  C   UNL     1      -6.636  10.141  66.600  1.00  0.00    -0.075 C  
HETATM    3  C   UNL     1      -6.732   9.259  67.842  1.00  0.00    -0.071 C  
HETATM    4  C   UNL     1      -6.804  10.247  69.010  1.00  0.00    -0.058 C  
HETATM    5  N   UNL     1      -6.060  11.384  68.468  1.00  0.00    -0.046 NA 
HETATM    6  C   UNL     1      -8.254  10.603  69.347  1.00  0.00    -0.089 C  
HETATM    7  C   UNL     1      -8.947  11.523  68.326  1.00  0.00    -0.177 C  
HETATM    8  C   UNL     1      -6.012  12.565  69.315  1.00  0.00    -0.093 C  
HETATM    9  C   UNL     1      -8.089  12.116  67.200  1.00  0.00    -0.175 C  
ENDROOT
BRANCH   7  10
HETATM   10  O   UNL     1     -10.054  10.779  67.793  1.00  0.00    -0.168 OA 
BRANCH  10  11
HETATM   11  C   UNL     1     -11.261  11.261  68.215  1.00  0.00    -0.267 C  
HETATM   12  O   UNL     1     -11.955  10.707  69.058  1.00  0.00    -0.287 OA 
BRANCH  11  13
HETATM   13  C   UNL     1     -11.680  12.427  67.448  1.00  0.00    -0.417 A  
HETATM   14  C   UNL     1     -11.987  13.676  67.965  1.00  0.00    -0.350 A  
HETATM   15  N   UNL     1     -12.240  14.528  66.926  1.00  0.00    -0.509 NA 
HETATM   16  H   UNL     1     -12.491  15.513  67.026  1.00  0.00     0.000 HD 
HETATM   17  C   UNL     1     -12.107  13.867  65.728  1.00  0.00    -0.425 A  
HETATM   18  C   UNL     1     -12.259  14.337  64.419  1.00  0.00    -0.471 A  
HETATM   19  C   UNL     1     -12.043  13.430  63.375  1.00  0.00    -0.437 A  
HETATM   20  C   UNL     1     -11.684  12.110  63.635  1.00  0.00    -0.588 A  
HETATM   21  C   UNL     1     -11.535  11.658  64.948  1.00  0.00    -0.205 A  
HETATM   22  C   UNL     1     -11.757  12.547  66.022  1.00  0.00    -0.472 A  
ENDBRANCH  11  13
ENDBRANCH  10  11
ENDBRANCH   7  10
TORSDOF 3
ENDMDL
MODEL      117
REMARK 921   NORMALIZED FREE ENERGY PREDICTED BY IDOCK:   -4.86 KCAL/MOL
REMARK 922        TOTAL FREE ENERGY PREDICTED BY IDOCK:   -6.14 KCAL/MOL
REMARK 923 INTER-LIGAND FREE ENERGY PREDICTED BY IDOCK:   -6.19 KCAL/MOL
REMARK 924 INTRA-LIGAND FREE ENERGY PREDICTED BY IDOCK:    0.05 KCAL/MOL
REMARK 927      BINDING AFFINITY PREDICTED BY RF-SCORE:    0.00 PKD
ROOT
HETATM    1  C   UNL     1     -10.117   5.417  67.504  1.00  0.00    -0.180 C  
HETATM    2  C   UNL     1      -9.852   4.882  68.914  1.00  0.00    -0.241 C  
HETATM    3  C   UNL     1      -8.560   5.569  69.349  1.00  0.00    -0.104 C  
HETATM    4  C   UNL     1      -8.176   6.454  68.160  1.00  0.00    -0.116 C  
HETATM    5  N   UNL     1      -8.753   5.701  67.046  1.00  0.00    -0.109 NA 
HETATM    6  C   UNL     1      -8.778   7.855  68.294  1.00  0.00    -0.130 C  
HETATM    7  C   UNL     1     -10.298   7.931  68.055  1.00  0.00    -0.209 C  
HETATM    8  C   UNL     1      -8.640   6.328  65.738  1.00  0.00    -0.150 C  
HETATM    9  C   UNL     1     -11.006   6.666  67.550  1.00  0.00    -0.416 C  
ENDROOT
BRANCH   7  10
HETATM   10  O   UNL     1     -10.880   8.392  69.284  1.00  0.00    -0.175 OA 
BRANCH  10  11
HETATM   11  C   UNL     1     -10.872   9.755  69.389  1.00  0.00    -0.232 C  
HETATM   12  O   UNL     1     -10.080  10.474  68.794  1.00  0.00    -0.173 OA 
BRANCH  11  13
HETATM   13  C   UNL     1     -11.818  10.229  70.390  1.00  0.00    -0.396 A  
HETATM   14  C   UNL     1     -12.442   9.453  71.354  1.00  0.00    -0.352 A  
HETATM   15  N   UNL     1     -13.178  10.273  72.164  1.00  0.00    -0.555 NA 
HETATM   16  H   UNL     1     -13.738   9.960  72.958  1.00  0.00     0.000 HD 
HETATM   17  C   UNL     1     -13.054  11.580  71.754  1.00  0.00    -0.398 A  
HETATM   18  C   UNL     1     -13.615  12.747  72.286  1.00  0.00    -0.563 A  
HETATM   19  C   UNL     1     -13.297  13.960  71.663  1.00  0.00    -0.437 A  
HETATM   20  C   UNL     1     -12.449  14.000  70.560  1.00  0.00    -0.429 A  
HETATM   21  C   UNL     1     -11.898  12.825  70.044  1.00  0.00    -0.352 A  
HETATM   22  C   UNL     1     -12.208  11.585  70.643  1.00  0.00    -0.473 A  
ENDBRANCH  11  13
ENDBRANCH  10  11
ENDBRANCH   7  10
TORSDOF 3
ENDMDL
MODEL      118
REMARK 921   NORMALIZED FREE ENERGY PREDICTED BY IDOCK:   -4.86 KCAL/MOL
REMARK 922        TOTAL FREE ENERGY PREDICTED BY IDOCK:   -6.14 KCAL/MOL
REMARK 923 INTER-LIGAND FREE ENERGY PREDICTED BY IDOCK:   -5.66 KCAL/MOL
REMARK 924 INTRA-LIGAND FREE ENERGY PREDICTED BY IDOCK:   -0.49 KCAL/MOL
REMARK 927      BINDING AFFINITY PREDICTED BY RF-SCORE:    0.00 PKD
ROOT
HETATM    1  C   UNL     1     -10.581   9.091  71.438  1.00  0.00    -0.323 C  
HETATM    2  C   UNL     1      -9.068   8.997  71.654  1.00  0.00    -0.178 C  
HETATM    3  C   UNL     1      -8.662   7.696  70.965  1.00  0.00    -0.137 C  
HETATM    4  C   UNL     1      -9.970   7.137  70.398  1.00  0.00    -0.187 C  
HETATM    5  N   UNL     1     -10.945   7.673  71.348  1.00  0.00    -0.230 NA 
HETATM    6  C   UNL     1     -10.212   7.631  68.970  1.00  0.00    -0.211 C  
HETATM    7  C   UNL     1     -10.619   9.112  68.858  1.00  0.00    -0.191 C  
HETATM    8  C   UNL     1     -12.339   7.394  71.043  1.00  0.00    -0.268 C  
HETATM    9  C   UNL     1     -10.904   9.874  70.159  1.00  0.00    -0.356 C  
ENDROOT
BRANCH   7  10
HETATM   10  O   UNL     1      -9.589   9.760  68.096  1.00  0.00    -0.142 OA 
BRANCH  10  11
HETATM   11  C   UNL     1     -10.046  10.236  66.898  1.00  0.00    -0.221 C  
HETATM   12  O   UNL     1     -10.476   9.519  66.004  1.00  0.00    -0.146 OA 
BRANCH  11  13
HETATM   13  C   UNL     1      -9.831  11.671  66.766  1.00  0.00    -0.222 A  
HETATM   14  C   UNL     1      -8.702  12.367  67.171  1.00  0.00    -0.195 A  
HETATM   15  N   UNL     1      -8.836  13.674  66.789  1.00  0.00    -0.406 NA 
HETATM   16  H   UNL     1      -8.146  14.406  66.962  1.00  0.00     0.000 HD 
HETATM   17  C   UNL     1     -10.033  13.857  66.138  1.00  0.00    -0.310 A  
HETATM   18  C   UNL     1     -10.580  15.013  65.570  1.00  0.00    -0.380 A  
HETATM   19  C   UNL     1     -11.829  14.901  64.948  1.00  0.00    -0.337 A  
HETATM   20  C   UNL     1     -12.495  13.680  64.893  1.00  0.00    -0.423 A  
HETATM   21  C   UNL     1     -11.933  12.535  65.464  1.00  0.00    -0.500 A  
HETATM   22  C   UNL     1     -10.680  12.620  66.108  1.00  0.00    -0.293 A  
ENDBRANCH  11  13
ENDBRANCH  10  11
ENDBRANCH   7  10
TORSDOF 3
ENDMDL
MODEL      119
REMARK 921   NORMALIZED FREE ENERGY PREDICTED BY IDOCK:   -4.85 KCAL/MOL
REMARK 922        TOTAL FREE ENERGY PREDICTED BY IDOCK:   -6.14 KCAL/MOL
REMARK 923 INTER-LIGAND FREE ENERGY PREDICTED BY IDOCK:   -5.60 KCAL/MOL
REMARK 924 INTRA-LIGAND FREE ENERGY PREDICTED BY IDOCK:   -0.54 KCAL/MOL
REMARK 927      BINDING AFFINITY PREDICTED BY RF-SCORE:    0.00 PKD
ROOT
HETATM    1  C   UNL     1     -11.316   6.880  70.448  1.00  0.00    -0.328 C  
HETATM    2  C   UNL     1     -12.304   7.757  71.221  1.00  0.00    -0.314 C  
HETATM    3  C   UNL     1     -11.595   8.066  72.537  1.00  0.00    -0.464 C  
HETATM    4  C   UNL     1     -10.247   7.347  72.425  1.00  0.00    -0.199 C  
HETATM    5  N   UNL     1     -10.592   6.230  71.545  1.00  0.00    -0.230 NA 
HETATM    6  C   UNL     1      -9.180   8.261  71.820  1.00  0.00    -0.261 C  
HETATM    7  C   UNL     1      -9.336   8.527  70.312  1.00  0.00    -0.162 C  
HETATM    8  C   UNL     1      -9.485   5.372  71.154  1.00  0.00    -0.156 C  
HETATM    9  C   UNL     1     -10.409   7.734  69.554  1.00  0.00    -0.219 C  
ENDROOT
BRANCH   7  10
HETATM   10  O   UNL     1      -9.541   9.941  70.167  1.00  0.00    -0.245 OA 
BRANCH  10  11
HETATM   11  C   UNL     1      -9.077  10.418  68.973  1.00  0.00    -0.187 C  
HETATM   12  O   UNL     1      -7.915  10.304  68.604  1.00  0.00    -0.100 OA 
BRANCH  11  13
HETATM   13  C   UNL     1     -10.089  11.191  68.265  1.00  0.00    -0.196 A  
HETATM   14  C   UNL     1     -11.283  10.701  67.760  1.00  0.00    -0.313 A  
HETATM   15  N   UNL     1     -12.004  11.746  67.253  1.00  0.00    -0.607 NA 
HETATM   16  H   UNL     1     -12.924  11.666  66.819  1.00  0.00     0.000 HD 
HETATM   17  C   UNL     1     -11.309  12.922  67.412  1.00  0.00    -0.309 A  
HETATM   18  C   UNL     1     -11.659  14.230  67.057  1.00  0.00    -0.406 A  
HETATM   19  C   UNL     1     -10.749  15.249  67.359  1.00  0.00    -0.293 A  
HETATM   20  C   UNL     1      -9.544  14.969  67.997  1.00  0.00    -0.208 A  
HETATM   21  C   UNL     1      -9.211  13.657  68.345  1.00  0.00    -0.169 A  
HETATM   22  C   UNL     1     -10.104  12.606  68.043  1.00  0.00    -0.229 A  
ENDBRANCH  11  13
ENDBRANCH  10  11
ENDBRANCH   7  10
TORSDOF 3
ENDMDL
MODEL      120
REMARK 921   NORMALIZED FREE ENERGY PREDICTED BY IDOCK:   -4.84 KCAL/MOL
REMARK 922        TOTAL FREE ENERGY PREDICTED BY IDOCK:   -6.13 KCAL/MOL
REMARK 923 INTER-LIGAND FREE ENERGY PREDICTED BY IDOCK:   -5.60 KCAL/MOL
REMARK 924 INTRA-LIGAND FREE ENERGY PREDICTED BY IDOCK:   -0.53 KCAL/MOL
REMARK 927      BINDING AFFINITY PREDICTED BY RF-SCORE:    0.00 PKD
ROOT
HETATM    1  C   UNL     1      -9.871   6.998  71.130  1.00  0.00    -0.176 C  
HETATM    2  C   UNL     1      -8.989   5.846  70.641  1.00  0.00    -0.151 C  
HETATM    3  C   UNL     1      -9.813   5.168  69.549  1.00  0.00    -0.278 C  
HETATM    4  C   UNL     1     -11.109   5.981  69.486  1.00  0.00    -0.398 C  
HETATM    5  N   UNL     1     -11.210   6.464  70.863  1.00  0.00    -0.308 NA 
HETATM    6  C   UNL     1     -10.999   7.122  68.472  1.00  0.00    -0.080 C  
HETATM    7  C   UNL     1     -10.105   8.295  68.913  1.00  0.00    -0.199 C  
HETATM    8  C   UNL     1     -12.318   7.367  71.132  1.00  0.00    -0.314 C  
HETATM    9  C   UNL     1      -9.572   8.285  70.353  1.00  0.00    -0.174 C  
ENDROOT
BRANCH   7  10
HETATM   10  O   UNL     1      -9.029   8.366  67.965  1.00  0.00    -0.137 OA 
BRANCH  10  11
HETATM   11  C   UNL     1      -8.692   9.653  67.652  1.00  0.00    -0.126 C  
HETATM   12  O   UNL     1      -8.102  10.405  68.417  1.00  0.00    -0.105 OA 
BRANCH  11  13
HETATM   13  C   UNL     1      -9.236  10.060  66.363  1.00  0.00    -0.191 A  
HETATM   14  C   UNL     1      -8.942   9.486  65.136  1.00  0.00    -0.209 A  
HETATM   15  N   UNL     1      -9.721  10.077  64.180  1.00  0.00    -0.384 NA 
HETATM   16  H   UNL     1      -9.706   9.842  63.187  1.00  0.00     0.000 HD 
HETATM   17  C   UNL     1     -10.527  11.033  64.750  1.00  0.00    -0.316 A  
HETATM   18  C   UNL     1     -11.483  11.871  64.165  1.00  0.00    -0.449 A  
HETATM   19  C   UNL     1     -12.176  12.750  65.004  1.00  0.00    -0.527 A  
HETATM   20  C   UNL     1     -11.926  12.781  66.373  1.00  0.00    -0.443 A  
HETATM   21  C   UNL     1     -10.970  11.936  66.942  1.00  0.00    -0.335 A  
HETATM   22  C   UNL     1     -10.246  11.047  66.118  1.00  0.00    -0.298 A  
ENDBRANCH  11  13
ENDBRANCH  10  11
ENDBRANCH   7  10
TORSDOF 3
ENDMDL
MODEL      121
REMARK 921   NORMALIZED FREE ENERGY PREDICTED BY IDOCK:   -4.84 KCAL/MOL
REMARK 922        TOTAL FREE ENERGY PREDICTED BY IDOCK:   -6.13 KCAL/MOL
REMARK 923 INTER-LIGAND FREE ENERGY PREDICTED BY IDOCK:   -5.45 KCAL/MOL
REMARK 924 INTRA-LIGAND FREE ENERGY PREDICTED BY IDOCK:   -0.68 KCAL/MOL
REMARK 927      BINDING AFFINITY PREDICTED BY RF-SCORE:    0.00 PKD
ROOT
HETATM    1  C   UNL     1      -9.223   7.867  66.543  1.00  0.00    -0.191 C  
HETATM    2  C   UNL     1      -8.593   7.422  67.865  1.00  0.00    -0.125 C  
HETATM    3  C   UNL     1      -7.410   8.365  68.064  1.00  0.00    -0.096 C  
HETATM    4  C   UNL     1      -7.446   9.290  66.844  1.00  0.00    -0.091 C  
HETATM    5  N   UNL     1      -8.057   8.415  65.842  1.00  0.00    -0.105 NA 
HETATM    6  C   UNL     1      -8.284  10.540  67.119  1.00  0.00    -0.123 C  
HETATM    7  C   UNL     1      -9.804  10.300  67.173  1.00  0.00    -0.185 C  
HETATM    8  C   UNL     1      -8.324   9.029  64.551  1.00  0.00    -0.175 C  
HETATM    9  C   UNL     1     -10.322   8.909  66.783  1.00  0.00    -0.317 C  
ENDROOT
BRANCH   7  10
HETATM   10  O   UNL     1     -10.225  10.654  68.500  1.00  0.00    -0.161 OA 
BRANCH  10  11
HETATM   11  C   UNL     1     -11.423  11.312  68.511  1.00  0.00    -0.306 C  
HETATM   12  O   UNL     1     -12.484  10.781  68.812  1.00  0.00    -0.366 OA 
BRANCH  11  13
HETATM   13  C   UNL     1     -11.303  12.668  67.994  1.00  0.00    -0.337 A  
HETATM   14  C   UNL     1     -10.779  13.757  68.674  1.00  0.00    -0.256 A  
HETATM   15  N   UNL     1     -10.749  14.828  67.824  1.00  0.00    -0.264 NA 
HETATM   16  H   UNL     1     -10.408  15.759  68.069  1.00  0.00     0.000 HD 
HETATM   17  C   UNL     1     -11.244  14.470  66.593  1.00  0.00    -0.346 A  
HETATM   18  C   UNL     1     -11.391  15.230  65.426  1.00  0.00    -0.253 A  
HETATM   19  C   UNL     1     -11.917  14.590  64.298  1.00  0.00    -0.419 A  
HETATM   20  C   UNL     1     -12.273  13.245  64.338  1.00  0.00    -0.449 A  
HETATM   21  C   UNL     1     -12.118  12.501  65.510  1.00  0.00    -0.481 A  
HETATM   22  C   UNL     1     -11.601  13.122  66.668  1.00  0.00    -0.403 A  
ENDBRANCH  11  13
ENDBRANCH  10  11
ENDBRANCH   7  10
TORSDOF 3
ENDMDL
MODEL      122
REMARK 921   NORMALIZED FREE ENERGY PREDICTED BY IDOCK:   -4.83 KCAL/MOL
REMARK 922        TOTAL FREE ENERGY PREDICTED BY IDOCK:   -6.12 KCAL/MOL
REMARK 923 INTER-LIGAND FREE ENERGY PREDICTED BY IDOCK:   -5.73 KCAL/MOL
REMARK 924 INTRA-LIGAND FREE ENERGY PREDICTED BY IDOCK:   -0.39 KCAL/MOL
REMARK 927      BINDING AFFINITY PREDICTED BY RF-SCORE:    0.00 PKD
ROOT
HETATM    1  C   UNL     1     -10.358  12.691  68.214  1.00  0.00    -0.241 C  
HETATM    2  C   UNL     1     -10.536  12.215  66.770  1.00  0.00    -0.256 C  
HETATM    3  C   UNL     1     -11.633  13.112  66.202  1.00  0.00    -0.396 C  
HETATM    4  C   UNL     1     -12.004  14.044  67.359  1.00  0.00    -0.404 C  
HETATM    5  N   UNL     1     -11.701  13.199  68.514  1.00  0.00    -0.331 NA 
HETATM    6  C   UNL     1     -11.165  15.323  67.333  1.00  0.00    -0.311 C  
HETATM    7  C   UNL     1      -9.695  15.141  67.752  1.00  0.00    -0.211 C  
HETATM    8  C   UNL     1     -11.865  13.830  69.814  1.00  0.00    -0.331 C  
HETATM    9  C   UNL     1      -9.274  13.772  68.305  1.00  0.00    -0.204 C  
ENDROOT
BRANCH   7  10
HETATM   10  O   UNL     1      -8.899  15.503  66.612  1.00  0.00    -0.242 OA 
BRANCH  10  11
HETATM   11  C   UNL     1      -7.638  15.900  66.959  1.00  0.00    -0.229 C  
HETATM   12  O   UNL     1      -6.684  15.136  67.033  1.00  0.00    -0.235 OA 
BRANCH  11  13
HETATM   13  C   UNL     1      -7.600  17.300  67.360  1.00  0.00    -0.201 A  
HETATM   14  C   UNL     1      -8.373  18.321  66.830  1.00  0.00    -0.255 A  
HETATM   15  N   UNL     1      -8.120  19.469  67.530  1.00  0.00    -0.283 NA 
HETATM   16  H   UNL     1      -8.557  20.373  67.347  1.00  0.00     0.000 HD 
HETATM   17  C   UNL     1      -7.191  19.227  68.515  1.00  0.00    -0.314 A  
HETATM   18  C   UNL     1      -6.646  20.094  69.469  1.00  0.00    -0.291 A  
HETATM   19  C   UNL     1      -5.718  19.562  70.371  1.00  0.00    -0.283 A  
HETATM   20  C   UNL     1      -5.359  18.218  70.323  1.00  0.00    -0.249 A  
HETATM   21  C   UNL     1      -5.915  17.367  69.365  1.00  0.00    -0.237 A  
HETATM   22  C   UNL     1      -6.845  17.877  68.433  1.00  0.00    -0.227 A  
ENDBRANCH  11  13
ENDBRANCH  10  11
ENDBRANCH   7  10
TORSDOF 3
ENDMDL
MODEL      123
REMARK 921   NORMALIZED FREE ENERGY PREDICTED BY IDOCK:   -4.82 KCAL/MOL
REMARK 922        TOTAL FREE ENERGY PREDICTED BY IDOCK:   -6.10 KCAL/MOL
REMARK 923 INTER-LIGAND FREE ENERGY PREDICTED BY IDOCK:   -5.84 KCAL/MOL
REMARK 924 INTRA-LIGAND FREE ENERGY PREDICTED BY IDOCK:   -0.26 KCAL/MOL
REMARK 927      BINDING AFFINITY PREDICTED BY RF-SCORE:    0.00 PKD
ROOT
HETATM    1  C   UNL     1      -8.851  17.867  66.382  1.00  0.00    -0.228 C  
HETATM    2  C   UNL     1      -7.675  17.390  67.239  1.00  0.00    -0.221 C  
HETATM    3  C   UNL     1      -8.052  17.789  68.664  1.00  0.00    -0.277 C  
HETATM    4  C   UNL     1      -9.420  18.464  68.525  1.00  0.00    -0.334 C  
HETATM    5  N   UNL     1      -9.333  19.007  67.169  1.00  0.00    -0.301 NA 
HETATM    6  C   UNL     1     -10.556  17.451  68.679  1.00  0.00    -0.318 C  
HETATM    7  C   UNL     1     -10.737  16.495  67.485  1.00  0.00    -0.283 C  
HETATM    8  C   UNL     1     -10.537  19.655  66.674  1.00  0.00    -0.487 C  
HETATM    9  C   UNL     1      -9.900  16.759  66.226  1.00  0.00    -0.327 C  
ENDROOT
BRANCH   7  10
HETATM   10  O   UNL     1     -10.508  15.169  67.987  1.00  0.00    -0.241 OA 
BRANCH  10  11
HETATM   11  C   UNL     1     -11.610  14.369  67.872  1.00  0.00    -0.345 C  
HETATM   12  O   UNL     1     -12.120  13.778  68.815  1.00  0.00    -0.357 OA 
BRANCH  11  13
HETATM   13  C   UNL     1     -12.014  14.196  66.483  1.00  0.00    -0.466 A  
HETATM   14  C   UNL     1     -12.988  14.927  65.820  1.00  0.00     0.626 A  
HETATM   15  N   UNL     1     -13.009  14.538  64.509  1.00  0.00    -0.379 NA 
HETATM   16  H   UNL     1     -13.634  14.918  63.797  1.00  0.00     0.000 HD 
HETATM   17  C   UNL     1     -12.067  13.561  64.290  1.00  0.00    -0.431 A  
HETATM   18  C   UNL     1     -11.729  12.884  63.112  1.00  0.00    -0.210 A  
HETATM   19  C   UNL     1     -10.702  11.936  63.181  1.00  0.00    -0.309 A  
HETATM   20  C   UNL     1     -10.038  11.684  64.378  1.00  0.00    -0.322 A  
HETATM   21  C   UNL     1     -10.387  12.371  65.544  1.00  0.00    -0.298 A  
HETATM   22  C   UNL     1     -11.427  13.325  65.508  1.00  0.00    -0.335 A  
ENDBRANCH  11  13
ENDBRANCH  10  11
ENDBRANCH   7  10
TORSDOF 3
ENDMDL
MODEL      124
REMARK 921   NORMALIZED FREE ENERGY PREDICTED BY IDOCK:   -4.82 KCAL/MOL
REMARK 922        TOTAL FREE ENERGY PREDICTED BY IDOCK:   -6.10 KCAL/MOL
REMARK 923 INTER-LIGAND FREE ENERGY PREDICTED BY IDOCK:   -6.10 KCAL/MOL
REMARK 924 INTRA-LIGAND FREE ENERGY PREDICTED BY IDOCK:   -0.01 KCAL/MOL
REMARK 927      BINDING AFFINITY PREDICTED BY RF-SCORE:    0.00 PKD
ROOT
HETATM    1  C   UNL     1     -11.469  15.121  66.842  1.00  0.00    -0.214 C  
HETATM    2  C   UNL     1     -10.379  14.853  65.800  1.00  0.00    -0.351 C  
HETATM    3  C   UNL     1      -9.215  14.277  66.603  1.00  0.00    -0.276 C  
HETATM    4  C   UNL     1      -9.720  14.251  68.048  1.00  0.00    -0.223 C  
HETATM    5  N   UNL     1     -10.662  15.370  68.041  1.00  0.00    -0.270 NA 
HETATM    6  C   UNL     1     -10.396  12.918  68.375  1.00  0.00    -0.249 C  
HETATM    7  C   UNL     1     -11.779  12.718  67.728  1.00  0.00    -0.359 C  
HETATM    8  C   UNL     1     -11.406  15.573  69.275  1.00  0.00    -0.325 C  
HETATM    9  C   UNL     1     -12.399  13.910  66.986  1.00  0.00    -0.287 C  
ENDROOT
BRANCH   7  10
HETATM   10  O   UNL     1     -11.663  11.577  66.864  1.00  0.00    -0.533 OA 
BRANCH  10  11
HETATM   11  C   UNL     1     -11.038  10.523  67.470  1.00  0.00    -0.290 C  
HETATM   12  O   UNL     1     -11.131  10.277  68.665  1.00  0.00    -0.243 OA 
BRANCH  11  13
HETATM   13  C   UNL     1     -10.148   9.820  66.555  1.00  0.00    -0.307 A  
HETATM   14  C   UNL     1      -9.527   8.604  66.796  1.00  0.00    -0.191 A  
HETATM   15  N   UNL     1      -8.853   8.227  65.667  1.00  0.00    -0.264 NA 
HETATM   16  H   UNL     1      -8.309   7.369  65.570  1.00  0.00     0.000 HD 
HETATM   17  C   UNL     1      -9.017   9.171  64.681  1.00  0.00    -0.110 A  
HETATM   18  C   UNL     1      -8.524   9.199  63.371  1.00  0.00    -0.195 A  
HETATM   19  C   UNL     1      -8.869  10.295  62.572  1.00  0.00    -0.258 A  
HETATM   20  C   UNL     1      -9.679  11.315  63.064  1.00  0.00    -0.389 A  
HETATM   21  C   UNL     1     -10.163  11.270  64.374  1.00  0.00    -0.377 A  
HETATM   22  C   UNL     1      -9.823  10.183  65.208  1.00  0.00    -0.388 A  
ENDBRANCH  11  13
ENDBRANCH  10  11
ENDBRANCH   7  10
TORSDOF 3
ENDMDL
MODEL      125
REMARK 921   NORMALIZED FREE ENERGY PREDICTED BY IDOCK:   -4.81 KCAL/MOL
REMARK 922        TOTAL FREE ENERGY PREDICTED BY IDOCK:   -6.09 KCAL/MOL
REMARK 923 INTER-LIGAND FREE ENERGY PREDICTED BY IDOCK:   -5.43 KCAL/MOL
REMARK 924 INTRA-LIGAND FREE ENERGY PREDICTED BY IDOCK:   -0.67 KCAL/MOL
REMARK 927      BINDING AFFINITY PREDICTED BY RF-SCORE:    0.00 PKD
ROOT
HETATM    1  C   UNL     1      -7.372   7.386  66.840  1.00  0.00    -0.093 C  
HETATM    2  C   UNL     1      -7.692   8.750  66.221  1.00  0.00    -0.098 C  
HETATM    3  C   UNL     1      -9.217   8.800  66.170  1.00  0.00    -0.273 C  
HETATM    4  C   UNL     1      -9.665   7.463  66.767  1.00  0.00    -0.207 C  
HETATM    5  N   UNL     1      -8.536   6.601  66.417  1.00  0.00    -0.124 NA 
HETATM    6  C   UNL     1      -9.872   7.572  68.279  1.00  0.00    -0.177 C  
HETATM    7  C   UNL     1      -8.576   7.678  69.102  1.00  0.00    -0.139 C  
HETATM    8  C   UNL     1      -8.602   5.240  66.926  1.00  0.00    -0.105 C  
HETATM    9  C   UNL     1      -7.243   7.493  68.364  1.00  0.00    -0.093 C  
ENDROOT
BRANCH   7  10
HETATM   10  O   UNL     1      -8.622   8.948  69.772  1.00  0.00    -0.123 OA 
BRANCH  10  11
HETATM   11  C   UNL     1      -8.549   8.826  71.132  1.00  0.00    -0.195 C  
HETATM   12  O   UNL     1      -7.501   8.886  71.762  1.00  0.00    -0.271 OA 
BRANCH  11  13
HETATM   13  C   UNL     1      -9.838   8.481  71.717  1.00  0.00    -0.339 A  
HETATM   14  C   UNL     1     -10.071   7.472  72.638  1.00  0.00    -0.222 A  
HETATM   15  N   UNL     1     -11.383   7.523  73.019  1.00  0.00    -0.578 NA 
HETATM   16  H   UNL     1     -11.822   6.892  73.691  1.00  0.00     0.000 HD 
HETATM   17  C   UNL     1     -12.026   8.549  72.366  1.00  0.00    -0.364 A  
HETATM   18  C   UNL     1     -13.356   8.976  72.451  1.00  0.00    -0.516 A  
HETATM   19  C   UNL     1     -13.735  10.075  71.671  1.00  0.00    -0.194 A  
HETATM   20  C   UNL     1     -12.817  10.719  70.847  1.00  0.00    -0.443 A  
HETATM   21  C   UNL     1     -11.493  10.280  70.775  1.00  0.00    -0.438 A  
HETATM   22  C   UNL     1     -11.083   9.167  71.542  1.00  0.00    -0.436 A  
ENDBRANCH  11  13
ENDBRANCH  10  11
ENDBRANCH   7  10
TORSDOF 3
ENDMDL
MODEL      126
REMARK 921   NORMALIZED FREE ENERGY PREDICTED BY IDOCK:   -4.79 KCAL/MOL
REMARK 922        TOTAL FREE ENERGY PREDICTED BY IDOCK:   -6.07 KCAL/MOL
REMARK 923 INTER-LIGAND FREE ENERGY PREDICTED BY IDOCK:   -5.50 KCAL/MOL
REMARK 924 INTRA-LIGAND FREE ENERGY PREDICTED BY IDOCK:   -0.57 KCAL/MOL
REMARK 927      BINDING AFFINITY PREDICTED BY RF-SCORE:    0.00 PKD
ROOT
HETATM    1  C   UNL     1      -7.807  10.223  67.488  1.00  0.00    -0.102 C  
HETATM    2  C   UNL     1      -6.736  10.174  66.395  1.00  0.00    -0.092 C  
HETATM    3  C   UNL     1      -7.306   9.227  65.341  1.00  0.00    -0.090 C  
HETATM    4  C   UNL     1      -8.666   8.803  65.902  1.00  0.00    -0.170 C  
HETATM    5  N   UNL     1      -8.424   8.901  67.341  1.00  0.00    -0.115 NA 
HETATM    6  C   UNL     1      -9.778   9.741  65.430  1.00  0.00    -0.383 C  
HETATM    7  C   UNL     1      -9.772  11.133  66.087  1.00  0.00    -0.218 C  
HETATM    8  C   UNL     1      -9.575   8.641  68.191  1.00  0.00    -0.147 C  
HETATM    9  C   UNL     1      -8.790  11.374  67.241  1.00  0.00    -0.153 C  
ENDROOT
BRANCH   7  10
HETATM   10  O   UNL     1      -9.565  12.082  65.028  1.00  0.00    -0.174 OA 
BRANCH  10  11
HETATM   11  C   UNL     1     -10.699  12.783  64.725  1.00  0.00    -0.316 C  
HETATM   12  O   UNL     1     -11.250  12.741  63.632  1.00  0.00    -0.436 OA 
BRANCH  11  13
HETATM   13  C   UNL     1     -11.088  13.682  65.804  1.00  0.00    -0.292 A  
HETATM   14  C   UNL     1     -12.120  13.475  66.706  1.00  0.00    -0.375 A  
HETATM   15  N   UNL     1     -12.109  14.490  67.622  1.00  0.00    -0.588 NA 
HETATM   16  H   UNL     1     -12.763  14.582  68.400  1.00  0.00     0.000 HD 
HETATM   17  C   UNL     1     -11.088  15.368  67.344  1.00  0.00    -0.311 A  
HETATM   18  C   UNL     1     -10.695  16.532  68.013  1.00  0.00    -0.343 A  
HETATM   19  C   UNL     1      -9.592  17.230  67.508  1.00  0.00    -0.259 A  
HETATM   20  C   UNL     1      -8.909  16.773  66.384  1.00  0.00    -0.331 A  
HETATM   21  C   UNL     1      -9.313  15.607  65.729  1.00  0.00    -0.303 A  
HETATM   22  C   UNL     1     -10.430  14.889  66.209  1.00  0.00    -0.306 A  
ENDBRANCH  11  13
ENDBRANCH  10  11
ENDBRANCH   7  10
TORSDOF 3
ENDMDL
MODEL      127
REMARK 921   NORMALIZED FREE ENERGY PREDICTED BY IDOCK:   -4.78 KCAL/MOL
REMARK 922        TOTAL FREE ENERGY PREDICTED BY IDOCK:   -6.05 KCAL/MOL
REMARK 923 INTER-LIGAND FREE ENERGY PREDICTED BY IDOCK:   -5.46 KCAL/MOL
REMARK 924 INTRA-LIGAND FREE ENERGY PREDICTED BY IDOCK:   -0.59 KCAL/MOL
REMARK 927      BINDING AFFINITY PREDICTED BY RF-SCORE:    0.00 PKD
ROOT
HETATM    1  C   UNL     1      -8.761  17.721  66.173  1.00  0.00    -0.092 C  
HETATM    2  C   UNL     1      -7.617  17.116  66.991  1.00  0.00    -0.223 C  
HETATM    3  C   UNL     1      -7.961  17.453  68.440  1.00  0.00    -0.259 C  
HETATM    4  C   UNL     1      -9.281  18.224  68.352  1.00  0.00    -0.317 C  
HETATM    5  N   UNL     1      -9.163  18.841  67.030  1.00  0.00    -0.287 NA 
HETATM    6  C   UNL     1     -10.482  17.282  68.453  1.00  0.00    -0.381 C  
HETATM    7  C   UNL     1     -10.730  16.414  67.206  1.00  0.00    -0.257 C  
HETATM    8  C   UNL     1     -10.323  19.597  66.584  1.00  0.00    -0.486 C  
HETATM    9  C   UNL     1      -9.882  16.698  65.958  1.00  0.00    -0.335 C  
ENDROOT
BRANCH   7  10
HETATM   10  O   UNL     1     -10.588  15.048  67.625  1.00  0.00    -0.258 OA 
BRANCH  10  11
HETATM   11  C   UNL     1     -11.291  14.182  66.835  1.00  0.00    -0.331 C  
HETATM   12  O   UNL     1     -12.433  14.393  66.447  1.00  0.00    -0.389 OA 
BRANCH  11  13
HETATM   13  C   UNL     1     -10.575  12.930  66.628  1.00  0.00    -0.273 A  
HETATM   14  C   UNL     1     -11.092  11.780  66.053  1.00  0.00    -0.312 A  
HETATM   15  N   UNL     1     -10.089  10.856  65.946  1.00  0.00    -0.243 NA 
HETATM   16  H   UNL     1     -10.197   9.919  65.556  1.00  0.00     0.000 HD 
HETATM   17  C   UNL     1      -8.915  11.373  66.441  1.00  0.00    -0.191 A  
HETATM   18  C   UNL     1      -7.643  10.796  66.525  1.00  0.00    -0.139 A  
HETATM   19  C   UNL     1      -6.613  11.573  67.069  1.00  0.00    -0.138 A  
HETATM   20  C   UNL     1      -6.850  12.874  67.503  1.00  0.00    -0.155 A  
HETATM   21  C   UNL     1      -8.126  13.435  67.411  1.00  0.00    -0.178 A  
HETATM   22  C   UNL     1      -9.187  12.671  66.877  1.00  0.00    -0.216 A  
ENDBRANCH  11  13
ENDBRANCH  10  11
ENDBRANCH   7  10
TORSDOF 3
ENDMDL
MODEL      128
REMARK 921   NORMALIZED FREE ENERGY PREDICTED BY IDOCK:   -4.78 KCAL/MOL
REMARK 922        TOTAL FREE ENERGY PREDICTED BY IDOCK:   -6.05 KCAL/MOL
REMARK 923 INTER-LIGAND FREE ENERGY PREDICTED BY IDOCK:   -5.48 KCAL/MOL
REMARK 924 INTRA-LIGAND FREE ENERGY PREDICTED BY IDOCK:   -0.57 KCAL/MOL
REMARK 927      BINDING AFFINITY PREDICTED BY RF-SCORE:    0.00 PKD
ROOT
HETATM    1  C   UNL     1      -9.538   3.888  69.691  1.00  0.00    -0.189 C  
HETATM    2  C   UNL     1      -8.541   3.102  70.547  1.00  0.00    -0.110 C  
HETATM    3  C   UNL     1      -7.170   3.537  70.036  1.00  0.00    -0.041 C  
HETATM    4  C   UNL     1      -7.476   4.546  68.926  1.00  0.00    -0.056 C  
HETATM    5  N   UNL     1      -8.773   4.064  68.452  1.00  0.00    -0.095 NA 
HETATM    6  C   UNL     1      -7.547   5.973  69.476  1.00  0.00    -0.093 C  
HETATM    7  C   UNL     1      -8.802   6.281  70.312  1.00  0.00    -0.153 C  
HETATM    8  C   UNL     1      -9.408   4.875  67.425  1.00  0.00    -0.132 C  
HETATM    9  C   UNL     1      -9.907   5.217  70.362  1.00  0.00    -0.281 C  
ENDROOT
BRANCH   7  10
HETATM   10  O   UNL     1      -8.342   6.608  71.632  1.00  0.00    -0.115 OA 
BRANCH  10  11
HETATM   11  C   UNL     1      -8.610   7.905  71.974  1.00  0.00    -0.133 C  
HETATM   12  O   UNL     1      -7.743   8.729  72.237  1.00  0.00    -0.332 OA 
BRANCH  11  13
HETATM   13  C   UNL     1     -10.039   8.144  72.120  1.00  0.00    -0.320 A  
HETATM   14  C   UNL     1     -10.880   7.529  73.035  1.00  0.00    -0.392 A  
HETATM   15  N   UNL     1     -12.124   8.087  72.928  1.00  0.00    -0.628 NA 
HETATM   16  H   UNL     1     -12.935   7.819  73.487  1.00  0.00     0.000 HD 
HETATM   17  C   UNL     1     -12.124   9.062  71.958  1.00  0.00    -0.370 A  
HETATM   18  C   UNL     1     -13.160   9.894  71.518  1.00  0.00    -0.516 A  
HETATM   19  C   UNL     1     -12.865  10.819  70.511  1.00  0.00    -0.335 A  
HETATM   20  C   UNL     1     -11.584  10.910  69.973  1.00  0.00    -0.424 A  
HETATM   21  C   UNL     1     -10.561  10.072  70.425  1.00  0.00    -0.343 A  
HETATM   22  C   UNL     1     -10.832   9.121  71.432  1.00  0.00    -0.419 A  
ENDBRANCH  11  13
ENDBRANCH  10  11
ENDBRANCH   7  10
TORSDOF 3
ENDMDL
MODEL      129
REMARK 921   NORMALIZED FREE ENERGY PREDICTED BY IDOCK:   -4.77 KCAL/MOL
REMARK 922        TOTAL FREE ENERGY PREDICTED BY IDOCK:   -6.05 KCAL/MOL
REMARK 923 INTER-LIGAND FREE ENERGY PREDICTED BY IDOCK:   -5.30 KCAL/MOL
REMARK 924 INTRA-LIGAND FREE ENERGY PREDICTED BY IDOCK:   -0.75 KCAL/MOL
REMARK 927      BINDING AFFINITY PREDICTED BY RF-SCORE:    0.00 PKD
ROOT
HETATM    1  C   UNL     1      -9.756   6.720  66.640  1.00  0.00    -0.158 C  
HETATM    2  C   UNL     1     -10.300   5.297  66.799  1.00  0.00    -0.320 C  
HETATM    3  C   UNL     1      -9.065   4.442  67.072  1.00  0.00    -0.140 C  
HETATM    4  C   UNL     1      -7.899   5.434  67.055  1.00  0.00    -0.101 C  
HETATM    5  N   UNL     1      -8.405   6.453  66.135  1.00  0.00    -0.122 NA 
HETATM    6  C   UNL     1      -7.625   5.993  68.453  1.00  0.00    -0.091 C  
HETATM    7  C   UNL     1      -8.672   6.998  68.965  1.00  0.00    -0.128 C  
HETATM    8  C   UNL     1      -7.553   7.618  65.957  1.00  0.00    -0.088 C  
HETATM    9  C   UNL     1      -9.758   7.461  67.983  1.00  0.00    -0.161 C  
ENDROOT
BRANCH   7  10
HETATM   10  O   UNL     1      -9.255   6.416  70.141  1.00  0.00    -0.155 OA 
BRANCH  10  11
HETATM   11  C   UNL     1      -9.137   7.224  71.238  1.00  0.00    -0.146 C  
HETATM   12  O   UNL     1      -8.091   7.377  71.857  1.00  0.00    -0.096 OA 
BRANCH  11  13
HETATM   13  C   UNL     1     -10.423   7.763  71.657  1.00  0.00    -0.241 A  
HETATM   14  C   UNL     1     -11.268   7.212  72.609  1.00  0.00    -0.293 A  
HETATM   15  N   UNL     1     -12.327   8.057  72.794  1.00  0.00    -0.610 NA 
HETATM   16  H   UNL     1     -13.099   7.893  73.441  1.00  0.00     0.000 HD 
HETATM   17  C   UNL     1     -12.201   9.159  71.981  1.00  0.00    -0.373 A  
HETATM   18  C   UNL     1     -13.034  10.276  71.844  1.00  0.00    -0.554 A  
HETATM   19  C   UNL     1     -12.643  11.268  70.938  1.00  0.00    -0.467 A  
HETATM   20  C   UNL     1     -11.464  11.148  70.207  1.00  0.00    -0.329 A  
HETATM   21  C   UNL     1     -10.644  10.027  70.358  1.00  0.00    -0.343 A  
HETATM   22  C   UNL     1     -11.018   9.004  71.256  1.00  0.00    -0.384 A  
ENDBRANCH  11  13
ENDBRANCH  10  11
ENDBRANCH   7  10
TORSDOF 3
ENDMDL
MODEL      130
REMARK 921   NORMALIZED FREE ENERGY PREDICTED BY IDOCK:   -4.75 KCAL/MOL
REMARK 922        TOTAL FREE ENERGY PREDICTED BY IDOCK:   -6.02 KCAL/MOL
REMARK 923 INTER-LIGAND FREE ENERGY PREDICTED BY IDOCK:   -5.28 KCAL/MOL
REMARK 924 INTRA-LIGAND FREE ENERGY PREDICTED BY IDOCK:   -0.74 KCAL/MOL
REMARK 927      BINDING AFFINITY PREDICTED BY RF-SCORE:    0.00 PKD
ROOT
HETATM    1  C   UNL     1      -6.885   6.639  70.740  1.00  0.00    -0.063 C  
HETATM    2  C   UNL     1      -6.619   7.890  71.581  1.00  0.00    -0.044 C  
HETATM    3  C   UNL     1      -6.954   9.055  70.653  1.00  0.00    -0.076 C  
HETATM    4  C   UNL     1      -7.394   8.390  69.346  1.00  0.00    -0.070 C  
HETATM    5  N   UNL     1      -6.628   7.145  69.388  1.00  0.00    -0.043 NA 
HETATM    6  C   UNL     1      -8.905   8.149  69.327  1.00  0.00    -0.144 C  
HETATM    7  C   UNL     1      -9.389   7.012  70.245  1.00  0.00    -0.159 C  
HETATM    8  C   UNL     1      -6.886   6.211  68.302  1.00  0.00    -0.074 C  
HETATM    9  C   UNL     1      -8.325   6.146  70.932  1.00  0.00    -0.127 C  
ENDROOT
BRANCH   7  10
HETATM   10  O   UNL     1     -10.266   7.614  71.211  1.00  0.00    -0.188 OA 
BRANCH  10  11
HETATM   11  C   UNL     1     -11.581   7.526  70.850  1.00  0.00    -0.286 C  
HETATM   12  O   UNL     1     -12.017   6.680  70.080  1.00  0.00    -0.367 OA 
BRANCH  11  13
HETATM   13  C   UNL     1     -12.366   8.633  71.379  1.00  0.00    -0.344 A  
HETATM   14  C   UNL     1     -13.304   8.555  72.396  1.00  0.00    -0.282 A  
HETATM   15  N   UNL     1     -13.754   9.816  72.674  1.00  0.00    -0.640 NA 
HETATM   16  H   UNL     1     -14.451  10.045  73.384  1.00  0.00     0.000 HD 
HETATM   17  C   UNL     1     -13.130  10.731  71.858  1.00  0.00    -0.451 A  
HETATM   18  C   UNL     1     -13.268  12.122  71.797  1.00  0.00    -0.423 A  
HETATM   19  C   UNL     1     -12.482  12.811  70.865  1.00  0.00    -0.373 A  
HETATM   20  C   UNL     1     -11.593  12.132  70.036  1.00  0.00    -0.251 A  
HETATM   21  C   UNL     1     -11.468  10.743  70.112  1.00  0.00    -0.415 A  
HETATM   22  C   UNL     1     -12.255  10.020  71.035  1.00  0.00    -0.462 A  
ENDBRANCH  11  13
ENDBRANCH  10  11
ENDBRANCH   7  10
TORSDOF 3
ENDMDL
MODEL      131
REMARK 921   NORMALIZED FREE ENERGY PREDICTED BY IDOCK:   -4.73 KCAL/MOL
REMARK 922        TOTAL FREE ENERGY PREDICTED BY IDOCK:   -6.00 KCAL/MOL
REMARK 923 INTER-LIGAND FREE ENERGY PREDICTED BY IDOCK:   -5.39 KCAL/MOL
REMARK 924 INTRA-LIGAND FREE ENERGY PREDICTED BY IDOCK:   -0.61 KCAL/MOL
REMARK 927      BINDING AFFINITY PREDICTED BY RF-SCORE:    0.00 PKD
ROOT
HETATM    1  C   UNL     1      -9.888   8.727  66.317  1.00  0.00    -0.272 C  
HETATM    2  C   UNL     1      -9.237   7.923  67.446  1.00  0.00    -0.160 C  
HETATM    3  C   UNL     1      -7.807   8.452  67.519  1.00  0.00    -0.099 C  
HETATM    4  C   UNL     1      -7.738   9.525  66.429  1.00  0.00    -0.097 C  
HETATM    5  N   UNL     1      -8.726   9.025  65.473  1.00  0.00    -0.170 NA 
HETATM    6  C   UNL     1      -8.105  10.903  66.984  1.00  0.00    -0.131 C  
HETATM    7  C   UNL     1      -9.601  11.098  67.294  1.00  0.00    -0.165 C  
HETATM    8  C   UNL     1      -8.978   9.881  64.325  1.00  0.00    -0.243 C  
HETATM    9  C   UNL     1     -10.570   9.987  66.864  1.00  0.00    -0.261 C  
ENDROOT
BRANCH   7  10
HETATM   10  O   UNL     1      -9.695  11.346  68.705  1.00  0.00    -0.197 OA 
BRANCH  10  11
HETATM   11  C   UNL     1     -10.938  11.777  69.079  1.00  0.00    -0.227 C  
HETATM   12  O   UNL     1     -11.455  12.802  68.654  1.00  0.00    -0.257 OA 
BRANCH  11  13
HETATM   13  C   UNL     1     -11.505  10.951  70.136  1.00  0.00    -0.405 A  
HETATM   14  C   UNL     1     -12.796  11.034  70.632  1.00  0.00    -0.220 A  
HETATM   15  N   UNL     1     -12.979  10.032  71.545  1.00  0.00    -0.399 NA 
HETATM   16  H   UNL     1     -13.843   9.863  72.062  1.00  0.00     0.000 HD 
HETATM   17  C   UNL     1     -11.831   9.285  71.663  1.00  0.00    -0.383 A  
HETATM   18  C   UNL     1     -11.564   8.166  72.461  1.00  0.00    -0.468 A  
HETATM   19  C   UNL     1     -10.293   7.590  72.364  1.00  0.00    -0.277 A  
HETATM   20  C   UNL     1      -9.333   8.110  71.499  1.00  0.00    -0.210 A  
HETATM   21  C   UNL     1      -9.618   9.226  70.709  1.00  0.00    -0.341 A  
HETATM   22  C   UNL     1     -10.888   9.836  70.794  1.00  0.00    -0.403 A  
ENDBRANCH  11  13
ENDBRANCH  10  11
ENDBRANCH   7  10
TORSDOF 3
ENDMDL
MODEL      132
REMARK 921   NORMALIZED FREE ENERGY PREDICTED BY IDOCK:   -4.73 KCAL/MOL
REMARK 922        TOTAL FREE ENERGY PREDICTED BY IDOCK:   -6.00 KCAL/MOL
REMARK 923 INTER-LIGAND FREE ENERGY PREDICTED BY IDOCK:   -5.53 KCAL/MOL
REMARK 924 INTRA-LIGAND FREE ENERGY PREDICTED BY IDOCK:   -0.46 KCAL/MOL
REMARK 927      BINDING AFFINITY PREDICTED BY RF-SCORE:    0.00 PKD
ROOT
HETATM    1  C   UNL     1      -6.870  11.741  67.112  1.00  0.00    -0.148 C  
HETATM    2  C   UNL     1      -6.855  10.422  66.334  1.00  0.00    -0.112 C  
HETATM    3  C   UNL     1      -7.081   9.348  67.395  1.00  0.00    -0.086 C  
HETATM    4  C   UNL     1      -7.214  10.126  68.707  1.00  0.00    -0.081 C  
HETATM    5  N   UNL     1      -6.390  11.302  68.426  1.00  0.00    -0.046 NA 
HETATM    6  C   UNL     1      -8.673  10.488  68.993  1.00  0.00    -0.160 C  
HETATM    7  C   UNL     1      -9.250  11.600  68.097  1.00  0.00    -0.184 C  
HETATM    8  C   UNL     1      -6.370  12.319  69.466  1.00  0.00    -0.121 C  
HETATM    9  C   UNL     1      -8.283  12.334  67.157  1.00  0.00    -0.179 C  
ENDROOT
BRANCH   7  10
HETATM   10  O   UNL     1     -10.334  11.011  67.364  1.00  0.00    -0.191 OA 
BRANCH  10  11
HETATM   11  C   UNL     1     -11.297  11.922  67.030  1.00  0.00    -0.329 C  
HETATM   12  O   UNL     1     -11.677  12.116  65.883  1.00  0.00    -0.411 OA 
BRANCH  11  13
HETATM   13  C   UNL     1     -11.709  12.722  68.176  1.00  0.00    -0.392 A  
HETATM   14  C   UNL     1     -11.866  14.099  68.194  1.00  0.00    -0.352 A  
HETATM   15  N   UNL     1     -12.356  14.466  69.417  1.00  0.00    -0.532 NA 
HETATM   16  H   UNL     1     -12.564  15.425  69.700  1.00  0.00     0.000 HD 
HETATM   17  C   UNL     1     -12.527  13.357  70.211  1.00  0.00    -0.215 A  
HETATM   18  C   UNL     1     -13.009  13.253  71.521  1.00  0.00    -0.426 A  
HETATM   19  C   UNL     1     -13.092  11.973  72.082  1.00  0.00    -0.352 A  
HETATM   20  C   UNL     1     -12.713  10.847  71.357  1.00  0.00    -0.539 A  
HETATM   21  C   UNL     1     -12.235  10.969  70.050  1.00  0.00    -0.418 A  
HETATM   22  C   UNL     1     -12.130  12.248  69.461  1.00  0.00    -0.260 A  
ENDBRANCH  11  13
ENDBRANCH  10  11
ENDBRANCH   7  10
TORSDOF 3
ENDMDL
MODEL      133
REMARK 921   NORMALIZED FREE ENERGY PREDICTED BY IDOCK:   -4.71 KCAL/MOL
REMARK 922        TOTAL FREE ENERGY PREDICTED BY IDOCK:   -5.97 KCAL/MOL
REMARK 923 INTER-LIGAND FREE ENERGY PREDICTED BY IDOCK:   -5.25 KCAL/MOL
REMARK 924 INTRA-LIGAND FREE ENERGY PREDICTED BY IDOCK:   -0.73 KCAL/MOL
REMARK 927      BINDING AFFINITY PREDICTED BY RF-SCORE:    0.00 PKD
ROOT
HETATM    1  C   UNL     1      -9.496   6.431  69.071  1.00  0.00    -0.129 C  
HETATM    2  C   UNL     1     -10.947   6.038  68.783  1.00  0.00    -0.384 C  
HETATM    3  C   UNL     1     -11.717   6.471  70.028  1.00  0.00    -0.388 C  
HETATM    4  C   UNL     1     -10.654   7.086  70.943  1.00  0.00    -0.217 C  
HETATM    5  N   UNL     1      -9.462   6.342  70.535  1.00  0.00    -0.161 NA 
HETATM    6  C   UNL     1     -10.517   8.590  70.700  1.00  0.00    -0.234 C  
HETATM    7  C   UNL     1      -9.820   8.972  69.381  1.00  0.00    -0.183 C  
HETATM    8  C   UNL     1      -8.218   6.752  71.167  1.00  0.00    -0.119 C  
HETATM    9  C   UNL     1      -9.196   7.842  68.550  1.00  0.00    -0.138 C  
ENDROOT
BRANCH   7  10
HETATM   10  O   UNL     1     -10.784   9.707  68.610  1.00  0.00    -0.220 OA 
BRANCH  10  11
HETATM   11  C   UNL     1     -10.326  10.941  68.240  1.00  0.00    -0.173 C  
HETATM   12  O   UNL     1      -9.764  11.712  69.006  1.00  0.00    -0.074 OA 
BRANCH  11  13
HETATM   13  C   UNL     1     -10.709  11.276  66.875  1.00  0.00    -0.319 A  
HETATM   14  C   UNL     1     -11.617  12.254  66.500  1.00  0.00    -0.377 A  
HETATM   15  N   UNL     1     -11.634  12.332  65.134  1.00  0.00    -0.351 NA 
HETATM   16  H   UNL     1     -12.216  12.973  64.593  1.00  0.00     0.000 HD 
HETATM   17  C   UNL     1     -10.755  11.423  64.597  1.00  0.00    -0.314 A  
HETATM   18  C   UNL     1     -10.437  11.161  63.259  1.00  0.00    -0.323 A  
HETATM   19  C   UNL     1      -9.477  10.175  63.002  1.00  0.00    -0.292 A  
HETATM   20  C   UNL     1      -8.859   9.488  64.043  1.00  0.00    -0.243 A  
HETATM   21  C   UNL     1      -9.187   9.763  65.372  1.00  0.00    -0.282 A  
HETATM   22  C   UNL     1     -10.160  10.745  65.663  1.00  0.00    -0.327 A  
ENDBRANCH  11  13
ENDBRANCH  10  11
ENDBRANCH   7  10
TORSDOF 3
ENDMDL
MODEL      134
REMARK 921   NORMALIZED FREE ENERGY PREDICTED BY IDOCK:   -4.70 KCAL/MOL
REMARK 922        TOTAL FREE ENERGY PREDICTED BY IDOCK:   -5.97 KCAL/MOL
REMARK 923 INTER-LIGAND FREE ENERGY PREDICTED BY IDOCK:   -5.47 KCAL/MOL
REMARK 924 INTRA-LIGAND FREE ENERGY PREDICTED BY IDOCK:   -0.50 KCAL/MOL
REMARK 927      BINDING AFFINITY PREDICTED BY RF-SCORE:    0.00 PKD
ROOT
HETATM    1  C   UNL     1     -11.012  15.212  65.812  1.00  0.00    -0.349 C  
HETATM    2  C   UNL     1     -10.051  14.094  65.400  1.00  0.00    -0.359 C  
HETATM    3  C   UNL     1      -8.966  14.105  66.474  1.00  0.00    -0.140 C  
HETATM    4  C   UNL     1      -9.383  15.226  67.429  1.00  0.00    -0.199 C  
HETATM    5  N   UNL     1     -10.105  16.119  66.524  1.00  0.00    -0.277 NA 
HETATM    6  C   UNL     1     -10.269  14.693  68.557  1.00  0.00    -0.240 C  
HETATM    7  C   UNL     1     -11.700  14.317  68.131  1.00  0.00    -0.350 C  
HETATM    8  C   UNL     1     -10.727  17.277  67.146  1.00  0.00    -0.181 C  
HETATM    9  C   UNL     1     -12.136  14.668  66.702  1.00  0.00    -0.229 C  
ENDROOT
BRANCH   7  10
HETATM   10  O   UNL     1     -11.843  12.910  68.383  1.00  0.00    -0.315 OA 
BRANCH  10  11
HETATM   11  C   UNL     1     -12.274  12.647  69.653  1.00  0.00    -0.114 C  
HETATM   12  O   UNL     1     -12.755  13.494  70.395  1.00  0.00    -0.223 OA 
BRANCH  11  13
HETATM   13  C   UNL     1     -11.965  11.282  70.060  1.00  0.00    -0.447 A  
HETATM   14  C   UNL     1     -12.798  10.437  70.777  1.00  0.00    -0.364 A  
HETATM   15  N   UNL     1     -12.196   9.214  70.878  1.00  0.00    -0.453 NA 
HETATM   16  H   UNL     1     -12.594   8.405  71.357  1.00  0.00     0.000 HD 
HETATM   17  C   UNL     1     -10.977   9.232  70.242  1.00  0.00    -0.247 A  
HETATM   18  C   UNL     1     -10.030   8.214  70.083  1.00  0.00    -0.187 A  
HETATM   19  C   UNL     1      -8.868   8.516  69.364  1.00  0.00    -0.141 A  
HETATM   20  C   UNL     1      -8.670   9.783  68.822  1.00  0.00    -0.128 A  
HETATM   21  C   UNL     1      -9.627  10.787  68.989  1.00  0.00    -0.193 A  
HETATM   22  C   UNL     1     -10.804  10.515  69.720  1.00  0.00    -0.335 A  
ENDBRANCH  11  13
ENDBRANCH  10  11
ENDBRANCH   7  10
TORSDOF 3
ENDMDL
MODEL      135
REMARK 921   NORMALIZED FREE ENERGY PREDICTED BY IDOCK:   -4.70 KCAL/MOL
REMARK 922        TOTAL FREE ENERGY PREDICTED BY IDOCK:   -5.96 KCAL/MOL
REMARK 923 INTER-LIGAND FREE ENERGY PREDICTED BY IDOCK:   -5.37 KCAL/MOL
REMARK 924 INTRA-LIGAND FREE ENERGY PREDICTED BY IDOCK:   -0.59 KCAL/MOL
REMARK 927      BINDING AFFINITY PREDICTED BY RF-SCORE:    0.00 PKD
ROOT
HETATM    1  C   UNL     1      -7.296  20.279  66.300  1.00  0.00    -0.249 C  
HETATM    2  C   UNL     1      -6.564  19.566  65.160  1.00  0.00    -0.286 C  
HETATM    3  C   UNL     1      -5.784  18.446  65.845  1.00  0.00    -0.222 C  
HETATM    4  C   UNL     1      -6.128  18.592  67.330  1.00  0.00    -0.165 C  
HETATM    5  N   UNL     1      -6.387  20.029  67.423  1.00  0.00    -0.196 NA 
HETATM    6  C   UNL     1      -7.351  17.751  67.702  1.00  0.00    -0.207 C  
HETATM    7  C   UNL     1      -8.693  18.297  67.181  1.00  0.00    -0.256 C  
HETATM    8  C   UNL     1      -6.838  20.503  68.722  1.00  0.00    -0.056 C  
HETATM    9  C   UNL     1      -8.692  19.679  66.514  1.00  0.00    -0.402 C  
ENDROOT
BRANCH   7  10
HETATM   10  O   UNL     1      -9.224  17.298  66.297  1.00  0.00    -0.329 OA 
BRANCH  10  11
HETATM   11  C   UNL     1     -10.121  16.473  66.916  1.00  0.00    -0.281 C  
HETATM   12  O   UNL     1     -11.004  16.873  67.664  1.00  0.00    -0.285 OA 
BRANCH  11  13
HETATM   13  C   UNL     1      -9.814  15.067  66.689  1.00  0.00    -0.266 A  
HETATM   14  C   UNL     1      -9.075  14.248  67.528  1.00  0.00    -0.193 A  
HETATM   15  N   UNL     1      -9.090  12.978  67.022  1.00  0.00    -0.224 NA 
HETATM   16  H   UNL     1      -8.623  12.175  67.445  1.00  0.00     0.000 HD 
HETATM   17  C   UNL     1      -9.826  12.939  65.861  1.00  0.00    -0.235 A  
HETATM   18  C   UNL     1     -10.118  11.862  65.017  1.00  0.00    -0.297 A  
HETATM   19  C   UNL     1     -10.917  12.116  63.896  1.00  0.00    -0.463 A  
HETATM   20  C   UNL     1     -11.406  13.393  63.638  1.00  0.00    -0.103 A  
HETATM   21  C   UNL     1     -11.105  14.457  64.493  1.00  0.00    -0.301 A  
HETATM   22  C   UNL     1     -10.293  14.234  65.626  1.00  0.00    -0.352 A  
ENDBRANCH  11  13
ENDBRANCH  10  11
ENDBRANCH   7  10
TORSDOF 3
ENDMDL
MODEL      136
REMARK 921   NORMALIZED FREE ENERGY PREDICTED BY IDOCK:   -4.70 KCAL/MOL
REMARK 922        TOTAL FREE ENERGY PREDICTED BY IDOCK:   -5.96 KCAL/MOL
REMARK 923 INTER-LIGAND FREE ENERGY PREDICTED BY IDOCK:   -5.56 KCAL/MOL
REMARK 924 INTRA-LIGAND FREE ENERGY PREDICTED BY IDOCK:   -0.41 KCAL/MOL
REMARK 927      BINDING AFFINITY PREDICTED BY RF-SCORE:    0.00 PKD
ROOT
HETATM    1  C   UNL     1      -8.285   6.007  67.990  1.00  0.00    -0.113 C  
HETATM    2  C   UNL     1      -8.061   5.844  66.484  1.00  0.00    -0.102 C  
HETATM    3  C   UNL     1      -9.336   5.176  65.975  1.00  0.00    -0.165 C  
HETATM    4  C   UNL     1     -10.206   5.007  67.225  1.00  0.00    -0.168 C  
HETATM    5  N   UNL     1      -9.186   4.883  68.267  1.00  0.00    -0.118 NA 
HETATM    6  C   UNL     1     -11.115   6.219  67.437  1.00  0.00    -0.384 C  
HETATM    7  C   UNL     1     -10.395   7.490  67.924  1.00  0.00    -0.210 C  
HETATM    8  C   UNL     1      -9.688   4.793  69.629  1.00  0.00    -0.202 C  
HETATM    9  C   UNL     1      -8.913   7.370  68.306  1.00  0.00    -0.130 C  
ENDROOT
BRANCH   7  10
HETATM   10  O   UNL     1     -10.586   8.483  66.904  1.00  0.00    -0.298 OA 
BRANCH  10  11
HETATM   11  C   UNL     1     -10.623   9.752  67.409  1.00  0.00    -0.267 C  
HETATM   12  O   UNL     1     -11.025  10.022  68.534  1.00  0.00    -0.232 OA 
BRANCH  11  13
HETATM   13  C   UNL     1     -10.261  10.747  66.408  1.00  0.00    -0.294 A  
HETATM   14  C   UNL     1      -9.272  10.613  65.446  1.00  0.00    -0.193 A  
HETATM   15  N   UNL     1      -9.301  11.714  64.635  1.00  0.00    -0.422 NA 
HETATM   16  H   UNL     1      -8.677  11.872  63.843  1.00  0.00     0.000 HD 
HETATM   17  C   UNL     1     -10.291  12.577  65.043  1.00  0.00    -0.299 A  
HETATM   18  C   UNL     1     -10.687  13.809  64.509  1.00  0.00    -0.405 A  
HETATM   19  C   UNL     1     -11.753  14.471  65.129  1.00  0.00    -0.376 A  
HETATM   20  C   UNL     1     -12.398  13.917  66.231  1.00  0.00    -0.489 A  
HETATM   21  C   UNL     1     -11.991  12.685  66.749  1.00  0.00    -0.362 A  
HETATM   22  C   UNL     1     -10.911  11.999  66.153  1.00  0.00    -0.325 A  
ENDBRANCH  11  13
ENDBRANCH  10  11
ENDBRANCH   7  10
TORSDOF 3
ENDMDL
MODEL      137
REMARK 921   NORMALIZED FREE ENERGY PREDICTED BY IDOCK:   -4.69 KCAL/MOL
REMARK 922        TOTAL FREE ENERGY PREDICTED BY IDOCK:   -5.95 KCAL/MOL
REMARK 923 INTER-LIGAND FREE ENERGY PREDICTED BY IDOCK:   -6.07 KCAL/MOL
REMARK 924 INTRA-LIGAND FREE ENERGY PREDICTED BY IDOCK:    0.12 KCAL/MOL
REMARK 927      BINDING AFFINITY PREDICTED BY RF-SCORE:    0.00 PKD
ROOT
HETATM    1  C   UNL     1     -10.079  14.325  66.725  1.00  0.00    -0.264 C  
HETATM    2  C   UNL     1     -10.611  13.877  68.089  1.00  0.00    -0.258 C  
HETATM    3  C   UNL     1     -12.108  13.671  67.869  1.00  0.00    -0.318 C  
HETATM    4  C   UNL     1     -12.329  14.011  66.392  1.00  0.00    -0.431 C  
HETATM    5  N   UNL     1     -11.262  14.985  66.161  1.00  0.00    -0.334 NA 
HETATM    6  C   UNL     1     -12.191  12.769  65.510  1.00  0.00    -0.519 C  
HETATM    7  C   UNL     1     -10.749  12.259  65.333  1.00  0.00    -0.284 C  
HETATM    8  C   UNL     1     -11.131  15.460  64.792  1.00  0.00    -0.403 C  
HETATM    9  C   UNL     1      -9.612  13.122  65.896  1.00  0.00    -0.122 C  
ENDROOT
BRANCH   7  10
HETATM   10  O   UNL     1     -10.714  10.935  65.887  1.00  0.00    -0.215 OA 
BRANCH  10  11
HETATM   11  C   UNL     1      -9.536  10.666  66.527  1.00  0.00    -0.180 C  
HETATM   12  O   UNL     1      -8.435  10.852  66.025  1.00  0.00    -0.163 OA 
BRANCH  11  13
HETATM   13  C   UNL     1      -9.751  10.008  67.809  1.00  0.00    -0.174 A  
HETATM   14  C   UNL     1      -9.604  10.591  69.058  1.00  0.00    -0.202 A  
HETATM   15  N   UNL     1      -9.988   9.686  70.009  1.00  0.00    -0.232 NA 
HETATM   16  H   UNL     1      -9.980   9.857  71.016  1.00  0.00     0.000 HD 
HETATM   17  C   UNL     1     -10.386   8.513  69.413  1.00  0.00    -0.215 A  
HETATM   18  C   UNL     1     -10.863   7.329  69.987  1.00  0.00    -0.271 A  
HETATM   19  C   UNL     1     -11.214   6.285  69.123  1.00  0.00    -0.439 A  
HETATM   20  C   UNL     1     -11.097   6.427  67.743  1.00  0.00    -0.376 A  
HETATM   21  C   UNL     1     -10.621   7.617  67.187  1.00  0.00    -0.410 A  
HETATM   22  C   UNL     1     -10.248   8.683  68.034  1.00  0.00    -0.261 A  
ENDBRANCH  11  13
ENDBRANCH  10  11
ENDBRANCH   7  10
TORSDOF 3
ENDMDL
MODEL      138
REMARK 921   NORMALIZED FREE ENERGY PREDICTED BY IDOCK:   -4.64 KCAL/MOL
REMARK 922        TOTAL FREE ENERGY PREDICTED BY IDOCK:   -5.89 KCAL/MOL
REMARK 923 INTER-LIGAND FREE ENERGY PREDICTED BY IDOCK:   -5.57 KCAL/MOL
REMARK 924 INTRA-LIGAND FREE ENERGY PREDICTED BY IDOCK:   -0.32 KCAL/MOL
REMARK 927      BINDING AFFINITY PREDICTED BY RF-SCORE:    0.00 PKD
ROOT
HETATM    1  C   UNL     1      -9.518  13.639  67.112  1.00  0.00    -0.244 C  
HETATM    2  C   UNL     1     -10.195  14.199  68.366  1.00  0.00    -0.247 C  
HETATM    3  C   UNL     1     -11.666  14.333  67.981  1.00  0.00    -0.386 C  
HETATM    4  C   UNL     1     -11.731  13.836  66.534  1.00  0.00    -0.385 C  
HETATM    5  N   UNL     1     -10.389  14.169  66.058  1.00  0.00    -0.299 NA 
HETATM    6  C   UNL     1     -12.018  12.334  66.476  1.00  0.00    -0.274 C  
HETATM    7  C   UNL     1     -10.840  11.434  66.892  1.00  0.00    -0.285 C  
HETATM    8  C   UNL     1     -10.078  13.739  64.703  1.00  0.00    -0.160 C  
HETATM    9  C   UNL     1      -9.483  12.106  67.147  1.00  0.00    -0.190 C  
ENDROOT
BRANCH   7  10
HETATM   10  O   UNL     1     -11.276  10.700  68.047  1.00  0.00    -0.280 OA 
BRANCH  10  11
HETATM   11  C   UNL     1     -10.748   9.440  68.096  1.00  0.00    -0.178 C  
HETATM   12  O   UNL     1     -10.447   8.792  67.102  1.00  0.00    -0.282 OA 
BRANCH  11  13
HETATM   13  C   UNL     1     -10.717   8.917  69.456  1.00  0.00    -0.206 A  
HETATM   14  C   UNL     1     -11.005   9.629  70.610  1.00  0.00    -0.320 A  
HETATM   15  N   UNL     1     -10.961   8.770  71.674  1.00  0.00    -0.295 NA 
HETATM   16  H   UNL     1     -11.136   9.033  72.645  1.00  0.00     0.000 HD 
HETATM   17  C   UNL     1     -10.648   7.501  71.246  1.00  0.00    -0.215 A  
HETATM   18  C   UNL     1     -10.507   6.315  71.975  1.00  0.00    -0.239 A  
HETATM   19  C   UNL     1     -10.195   5.151  71.264  1.00  0.00    -0.292 A  
HETATM   20  C   UNL     1     -10.038   5.175  69.881  1.00  0.00    -0.342 A  
HETATM   21  C   UNL     1     -10.185   6.368  69.169  1.00  0.00    -0.217 A  
HETATM   22  C   UNL     1     -10.488   7.561  69.860  1.00  0.00    -0.232 A  
ENDBRANCH  11  13
ENDBRANCH  10  11
ENDBRANCH   7  10
TORSDOF 3
ENDMDL
MODEL      139
REMARK 921   NORMALIZED FREE ENERGY PREDICTED BY IDOCK:   -4.63 KCAL/MOL
REMARK 922        TOTAL FREE ENERGY PREDICTED BY IDOCK:   -5.88 KCAL/MOL
REMARK 923 INTER-LIGAND FREE ENERGY PREDICTED BY IDOCK:   -5.49 KCAL/MOL
REMARK 924 INTRA-LIGAND FREE ENERGY PREDICTED BY IDOCK:   -0.39 KCAL/MOL
REMARK 927      BINDING AFFINITY PREDICTED BY RF-SCORE:    0.00 PKD
ROOT
HETATM    1  C   UNL     1     -10.055   7.767  68.677  1.00  0.00    -0.199 C  
HETATM    2  C   UNL     1     -10.759   8.069  70.003  1.00  0.00    -0.244 C  
HETATM    3  C   UNL     1      -9.910   9.162  70.648  1.00  0.00    -0.308 C  
HETATM    4  C   UNL     1      -8.780   9.413  69.645  1.00  0.00    -0.167 C  
HETATM    5  N   UNL     1      -8.666   8.100  69.010  1.00  0.00    -0.143 NA 
HETATM    6  C   UNL     1      -9.155  10.514  68.651  1.00  0.00    -0.158 C  
HETATM    7  C   UNL     1     -10.204  10.106  67.600  1.00  0.00    -0.203 C  
HETATM    8  C   UNL     1      -7.713   8.013  67.914  1.00  0.00    -0.114 C  
HETATM    9  C   UNL     1     -10.624   8.631  67.545  1.00  0.00    -0.292 C  
ENDROOT
BRANCH   7  10
HETATM   10  O   UNL     1     -11.340  10.959  67.806  1.00  0.00    -0.340 OA 
BRANCH  10  11
HETATM   11  C   UNL     1     -11.254  12.127  67.101  1.00  0.00    -0.314 C  
HETATM   12  O   UNL     1     -11.065  12.176  65.893  1.00  0.00    -0.293 OA 
BRANCH  11  13
HETATM   13  C   UNL     1     -11.274  13.293  67.975  1.00  0.00    -0.307 A  
HETATM   14  C   UNL     1     -11.519  13.285  69.339  1.00  0.00    -0.263 A  
HETATM   15  N   UNL     1     -11.355  14.555  69.819  1.00  0.00    -0.268 NA 
HETATM   16  H   UNL     1     -11.475  14.831  70.795  1.00  0.00     0.000 HD 
HETATM   17  C   UNL     1     -11.007  15.406  68.798  1.00  0.00    -0.264 A  
HETATM   18  C   UNL     1     -10.731  16.778  68.823  1.00  0.00    -0.341 A  
HETATM   19  C   UNL     1     -10.381  17.392  67.615  1.00  0.00    -0.355 A  
HETATM   20  C   UNL     1     -10.304  16.659  66.434  1.00  0.00    -0.310 A  
HETATM   21  C   UNL     1     -10.581  15.289  66.427  1.00  0.00    -0.308 A  
HETATM   22  C   UNL     1     -10.948  14.645  67.628  1.00  0.00    -0.296 A  
ENDBRANCH  11  13
ENDBRANCH  10  11
ENDBRANCH   7  10
TORSDOF 3
ENDMDL
MODEL      140
REMARK 921   NORMALIZED FREE ENERGY PREDICTED BY IDOCK:   -4.60 KCAL/MOL
REMARK 922        TOTAL FREE ENERGY PREDICTED BY IDOCK:   -5.84 KCAL/MOL
REMARK 923 INTER-LIGAND FREE ENERGY PREDICTED BY IDOCK:   -5.35 KCAL/MOL
REMARK 924 INTRA-LIGAND FREE ENERGY PREDICTED BY IDOCK:   -0.50 KCAL/MOL
REMARK 927      BINDING AFFINITY PREDICTED BY RF-SCORE:    0.00 PKD
ROOT
HETATM    1  C   UNL     1     -10.983   6.691  72.482  1.00  0.00    -0.247 C  
HETATM    2  C   UNL     1     -10.206   7.953  72.868  1.00  0.00    -0.397 C  
HETATM    3  C   UNL     1      -8.764   7.655  72.465  1.00  0.00    -0.176 C  
HETATM    4  C   UNL     1      -8.815   6.244  71.872  1.00  0.00    -0.139 C  
HETATM    5  N   UNL     1      -9.941   5.666  72.606  1.00  0.00    -0.172 NA 
HETATM    6  C   UNL     1      -9.059   6.285  70.362  1.00  0.00    -0.157 C  
HETATM    7  C   UNL     1     -10.491   6.675  69.949  1.00  0.00    -0.209 C  
HETATM    8  C   UNL     1     -10.325   4.320  72.210  1.00  0.00    -0.143 C  
HETATM    9  C   UNL     1     -11.543   6.807  71.059  1.00  0.00    -0.388 C  
ENDROOT
BRANCH   7  10
HETATM   10  O   UNL     1     -10.380   7.893  69.196  1.00  0.00    -0.213 OA 
BRANCH  10  11
HETATM   11  C   UNL     1     -10.581   7.701  67.858  1.00  0.00    -0.168 C  
HETATM   12  O   UNL     1     -11.003   6.656  67.379  1.00  0.00    -0.321 OA 
BRANCH  11  13
HETATM   13  C   UNL     1     -10.107   8.831  67.069  1.00  0.00    -0.335 A  
HETATM   14  C   UNL     1      -9.240   8.764  65.990  1.00  0.00    -0.222 A  
HETATM   15  N   UNL     1      -9.112  10.017  65.456  1.00  0.00    -0.173 NA 
HETATM   16  H   UNL     1      -8.532  10.252  64.649  1.00  0.00     0.000 HD 
HETATM   17  C   UNL     1      -9.878  10.914  66.162  1.00  0.00    -0.222 A  
HETATM   18  C   UNL     1     -10.062  12.288  65.970  1.00  0.00    -0.269 A  
HETATM   19  C   UNL     1     -10.926  12.955  66.846  1.00  0.00    -0.294 A  
HETATM   20  C   UNL     1     -11.582  12.271  67.866  1.00  0.00    -0.416 A  
HETATM   21  C   UNL     1     -11.388  10.898  68.042  1.00  0.00    -0.382 A  
HETATM   22  C   UNL     1     -10.514  10.200  67.181  1.00  0.00    -0.305 A  
ENDBRANCH  11  13
ENDBRANCH  10  11
ENDBRANCH   7  10
TORSDOF 3
ENDMDL
MODEL      141
REMARK 921   NORMALIZED FREE ENERGY PREDICTED BY IDOCK:   -4.60 KCAL/MOL
REMARK 922        TOTAL FREE ENERGY PREDICTED BY IDOCK:   -5.84 KCAL/MOL
REMARK 923 INTER-LIGAND FREE ENERGY PREDICTED BY IDOCK:   -5.25 KCAL/MOL
REMARK 924 INTRA-LIGAND FREE ENERGY PREDICTED BY IDOCK:   -0.59 KCAL/MOL
REMARK 927      BINDING AFFINITY PREDICTED BY RF-SCORE:    0.00 PKD
ROOT
HETATM    1  C   UNL     1     -10.438   5.199  70.079  1.00  0.00    -0.235 C  
HETATM    2  C   UNL     1     -10.340   5.624  71.546  1.00  0.00    -0.279 C  
HETATM    3  C   UNL     1      -8.850   5.544  71.871  1.00  0.00    -0.139 C  
HETATM    4  C   UNL     1      -8.197   5.083  70.565  1.00  0.00    -0.100 C  
HETATM    5  N   UNL     1      -9.281   4.306  69.963  1.00  0.00    -0.121 NA 
HETATM    6  C   UNL     1      -7.782   6.275  69.701  1.00  0.00    -0.099 C  
HETATM    7  C   UNL     1      -8.947   7.025  69.030  1.00  0.00    -0.133 C  
HETATM    8  C   UNL     1      -9.014   3.782  68.632  1.00  0.00    -0.124 C  
HETATM    9  C   UNL     1     -10.351   6.416  69.149  1.00  0.00    -0.248 C  
ENDROOT
BRANCH   7  10
HETATM   10  O   UNL     1      -8.921   8.365  69.549  1.00  0.00    -0.147 OA 
BRANCH  10  11
HETATM   11  C   UNL     1      -9.332   9.289  68.629  1.00  0.00    -0.139 C  
HETATM   12  O   UNL     1      -8.903   9.342  67.484  1.00  0.00    -0.119 OA 
BRANCH  11  13
HETATM   13  C   UNL     1     -10.227  10.278  69.215  1.00  0.00    -0.244 A  
HETATM   14  C   UNL     1     -10.389  11.587  68.787  1.00  0.00    -0.196 A  
HETATM   15  N   UNL     1     -11.385  12.167  69.523  1.00  0.00    -0.434 NA 
HETATM   16  H   UNL     1     -11.708  13.129  69.413  1.00  0.00     0.000 HD 
HETATM   17  C   UNL     1     -11.887  11.267  70.433  1.00  0.00    -0.350 A  
HETATM   18  C   UNL     1     -12.910  11.416  71.376  1.00  0.00    -0.502 A  
HETATM   19  C   UNL     1     -13.225  10.308  72.171  1.00  0.00    -0.443 A  
HETATM   20  C   UNL     1     -12.547   9.101  72.022  1.00  0.00    -0.463 A  
HETATM   21  C   UNL     1     -11.529   8.970  71.074  1.00  0.00    -0.358 A  
HETATM   22  C   UNL     1     -11.181  10.073  70.265  1.00  0.00    -0.379 A  
ENDBRANCH  11  13
ENDBRANCH  10  11
ENDBRANCH   7  10
TORSDOF 3
ENDMDL
MODEL      142
REMARK 921   NORMALIZED FREE ENERGY PREDICTED BY IDOCK:   -4.57 KCAL/MOL
REMARK 922        TOTAL FREE ENERGY PREDICTED BY IDOCK:   -5.81 KCAL/MOL
REMARK 923 INTER-LIGAND FREE ENERGY PREDICTED BY IDOCK:   -5.44 KCAL/MOL
REMARK 924 INTRA-LIGAND FREE ENERGY PREDICTED BY IDOCK:   -0.37 KCAL/MOL
REMARK 927      BINDING AFFINITY PREDICTED BY RF-SCORE:    0.00 PKD
ROOT
HETATM    1  C   UNL     1      -9.879  14.635  67.421  1.00  0.00    -0.222 C  
HETATM    2  C   UNL     1     -10.540  13.955  68.623  1.00  0.00    -0.265 C  
HETATM    3  C   UNL     1     -11.958  13.638  68.154  1.00  0.00    -0.390 C  
HETATM    4  C   UNL     1     -12.010  14.155  66.713  1.00  0.00    -0.447 C  
HETATM    5  N   UNL     1     -11.040  15.249  66.767  1.00  0.00    -0.309 NA 
HETATM    6  C   UNL     1     -11.608  13.064  65.718  1.00  0.00    -0.396 C  
HETATM    7  C   UNL     1     -10.106  12.724  65.703  1.00  0.00    -0.270 C  
HETATM    8  C   UNL     1     -10.775  15.917  65.503  1.00  0.00    -0.372 C  
HETATM    9  C   UNL     1      -9.165  13.607  66.534  1.00  0.00    -0.195 C  
ENDROOT
BRANCH   7  10
HETATM   10  O   UNL     1      -9.997  11.346  66.092  1.00  0.00    -0.213 OA 
BRANCH  10  11
HETATM   11  C   UNL     1      -9.833  10.512  65.021  1.00  0.00    -0.306 C  
HETATM   12  O   UNL     1     -10.386  10.679  63.941  1.00  0.00    -0.318 OA 
BRANCH  11  13
HETATM   13  C   UNL     1      -9.039   9.339  65.362  1.00  0.00    -0.277 A  
HETATM   14  C   UNL     1      -7.767   9.050  64.891  1.00  0.00    -0.111 A  
HETATM   15  N   UNL     1      -7.319   7.917  65.513  1.00  0.00    -0.074 NA 
HETATM   16  H   UNL     1      -6.410   7.483  65.351  1.00  0.00     0.000 HD 
HETATM   17  C   UNL     1      -8.271   7.448  66.387  1.00  0.00    -0.122 A  
HETATM   18  C   UNL     1      -8.243   6.336  67.236  1.00  0.00    -0.109 A  
HETATM   19  C   UNL     1      -9.365   6.106  68.040  1.00  0.00    -0.114 A  
HETATM   20  C   UNL     1     -10.464   6.960  67.999  1.00  0.00    -0.255 A  
HETATM   21  C   UNL     1     -10.474   8.067  67.146  1.00  0.00    -0.408 A  
HETATM   22  C   UNL     1      -9.361   8.318  66.315  1.00  0.00    -0.267 A  
ENDBRANCH  11  13
ENDBRANCH  10  11
ENDBRANCH   7  10
TORSDOF 3
ENDMDL
MODEL      143
REMARK 921   NORMALIZED FREE ENERGY PREDICTED BY IDOCK:   -4.56 KCAL/MOL
REMARK 922        TOTAL FREE ENERGY PREDICTED BY IDOCK:   -5.80 KCAL/MOL
REMARK 923 INTER-LIGAND FREE ENERGY PREDICTED BY IDOCK:   -5.51 KCAL/MOL
REMARK 924 INTRA-LIGAND FREE ENERGY PREDICTED BY IDOCK:   -0.29 KCAL/MOL
REMARK 927      BINDING AFFINITY PREDICTED BY RF-SCORE:    0.00 PKD
ROOT
HETATM    1  C   UNL     1     -12.046  12.534  65.936  1.00  0.00    -0.352 C  
HETATM    2  C   UNL     1     -10.921  11.788  66.659  1.00  0.00    -0.342 C  
HETATM    3  C   UNL     1      -9.688  12.015  65.788  1.00  0.00    -0.254 C  
HETATM    4  C   UNL     1     -10.191  12.878  64.628  1.00  0.00    -0.298 C  
HETATM    5  N   UNL     1     -11.589  12.458  64.544  1.00  0.00    -0.333 NA 
HETATM    6  C   UNL     1     -10.045  14.369  64.942  1.00  0.00    -0.253 C  
HETATM    7  C   UNL     1     -11.045  14.911  65.980  1.00  0.00    -0.334 C  
HETATM    8  C   UNL     1     -12.402  13.169  63.571  1.00  0.00    -0.398 C  
HETATM    9  C   UNL     1     -12.167  13.974  66.449  1.00  0.00    -0.492 C  
ENDROOT
BRANCH   7  10
HETATM   10  O   UNL     1     -10.265  15.379  67.091  1.00  0.00    -0.244 OA 
BRANCH  10  11
HETATM   11  C   UNL     1     -10.206  16.744  67.152  1.00  0.00    -0.295 C  
HETATM   12  O   UNL     1     -11.019  17.481  66.609  1.00  0.00    -0.040 OA 
BRANCH  11  13
HETATM   13  C   UNL     1      -8.996  17.207  67.816  1.00  0.00    -0.226 A  
HETATM   14  C   UNL     1      -8.576  18.524  67.920  1.00  0.00    -0.287 A  
HETATM   15  N   UNL     1      -7.450  18.563  68.696  1.00  0.00    -0.295 NA 
HETATM   16  H   UNL     1      -6.934  19.411  68.935  1.00  0.00     0.000 HD 
HETATM   17  C   UNL     1      -7.115  17.295  69.108  1.00  0.00    -0.204 A  
HETATM   18  C   UNL     1      -6.058  16.862  69.916  1.00  0.00    -0.190 A  
HETATM   19  C   UNL     1      -5.969  15.492  70.188  1.00  0.00    -0.137 A  
HETATM   20  C   UNL     1      -6.906  14.597  69.677  1.00  0.00    -0.163 A  
HETATM   21  C   UNL     1      -7.956  15.048  68.873  1.00  0.00    -0.169 A  
HETATM   22  C   UNL     1      -8.064  16.423  68.572  1.00  0.00    -0.205 A  
ENDBRANCH  11  13
ENDBRANCH  10  11
ENDBRANCH   7  10
TORSDOF 3
ENDMDL
MODEL      144
REMARK 921   NORMALIZED FREE ENERGY PREDICTED BY IDOCK:   -4.56 KCAL/MOL
REMARK 922        TOTAL FREE ENERGY PREDICTED BY IDOCK:   -5.80 KCAL/MOL
REMARK 923 INTER-LIGAND FREE ENERGY PREDICTED BY IDOCK:   -5.09 KCAL/MOL
REMARK 924 INTRA-LIGAND FREE ENERGY PREDICTED BY IDOCK:   -0.71 KCAL/MOL
REMARK 927      BINDING AFFINITY PREDICTED BY RF-SCORE:    0.00 PKD
ROOT
HETATM    1  C   UNL     1     -10.179   7.532  68.890  1.00  0.00    -0.208 C  
HETATM    2  C   UNL     1     -10.704   8.457  69.991  1.00  0.00    -0.236 C  
HETATM    3  C   UNL     1      -9.609   9.507  70.165  1.00  0.00    -0.290 C  
HETATM    4  C   UNL     1      -8.534   9.113  69.148  1.00  0.00    -0.132 C  
HETATM    5  N   UNL     1      -8.730   7.665  69.073  1.00  0.00    -0.136 NA 
HETATM    6  C   UNL     1      -8.762   9.805  67.802  1.00  0.00    -0.129 C  
HETATM    7  C   UNL     1      -9.950   9.259  66.988  1.00  0.00    -0.224 C  
HETATM    8  C   UNL     1      -7.901   6.968  68.102  1.00  0.00    -0.118 C  
HETATM    9  C   UNL     1     -10.654   7.999  67.509  1.00  0.00    -0.302 C  
ENDROOT
BRANCH   7  10
HETATM   10  O   UNL     1     -10.877  10.345  66.842  1.00  0.00    -0.236 OA 
BRANCH  10  11
HETATM   11  C   UNL     1     -10.875  10.870  65.579  1.00  0.00    -0.036 C  
HETATM   12  O   UNL     1     -10.478  10.261  64.594  1.00  0.00    -0.185 OA 
BRANCH  11  13
HETATM   13  C   UNL     1     -11.266  12.273  65.573  1.00  0.00    -0.376 A  
HETATM   14  C   UNL     1     -12.477  12.780  65.125  1.00  0.00    -0.501 A  
HETATM   15  N   UNL     1     -12.504  14.125  65.371  1.00  0.00    -0.471 NA 
HETATM   16  H   UNL     1     -13.282  14.745  65.140  1.00  0.00     0.000 HD 
HETATM   17  C   UNL     1     -11.333  14.520  65.973  1.00  0.00    -0.341 A  
HETATM   18  C   UNL     1     -10.929  15.787  66.410  1.00  0.00    -0.159 A  
HETATM   19  C   UNL     1      -9.670  15.894  67.012  1.00  0.00    -0.235 A  
HETATM   20  C   UNL     1      -8.856  14.776  67.175  1.00  0.00    -0.234 A  
HETATM   21  C   UNL     1      -9.276  13.519  66.734  1.00  0.00    -0.248 A  
HETATM   22  C   UNL     1     -10.536  13.382  66.112  1.00  0.00    -0.294 A  
ENDBRANCH  11  13
ENDBRANCH  10  11
ENDBRANCH   7  10
TORSDOF 3
ENDMDL
MODEL      145
REMARK 921   NORMALIZED FREE ENERGY PREDICTED BY IDOCK:   -4.55 KCAL/MOL
REMARK 922        TOTAL FREE ENERGY PREDICTED BY IDOCK:   -5.78 KCAL/MOL
REMARK 923 INTER-LIGAND FREE ENERGY PREDICTED BY IDOCK:   -5.54 KCAL/MOL
REMARK 924 INTRA-LIGAND FREE ENERGY PREDICTED BY IDOCK:   -0.25 KCAL/MOL
REMARK 927      BINDING AFFINITY PREDICTED BY RF-SCORE:    0.00 PKD
ROOT
HETATM    1  C   UNL     1      -9.849  17.644  67.445  1.00  0.00    -0.305 C  
HETATM    2  C   UNL     1     -10.377  17.372  66.033  1.00  0.00    -0.309 C  
HETATM    3  C   UNL     1      -9.703  16.068  65.615  1.00  0.00    -0.273 C  
HETATM    4  C   UNL     1      -8.838  15.680  66.818  1.00  0.00    -0.272 C  
HETATM    5  N   UNL     1      -8.536  16.993  67.388  1.00  0.00    -0.194 NA 
HETATM    6  C   UNL     1      -9.609  14.783  67.790  1.00  0.00    -0.209 C  
HETATM    7  C   UNL     1     -10.695  15.503  68.610  1.00  0.00    -0.252 C  
HETATM    8  C   UNL     1      -7.780  16.980  68.630  1.00  0.00    -0.251 C  
HETATM    9  C   UNL     1     -10.775  17.032  68.503  1.00  0.00    -0.352 C  
ENDROOT
BRANCH   7  10
HETATM   10  O   UNL     1     -11.946  14.895  68.251  1.00  0.00    -0.299 OA 
BRANCH  10  11
HETATM   11  C   UNL     1     -12.102  13.654  68.803  1.00  0.00    -0.297 C  
HETATM   12  O   UNL     1     -12.318  13.465  69.993  1.00  0.00    -0.296 OA 
BRANCH  11  13
HETATM   13  C   UNL     1     -11.846  12.593  67.838  1.00  0.00    -0.388 A  
HETATM   14  C   UNL     1     -12.116  12.644  66.479  1.00  0.00    -0.225 A  
HETATM   15  N   UNL     1     -11.646  11.499  65.898  1.00  0.00    -0.244 NA 
HETATM   16  H   UNL     1     -11.713  11.278  64.903  1.00  0.00     0.000 HD 
HETATM   17  C   UNL     1     -11.069  10.688  66.847  1.00  0.00    -0.090 A  
HETATM   18  C   UNL     1     -10.455   9.438  66.710  1.00  0.00    -0.265 A  
HETATM   19  C   UNL     1      -9.933   8.842  67.864  1.00  0.00    -0.223 A  
HETATM   20  C   UNL     1     -10.019   9.477  69.100  1.00  0.00    -0.185 A  
HETATM   21  C   UNL     1     -10.634  10.726  69.218  1.00  0.00    -0.261 A  
HETATM   22  C   UNL     1     -11.180  11.347  68.074  1.00  0.00    -0.346 A  
ENDBRANCH  11  13
ENDBRANCH  10  11
ENDBRANCH   7  10
TORSDOF 3
ENDMDL
MODEL      146
REMARK 921   NORMALIZED FREE ENERGY PREDICTED BY IDOCK:   -4.54 KCAL/MOL
REMARK 922        TOTAL FREE ENERGY PREDICTED BY IDOCK:   -5.77 KCAL/MOL
REMARK 923 INTER-LIGAND FREE ENERGY PREDICTED BY IDOCK:   -5.73 KCAL/MOL
REMARK 924 INTRA-LIGAND FREE ENERGY PREDICTED BY IDOCK:   -0.04 KCAL/MOL
REMARK 927      BINDING AFFINITY PREDICTED BY RF-SCORE:    0.00 PKD
ROOT
HETATM    1  C   UNL     1     -10.426  16.040  67.326  1.00  0.00    -0.308 C  
HETATM    2  C   UNL     1      -9.413  15.678  66.236  1.00  0.00    -0.351 C  
HETATM    3  C   UNL     1      -8.520  14.618  66.878  1.00  0.00    -0.203 C  
HETATM    4  C   UNL     1      -9.087  14.443  68.290  1.00  0.00    -0.193 C  
HETATM    5  N   UNL     1      -9.647  15.771  68.539  1.00  0.00    -0.199 NA 
HETATM    6  C   UNL     1     -10.149  13.343  68.329  1.00  0.00    -0.247 C  
HETATM    7  C   UNL     1     -11.491  13.716  67.672  1.00  0.00    -0.325 C  
HETATM    8  C   UNL     1     -10.360  15.927  69.798  1.00  0.00    -0.290 C  
HETATM    9  C   UNL     1     -11.683  15.169  67.216  1.00  0.00    -0.169 C  
ENDROOT
BRANCH   7  10
HETATM   10  O   UNL     1     -11.678  12.803  66.579  1.00  0.00    -0.361 OA 
BRANCH  10  11
HETATM   11  C   UNL     1     -11.389  11.512  66.921  1.00  0.00    -0.253 C  
HETATM   12  O   UNL     1     -11.849  10.953  67.909  1.00  0.00    -0.590 OA 
BRANCH  11  13
HETATM   13  C   UNL     1     -10.371  10.934  66.054  1.00  0.00    -0.304 A  
HETATM   14  C   UNL     1      -9.618  11.619  65.112  1.00  0.00    -0.183 A  
HETATM   15  N   UNL     1      -8.707  10.755  64.571  1.00  0.00    -0.318 NA 
HETATM   16  H   UNL     1      -8.025  11.000  63.852  1.00  0.00     0.000 HD 
HETATM   17  C   UNL     1      -8.842   9.508  65.136  1.00  0.00    -0.186 A  
HETATM   18  C   UNL     1      -8.123   8.331  64.900  1.00  0.00    -0.150 A  
HETATM   19  C   UNL     1      -8.473   7.198  65.644  1.00  0.00    -0.141 A  
HETATM   20  C   UNL     1      -9.495   7.248  66.589  1.00  0.00    -0.228 A  
HETATM   21  C   UNL     1     -10.200   8.433  66.812  1.00  0.00    -0.376 A  
HETATM   22  C   UNL     1      -9.878   9.589  66.069  1.00  0.00    -0.353 A  
ENDBRANCH  11  13
ENDBRANCH  10  11
ENDBRANCH   7  10
TORSDOF 3
ENDMDL
MODEL      147
REMARK 921   NORMALIZED FREE ENERGY PREDICTED BY IDOCK:   -4.53 KCAL/MOL
REMARK 922        TOTAL FREE ENERGY PREDICTED BY IDOCK:   -5.76 KCAL/MOL
REMARK 923 INTER-LIGAND FREE ENERGY PREDICTED BY IDOCK:   -5.28 KCAL/MOL
REMARK 924 INTRA-LIGAND FREE ENERGY PREDICTED BY IDOCK:   -0.49 KCAL/MOL
REMARK 927      BINDING AFFINITY PREDICTED BY RF-SCORE:    0.00 PKD
ROOT
HETATM    1  C   UNL     1      -6.322  17.183  67.877  1.00  0.00    -0.144 C  
HETATM    2  C   UNL     1      -6.292  17.592  69.352  1.00  0.00    -0.243 C  
HETATM    3  C   UNL     1      -7.115  18.877  69.410  1.00  0.00    -0.168 C  
HETATM    4  C   UNL     1      -7.563  19.112  67.965  1.00  0.00    -0.277 C  
HETATM    5  N   UNL     1      -6.469  18.487  67.222  1.00  0.00    -0.192 NA 
HETATM    6  C   UNL     1      -8.914  18.449  67.688  1.00  0.00    -0.282 C  
HETATM    7  C   UNL     1      -8.871  16.913  67.585  1.00  0.00    -0.214 C  
HETATM    8  C   UNL     1      -6.628  18.456  65.776  1.00  0.00    -0.278 C  
HETATM    9  C   UNL     1      -7.494  16.235  67.595  1.00  0.00    -0.161 C  
ENDROOT
BRANCH   7  10
HETATM   10  O   UNL     1      -9.700  16.411  68.644  1.00  0.00    -0.222 OA 
BRANCH  10  11
HETATM   11  C   UNL     1     -10.971  16.131  68.226  1.00  0.00    -0.340 C  
HETATM   12  O   UNL     1     -11.903  16.920  68.316  1.00  0.00     0.308 OA 
BRANCH  11  13
HETATM   13  C   UNL     1     -11.110  14.747  67.793  1.00  0.00    -0.306 A  
HETATM   14  C   UNL     1     -10.830  14.257  66.526  1.00  0.00    -0.304 A  
HETATM   15  N   UNL     1     -10.990  12.899  66.539  1.00  0.00    -0.270 NA 
HETATM   16  H   UNL     1     -10.847  12.286  65.735  1.00  0.00     0.000 HD 
HETATM   17  C   UNL     1     -11.371  12.478  67.792  1.00  0.00    -0.296 A  
HETATM   18  C   UNL     1     -11.634  11.188  68.266  1.00  0.00    -0.359 A  
HETATM   19  C   UNL     1     -11.992  11.054  69.613  1.00  0.00    -0.424 A  
HETATM   20  C   UNL     1     -12.076  12.165  70.447  1.00  0.00    -0.395 A  
HETATM   21  C   UNL     1     -11.808  13.446  69.956  1.00  0.00    -0.364 A  
HETATM   22  C   UNL     1     -11.455  13.614  68.600  1.00  0.00    -0.342 A  
ENDBRANCH  11  13
ENDBRANCH  10  11
ENDBRANCH   7  10
TORSDOF 3
ENDMDL
MODEL      148
REMARK 921   NORMALIZED FREE ENERGY PREDICTED BY IDOCK:   -4.52 KCAL/MOL
REMARK 922        TOTAL FREE ENERGY PREDICTED BY IDOCK:   -5.76 KCAL/MOL
REMARK 923 INTER-LIGAND FREE ENERGY PREDICTED BY IDOCK:   -5.09 KCAL/MOL
REMARK 924 INTRA-LIGAND FREE ENERGY PREDICTED BY IDOCK:   -0.67 KCAL/MOL
REMARK 927      BINDING AFFINITY PREDICTED BY RF-SCORE:    0.00 PKD
ROOT
HETATM    1  C   UNL     1     -11.466   6.579  70.972  1.00  0.00    -0.336 C  
HETATM    2  C   UNL     1     -12.693   7.333  71.494  1.00  0.00    -0.422 C  
HETATM    3  C   UNL     1     -12.116   8.531  72.245  1.00  0.00    -0.455 C  
HETATM    4  C   UNL     1     -10.599   8.383  72.097  1.00  0.00    -0.329 C  
HETATM    5  N   UNL     1     -10.464   6.931  71.983  1.00  0.00    -0.204 NA 
HETATM    6  C   UNL     1     -10.089   9.118  70.856  1.00  0.00    -0.356 C  
HETATM    7  C   UNL     1     -10.438   8.445  69.516  1.00  0.00    -0.224 C  
HETATM    8  C   UNL     1      -9.116   6.443  71.736  1.00  0.00    -0.143 C  
HETATM    9  C   UNL     1     -11.089   7.056  69.563  1.00  0.00    -0.221 C  
ENDROOT
BRANCH   7  10
HETATM   10  O   UNL     1     -11.260   9.376  68.795  1.00  0.00    -0.020 OA 
BRANCH  10  11
HETATM   11  C   UNL     1     -10.671   9.806  67.639  1.00  0.00    -0.274 C  
HETATM   12  O   UNL     1     -10.112   9.061  66.845  1.00  0.00    -0.221 OA 
BRANCH  11  13
HETATM   13  C   UNL     1     -10.670  11.260  67.537  1.00  0.00    -0.275 A  
HETATM   14  C   UNL     1     -11.766  12.058  67.247  1.00  0.00    -0.269 A  
HETATM   15  N   UNL     1     -11.387  13.369  67.338  1.00  0.00    -0.295 NA 
HETATM   16  H   UNL     1     -12.002  14.167  67.174  1.00  0.00     0.000 HD 
HETATM   17  C   UNL     1     -10.059  13.455  67.683  1.00  0.00    -0.229 A  
HETATM   18  C   UNL     1      -9.256  14.581  67.896  1.00  0.00    -0.196 A  
HETATM   19  C   UNL     1      -7.922  14.367  68.259  1.00  0.00    -0.140 A  
HETATM   20  C   UNL     1      -7.418  13.078  68.408  1.00  0.00    -0.128 A  
HETATM   21  C   UNL     1      -8.234  11.965  68.192  1.00  0.00    -0.158 A  
HETATM   22  C   UNL     1      -9.582  12.150  67.814  1.00  0.00    -0.195 A  
ENDBRANCH  11  13
ENDBRANCH  10  11
ENDBRANCH   7  10
TORSDOF 3
ENDMDL
MODEL      149
REMARK 921   NORMALIZED FREE ENERGY PREDICTED BY IDOCK:   -4.51 KCAL/MOL
REMARK 922        TOTAL FREE ENERGY PREDICTED BY IDOCK:   -5.74 KCAL/MOL
REMARK 923 INTER-LIGAND FREE ENERGY PREDICTED BY IDOCK:   -5.12 KCAL/MOL
REMARK 924 INTRA-LIGAND FREE ENERGY PREDICTED BY IDOCK:   -0.62 KCAL/MOL
REMARK 927      BINDING AFFINITY PREDICTED BY RF-SCORE:    0.00 PKD
ROOT
HETATM    1  C   UNL     1      -8.337   7.826  65.638  1.00  0.00    -0.139 C  
HETATM    2  C   UNL     1      -7.419   7.997  66.851  1.00  0.00    -0.091 C  
HETATM    3  C   UNL     1      -6.444   9.099  66.444  1.00  0.00    -0.066 C  
HETATM    4  C   UNL     1      -6.874   9.486  65.026  1.00  0.00    -0.097 C  
HETATM    5  N   UNL     1      -7.444   8.227  64.546  1.00  0.00    -0.095 NA 
HETATM    6  C   UNL     1      -7.899  10.622  65.048  1.00  0.00     0.017 C  
HETATM    7  C   UNL     1      -9.305  10.215  65.527  1.00  0.00    -0.207 C  
HETATM    8  C   UNL     1      -8.042   8.273  63.221  1.00  0.00    -0.137 C  
HETATM    9  C   UNL     1      -9.576   8.723  65.758  1.00  0.00    -0.190 C  
ENDROOT
BRANCH   7  10
HETATM   10  O   UNL     1      -9.566  10.977  66.716  1.00  0.00    -0.185 OA 
BRANCH  10  11
HETATM   11  C   UNL     1     -10.882  11.331  66.832  1.00  0.00    -0.282 C  
HETATM   12  O   UNL     1     -11.674  10.760  67.570  1.00  0.00    -0.510 OA 
BRANCH  11  13
HETATM   13  C   UNL     1     -11.253  12.368  65.878  1.00  0.00    -0.373 A  
HETATM   14  C   UNL     1     -12.126  12.219  64.812  1.00  0.00    -0.365 A  
HETATM   15  N   UNL     1     -12.291  13.437  64.211  1.00  0.00    -0.595 NA 
HETATM   16  H   UNL     1     -12.884  13.612  63.399  1.00  0.00     0.000 HD 
HETATM   17  C   UNL     1     -11.542  14.391  64.859  1.00  0.00    -0.395 A  
HETATM   18  C   UNL     1     -11.412  15.760  64.603  1.00  0.00    -0.284 A  
HETATM   19  C   UNL     1     -10.580  16.502  65.449  1.00  0.00    -0.293 A  
HETATM   20  C   UNL     1      -9.913  15.896  66.510  1.00  0.00    -0.286 A  
HETATM   21  C   UNL     1     -10.055  14.527  66.752  1.00  0.00    -0.264 A  
HETATM   22  C   UNL     1     -10.879  13.751  65.908  1.00  0.00    -0.283 A  
ENDBRANCH  11  13
ENDBRANCH  10  11
ENDBRANCH   7  10
TORSDOF 3
ENDMDL
MODEL      150
REMARK 921   NORMALIZED FREE ENERGY PREDICTED BY IDOCK:   -4.50 KCAL/MOL
REMARK 922        TOTAL FREE ENERGY PREDICTED BY IDOCK:   -5.73 KCAL/MOL
REMARK 923 INTER-LIGAND FREE ENERGY PREDICTED BY IDOCK:   -5.39 KCAL/MOL
REMARK 924 INTRA-LIGAND FREE ENERGY PREDICTED BY IDOCK:   -0.34 KCAL/MOL
REMARK 927      BINDING AFFINITY PREDICTED BY RF-SCORE:    0.00 PKD
ROOT
HETATM    1  C   UNL     1     -12.270  12.312  65.649  1.00  0.00    -0.127 C  
HETATM    2  C   UNL     1     -11.393  11.310  66.406  1.00  0.00    -0.090 C  
HETATM    3  C   UNL     1     -10.060  11.328  65.663  1.00  0.00    -0.295 C  
HETATM    4  C   UNL     1     -10.263  12.343  64.534  1.00  0.00    -0.299 C  
HETATM    5  N   UNL     1     -11.702  12.225  64.300  1.00  0.00    -0.359 NA 
HETATM    6  C   UNL     1      -9.855  13.751  64.974  1.00  0.00    -0.087 C  
HETATM    7  C   UNL     1     -10.825  14.426  65.961  1.00  0.00    -0.309 C  
HETATM    8  C   UNL     1     -12.256  13.144  63.318  1.00  0.00    -0.360 C  
HETATM    9  C   UNL     1     -12.151  13.714  66.260  1.00  0.00    -0.477 C  
ENDROOT
BRANCH   7  10
HETATM   10  O   UNL     1     -10.081  14.658  67.168  1.00  0.00    -0.241 OA 
BRANCH  10  11
HETATM   11  C   UNL     1      -9.831  15.985  67.382  1.00  0.00    -0.236 C  
HETATM   12  O   UNL     1     -10.495  16.887  66.888  1.00  0.00    -0.312 OA 
BRANCH  11  13
HETATM   13  C   UNL     1      -8.609  16.192  68.148  1.00  0.00    -0.177 A  
HETATM   14  C   UNL     1      -7.723  15.205  68.551  1.00  0.00    -0.122 A  
HETATM   15  N   UNL     1      -6.654  15.802  69.161  1.00  0.00    -0.138 NA 
HETATM   16  H   UNL     1      -5.852  15.305  69.552  1.00  0.00     0.000 HD 
HETATM   17  C   UNL     1      -6.815  17.167  69.170  1.00  0.00    -0.236 A  
HETATM   18  C   UNL     1      -5.977  18.169  69.673  1.00  0.00    -0.244 A  
HETATM   19  C   UNL     1      -6.395  19.497  69.527  1.00  0.00    -0.355 A  
HETATM   20  C   UNL     1      -7.598  19.805  68.898  1.00  0.00    -0.285 A  
HETATM   21  C   UNL     1      -8.422  18.792  68.401  1.00  0.00    -0.374 A  
HETATM   22  C   UNL     1      -8.032  17.443  68.543  1.00  0.00    -0.266 A  
ENDBRANCH  11  13
ENDBRANCH  10  11
ENDBRANCH   7  10
TORSDOF 3
ENDMDL
MODEL      151
REMARK 921   NORMALIZED FREE ENERGY PREDICTED BY IDOCK:   -4.48 KCAL/MOL
REMARK 922        TOTAL FREE ENERGY PREDICTED BY IDOCK:   -5.71 KCAL/MOL
REMARK 923 INTER-LIGAND FREE ENERGY PREDICTED BY IDOCK:   -5.16 KCAL/MOL
REMARK 924 INTRA-LIGAND FREE ENERGY PREDICTED BY IDOCK:   -0.55 KCAL/MOL
REMARK 927      BINDING AFFINITY PREDICTED BY RF-SCORE:    0.00 PKD
ROOT
HETATM    1  C   UNL     1     -10.252   6.520  69.948  1.00  0.00    -0.184 C  
HETATM    2  C   UNL     1     -11.307   7.235  70.796  1.00  0.00    -0.312 C  
HETATM    3  C   UNL     1     -10.503   8.012  71.835  1.00  0.00    -0.296 C  
HETATM    4  C   UNL     1      -9.042   7.692  71.508  1.00  0.00    -0.132 C  
HETATM    5  N   UNL     1      -9.167   6.357  70.921  1.00  0.00    -0.157 NA 
HETATM    6  C   UNL     1      -8.456   8.710  70.527  1.00  0.00    -0.160 C  
HETATM    7  C   UNL     1      -8.967   8.582  69.080  1.00  0.00    -0.146 C  
HETATM    8  C   UNL     1      -7.935   5.779  70.407  1.00  0.00    -0.105 C  
HETATM    9  C   UNL     1      -9.849   7.373  68.739  1.00  0.00    -0.164 C  
ENDROOT
BRANCH   7  10
HETATM   10  O   UNL     1      -9.640   9.814  68.775  1.00  0.00    -0.147 OA 
BRANCH  10  11
HETATM   11  C   UNL     1      -8.853  10.678  68.066  1.00  0.00    -0.130 C  
HETATM   12  O   UNL     1      -8.062  11.455  68.585  1.00  0.00    -0.142 OA 
BRANCH  11  13
HETATM   13  C   UNL     1      -9.168  10.658  66.644  1.00  0.00    -0.184 A  
HETATM   14  C   UNL     1      -8.567   9.854  65.687  1.00  0.00    -0.145 A  
HETATM   15  N   UNL     1      -9.199  10.054  64.491  1.00  0.00    -0.243 NA 
HETATM   16  H   UNL     1      -8.956   9.586  63.617  1.00  0.00     0.000 HD 
HETATM   17  C   UNL     1     -10.207  10.977  64.636  1.00  0.00    -0.330 A  
HETATM   18  C   UNL     1     -11.113  11.476  63.693  1.00  0.00    -0.469 A  
HETATM   19  C   UNL     1     -12.058  12.410  64.133  1.00  0.00    -0.539 A  
HETATM   20  C   UNL     1     -12.095  12.820  65.463  1.00  0.00    -0.517 A  
HETATM   21  C   UNL     1     -11.184  12.310  66.391  1.00  0.00    -0.370 A  
HETATM   22  C   UNL     1     -10.213  11.375  65.974  1.00  0.00    -0.289 A  
ENDBRANCH  11  13
ENDBRANCH  10  11
ENDBRANCH   7  10
TORSDOF 3
ENDMDL
MODEL      152
REMARK 921   NORMALIZED FREE ENERGY PREDICTED BY IDOCK:   -4.47 KCAL/MOL
REMARK 922        TOTAL FREE ENERGY PREDICTED BY IDOCK:   -5.69 KCAL/MOL
REMARK 923 INTER-LIGAND FREE ENERGY PREDICTED BY IDOCK:   -5.34 KCAL/MOL
REMARK 924 INTRA-LIGAND FREE ENERGY PREDICTED BY IDOCK:   -0.35 KCAL/MOL
REMARK 927      BINDING AFFINITY PREDICTED BY RF-SCORE:    0.00 PKD
ROOT
HETATM    1  C   UNL     1      -8.171  10.123  67.624  1.00  0.00    -0.110 C  
HETATM    2  C   UNL     1      -8.158  10.666  66.192  1.00  0.00    -0.154 C  
HETATM    3  C   UNL     1      -9.437  10.119  65.563  1.00  0.00    -0.286 C  
HETATM    4  C   UNL     1     -10.097   9.303  66.679  1.00  0.00    -0.271 C  
HETATM    5  N   UNL     1      -8.928   8.878  67.450  1.00  0.00    -0.132 NA 
HETATM    6  C   UNL     1     -11.059  10.164  67.500  1.00  0.00    -0.251 C  
HETATM    7  C   UNL     1     -10.380  11.180  68.436  1.00  0.00    -0.186 C  
HETATM    8  C   UNL     1      -9.215   8.135  68.667  1.00  0.00    -0.143 C  
HETATM    9  C   UNL     1      -8.853  11.110  68.579  1.00  0.00    -0.161 C  
ENDROOT
BRANCH   7  10
HETATM   10  O   UNL     1     -10.797  12.482  67.996  1.00  0.00    -0.211 OA 
BRANCH  10  11
HETATM   11  C   UNL     1     -11.388  13.207  68.993  1.00  0.00    -0.282 C  
HETATM   12  O   UNL     1     -12.102  12.715  69.856  1.00  0.00    -0.304 OA 
BRANCH  11  13
HETATM   13  C   UNL     1     -11.177  14.638  68.822  1.00  0.00    -0.285 A  
HETATM   14  C   UNL     1     -11.027  15.567  69.840  1.00  0.00    -0.307 A  
HETATM   15  N   UNL     1     -10.753  16.785  69.282  1.00  0.00    -0.340 NA 
HETATM   16  H   UNL     1     -10.596  17.647  69.807  1.00  0.00     0.000 HD 
HETATM   17  C   UNL     1     -10.719  16.682  67.911  1.00  0.00    -0.344 A  
HETATM   18  C   UNL     1     -10.467  17.658  66.941  1.00  0.00    -0.290 A  
HETATM   19  C   UNL     1     -10.481  17.258  65.600  1.00  0.00    -0.191 A  
HETATM   20  C   UNL     1     -10.731  15.934  65.249  1.00  0.00    -0.442 A  
HETATM   21  C   UNL     1     -10.979  14.972  66.232  1.00  0.00    -0.338 A  
HETATM   22  C   UNL     1     -10.982  15.348  67.592  1.00  0.00    -0.315 A  
ENDBRANCH  11  13
ENDBRANCH  10  11
ENDBRANCH   7  10
TORSDOF 3
ENDMDL
MODEL      153
REMARK 921   NORMALIZED FREE ENERGY PREDICTED BY IDOCK:   -4.46 KCAL/MOL
REMARK 922        TOTAL FREE ENERGY PREDICTED BY IDOCK:   -5.69 KCAL/MOL
REMARK 923 INTER-LIGAND FREE ENERGY PREDICTED BY IDOCK:   -4.99 KCAL/MOL
REMARK 924 INTRA-LIGAND FREE ENERGY PREDICTED BY IDOCK:   -0.69 KCAL/MOL
REMARK 927      BINDING AFFINITY PREDICTED BY RF-SCORE:    0.00 PKD
ROOT
HETATM    1  C   UNL     1      -8.039   5.954  68.833  1.00  0.00    -0.103 C  
HETATM    2  C   UNL     1      -8.673   5.618  67.480  1.00  0.00    -0.107 C  
HETATM    3  C   UNL     1      -9.910   4.794  67.829  1.00  0.00    -0.194 C  
HETATM    4  C   UNL     1      -9.902   4.718  69.359  1.00  0.00    -0.212 C  
HETATM    5  N   UNL     1      -8.469   4.808  69.641  1.00  0.00    -0.081 NA 
HETATM    6  C   UNL     1     -10.694   5.873  69.976  1.00  0.00    -0.396 C  
HETATM    7  C   UNL     1     -10.006   7.248  69.889  1.00  0.00    -0.183 C  
HETATM    8  C   UNL     1      -8.108   4.854  71.049  1.00  0.00    -0.092 C  
HETATM    9  C   UNL     1      -8.563   7.293  69.366  1.00  0.00    -0.134 C  
ENDROOT
BRANCH   7  10
HETATM   10  O   UNL     1     -10.866   8.084  69.099  1.00  0.00    -0.152 OA 
BRANCH  10  11
HETATM   11  C   UNL     1     -10.723   9.411  69.397  1.00  0.00    -0.217 C  
HETATM   12  O   UNL     1     -10.430   9.828  70.510  1.00  0.00    -0.278 OA 
BRANCH  11  13
HETATM   13  C   UNL     1     -11.093  10.263  68.275  1.00  0.00    -0.311 A  
HETATM   14  C   UNL     1     -11.983  11.325  68.317  1.00  0.00    -0.145 A  
HETATM   15  N   UNL     1     -11.992  11.935  67.092  1.00  0.00    -0.603 NA 
HETATM   16  H   UNL     1     -12.560  12.747  66.848  1.00  0.00     0.000 HD 
HETATM   17  C   UNL     1     -11.125  11.296  66.238  1.00  0.00    -0.166 A  
HETATM   18  C   UNL     1     -10.804  11.576  64.905  1.00  0.00    -0.345 A  
HETATM   19  C   UNL     1      -9.860  10.755  64.279  1.00  0.00    -0.384 A  
HETATM   20  C   UNL     1      -9.258   9.702  64.964  1.00  0.00    -0.310 A  
HETATM   21  C   UNL     1      -9.589   9.438  66.295  1.00  0.00    -0.297 A  
HETATM   22  C   UNL     1     -10.547  10.243  66.950  1.00  0.00    -0.282 A  
ENDBRANCH  11  13
ENDBRANCH  10  11
ENDBRANCH   7  10
TORSDOF 3
ENDMDL
MODEL      154
REMARK 921   NORMALIZED FREE ENERGY PREDICTED BY IDOCK:   -4.46 KCAL/MOL
REMARK 922        TOTAL FREE ENERGY PREDICTED BY IDOCK:   -5.68 KCAL/MOL
REMARK 923 INTER-LIGAND FREE ENERGY PREDICTED BY IDOCK:   -5.10 KCAL/MOL
REMARK 924 INTRA-LIGAND FREE ENERGY PREDICTED BY IDOCK:   -0.57 KCAL/MOL
REMARK 927      BINDING AFFINITY PREDICTED BY RF-SCORE:    0.00 PKD
ROOT
HETATM    1  C   UNL     1      -9.265  10.583  65.994  1.00  0.00    -0.176 C  
HETATM    2  C   UNL     1      -7.920  10.593  66.726  1.00  0.00    -0.132 C  
HETATM    3  C   UNL     1      -8.244  11.129  68.118  1.00  0.00    -0.131 C  
HETATM    4  C   UNL     1      -9.754  11.384  68.090  1.00  0.00    -0.192 C  
HETATM    5  N   UNL     1      -9.967  11.678  66.672  1.00  0.00    -0.200 NA 
HETATM    6  C   UNL     1     -10.534  10.153  68.556  1.00  0.00    -0.221 C  
HETATM    7  C   UNL     1     -10.559   8.985  67.553  1.00  0.00    -0.237 C  
HETATM    8  C   UNL     1     -11.350  11.887  66.275  1.00  0.00    -0.334 C  
HETATM    9  C   UNL     1      -9.967   9.229  66.158  1.00  0.00    -0.348 C  
ENDROOT
BRANCH   7  10
HETATM   10  O   UNL     1      -9.912   7.878  68.201  1.00  0.00    -0.167 OA 
BRANCH  10  11
HETATM   11  C   UNL     1     -10.764   6.834  68.429  1.00  0.00    -0.232 C  
HETATM   12  O   UNL     1     -11.393   6.268  67.544  1.00  0.00    -0.246 OA 
BRANCH  11  13
HETATM   13  C   UNL     1     -10.937   6.573  69.852  1.00  0.00    -0.393 A  
HETATM   14  C   UNL     1     -11.714   7.314  70.728  1.00  0.00    -0.299 A  
HETATM   15  N   UNL     1     -11.698   6.701  71.951  1.00  0.00    -0.299 NA 
HETATM   16  H   UNL     1     -12.191   7.037  72.779  1.00  0.00     0.000 HD 
HETATM   17  C   UNL     1     -10.924   5.566  71.901  1.00  0.00    -0.199 A  
HETATM   18  C   UNL     1     -10.634   4.630  72.900  1.00  0.00    -0.277 A  
HETATM   19  C   UNL     1      -9.817   3.547  72.556  1.00  0.00    -0.220 A  
HETATM   20  C   UNL     1      -9.318   3.407  71.264  1.00  0.00    -0.208 A  
HETATM   21  C   UNL     1      -9.619   4.350  70.279  1.00  0.00    -0.263 A  
HETATM   22  C   UNL     1     -10.432   5.459  70.598  1.00  0.00    -0.329 A  
ENDBRANCH  11  13
ENDBRANCH  10  11
ENDBRANCH   7  10
TORSDOF 3
ENDMDL
MODEL      155
REMARK 921   NORMALIZED FREE ENERGY PREDICTED BY IDOCK:   -4.43 KCAL/MOL
REMARK 922        TOTAL FREE ENERGY PREDICTED BY IDOCK:   -5.64 KCAL/MOL
REMARK 923 INTER-LIGAND FREE ENERGY PREDICTED BY IDOCK:   -4.90 KCAL/MOL
REMARK 924 INTRA-LIGAND FREE ENERGY PREDICTED BY IDOCK:   -0.74 KCAL/MOL
REMARK 927      BINDING AFFINITY PREDICTED BY RF-SCORE:    0.00 PKD
ROOT
HETATM    1  C   UNL     1     -12.020   6.663  71.964  1.00  0.00    -0.319 C  
HETATM    2  C   UNL     1     -13.201   7.462  71.408  1.00  0.00    -0.395 C  
HETATM    3  C   UNL     1     -12.718   8.911  71.406  1.00  0.00    -0.350 C  
HETATM    4  C   UNL     1     -11.292   8.841  71.959  1.00  0.00    -0.371 C  
HETATM    5  N   UNL     1     -11.379   7.664  72.824  1.00  0.00    -0.372 NA 
HETATM    6  C   UNL     1     -10.269   8.667  70.834  1.00  0.00    -0.261 C  
HETATM    7  C   UNL     1     -10.251   7.269  70.188  1.00  0.00    -0.203 C  
HETATM    8  C   UNL     1     -10.134   7.254  73.454  1.00  0.00    -0.320 C  
HETATM    9  C   UNL     1     -11.108   6.172  70.833  1.00  0.00    -0.371 C  
ENDROOT
BRANCH   7  10
HETATM   10  O   UNL     1     -10.602   7.454  68.808  1.00  0.00    -0.206 OA 
BRANCH  10  11
HETATM   11  C   UNL     1      -9.583   7.123  67.959  1.00  0.00    -0.134 C  
HETATM   12  O   UNL     1      -8.698   7.901  67.627  1.00  0.00    -0.126 OA 
BRANCH  11  13
HETATM   13  C   UNL     1      -9.755   5.790  67.397  1.00  0.00    -0.133 A  
HETATM   14  C   UNL     1     -10.581   5.453  66.336  1.00  0.00    -0.260 A  
HETATM   15  N   UNL     1     -10.396   4.130  66.041  1.00  0.00    -0.442 NA 
HETATM   16  H   UNL     1     -10.881   3.623  65.300  1.00  0.00     0.000 HD 
HETATM   17  C   UNL     1      -9.462   3.583  66.888  1.00  0.00    -0.171 A  
HETATM   18  C   UNL     1      -8.955   2.280  66.948  1.00  0.00    -0.145 A  
HETATM   19  C   UNL     1      -7.984   2.006  67.918  1.00  0.00    -0.061 A  
HETATM   20  C   UNL     1      -7.537   2.999  68.786  1.00  0.00    -0.048 A  
HETATM   21  C   UNL     1      -8.053   4.295  68.711  1.00  0.00    -0.073 A  
HETATM   22  C   UNL     1      -9.042   4.599  67.750  1.00  0.00    -0.136 A  
ENDBRANCH  11  13
ENDBRANCH  10  11
ENDBRANCH   7  10
TORSDOF 3
ENDMDL
MODEL      156
REMARK 921   NORMALIZED FREE ENERGY PREDICTED BY IDOCK:   -4.40 KCAL/MOL
REMARK 922        TOTAL FREE ENERGY PREDICTED BY IDOCK:   -5.61 KCAL/MOL
REMARK 923 INTER-LIGAND FREE ENERGY PREDICTED BY IDOCK:   -5.13 KCAL/MOL
REMARK 924 INTRA-LIGAND FREE ENERGY PREDICTED BY IDOCK:   -0.48 KCAL/MOL
REMARK 927      BINDING AFFINITY PREDICTED BY RF-SCORE:    0.00 PKD
ROOT
HETATM    1  C   UNL     1     -12.447   7.538  71.838  1.00  0.00    -0.303 C  
HETATM    2  C   UNL     1     -13.045   8.872  71.383  1.00  0.00    -0.315 C  
HETATM    3  C   UNL     1     -11.888   9.864  71.478  1.00  0.00    -0.445 C  
HETATM    4  C   UNL     1     -10.706   9.028  71.976  1.00  0.00    -0.263 C  
HETATM    5  N   UNL     1     -11.393   7.994  72.750  1.00  0.00    -0.406 NA 
HETATM    6  C   UNL     1      -9.904   8.450  70.809  1.00  0.00    -0.215 C  
HETATM    7  C   UNL     1     -10.597   7.299  70.056  1.00  0.00    -0.233 C  
HETATM    8  C   UNL     1     -10.541   6.955  73.306  1.00  0.00    -0.325 C  
HETATM    9  C   UNL     1     -11.903   6.746  70.643  1.00  0.00    -0.442 C  
ENDROOT
BRANCH   7  10
HETATM   10  O   UNL     1     -10.788   7.751  68.707  1.00  0.00    -0.114 OA 
BRANCH  10  11
HETATM   11  C   UNL     1     -10.413   6.817  67.783  1.00  0.00    -0.222 C  
HETATM   12  O   UNL     1     -10.960   5.729  67.659  1.00  0.00    -0.240 OA 
BRANCH  11  13
HETATM   13  C   UNL     1      -9.208   7.213  67.067  1.00  0.00    -0.167 A  
HETATM   14  C   UNL     1      -8.010   6.516  67.037  1.00  0.00    -0.112 A  
HETATM   15  N   UNL     1      -7.154   7.155  66.183  1.00  0.00    -0.072 NA 
HETATM   16  H   UNL     1      -6.202   6.851  65.974  1.00  0.00     0.000 HD 
HETATM   17  C   UNL     1      -7.762   8.264  65.645  1.00  0.00    -0.092 A  
HETATM   18  C   UNL     1      -7.276   9.200  64.725  1.00  0.00    -0.097 A  
HETATM   19  C   UNL     1      -8.135  10.235  64.337  1.00  0.00    -0.149 A  
HETATM   20  C   UNL     1      -9.428  10.321  64.845  1.00  0.00    -0.337 A  
HETATM   21  C   UNL     1      -9.898   9.377  65.762  1.00  0.00    -0.345 A  
HETATM   22  C   UNL     1      -9.050   8.328  66.180  1.00  0.00    -0.238 A  
ENDBRANCH  11  13
ENDBRANCH  10  11
ENDBRANCH   7  10
TORSDOF 3
ENDMDL
MODEL      157
REMARK 921   NORMALIZED FREE ENERGY PREDICTED BY IDOCK:   -4.37 KCAL/MOL
REMARK 922        TOTAL FREE ENERGY PREDICTED BY IDOCK:   -5.58 KCAL/MOL
REMARK 923 INTER-LIGAND FREE ENERGY PREDICTED BY IDOCK:   -4.94 KCAL/MOL
REMARK 924 INTRA-LIGAND FREE ENERGY PREDICTED BY IDOCK:   -0.64 KCAL/MOL
REMARK 927      BINDING AFFINITY PREDICTED BY RF-SCORE:    0.00 PKD
ROOT
HETATM    1  C   UNL     1     -10.683   9.444  68.397  1.00  0.00    -0.168 C  
HETATM    2  C   UNL     1     -10.268   9.134  69.838  1.00  0.00    -0.222 C  
HETATM    3  C   UNL     1      -8.850   9.688  69.957  1.00  0.00    -0.259 C  
HETATM    4  C   UNL     1      -8.552  10.281  68.577  1.00  0.00    -0.126 C  
HETATM    5  N   UNL     1      -9.382   9.436  67.719  1.00  0.00    -0.128 NA 
HETATM    6  C   UNL     1      -8.952  11.757  68.509  1.00  0.00    -0.132 C  
HETATM    7  C   UNL     1     -10.470  12.014  68.461  1.00  0.00    -0.229 C  
HETATM    8  C   UNL     1      -9.400   9.797  66.310  1.00  0.00    -0.180 C  
HETATM    9  C   UNL     1     -11.396  10.799  68.312  1.00  0.00    -0.376 C  
ENDROOT
BRANCH   7  10
HETATM   10  O   UNL     1     -10.793  12.767  69.640  1.00  0.00     0.093 OA 
BRANCH  10  11
HETATM   11  C   UNL     1     -11.740  13.724  69.407  1.00  0.00    -0.325 C  
HETATM   12  O   UNL     1     -12.883  13.667  69.842  1.00  0.00    -0.040 OA 
BRANCH  11  13
HETATM   13  C   UNL     1     -11.270  14.738  68.472  1.00  0.00    -0.291 A  
HETATM   14  C   UNL     1     -10.397  15.775  68.765  1.00  0.00    -0.220 A  
HETATM   15  N   UNL     1     -10.122  16.453  67.610  1.00  0.00    -0.257 NA 
HETATM   16  H   UNL     1      -9.505  17.263  67.541  1.00  0.00     0.000 HD 
HETATM   17  C   UNL     1     -10.796  15.885  66.555  1.00  0.00    -0.198 A  
HETATM   18  C   UNL     1     -10.807  16.235  65.200  1.00  0.00    -0.333 A  
HETATM   19  C   UNL     1     -11.585  15.457  64.336  1.00  0.00    -0.265 A  
HETATM   20  C   UNL     1     -12.316  14.371  64.810  1.00  0.00    -0.427 A  
HETATM   21  C   UNL     1     -12.293  14.035  66.166  1.00  0.00    -0.491 A  
HETATM   22  C   UNL     1     -11.526  14.808  67.064  1.00  0.00    -0.362 A  
ENDBRANCH  11  13
ENDBRANCH  10  11
ENDBRANCH   7  10
TORSDOF 3
ENDMDL
MODEL      158
REMARK 921   NORMALIZED FREE ENERGY PREDICTED BY IDOCK:   -4.36 KCAL/MOL
REMARK 922        TOTAL FREE ENERGY PREDICTED BY IDOCK:   -5.56 KCAL/MOL
REMARK 923 INTER-LIGAND FREE ENERGY PREDICTED BY IDOCK:   -5.14 KCAL/MOL
REMARK 924 INTRA-LIGAND FREE ENERGY PREDICTED BY IDOCK:   -0.42 KCAL/MOL
REMARK 927      BINDING AFFINITY PREDICTED BY RF-SCORE:    0.00 PKD
ROOT
HETATM    1  C   UNL     1      -7.583  19.735  66.211  1.00  0.00    -0.309 C  
HETATM    2  C   UNL     1      -6.840  18.719  65.340  1.00  0.00    -0.197 C  
HETATM    3  C   UNL     1      -6.149  17.791  66.336  1.00  0.00    -0.240 C  
HETATM    4  C   UNL     1      -6.547  18.338  67.710  1.00  0.00    -0.204 C  
HETATM    5  N   UNL     1      -6.736  19.757  67.408  1.00  0.00    -0.207 NA 
HETATM    6  C   UNL     1      -7.826  17.673  68.222  1.00  0.00    -0.256 C  
HETATM    7  C   UNL     1      -9.115  18.113  67.505  1.00  0.00    -0.254 C  
HETATM    8  C   UNL     1      -7.216  20.576  68.510  1.00  0.00     0.025 C  
HETATM    9  C   UNL     1      -9.015  19.268  66.499  1.00  0.00    -0.373 C  
ENDROOT
BRANCH   7  10
HETATM   10  O   UNL     1      -9.658  16.936  66.886  1.00  0.00    -0.239 OA 
BRANCH  10  11
HETATM   11  C   UNL     1     -10.490  16.242  67.721  1.00  0.00    -0.295 C  
HETATM   12  O   UNL     1     -11.325  16.775  68.440  1.00  0.00    -0.283 OA 
BRANCH  11  13
HETATM   13  C   UNL     1     -10.169  14.822  67.751  1.00  0.00    -0.232 A  
HETATM   14  C   UNL     1      -9.070  14.221  67.157  1.00  0.00    -0.228 A  
HETATM   15  N   UNL     1      -9.065  12.894  67.488  1.00  0.00    -0.181 NA 
HETATM   16  H   UNL     1      -8.363  12.219  67.184  1.00  0.00     0.000 HD 
HETATM   17  C   UNL     1     -10.142  12.603  68.292  1.00  0.00    -0.233 A  
HETATM   18  C   UNL     1     -10.529  11.391  68.873  1.00  0.00    -0.219 A  
HETATM   19  C   UNL     1     -11.680  11.392  69.670  1.00  0.00    -0.415 A  
HETATM   20  C   UNL     1     -12.406  12.561  69.879  1.00  0.00    -0.119 A  
HETATM   21  C   UNL     1     -12.004  13.763  69.291  1.00  0.00    -0.399 A  
HETATM   22  C   UNL     1     -10.854  13.791  68.473  1.00  0.00    -0.280 A  
ENDBRANCH  11  13
ENDBRANCH  10  11
ENDBRANCH   7  10
TORSDOF 3
ENDMDL
MODEL      159
REMARK 921   NORMALIZED FREE ENERGY PREDICTED BY IDOCK:   -4.36 KCAL/MOL
REMARK 922        TOTAL FREE ENERGY PREDICTED BY IDOCK:   -5.56 KCAL/MOL
REMARK 923 INTER-LIGAND FREE ENERGY PREDICTED BY IDOCK:   -4.81 KCAL/MOL
REMARK 924 INTRA-LIGAND FREE ENERGY PREDICTED BY IDOCK:   -0.75 KCAL/MOL
REMARK 927      BINDING AFFINITY PREDICTED BY RF-SCORE:    0.00 PKD
ROOT
HETATM    1  C   UNL     1     -11.384  12.881  66.688  1.00  0.00    -0.317 C  
HETATM    2  C   UNL     1     -10.167  13.138  65.796  1.00  0.00    -0.294 C  
HETATM    3  C   UNL     1      -9.034  13.449  66.772  1.00  0.00    -0.190 C  
HETATM    4  C   UNL     1      -9.681  13.345  68.156  1.00  0.00    -0.226 C  
HETATM    5  N   UNL     1     -11.064  13.712  67.853  1.00  0.00    -0.253 NA 
HETATM    6  C   UNL     1      -9.562  11.927  68.720  1.00  0.00    -0.024 C  
HETATM    7  C   UNL     1     -10.475  10.886  68.047  1.00  0.00    -0.191 C  
HETATM    8  C   UNL     1     -11.995  13.628  68.968  1.00  0.00    -0.353 C  
HETATM    9  C   UNL     1     -11.508  11.391  67.031  1.00  0.00    -0.234 C  
ENDROOT
BRANCH   7  10
HETATM   10  O   UNL     1      -9.607   9.905  67.456  1.00  0.00    -0.152 OA 
BRANCH  10  11
HETATM   11  C   UNL     1      -9.918   8.631  67.842  1.00  0.00    -0.188 C  
HETATM   12  O   UNL     1     -10.653   7.890  67.202  1.00  0.00    -0.320 OA 
BRANCH  11  13
HETATM   13  C   UNL     1      -9.384   8.317  69.160  1.00  0.00    -0.151 A  
HETATM   14  C   UNL     1      -8.042   8.213  69.493  1.00  0.00    -0.119 A  
HETATM   15  N   UNL     1      -7.942   8.002  70.841  1.00  0.00    -0.091 NA 
HETATM   16  H   UNL     1      -7.066   7.890  71.351  1.00  0.00     0.000 HD 
HETATM   17  C   UNL     1      -9.194   7.964  71.409  1.00  0.00    -0.136 A  
HETATM   18  C   UNL     1      -9.572   7.785  72.744  1.00  0.00    -0.281 A  
HETATM   19  C   UNL     1     -10.939   7.808  73.040  1.00  0.00    -0.442 A  
HETATM   20  C   UNL     1     -11.886   8.009  72.039  1.00  0.00    -0.376 A  
HETATM   21  C   UNL     1     -11.491   8.187  70.711  1.00  0.00    -0.272 A  
HETATM   22  C   UNL     1     -10.119   8.158  70.380  1.00  0.00    -0.196 A  
ENDBRANCH  11  13
ENDBRANCH  10  11
ENDBRANCH   7  10
TORSDOF 3
ENDMDL
MODEL      160
REMARK 921   NORMALIZED FREE ENERGY PREDICTED BY IDOCK:   -4.35 KCAL/MOL
REMARK 922        TOTAL FREE ENERGY PREDICTED BY IDOCK:   -5.55 KCAL/MOL
REMARK 923 INTER-LIGAND FREE ENERGY PREDICTED BY IDOCK:   -4.96 KCAL/MOL
REMARK 924 INTRA-LIGAND FREE ENERGY PREDICTED BY IDOCK:   -0.60 KCAL/MOL
REMARK 927      BINDING AFFINITY PREDICTED BY RF-SCORE:    0.00 PKD
ROOT
HETATM    1  C   UNL     1     -12.286   6.524  71.396  1.00  0.00    -0.247 C  
HETATM    2  C   UNL     1     -13.457   7.504  71.504  1.00  0.00    -0.426 C  
HETATM    3  C   UNL     1     -12.926   8.645  72.368  1.00  0.00    -0.403 C  
HETATM    4  C   UNL     1     -11.484   8.242  72.692  1.00  0.00    -0.353 C  
HETATM    5  N   UNL     1     -11.582   6.782  72.657  1.00  0.00    -0.191 NA 
HETATM    6  C   UNL     1     -10.507   8.789  71.650  1.00  0.00    -0.387 C  
HETATM    7  C   UNL     1     -10.558   8.083  70.283  1.00  0.00    -0.231 C  
HETATM    8  C   UNL     1     -10.331   6.064  72.843  1.00  0.00    -0.197 C  
HETATM    9  C   UNL     1     -11.430   6.826  70.160  1.00  0.00    -0.404 C  
ENDROOT
BRANCH   7  10
HETATM   10  O   UNL     1     -10.949   9.078  69.325  1.00  0.00    -0.161 OA 
BRANCH  10  11
HETATM   11  C   UNL     1      -9.877   9.671  68.718  1.00  0.00    -0.165 C  
HETATM   12  O   UNL     1      -9.306  10.657  69.165  1.00  0.00    -0.196 OA 
BRANCH  11  13
HETATM   13  C   UNL     1      -9.590   9.077  67.419  1.00  0.00    -0.195 A  
HETATM   14  C   UNL     1      -9.914   9.618  66.185  1.00  0.00    -0.276 A  
HETATM   15  N   UNL     1      -9.395   8.816  65.207  1.00  0.00    -0.445 NA 
HETATM   16  H   UNL     1      -9.486   8.984  64.204  1.00  0.00     0.000 HD 
HETATM   17  C   UNL     1      -8.731   7.751  65.770  1.00  0.00    -0.133 A  
HETATM   18  C   UNL     1      -8.044   6.695  65.161  1.00  0.00    -0.133 A  
HETATM   19  C   UNL     1      -7.442   5.747  65.995  1.00  0.00    -0.082 A  
HETATM   20  C   UNL     1      -7.520   5.858  67.381  1.00  0.00    -0.078 A  
HETATM   21  C   UNL     1      -8.209   6.920  67.972  1.00  0.00    -0.115 A  
HETATM   22  C   UNL     1      -8.837   7.886  67.156  1.00  0.00    -0.137 A  
ENDBRANCH  11  13
ENDBRANCH  10  11
ENDBRANCH   7  10
TORSDOF 3
ENDMDL
MODEL      161
REMARK 921   NORMALIZED FREE ENERGY PREDICTED BY IDOCK:   -4.34 KCAL/MOL
REMARK 922        TOTAL FREE ENERGY PREDICTED BY IDOCK:   -5.54 KCAL/MOL
REMARK 923 INTER-LIGAND FREE ENERGY PREDICTED BY IDOCK:   -5.14 KCAL/MOL
REMARK 924 INTRA-LIGAND FREE ENERGY PREDICTED BY IDOCK:   -0.39 KCAL/MOL
REMARK 927      BINDING AFFINITY PREDICTED BY RF-SCORE:    0.00 PKD
ROOT
HETATM    1  C   UNL     1     -10.211   5.613  68.205  1.00  0.00    -0.186 C  
HETATM    2  C   UNL     1     -11.127   6.076  69.341  1.00  0.00    -0.445 C  
HETATM    3  C   UNL     1     -10.362   5.732  70.617  1.00  0.00    -0.310 C  
HETATM    4  C   UNL     1      -9.058   5.099  70.123  1.00  0.00    -0.128 C  
HETATM    5  N   UNL     1      -9.487   4.514  68.853  1.00  0.00    -0.148 NA 
HETATM    6  C   UNL     1      -7.963   6.153  69.942  1.00  0.00    -0.114 C  
HETATM    7  C   UNL     1      -8.152   7.078  68.726  1.00  0.00    -0.121 C  
HETATM    8  C   UNL     1      -8.438   3.891  68.061  1.00  0.00    -0.094 C  
HETATM    9  C   UNL     1      -9.288   6.749  67.748  1.00  0.00    -0.116 C  
ENDROOT
BRANCH   7  10
HETATM   10  O   UNL     1      -8.288   8.410  69.246  1.00  0.00    -0.118 OA 
BRANCH  10  11
HETATM   11  C   UNL     1      -8.684   9.306  68.292  1.00  0.00    -0.129 C  
HETATM   12  O   UNL     1      -8.005   9.601  67.317  1.00  0.00    -0.105 OA 
BRANCH  11  13
HETATM   13  C   UNL     1      -9.936   9.961  68.647  1.00  0.00    -0.177 A  
HETATM   14  C   UNL     1     -10.680  10.796  67.828  1.00  0.00    -0.251 A  
HETATM   15  N   UNL     1     -11.834  11.133  68.481  1.00  0.00    -0.528 NA 
HETATM   16  H   UNL     1     -12.563  11.739  68.103  1.00  0.00     0.000 HD 
HETATM   17  C   UNL     1     -11.868  10.537  69.719  1.00  0.00    -0.257 A  
HETATM   18  C   UNL     1     -12.848  10.590  70.717  1.00  0.00    -0.454 A  
HETATM   19  C   UNL     1     -12.621   9.860  71.888  1.00  0.00    -0.471 A  
HETATM   20  C   UNL     1     -11.464   9.103  72.049  1.00  0.00    -0.351 A  
HETATM   21  C   UNL     1     -10.496   9.061  71.042  1.00  0.00    -0.339 A  
HETATM   22  C   UNL     1     -10.692   9.796  69.853  1.00  0.00    -0.303 A  
ENDBRANCH  11  13
ENDBRANCH  10  11
ENDBRANCH   7  10
TORSDOF 3
ENDMDL
MODEL      162
REMARK 921   NORMALIZED FREE ENERGY PREDICTED BY IDOCK:   -4.33 KCAL/MOL
REMARK 922        TOTAL FREE ENERGY PREDICTED BY IDOCK:   -5.53 KCAL/MOL
REMARK 923 INTER-LIGAND FREE ENERGY PREDICTED BY IDOCK:   -4.84 KCAL/MOL
REMARK 924 INTRA-LIGAND FREE ENERGY PREDICTED BY IDOCK:   -0.69 KCAL/MOL
REMARK 927      BINDING AFFINITY PREDICTED BY RF-SCORE:    0.00 PKD
ROOT
HETATM    1  C   UNL     1      -9.814  14.471  66.916  1.00  0.00    -0.262 C  
HETATM    2  C   UNL     1     -10.321  14.331  68.353  1.00  0.00    -0.247 C  
HETATM    3  C   UNL     1     -11.839  14.246  68.219  1.00  0.00    -0.370 C  
HETATM    4  C   UNL     1     -12.097  14.339  66.712  1.00  0.00    -0.417 C  
HETATM    5  N   UNL     1     -10.952  15.139  66.276  1.00  0.00    -0.340 NA 
HETATM    6  C   UNL     1     -12.122  12.952  66.066  1.00  0.00    -0.484 C  
HETATM    7  C   UNL     1     -10.747  12.272  65.943  1.00  0.00    -0.258 C  
HETATM    8  C   UNL     1     -10.841  15.347  64.841  1.00  0.00    -0.425 C  
HETATM    9  C   UNL     1      -9.506  13.098  66.306  1.00  0.00    -0.194 C  
ENDROOT
BRANCH   7  10
HETATM   10  O   UNL     1     -10.815  11.071  66.728  1.00  0.00    -0.267 OA 
BRANCH  10  11
HETATM   11  C   UNL     1     -10.014  10.078  66.236  1.00  0.00    -0.245 C  
HETATM   12  O   UNL     1      -9.983   9.754  65.056  1.00  0.00    -0.286 OA 
BRANCH  11  13
HETATM   13  C   UNL     1      -9.312   9.370  67.299  1.00  0.00    -0.159 A  
HETATM   14  C   UNL     1      -9.421   8.018  67.587  1.00  0.00    -0.145 A  
HETATM   15  N   UNL     1      -8.538   7.713  68.586  1.00  0.00    -0.129 NA 
HETATM   16  H   UNL     1      -8.411   6.784  68.990  1.00  0.00     0.000 HD 
HETATM   17  C   UNL     1      -7.844   8.838  68.965  1.00  0.00    -0.096 A  
HETATM   18  C   UNL     1      -6.844   8.996  69.931  1.00  0.00    -0.047 A  
HETATM   19  C   UNL     1      -6.297  10.273  70.095  1.00  0.00    -0.117 A  
HETATM   20  C   UNL     1      -6.730  11.344  69.318  1.00  0.00    -0.113 A  
HETATM   21  C   UNL     1      -7.729  11.168  68.357  1.00  0.00    -0.125 A  
HETATM   22  C   UNL     1      -8.308   9.893  68.177  1.00  0.00    -0.110 A  
ENDBRANCH  11  13
ENDBRANCH  10  11
ENDBRANCH   7  10
TORSDOF 3
ENDMDL
MODEL      163
REMARK 921   NORMALIZED FREE ENERGY PREDICTED BY IDOCK:   -4.32 KCAL/MOL
REMARK 922        TOTAL FREE ENERGY PREDICTED BY IDOCK:   -5.52 KCAL/MOL
REMARK 923 INTER-LIGAND FREE ENERGY PREDICTED BY IDOCK:   -4.90 KCAL/MOL
REMARK 924 INTRA-LIGAND FREE ENERGY PREDICTED BY IDOCK:   -0.62 KCAL/MOL
REMARK 927      BINDING AFFINITY PREDICTED BY RF-SCORE:    0.00 PKD
ROOT
HETATM    1  C   UNL     1      -8.961   8.931  65.585  1.00  0.00    -0.201 C  
HETATM    2  C   UNL     1      -9.064   7.453  65.974  1.00  0.00    -0.129 C  
HETATM    3  C   UNL     1      -8.150   7.311  67.188  1.00  0.00    -0.114 C  
HETATM    4  C   UNL     1      -7.588   8.718  67.413  1.00  0.00    -0.090 C  
HETATM    5  N   UNL     1      -7.608   9.254  66.052  1.00  0.00    -0.095 NA 
HETATM    6  C   UNL     1      -8.470   9.520  68.372  1.00  0.00    -0.119 C  
HETATM    7  C   UNL     1      -9.812   9.986  67.780  1.00  0.00    -0.157 C  
HETATM    8  C   UNL     1      -7.207  10.646  65.919  1.00  0.00    -0.119 C  
HETATM    9  C   UNL     1     -10.049   9.758  66.280  1.00  0.00    -0.313 C  
ENDROOT
BRANCH   7  10
HETATM   10  O   UNL     1     -10.841   9.364  68.564  1.00  0.00    -0.191 OA 
BRANCH  10  11
HETATM   11  C   UNL     1     -11.113  10.054  69.713  1.00  0.00    -0.274 C  
HETATM   12  O   UNL     1     -10.975  11.265  69.824  1.00  0.00    -0.210 OA 
BRANCH  11  13
HETATM   13  C   UNL     1     -11.451   9.163  70.815  1.00  0.00    -0.337 A  
HETATM   14  C   UNL     1     -12.410   9.397  71.788  1.00  0.00    -0.394 A  
HETATM   15  N   UNL     1     -12.499   8.291  72.588  1.00  0.00    -0.603 NA 
HETATM   16  H   UNL     1     -13.131   8.195  73.384  1.00  0.00     0.000 HD 
HETATM   17  C   UNL     1     -11.616   7.327  72.163  1.00  0.00    -0.286 A  
HETATM   18  C   UNL     1     -11.373   6.044  72.667  1.00  0.00    -0.320 A  
HETATM   19  C   UNL     1     -10.413   5.263  72.015  1.00  0.00    -0.283 A  
HETATM   20  C   UNL     1      -9.731   5.745  70.901  1.00  0.00    -0.218 A  
HETATM   21  C   UNL     1      -9.988   7.028  70.410  1.00  0.00    -0.187 A  
HETATM   22  C   UNL     1     -10.943   7.844  71.054  1.00  0.00    -0.262 A  
ENDBRANCH  11  13
ENDBRANCH  10  11
ENDBRANCH   7  10
TORSDOF 3
ENDMDL
MODEL      164
REMARK 921   NORMALIZED FREE ENERGY PREDICTED BY IDOCK:   -4.32 KCAL/MOL
REMARK 922        TOTAL FREE ENERGY PREDICTED BY IDOCK:   -5.51 KCAL/MOL
REMARK 923 INTER-LIGAND FREE ENERGY PREDICTED BY IDOCK:   -5.21 KCAL/MOL
REMARK 924 INTRA-LIGAND FREE ENERGY PREDICTED BY IDOCK:   -0.30 KCAL/MOL
REMARK 927      BINDING AFFINITY PREDICTED BY RF-SCORE:    0.00 PKD
ROOT
HETATM    1  C   UNL     1     -10.266  16.093  69.176  1.00  0.00    -0.255 C  
HETATM    2  C   UNL     1      -8.744  16.181  69.316  1.00  0.00    -0.190 C  
HETATM    3  C   UNL     1      -8.215  14.997  68.510  1.00  0.00    -0.151 C  
HETATM    4  C   UNL     1      -9.471  14.315  67.961  1.00  0.00    -0.204 C  
HETATM    5  N   UNL     1     -10.452  14.650  68.993  1.00  0.00    -0.244 NA 
HETATM    6  C   UNL     1      -9.850  14.874  66.588  1.00  0.00    -0.272 C  
HETATM    7  C   UNL     1     -10.446  16.293  66.610  1.00  0.00    -0.290 C  
HETATM    8  C   UNL     1     -11.815  14.215  68.729  1.00  0.00    -0.349 C  
HETATM    9  C   UNL     1     -10.755  16.917  67.978  1.00  0.00    -0.364 C  
ENDROOT
BRANCH   7  10
HETATM   10  O   UNL     1      -9.550  17.123  65.855  1.00  0.00    -0.497 OA 
BRANCH  10  11
HETATM   11  C   UNL     1      -9.382  18.358  66.417  1.00  0.00    -0.283 C  
HETATM   12  O   UNL     1     -10.289  19.167  66.558  1.00  0.00    -0.379 OA 
BRANCH  11  13
HETATM   13  C   UNL     1      -7.980  18.643  66.696  1.00  0.00    -0.280 A  
HETATM   14  C   UNL     1      -6.926  18.496  65.807  1.00  0.00    -0.252 A  
HETATM   15  N   UNL     1      -5.785  18.954  66.405  1.00  0.00    -0.156 NA 
HETATM   16  H   UNL     1      -4.861  18.962  65.972  1.00  0.00     0.000 HD 
HETATM   17  C   UNL     1      -6.062  19.402  67.675  1.00  0.00    -0.202 A  
HETATM   18  C   UNL     1      -5.214  19.959  68.639  1.00  0.00    -0.211 A  
HETATM   19  C   UNL     1      -5.783  20.346  69.858  1.00  0.00    -0.381 A  
HETATM   20  C   UNL     1      -7.145  20.186  70.096  1.00  0.00     0.201 A  
HETATM   21  C   UNL     1      -7.978  19.629  69.122  1.00  0.00    -0.164 A  
HETATM   22  C   UNL     1      -7.431  19.219  67.887  1.00  0.00    -0.293 A  
ENDBRANCH  11  13
ENDBRANCH  10  11
ENDBRANCH   7  10
TORSDOF 3
ENDMDL
MODEL      165
REMARK 921   NORMALIZED FREE ENERGY PREDICTED BY IDOCK:   -4.32 KCAL/MOL
REMARK 922        TOTAL FREE ENERGY PREDICTED BY IDOCK:   -5.51 KCAL/MOL
REMARK 923 INTER-LIGAND FREE ENERGY PREDICTED BY IDOCK:   -4.86 KCAL/MOL
REMARK 924 INTRA-LIGAND FREE ENERGY PREDICTED BY IDOCK:   -0.65 KCAL/MOL
REMARK 927      BINDING AFFINITY PREDICTED BY RF-SCORE:    0.00 PKD
ROOT
HETATM    1  C   UNL     1     -10.988  10.743  67.279  1.00  0.00    -0.297 C  
HETATM    2  C   UNL     1     -11.539  11.499  68.491  1.00  0.00    -0.377 C  
HETATM    3  C   UNL     1     -10.937  10.782  69.697  1.00  0.00    -0.320 C  
HETATM    4  C   UNL     1     -10.079   9.667  69.092  1.00  0.00    -0.189 C  
HETATM    5  N   UNL     1     -10.794   9.403  67.843  1.00  0.00    -0.206 NA 
HETATM    6  C   UNL     1      -8.643  10.138  68.857  1.00  0.00    -0.141 C  
HETATM    7  C   UNL     1      -8.468  11.118  67.682  1.00  0.00    -0.122 C  
HETATM    8  C   UNL     1     -10.176   8.427  66.960  1.00  0.00    -0.307 C  
HETATM    9  C   UNL     1      -9.684  11.379  66.783  1.00  0.00    -0.221 C  
ENDROOT
BRANCH   7  10
HETATM   10  O   UNL     1      -7.970  12.342  68.244  1.00  0.00    -0.147 OA 
BRANCH  10  11
HETATM   11  C   UNL     1      -7.122  13.000  67.398  1.00  0.00    -0.117 C  
HETATM   12  O   UNL     1      -6.174  12.464  66.838  1.00  0.00    -0.210 OA 
BRANCH  11  13
HETATM   13  C   UNL     1      -7.398  14.430  67.353  1.00  0.00    -0.167 A  
HETATM   14  C   UNL     1      -6.568  15.435  67.823  1.00  0.00    -0.157 A  
HETATM   15  N   UNL     1      -7.129  16.644  67.515  1.00  0.00    -0.135 NA 
HETATM   16  H   UNL     1      -6.724  17.552  67.746  1.00  0.00     0.000 HD 
HETATM   17  C   UNL     1      -8.317  16.458  66.848  1.00  0.00    -0.228 A  
HETATM   18  C   UNL     1      -9.217  17.399  66.335  1.00  0.00    -0.272 A  
HETATM   19  C   UNL     1     -10.355  16.915  65.679  1.00  0.00    -0.254 A  
HETATM   20  C   UNL     1     -10.575  15.548  65.538  1.00  0.00    -0.413 A  
HETATM   21  C   UNL     1      -9.665  14.623  66.055  1.00  0.00    -0.340 A  
HETATM   22  C   UNL     1      -8.513  15.080  66.732  1.00  0.00    -0.239 A  
ENDBRANCH  11  13
ENDBRANCH  10  11
ENDBRANCH   7  10
TORSDOF 3
ENDMDL
MODEL      166
REMARK 921   NORMALIZED FREE ENERGY PREDICTED BY IDOCK:   -4.31 KCAL/MOL
REMARK 922        TOTAL FREE ENERGY PREDICTED BY IDOCK:   -5.50 KCAL/MOL
REMARK 923 INTER-LIGAND FREE ENERGY PREDICTED BY IDOCK:   -5.81 KCAL/MOL
REMARK 924 INTRA-LIGAND FREE ENERGY PREDICTED BY IDOCK:    0.31 KCAL/MOL
REMARK 927      BINDING AFFINITY PREDICTED BY RF-SCORE:    0.00 PKD
ROOT
HETATM    1  C   UNL     1     -10.337  13.590  64.997  1.00  0.00    -0.362 C  
HETATM    2  C   UNL     1     -10.008  15.083  64.911  1.00  0.00    -0.067 C  
HETATM    3  C   UNL     1     -11.325  15.744  64.514  1.00  0.00    -0.324 C  
HETATM    4  C   UNL     1     -12.320  14.585  64.405  1.00  0.00    -0.413 C  
HETATM    5  N   UNL     1     -11.433  13.483  64.029  1.00  0.00    -0.359 NA 
HETATM    6  C   UNL     1     -13.030  14.335  65.737  1.00  0.00    -0.149 C  
HETATM    7  C   UNL     1     -12.156  13.683  66.824  1.00  0.00    -0.399 C  
HETATM    8  C   UNL     1     -12.063  12.177  63.925  1.00  0.00    -0.488 C  
HETATM    9  C   UNL     1     -10.755  13.202  66.421  1.00  0.00    -0.293 C  
ENDROOT
BRANCH   7  10
HETATM   10  O   UNL     1     -12.086  14.623  67.908  1.00  0.00    -0.304 OA 
BRANCH  10  11
HETATM   11  C   UNL     1     -10.805  14.831  68.339  1.00  0.00    -0.245 C  
HETATM   12  O   UNL     1     -10.161  14.004  68.972  1.00  0.00    -0.195 OA 
BRANCH  11  13
HETATM   13  C   UNL     1     -10.357  16.192  68.076  1.00  0.00    -0.271 A  
HETATM   14  C   UNL     1     -11.106  17.197  67.484  1.00  0.00     0.016 A  
HETATM   15  N   UNL     1     -10.375  18.353  67.499  1.00  0.00    -0.374 NA 
HETATM   16  H   UNL     1     -10.691  19.249  67.126  1.00  0.00     0.000 HD 
HETATM   17  C   UNL     1      -9.153  18.132  68.090  1.00  0.00    -0.290 A  
HETATM   18  C   UNL     1      -8.097  19.018  68.330  1.00  0.00    -0.381 A  
HETATM   19  C   UNL     1      -6.961  18.513  68.974  1.00  0.00    -0.286 A  
HETATM   20  C   UNL     1      -6.892  17.179  69.365  1.00  0.00    -0.165 A  
HETATM   21  C   UNL     1      -7.957  16.309  69.119  1.00  0.00    -0.221 A  
HETATM   22  C   UNL     1      -9.112  16.787  68.461  1.00  0.00    -0.241 A  
ENDBRANCH  11  13
ENDBRANCH  10  11
ENDBRANCH   7  10
TORSDOF 3
ENDMDL
MODEL      167
REMARK 921   NORMALIZED FREE ENERGY PREDICTED BY IDOCK:   -4.29 KCAL/MOL
REMARK 922        TOTAL FREE ENERGY PREDICTED BY IDOCK:   -5.49 KCAL/MOL
REMARK 923 INTER-LIGAND FREE ENERGY PREDICTED BY IDOCK:   -5.07 KCAL/MOL
REMARK 924 INTRA-LIGAND FREE ENERGY PREDICTED BY IDOCK:   -0.41 KCAL/MOL
REMARK 927      BINDING AFFINITY PREDICTED BY RF-SCORE:    0.00 PKD
ROOT
HETATM    1  C   UNL     1      -8.463  18.654  65.917  1.00  0.00     0.150 C  
HETATM    2  C   UNL     1      -6.988  18.812  66.298  1.00  0.00    -0.264 C  
HETATM    3  C   UNL     1      -7.002  19.732  67.516  1.00  0.00    -0.268 C  
HETATM    4  C   UNL     1      -8.485  20.034  67.752  1.00  0.00    -0.287 C  
HETATM    5  N   UNL     1      -9.017  19.925  66.394  1.00  0.00    -0.366 NA 
HETATM    6  C   UNL     1      -9.112  19.020  68.710  1.00  0.00    -0.374 C  
HETATM    7  C   UNL     1      -9.336  17.618  68.113  1.00  0.00    -0.279 C  
HETATM    8  C   UNL     1     -10.459  20.074  66.270  1.00  0.00    -0.422 C  
HETATM    9  C   UNL     1      -9.080  17.433  66.611  1.00  0.00    -0.277 C  
ENDROOT
BRANCH   7  10
HETATM   10  O   UNL     1      -8.536  16.712  68.888  1.00  0.00    -0.247 OA 
BRANCH  10  11
HETATM   11  C   UNL     1      -9.143  15.500  69.067  1.00  0.00    -0.236 C  
HETATM   12  O   UNL     1     -10.020  15.298  69.896  1.00  0.00    -0.244 OA 
BRANCH  11  13
HETATM   13  C   UNL     1      -8.527  14.459  68.256  1.00  0.00    -0.165 A  
HETATM   14  C   UNL     1      -7.218  14.448  67.799  1.00  0.00    -0.175 A  
HETATM   15  N   UNL     1      -6.990  13.263  67.157  1.00  0.00    -0.409 NA 
HETATM   16  H   UNL     1      -6.105  12.993  66.724  1.00  0.00     0.000 HD 
HETATM   17  C   UNL     1      -8.124  12.486  67.179  1.00  0.00    -0.156 A  
HETATM   18  C   UNL     1      -8.348  11.206  66.660  1.00  0.00    -0.160 A  
HETATM   19  C   UNL     1      -9.616  10.644  66.846  1.00  0.00    -0.200 A  
HETATM   20  C   UNL     1     -10.614  11.334  67.529  1.00  0.00    -0.257 A  
HETATM   21  C   UNL     1     -10.372  12.612  68.042  1.00  0.00    -0.231 A  
HETATM   22  C   UNL     1      -9.106  13.209  67.860  1.00  0.00    -0.207 A  
ENDBRANCH  11  13
ENDBRANCH  10  11
ENDBRANCH   7  10
TORSDOF 3
ENDMDL
MODEL      168
REMARK 921   NORMALIZED FREE ENERGY PREDICTED BY IDOCK:   -4.27 KCAL/MOL
REMARK 922        TOTAL FREE ENERGY PREDICTED BY IDOCK:   -5.45 KCAL/MOL
REMARK 923 INTER-LIGAND FREE ENERGY PREDICTED BY IDOCK:   -5.07 KCAL/MOL
REMARK 924 INTRA-LIGAND FREE ENERGY PREDICTED BY IDOCK:   -0.38 KCAL/MOL
REMARK 927      BINDING AFFINITY PREDICTED BY RF-SCORE:    0.00 PKD
ROOT
HETATM    1  C   UNL     1      -9.589   7.266  72.317  1.00  0.00    -0.146 C  
HETATM    2  C   UNL     1      -8.262   7.033  71.590  1.00  0.00    -0.104 C  
HETATM    3  C   UNL     1      -8.664   6.471  70.228  1.00  0.00    -0.151 C  
HETATM    4  C   UNL     1     -10.194   6.424  70.269  1.00  0.00    -0.195 C  
HETATM    5  N   UNL     1     -10.436   6.240  71.700  1.00  0.00    -0.212 NA 
HETATM    6  C   UNL     1     -10.804   7.721  69.734  1.00  0.00    -0.211 C  
HETATM    7  C   UNL     1     -10.664   8.935  70.671  1.00  0.00    -0.234 C  
HETATM    8  C   UNL     1     -11.833   6.242  72.106  1.00  0.00    -0.315 C  
HETATM    9  C   UNL     1     -10.103   8.691  72.078  1.00  0.00    -0.401 C  
ENDROOT
BRANCH   7  10
HETATM   10  O   UNL     1      -9.878   9.907  69.964  1.00  0.00    -0.241 OA 
BRANCH  10  11
HETATM   11  C   UNL     1     -10.616  10.985  69.562  1.00  0.00    -0.138 C  
HETATM   12  O   UNL     1     -11.577  11.418  70.184  1.00  0.00    -0.309 OA 
BRANCH  11  13
HETATM   13  C   UNL     1     -10.208  11.464  68.248  1.00  0.00    -0.204 A  
HETATM   14  C   UNL     1      -9.375  10.801  67.361  1.00  0.00    -0.150 A  
HETATM   15  N   UNL     1      -9.309  11.523  66.201  1.00  0.00    -0.211 NA 
HETATM   16  H   UNL     1      -8.764  11.259  65.379  1.00  0.00     0.000 HD 
HETATM   17  C   UNL     1     -10.083  12.655  66.303  1.00  0.00    -0.253 A  
HETATM   18  C   UNL     1     -10.321  13.669  65.369  1.00  0.00    -0.345 A  
HETATM   19  C   UNL     1     -11.179  14.708  65.746  1.00  0.00    -0.336 A  
HETATM   20  C   UNL     1     -11.777  14.725  67.003  1.00  0.00    -0.330 A  
HETATM   21  C   UNL     1     -11.529  13.703  67.922  1.00  0.00    -0.348 A  
HETATM   22  C   UNL     1     -10.659  12.647  67.575  1.00  0.00    -0.236 A  
ENDBRANCH  11  13
ENDBRANCH  10  11
ENDBRANCH   7  10
TORSDOF 3
ENDMDL
MODEL      169
REMARK 921   NORMALIZED FREE ENERGY PREDICTED BY IDOCK:   -4.25 KCAL/MOL
REMARK 922        TOTAL FREE ENERGY PREDICTED BY IDOCK:   -5.44 KCAL/MOL
REMARK 923 INTER-LIGAND FREE ENERGY PREDICTED BY IDOCK:   -5.19 KCAL/MOL
REMARK 924 INTRA-LIGAND FREE ENERGY PREDICTED BY IDOCK:   -0.24 KCAL/MOL
REMARK 927      BINDING AFFINITY PREDICTED BY RF-SCORE:    0.00 PKD
ROOT
HETATM    1  C   UNL     1      -8.034  10.113  67.100  1.00  0.00    -0.109 C  
HETATM    2  C   UNL     1      -7.470  11.463  67.553  1.00  0.00    -0.113 C  
HETATM    3  C   UNL     1      -8.560  12.472  67.202  1.00  0.00    -0.200 C  
HETATM    4  C   UNL     1      -9.675  11.630  66.575  1.00  0.00    -0.206 C  
HETATM    5  N   UNL     1      -8.909  10.526  65.997  1.00  0.00    -0.160 NA 
HETATM    6  C   UNL     1     -10.676  11.158  67.632  1.00  0.00    -0.273 C  
HETATM    7  C   UNL     1     -10.155  10.050  68.565  1.00  0.00    -0.169 C  
HETATM    8  C   UNL     1      -9.695   9.469  65.382  1.00  0.00    -0.244 C  
HETATM    9  C   UNL     1      -8.792   9.424  68.241  1.00  0.00    -0.128 C  
ENDROOT
BRANCH   7  10
HETATM   10  O   UNL     1     -10.169  10.596  69.894  1.00  0.00    -0.148 OA 
BRANCH  10  11
HETATM   11  C   UNL     1     -11.431  10.678  70.413  1.00  0.00    -0.334 C  
HETATM   12  O   UNL     1     -12.124  11.685  70.352  1.00  0.00    -0.355 OA 
BRANCH  11  13
HETATM   13  C   UNL     1     -11.791   9.480  71.159  1.00  0.00    -0.436 A  
HETATM   14  C   UNL     1     -13.075   8.992  71.347  1.00  0.00    -0.284 A  
HETATM   15  N   UNL     1     -12.996   7.801  72.015  1.00  0.00    -0.466 NA 
HETATM   16  H   UNL     1     -13.796   7.226  72.282  1.00  0.00     0.000 HD 
HETATM   17  C   UNL     1     -11.681   7.490  72.274  1.00  0.00    -0.304 A  
HETATM   18  C   UNL     1     -11.130   6.376  72.918  1.00  0.00    -0.259 A  
HETATM   19  C   UNL     1      -9.736   6.315  73.027  1.00  0.00    -0.158 A  
HETATM   20  C   UNL     1      -8.931   7.325  72.507  1.00  0.00    -0.152 A  
HETATM   21  C   UNL     1      -9.499   8.429  71.866  1.00  0.00    -0.323 A  
HETATM   22  C   UNL     1     -10.902   8.524  71.750  1.00  0.00    -0.374 A  
ENDBRANCH  11  13
ENDBRANCH  10  11
ENDBRANCH   7  10
TORSDOF 3
ENDMDL
MODEL      170
REMARK 921   NORMALIZED FREE ENERGY PREDICTED BY IDOCK:   -4.25 KCAL/MOL
REMARK 922        TOTAL FREE ENERGY PREDICTED BY IDOCK:   -5.43 KCAL/MOL
REMARK 923 INTER-LIGAND FREE ENERGY PREDICTED BY IDOCK:   -4.84 KCAL/MOL
REMARK 924 INTRA-LIGAND FREE ENERGY PREDICTED BY IDOCK:   -0.59 KCAL/MOL
REMARK 927      BINDING AFFINITY PREDICTED BY RF-SCORE:    0.00 PKD
ROOT
HETATM    1  C   UNL     1     -10.762   9.522  68.292  1.00  0.00    -0.194 C  
HETATM    2  C   UNL     1     -10.352   9.476  69.767  1.00  0.00    -0.251 C  
HETATM    3  C   UNL     1      -8.851   9.758  69.757  1.00  0.00    -0.241 C  
HETATM    4  C   UNL     1      -8.506   9.950  68.278  1.00  0.00    -0.111 C  
HETATM    5  N   UNL     1      -9.517   9.108  67.637  1.00  0.00    -0.138 NA 
HETATM    6  C   UNL     1      -8.622  11.419  67.867  1.00  0.00    -0.140 C  
HETATM    7  C   UNL     1     -10.064  11.947  67.756  1.00  0.00    -0.191 C  
HETATM    8  C   UNL     1      -9.526   9.133  66.183  1.00  0.00    -0.245 C  
HETATM    9  C   UNL     1     -11.209  10.934  67.892  1.00  0.00    -0.387 C  
ENDROOT
BRANCH   7  10
HETATM   10  O   UNL     1     -10.189  12.998  68.727  1.00  0.00    -0.195 OA 
BRANCH  10  11
HETATM   11  C   UNL     1     -10.756  14.128  68.206  1.00  0.00    -0.249 C  
HETATM   12  O   UNL     1     -11.929  14.435  68.371  1.00  0.00    -0.331 OA 
BRANCH  11  13
HETATM   13  C   UNL     1      -9.839  14.840  67.325  1.00  0.00    -0.230 A  
HETATM   14  C   UNL     1      -9.919  14.901  65.943  1.00  0.00    -0.331 A  
HETATM   15  N   UNL     1      -8.940  15.741  65.486  1.00  0.00    -0.201 NA 
HETATM   16  H   UNL     1      -8.775  15.966  64.504  1.00  0.00     0.000 HD 
HETATM   17  C   UNL     1      -8.213  16.238  66.541  1.00  0.00    -0.309 A  
HETATM   18  C   UNL     1      -7.135  17.131  66.550  1.00  0.00    -0.303 A  
HETATM   19  C   UNL     1      -6.591  17.478  67.792  1.00  0.00    -0.171 A  
HETATM   20  C   UNL     1      -7.112  16.958  68.973  1.00  0.00    -0.232 A  
HETATM   21  C   UNL     1      -8.189  16.069  68.946  1.00  0.00    -0.223 A  
HETATM   22  C   UNL     1      -8.751  15.691  67.708  1.00  0.00    -0.173 A  
ENDBRANCH  11  13
ENDBRANCH  10  11
ENDBRANCH   7  10
TORSDOF 3
ENDMDL
MODEL      171
REMARK 921   NORMALIZED FREE ENERGY PREDICTED BY IDOCK:   -4.24 KCAL/MOL
REMARK 922        TOTAL FREE ENERGY PREDICTED BY IDOCK:   -5.42 KCAL/MOL
REMARK 923 INTER-LIGAND FREE ENERGY PREDICTED BY IDOCK:   -4.79 KCAL/MOL
REMARK 924 INTRA-LIGAND FREE ENERGY PREDICTED BY IDOCK:   -0.64 KCAL/MOL
REMARK 927      BINDING AFFINITY PREDICTED BY RF-SCORE:    0.00 PKD
ROOT
HETATM    1  C   UNL     1      -8.764   8.213  70.477  1.00  0.00    -0.135 C  
HETATM    2  C   UNL     1      -8.215   7.313  69.367  1.00  0.00    -0.131 C  
HETATM    3  C   UNL     1      -9.371   7.169  68.382  1.00  0.00    -0.135 C  
HETATM    4  C   UNL     1     -10.503   8.000  68.993  1.00  0.00    -0.199 C  
HETATM    5  N   UNL     1     -10.195   7.895  70.419  1.00  0.00    -0.195 NA 
HETATM    6  C   UNL     1     -10.465   9.445  68.490  1.00  0.00    -0.239 C  
HETATM    7  C   UNL     1      -9.321  10.299  69.065  1.00  0.00    -0.189 C  
HETATM    8  C   UNL     1     -11.052   8.667  71.306  1.00  0.00    -0.272 C  
HETATM    9  C   UNL     1      -8.466   9.689  70.184  1.00  0.00    -0.231 C  
ENDROOT
BRANCH   7  10
HETATM   10  O   UNL     1      -8.506  10.693  67.950  1.00  0.00    -0.118 OA 
BRANCH  10  11
HETATM   11  C   UNL     1      -8.080  11.989  68.044  1.00  0.00    -0.153 C  
HETATM   12  O   UNL     1      -6.953  12.307  68.397  1.00  0.00    -0.070 OA 
BRANCH  11  13
HETATM   13  C   UNL     1      -9.163  12.935  67.809  1.00  0.00    -0.200 A  
HETATM   14  C   UNL     1      -9.365  14.127  68.486  1.00  0.00    -0.191 A  
HETATM   15  N   UNL     1     -10.424  14.779  67.916  1.00  0.00    -0.244 NA 
HETATM   16  H   UNL     1     -10.786  15.683  68.221  1.00  0.00     0.000 HD 
HETATM   17  C   UNL     1     -10.928  14.040  66.872  1.00  0.00    -0.298 A  
HETATM   18  C   UNL     1     -11.991  14.316  66.005  1.00  0.00    -0.412 A  
HETATM   19  C   UNL     1     -12.276  13.376  65.008  1.00  0.00    -0.463 A  
HETATM   20  C   UNL     1     -11.523  12.212  64.884  1.00  0.00    -0.379 A  
HETATM   21  C   UNL     1     -10.464  11.952  65.758  1.00  0.00    -0.295 A  
HETATM   22  C   UNL     1     -10.160  12.877  66.780  1.00  0.00    -0.238 A  
ENDBRANCH  11  13
ENDBRANCH  10  11
ENDBRANCH   7  10
TORSDOF 3
ENDMDL
MODEL      172
REMARK 921   NORMALIZED FREE ENERGY PREDICTED BY IDOCK:   -4.23 KCAL/MOL
REMARK 922        TOTAL FREE ENERGY PREDICTED BY IDOCK:   -5.41 KCAL/MOL
REMARK 923 INTER-LIGAND FREE ENERGY PREDICTED BY IDOCK:   -4.88 KCAL/MOL
REMARK 924 INTRA-LIGAND FREE ENERGY PREDICTED BY IDOCK:   -0.53 KCAL/MOL
REMARK 927      BINDING AFFINITY PREDICTED BY RF-SCORE:    0.00 PKD
ROOT
HETATM    1  C   UNL     1      -9.287   4.352  67.954  1.00  0.00    -0.149 C  
HETATM    2  C   UNL     1      -9.401   3.149  68.894  1.00  0.00    -0.231 C  
HETATM    3  C   UNL     1      -7.999   2.978  69.471  1.00  0.00    -0.058 C  
HETATM    4  C   UNL     1      -7.178   4.097  68.826  1.00  0.00    -0.055 C  
HETATM    5  N   UNL     1      -7.878   4.267  67.553  1.00  0.00    -0.088 NA 
HETATM    6  C   UNL     1      -7.202   5.366  69.680  1.00  0.00    -0.064 C  
HETATM    7  C   UNL     1      -8.538   6.131  69.666  1.00  0.00    -0.128 C  
HETATM    8  C   UNL     1      -7.393   5.346  66.707  1.00  0.00    -0.086 C  
HETATM    9  C   UNL     1      -9.622   5.656  68.689  1.00  0.00    -0.163 C  
ENDROOT
BRANCH   7  10
HETATM   10  O   UNL     1      -9.025   6.126  71.018  1.00  0.00    -0.142 OA 
BRANCH  10  11
HETATM   11  C   UNL     1      -8.657   7.245  71.710  1.00  0.00    -0.116 C  
HETATM   12  O   UNL     1      -7.881   7.231  72.658  1.00  0.00    -0.092 OA 
BRANCH  11  13
HETATM   13  C   UNL     1      -9.398   8.422  71.276  1.00  0.00    -0.239 A  
HETATM   14  C   UNL     1      -8.956   9.377  70.375  1.00  0.00    -0.250 A  
HETATM   15  N   UNL     1      -9.969  10.269  70.152  1.00  0.00    -0.423 NA 
HETATM   16  H   UNL     1      -9.912  11.075  69.528  1.00  0.00     0.000 HD 
HETATM   17  C   UNL     1     -11.076   9.922  70.891  1.00  0.00    -0.348 A  
HETATM   18  C   UNL     1     -12.333  10.532  70.969  1.00  0.00    -0.503 A  
HETATM   19  C   UNL     1     -13.289   9.942  71.803  1.00  0.00    -0.501 A  
HETATM   20  C   UNL     1     -12.997   8.787  72.523  1.00  0.00    -0.382 A  
HETATM   21  C   UNL     1     -11.737   8.190  72.432  1.00  0.00    -0.461 A  
HETATM   22  C   UNL     1     -10.749   8.768  71.607  1.00  0.00    -0.397 A  
ENDBRANCH  11  13
ENDBRANCH  10  11
ENDBRANCH   7  10
TORSDOF 3
ENDMDL
MODEL      173
REMARK 921   NORMALIZED FREE ENERGY PREDICTED BY IDOCK:   -4.21 KCAL/MOL
REMARK 922        TOTAL FREE ENERGY PREDICTED BY IDOCK:   -5.39 KCAL/MOL
REMARK 923 INTER-LIGAND FREE ENERGY PREDICTED BY IDOCK:   -4.74 KCAL/MOL
REMARK 924 INTRA-LIGAND FREE ENERGY PREDICTED BY IDOCK:   -0.65 KCAL/MOL
REMARK 927      BINDING AFFINITY PREDICTED BY RF-SCORE:    0.00 PKD
ROOT
HETATM    1  C   UNL     1      -8.715   6.614  68.781  1.00  0.00    -0.128 C  
HETATM    2  C   UNL     1      -8.394   5.632  67.651  1.00  0.00    -0.100 C  
HETATM    3  C   UNL     1      -9.719   5.448  66.914  1.00  0.00    -0.166 C  
HETATM    4  C   UNL     1     -10.706   6.341  67.670  1.00  0.00    -0.313 C  
HETATM    5  N   UNL     1     -10.133   6.324  69.016  1.00  0.00    -0.162 NA 
HETATM    6  C   UNL     1     -10.752   7.749  67.072  1.00  0.00    -0.316 C  
HETATM    7  C   UNL     1      -9.513   8.615  67.361  1.00  0.00    -0.150 C  
HETATM    8  C   UNL     1     -10.800   7.169  69.994  1.00  0.00    -0.254 C  
HETATM    9  C   UNL     1      -8.466   8.061  68.337  1.00  0.00    -0.127 C  
ENDROOT
BRANCH   7  10
HETATM   10  O   UNL     1      -8.921   8.917  66.087  1.00  0.00    -0.154 OA 
BRANCH  10  11
HETATM   11  C   UNL     1      -9.494  10.005  65.489  1.00  0.00    -0.237 C  
HETATM   12  O   UNL     1     -10.000   9.978  64.375  1.00  0.00    -0.265 OA 
BRANCH  11  13
HETATM   13  C   UNL     1      -9.305  11.219  66.274  1.00  0.00    -0.226 A  
HETATM   14  C   UNL     1      -8.094  11.712  66.733  1.00  0.00    -0.150 A  
HETATM   15  N   UNL     1      -8.317  12.916  67.343  1.00  0.00    -0.181 NA 
HETATM   16  H   UNL     1      -7.595  13.497  67.770  1.00  0.00     0.000 HD 
HETATM   17  C   UNL     1      -9.655  13.230  67.297  1.00  0.00    -0.234 A  
HETATM   18  C   UNL     1     -10.333  14.355  67.780  1.00  0.00    -0.238 A  
HETATM   19  C   UNL     1     -11.716  14.416  67.575  1.00  0.00    -0.416 A  
HETATM   20  C   UNL     1     -12.388  13.396  66.908  1.00  0.00    -0.262 A  
HETATM   21  C   UNL     1     -11.695  12.280  66.432  1.00  0.00    -0.431 A  
HETATM   22  C   UNL     1     -10.301  12.185  66.633  1.00  0.00    -0.233 A  
ENDBRANCH  11  13
ENDBRANCH  10  11
ENDBRANCH   7  10
TORSDOF 3
ENDMDL
MODEL      174
REMARK 921   NORMALIZED FREE ENERGY PREDICTED BY IDOCK:   -4.20 KCAL/MOL
REMARK 922        TOTAL FREE ENERGY PREDICTED BY IDOCK:   -5.37 KCAL/MOL
REMARK 923 INTER-LIGAND FREE ENERGY PREDICTED BY IDOCK:   -4.64 KCAL/MOL
REMARK 924 INTRA-LIGAND FREE ENERGY PREDICTED BY IDOCK:   -0.73 KCAL/MOL
REMARK 927      BINDING AFFINITY PREDICTED BY RF-SCORE:    0.00 PKD
ROOT
HETATM    1  C   UNL     1     -11.250  14.034  65.973  1.00  0.00    -0.310 C  
HETATM    2  C   UNL     1     -10.363  15.013  65.198  1.00  0.00    -0.422 C  
HETATM    3  C   UNL     1      -9.665  15.836  66.277  1.00  0.00    -0.328 C  
HETATM    4  C   UNL     1     -10.197  15.270  67.596  1.00  0.00    -0.242 C  
HETATM    5  N   UNL     1     -11.523  14.802  67.192  1.00  0.00    -0.364 NA 
HETATM    6  C   UNL     1      -9.308  14.136  68.112  1.00  0.00    -0.206 C  
HETATM    7  C   UNL     1      -9.420  12.817  67.325  1.00  0.00    -0.204 C  
HETATM    8  C   UNL     1     -12.285  14.111  68.220  1.00  0.00    -0.161 C  
HETATM    9  C   UNL     1     -10.508  12.720  66.246  1.00  0.00    -0.273 C  
ENDROOT
BRANCH   7  10
HETATM   10  O   UNL     1      -8.120  12.562  66.771  1.00  0.00    -0.089 OA 
BRANCH  10  11
HETATM   11  C   UNL     1      -7.768  11.243  66.849  1.00  0.00    -0.152 C  
HETATM   12  O   UNL     1      -7.694  10.503  65.877  1.00  0.00    -0.141 OA 
BRANCH  11  13
HETATM   13  C   UNL     1      -7.628  10.799  68.230  1.00  0.00    -0.098 A  
HETATM   14  C   UNL     1      -6.707  11.274  69.150  1.00  0.00    -0.099 A  
HETATM   15  N   UNL     1      -6.953  10.683  70.359  1.00  0.00    -0.471 NA 
HETATM   16  H   UNL     1      -6.420  10.855  71.212  1.00  0.00     0.000 HD 
HETATM   17  C   UNL     1      -8.021   9.823  70.257  1.00  0.00    -0.162 A  
HETATM   18  C   UNL     1      -8.627   9.021  71.230  1.00  0.00    -0.221 A  
HETATM   19  C   UNL     1      -9.725   8.247  70.841  1.00  0.00    -0.204 A  
HETATM   20  C   UNL     1     -10.199   8.282  69.532  1.00  0.00    -0.210 A  
HETATM   21  C   UNL     1      -9.583   9.089  68.573  1.00  0.00    -0.161 A  
HETATM   22  C   UNL     1      -8.466   9.873  68.934  1.00  0.00    -0.127 A  
ENDBRANCH  11  13
ENDBRANCH  10  11
ENDBRANCH   7  10
TORSDOF 3
ENDMDL
MODEL      175
REMARK 921   NORMALIZED FREE ENERGY PREDICTED BY IDOCK:   -4.18 KCAL/MOL
REMARK 922        TOTAL FREE ENERGY PREDICTED BY IDOCK:   -5.36 KCAL/MOL
REMARK 923 INTER-LIGAND FREE ENERGY PREDICTED BY IDOCK:   -4.84 KCAL/MOL
REMARK 924 INTRA-LIGAND FREE ENERGY PREDICTED BY IDOCK:   -0.51 KCAL/MOL
REMARK 927      BINDING AFFINITY PREDICTED BY RF-SCORE:    0.00 PKD
ROOT
HETATM    1  C   UNL     1     -11.516   6.722  71.360  1.00  0.00    -0.292 C  
HETATM    2  C   UNL     1     -13.001   6.848  71.011  1.00  0.00    -0.167 C  
HETATM    3  C   UNL     1     -13.459   8.112  71.735  1.00  0.00    -0.381 C  
HETATM    4  C   UNL     1     -12.204   8.624  72.447  1.00  0.00    -0.349 C  
HETATM    5  N   UNL     1     -11.475   7.376  72.673  1.00  0.00    -0.308 NA 
HETATM    6  C   UNL     1     -11.427   9.604  71.565  1.00  0.00    -0.439 C  
HETATM    7  C   UNL     1     -10.680   8.958  70.384  1.00  0.00    -0.227 C  
HETATM    8  C   UNL     1     -10.156   7.517  73.270  1.00  0.00    -0.331 C  
HETATM    9  C   UNL     1     -10.644   7.425  70.313  1.00  0.00    -0.241 C  
ENDROOT
BRANCH   7  10
HETATM   10  O   UNL     1     -11.248   9.516  69.188  1.00  0.00    -0.116 OA 
BRANCH  10  11
HETATM   11  C   UNL     1     -10.390  10.369  68.550  1.00  0.00    -0.176 C  
HETATM   12  O   UNL     1     -10.283  11.556  68.830  1.00  0.00    -0.212 OA 
BRANCH  11  13
HETATM   13  C   UNL     1      -9.730   9.731  67.419  1.00  0.00    -0.202 A  
HETATM   14  C   UNL     1     -10.257   8.718  66.633  1.00  0.00    -0.270 A  
HETATM   15  N   UNL     1      -9.380   8.453  65.617  1.00  0.00    -0.425 NA 
HETATM   16  H   UNL     1      -9.522   7.750  64.891  1.00  0.00     0.000 HD 
HETATM   17  C   UNL     1      -8.280   9.272  65.716  1.00  0.00    -0.117 A  
HETATM   18  C   UNL     1      -7.147   9.360  64.899  1.00  0.00    -0.105 A  
HETATM   19  C   UNL     1      -6.177  10.311  65.235  1.00  0.00    -0.127 A  
HETATM   20  C   UNL     1      -6.341  11.142  66.340  1.00  0.00    -0.116 A  
HETATM   21  C   UNL     1      -7.479  11.041  67.145  1.00  0.00    -0.117 A  
HETATM   22  C   UNL     1      -8.469  10.084  66.837  1.00  0.00    -0.125 A  
ENDBRANCH  11  13
ENDBRANCH  10  11
ENDBRANCH   7  10
TORSDOF 3
ENDMDL
MODEL      176
REMARK 921   NORMALIZED FREE ENERGY PREDICTED BY IDOCK:   -4.17 KCAL/MOL
REMARK 922        TOTAL FREE ENERGY PREDICTED BY IDOCK:   -5.33 KCAL/MOL
REMARK 923 INTER-LIGAND FREE ENERGY PREDICTED BY IDOCK:   -4.62 KCAL/MOL
REMARK 924 INTRA-LIGAND FREE ENERGY PREDICTED BY IDOCK:   -0.71 KCAL/MOL
REMARK 927      BINDING AFFINITY PREDICTED BY RF-SCORE:    0.00 PKD
ROOT
HETATM    1  C   UNL     1      -7.198   8.096  70.621  1.00  0.00    -0.052 C  
HETATM    2  C   UNL     1      -6.674   9.423  71.175  1.00  0.00    -0.047 C  
HETATM    3  C   UNL     1      -6.917  10.430  70.054  1.00  0.00    -0.159 C  
HETATM    4  C   UNL     1      -7.568   9.611  68.936  1.00  0.00    -0.076 C  
HETATM    5  N   UNL     1      -6.994   8.288  69.182  1.00  0.00    -0.062 NA 
HETATM    6  C   UNL     1      -9.094   9.619  69.058  1.00  0.00    -0.148 C  
HETATM    7  C   UNL     1      -9.654   8.771  70.215  1.00  0.00    -0.177 C  
HETATM    8  C   UNL     1      -7.486   7.220  68.324  1.00  0.00    -0.102 C  
HETATM    9  C   UNL     1      -8.671   7.889  70.996  1.00  0.00    -0.138 C  
ENDROOT
BRANCH   7  10
HETATM   10  O   UNL     1     -10.340   9.679  71.091  1.00  0.00    -0.294 OA 
BRANCH  10  11
HETATM   11  C   UNL     1     -11.690   9.693  70.877  1.00  0.00    -0.334 C  
HETATM   12  O   UNL     1     -12.327   8.717  70.503  1.00  0.00     0.036 OA 
BRANCH  11  13
HETATM   13  C   UNL     1     -12.249  11.032  71.014  1.00  0.00    -0.456 A  
HETATM   14  C   UNL     1     -13.029  11.486  72.066  1.00  0.00    -0.268 A  
HETATM   15  N   UNL     1     -13.277  12.819  71.881  1.00  0.00    -0.445 NA 
HETATM   16  H   UNL     1     -13.828  13.403  72.511  1.00  0.00     0.000 HD 
HETATM   17  C   UNL     1     -12.675  13.257  70.725  1.00  0.00    -0.209 A  
HETATM   18  C   UNL     1     -12.651  14.533  70.151  1.00  0.00    -0.339 A  
HETATM   19  C   UNL     1     -11.934  14.694  68.959  1.00  0.00    -0.318 A  
HETATM   20  C   UNL     1     -11.266  13.622  68.374  1.00  0.00    -0.306 A  
HETATM   21  C   UNL     1     -11.299  12.355  68.962  1.00  0.00    -0.336 A  
HETATM   22  C   UNL     1     -12.023  12.159  70.158  1.00  0.00    -0.394 A  
ENDBRANCH  11  13
ENDBRANCH  10  11
ENDBRANCH   7  10
TORSDOF 3
ENDMDL
MODEL      177
REMARK 921   NORMALIZED FREE ENERGY PREDICTED BY IDOCK:   -4.14 KCAL/MOL
REMARK 922        TOTAL FREE ENERGY PREDICTED BY IDOCK:   -5.31 KCAL/MOL
REMARK 923 INTER-LIGAND FREE ENERGY PREDICTED BY IDOCK:   -4.58 KCAL/MOL
REMARK 924 INTRA-LIGAND FREE ENERGY PREDICTED BY IDOCK:   -0.72 KCAL/MOL
REMARK 927      BINDING AFFINITY PREDICTED BY RF-SCORE:    0.00 PKD
ROOT
HETATM    1  C   UNL     1      -7.090   5.513  66.504  1.00  0.00    -0.069 C  
HETATM    2  C   UNL     1      -8.217   5.362  65.480  1.00  0.00    -0.127 C  
HETATM    3  C   UNL     1      -9.419   4.895  66.297  1.00  0.00    -0.160 C  
HETATM    4  C   UNL     1      -8.898   4.815  67.735  1.00  0.00    -0.105 C  
HETATM    5  N   UNL     1      -7.483   4.520  67.509  1.00  0.00    -0.073 NA 
HETATM    6  C   UNL     1      -9.109   6.136  68.477  1.00  0.00    -0.117 C  
HETATM    7  C   UNL     1      -8.174   7.279  68.040  1.00  0.00    -0.120 C  
HETATM    8  C   UNL     1      -6.654   4.463  68.703  1.00  0.00    -0.045 C  
HETATM    9  C   UNL     1      -7.042   6.942  67.061  1.00  0.00    -0.076 C  
ENDROOT
BRANCH   7  10
HETATM   10  O   UNL     1      -9.017   8.317  67.516  1.00  0.00    -0.133 OA 
BRANCH  10  11
HETATM   11  C   UNL     1      -8.889   9.493  68.201  1.00  0.00    -0.124 C  
HETATM   12  O   UNL     1      -7.811  10.015  68.453  1.00  0.00    -0.087 OA 
BRANCH  11  13
HETATM   13  C   UNL     1     -10.168   9.969  68.709  1.00  0.00    -0.201 A  
HETATM   14  C   UNL     1     -11.078  10.754  68.019  1.00  0.00    -0.299 A  
HETATM   15  N   UNL     1     -12.195  10.910  68.793  1.00  0.00    -0.793 NA 
HETATM   16  H   UNL     1     -13.023  11.444  68.524  1.00  0.00     0.000 HD 
HETATM   17  C   UNL     1     -12.043  10.242  69.985  1.00  0.00    -0.156 A  
HETATM   18  C   UNL     1     -12.923  10.117  71.066  1.00  0.00    -0.473 A  
HETATM   19  C   UNL     1     -12.502   9.351  72.159  1.00  0.00    -0.396 A  
HETATM   20  C   UNL     1     -11.255   8.733  72.164  1.00  0.00    -0.408 A  
HETATM   21  C   UNL     1     -10.389   8.867  71.076  1.00  0.00    -0.321 A  
HETATM   22  C   UNL     1     -10.781   9.643  69.963  1.00  0.00    -0.298 A  
ENDBRANCH  11  13
ENDBRANCH  10  11
ENDBRANCH   7  10
TORSDOF 3
ENDMDL
MODEL      178
REMARK 921   NORMALIZED FREE ENERGY PREDICTED BY IDOCK:   -4.14 KCAL/MOL
REMARK 922        TOTAL FREE ENERGY PREDICTED BY IDOCK:   -5.30 KCAL/MOL
REMARK 923 INTER-LIGAND FREE ENERGY PREDICTED BY IDOCK:   -4.82 KCAL/MOL
REMARK 924 INTRA-LIGAND FREE ENERGY PREDICTED BY IDOCK:   -0.48 KCAL/MOL
REMARK 927      BINDING AFFINITY PREDICTED BY RF-SCORE:    0.00 PKD
ROOT
HETATM    1  C   UNL     1      -7.092   6.113  67.765  1.00  0.00    -0.081 C  
HETATM    2  C   UNL     1      -7.720   7.451  67.368  1.00  0.00    -0.114 C  
HETATM    3  C   UNL     1      -9.210   7.150  67.228  1.00  0.00    -0.145 C  
HETATM    4  C   UNL     1      -9.333   5.660  67.558  1.00  0.00    -0.109 C  
HETATM    5  N   UNL     1      -8.021   5.166  67.140  1.00  0.00    -0.100 NA 
HETATM    6  C   UNL     1      -9.593   5.442  69.050  1.00  0.00    -0.191 C  
HETATM    7  C   UNL     1      -8.379   5.699  69.962  1.00  0.00    -0.121 C  
HETATM    8  C   UNL     1      -7.766   3.758  67.405  1.00  0.00    -0.079 C  
HETATM    9  C   UNL     1      -7.026   5.969  69.290  1.00  0.00    -0.064 C  
ENDROOT
BRANCH   7  10
HETATM   10  O   UNL     1      -8.747   6.780  70.833  1.00  0.00    -0.139 OA 
BRANCH  10  11
HETATM   11  C   UNL     1      -9.392   6.349  71.959  1.00  0.00    -0.151 C  
HETATM   12  O   UNL     1      -8.865   5.653  72.817  1.00  0.00    -0.123 OA 
BRANCH  11  13
HETATM   13  C   UNL     1     -10.806   6.698  71.942  1.00  0.00    -0.267 A  
HETATM   14  C   UNL     1     -11.852   5.883  72.348  1.00  0.00    -0.207 A  
HETATM   15  N   UNL     1     -13.016   6.597  72.274  1.00  0.00    -0.538 NA 
HETATM   16  H   UNL     1     -13.939   6.237  72.517  1.00  0.00     0.000 HD 
HETATM   17  C   UNL     1     -12.761   7.872  71.827  1.00  0.00    -0.329 A  
HETATM   18  C   UNL     1     -13.637   8.942  71.611  1.00  0.00    -0.432 A  
HETATM   19  C   UNL     1     -13.089  10.148  71.161  1.00  0.00    -0.480 A  
HETATM   20  C   UNL     1     -11.720  10.277  70.944  1.00  0.00    -0.472 A  
HETATM   21  C   UNL     1     -10.860   9.199  71.166  1.00  0.00    -0.381 A  
HETATM   22  C   UNL     1     -11.385   7.966  71.609  1.00  0.00    -0.299 A  
ENDBRANCH  11  13
ENDBRANCH  10  11
ENDBRANCH   7  10
TORSDOF 3
ENDMDL
MODEL      179
REMARK 921   NORMALIZED FREE ENERGY PREDICTED BY IDOCK:   -4.12 KCAL/MOL
REMARK 922        TOTAL FREE ENERGY PREDICTED BY IDOCK:   -5.28 KCAL/MOL
REMARK 923 INTER-LIGAND FREE ENERGY PREDICTED BY IDOCK:   -4.77 KCAL/MOL
REMARK 924 INTRA-LIGAND FREE ENERGY PREDICTED BY IDOCK:   -0.51 KCAL/MOL
REMARK 927      BINDING AFFINITY PREDICTED BY RF-SCORE:    0.00 PKD
ROOT
HETATM    1  C   UNL     1      -6.700   9.098  70.352  1.00  0.00    -0.058 C  
HETATM    2  C   UNL     1      -6.363  10.580  70.533  1.00  0.00    -0.090 C  
HETATM    3  C   UNL     1      -5.660  10.976  69.237  1.00  0.00    -0.041 C  
HETATM    4  C   UNL     1      -5.645   9.693  68.401  1.00  0.00    -0.039 C  
HETATM    5  N   UNL     1      -5.627   8.671  69.448  1.00  0.00    -0.034 NA 
HETATM    6  C   UNL     1      -6.886   9.597  67.511  1.00  0.00    -0.082 C  
HETATM    7  C   UNL     1      -8.194   9.277  68.257  1.00  0.00    -0.115 C  
HETATM    8  C   UNL     1      -5.699   7.294  68.983  1.00  0.00    -0.019 C  
HETATM    9  C   UNL     1      -8.098   8.923  69.747  1.00  0.00    -0.109 C  
ENDROOT
BRANCH   7  10
HETATM   10  O   UNL     1      -9.066  10.398  68.048  1.00  0.00    -0.134 OA 
BRANCH  10  11
HETATM   11  C   UNL     1     -10.199  10.060  67.362  1.00  0.00    -0.219 C  
HETATM   12  O   UNL     1     -10.417   8.936  66.927  1.00  0.00    -0.271 OA 
BRANCH  11  13
HETATM   13  C   UNL     1     -11.040  11.219  67.094  1.00  0.00    -0.364 A  
HETATM   14  C   UNL     1     -11.693  11.989  68.044  1.00  0.00    -0.331 A  
HETATM   15  N   UNL     1     -12.299  13.040  67.412  1.00  0.00    -0.210 NA 
HETATM   16  H   UNL     1     -12.848  13.763  67.878  1.00  0.00     0.000 HD 
HETATM   17  C   UNL     1     -12.060  12.980  66.059  1.00  0.00    -0.432 A  
HETATM   18  C   UNL     1     -12.469  13.841  65.035  1.00  0.00    -0.449 A  
HETATM   19  C   UNL     1     -12.059  13.538  63.731  1.00  0.00    -0.482 A  
HETATM   20  C   UNL     1     -11.267  12.424  63.469  1.00  0.00    -0.540 A  
HETATM   21  C   UNL     1     -10.867  11.576  64.505  1.00  0.00    -0.390 A  
HETATM   22  C   UNL     1     -11.274  11.849  65.829  1.00  0.00    -0.365 A  
ENDBRANCH  11  13
ENDBRANCH  10  11
ENDBRANCH   7  10
TORSDOF 3
ENDMDL
MODEL      180
REMARK 921   NORMALIZED FREE ENERGY PREDICTED BY IDOCK:   -4.11 KCAL/MOL
REMARK 922        TOTAL FREE ENERGY PREDICTED BY IDOCK:   -5.27 KCAL/MOL
REMARK 923 INTER-LIGAND FREE ENERGY PREDICTED BY IDOCK:   -5.29 KCAL/MOL
REMARK 924 INTRA-LIGAND FREE ENERGY PREDICTED BY IDOCK:    0.02 KCAL/MOL
REMARK 927      BINDING AFFINITY PREDICTED BY RF-SCORE:    0.00 PKD
ROOT
HETATM    1  C   UNL     1      -7.461  14.358  67.604  1.00  0.00    -0.175 C  
HETATM    2  C   UNL     1      -8.095  13.260  66.746  1.00  0.00     0.223 C  
HETATM    3  C   UNL     1      -9.541  13.182  67.230  1.00  0.00    -0.233 C  
HETATM    4  C   UNL     1      -9.637  14.244  68.329  1.00  0.00    -0.221 C  
HETATM    5  N   UNL     1      -8.262  14.261  68.829  1.00  0.00    -0.133 NA 
HETATM    6  C   UNL     1     -10.069  15.596  67.757  1.00  0.00    -0.226 C  
HETATM    7  C   UNL     1      -8.991  16.325  66.934  1.00  0.00    -0.217 C  
HETATM    8  C   UNL     1      -7.978  15.255  69.852  1.00  0.00     0.097 C  
HETATM    9  C   UNL     1      -7.578  15.725  66.918  1.00  0.00    -0.235 C  
ENDROOT
BRANCH   7  10
HETATM   10  O   UNL     1      -9.512  16.453  65.602  1.00  0.00    -0.486 OA 
BRANCH  10  11
HETATM   11  C   UNL     1     -10.310  17.554  65.457  1.00  0.00    -0.019 C  
HETATM   12  O   UNL     1     -11.205  17.636  64.625  1.00  0.00    -0.857 OA 
BRANCH  11  13
HETATM   13  C   UNL     1      -9.878  18.655  66.307  1.00  0.00    -0.364 A  
HETATM   14  C   UNL     1     -10.619  19.238  67.323  1.00  0.00    -0.484 A  
HETATM   15  N   UNL     1      -9.839  20.170  67.952  1.00  0.00    -0.392 NA 
HETATM   16  H   UNL     1     -10.138  20.747  68.739  1.00  0.00     0.000 HD 
HETATM   17  C   UNL     1      -8.594  20.215  67.370  1.00  0.00    -0.343 A  
HETATM   18  C   UNL     1      -7.481  21.002  67.688  1.00  0.00    -0.171 A  
HETATM   19  C   UNL     1      -6.322  20.822  66.924  1.00  0.00    -0.324 A  
HETATM   20  C   UNL     1      -6.280  19.888  65.892  1.00  0.00    -0.210 A  
HETATM   21  C   UNL     1      -7.401  19.111  65.590  1.00  0.00    -0.167 A  
HETATM   22  C   UNL     1      -8.588  19.277  66.336  1.00  0.00    -0.355 A  
ENDBRANCH  11  13
ENDBRANCH  10  11
ENDBRANCH   7  10
TORSDOF 3
ENDMDL
MODEL      181
REMARK 921   NORMALIZED FREE ENERGY PREDICTED BY IDOCK:   -4.11 KCAL/MOL
REMARK 922        TOTAL FREE ENERGY PREDICTED BY IDOCK:   -5.27 KCAL/MOL
REMARK 923 INTER-LIGAND FREE ENERGY PREDICTED BY IDOCK:   -4.56 KCAL/MOL
REMARK 924 INTRA-LIGAND FREE ENERGY PREDICTED BY IDOCK:   -0.71 KCAL/MOL
REMARK 927      BINDING AFFINITY PREDICTED BY RF-SCORE:    0.00 PKD
ROOT
HETATM    1  C   UNL     1     -11.542  12.835  66.010  1.00  0.00    -0.383 C  
HETATM    2  C   UNL     1     -12.133  11.981  64.886  1.00  0.00    -0.247 C  
HETATM    3  C   UNL     1     -10.926  11.304  64.241  1.00  0.00    -0.358 C  
HETATM    4  C   UNL     1      -9.726  11.815  65.043  1.00  0.00    -0.187 C  
HETATM    5  N   UNL     1     -10.208  13.128  65.473  1.00  0.00    -0.291 NA 
HETATM    6  C   UNL     1      -9.412  10.892  66.222  1.00  0.00    -0.222 C  
HETATM    7  C   UNL     1     -10.417  10.967  67.387  1.00  0.00    -0.224 C  
HETATM    8  C   UNL     1      -9.318  13.867  66.355  1.00  0.00    -0.205 C  
HETATM    9  C   UNL     1     -11.499  12.053  67.328  1.00  0.00    -0.403 C  
ENDROOT
BRANCH   7  10
HETATM   10  O   UNL     1     -11.003   9.661  67.504  1.00  0.00    -0.260 OA 
BRANCH  10  11
HETATM   11  C   UNL     1     -10.240   8.810  68.254  1.00  0.00    -0.201 C  
HETATM   12  O   UNL     1      -9.484   9.182  69.141  1.00  0.00    -0.153 OA 
BRANCH  11  13
HETATM   13  C   UNL     1     -10.333   7.435  67.780  1.00  0.00    -0.273 A  
HETATM   14  C   UNL     1     -11.219   6.473  68.239  1.00  0.00    -0.162 A  
HETATM   15  N   UNL     1     -11.065   5.343  67.485  1.00  0.00     0.009 NA 
HETATM   16  H   UNL     1     -11.596   4.480  67.610  1.00  0.00     0.000 HD 
HETATM   17  C   UNL     1     -10.092   5.537  66.533  1.00  0.00    -0.204 A  
HETATM   18  C   UNL     1      -9.612   4.669  65.546  1.00  0.00    -0.187 A  
HETATM   19  C   UNL     1      -8.612   5.149  64.692  1.00  0.00    -0.142 A  
HETATM   20  C   UNL     1      -8.121   6.445  64.819  1.00  0.00    -0.114 A  
HETATM   21  C   UNL     1      -8.613   7.299  65.810  1.00  0.00    -0.143 A  
HETATM   22  C   UNL     1      -9.613   6.840  66.694  1.00  0.00    -0.211 A  
ENDBRANCH  11  13
ENDBRANCH  10  11
ENDBRANCH   7  10
TORSDOF 3
ENDMDL
MODEL      182
REMARK 921   NORMALIZED FREE ENERGY PREDICTED BY IDOCK:   -4.11 KCAL/MOL
REMARK 922        TOTAL FREE ENERGY PREDICTED BY IDOCK:   -5.27 KCAL/MOL
REMARK 923 INTER-LIGAND FREE ENERGY PREDICTED BY IDOCK:   -4.66 KCAL/MOL
REMARK 924 INTRA-LIGAND FREE ENERGY PREDICTED BY IDOCK:   -0.60 KCAL/MOL
REMARK 927      BINDING AFFINITY PREDICTED BY RF-SCORE:    0.00 PKD
ROOT
HETATM    1  C   UNL     1     -10.948  11.220  66.638  1.00  0.00    -0.268 C  
HETATM    2  C   UNL     1      -9.772  11.670  65.767  1.00  0.00    -0.262 C  
HETATM    3  C   UNL     1      -8.781  12.289  66.751  1.00  0.00    -0.175 C  
HETATM    4  C   UNL     1      -9.457  12.146  68.118  1.00  0.00    -0.205 C  
HETATM    5  N   UNL     1     -10.870  12.182  67.742  1.00  0.00    -0.216 NA 
HETATM    6  C   UNL     1      -9.064  10.833  68.796  1.00  0.00    -0.180 C  
HETATM    7  C   UNL     1      -9.699   9.572  68.181  1.00  0.00    -0.147 C  
HETATM    8  C   UNL     1     -11.815  11.978  68.829  1.00  0.00    -0.302 C  
HETATM    9  C   UNL     1     -10.767   9.767  67.095  1.00  0.00    -0.273 C  
ENDROOT
BRANCH   7  10
HETATM   10  O   UNL     1      -8.615   8.764  67.698  1.00  0.00    -0.126 OA 
BRANCH  10  11
HETATM   11  C   UNL     1      -8.174   7.867  68.632  1.00  0.00    -0.127 C  
HETATM   12  O   UNL     1      -6.991   7.631  68.838  1.00  0.00    -0.066 OA 
BRANCH  11  13
HETATM   13  C   UNL     1      -9.275   7.136  69.245  1.00  0.00    -0.140 A  
HETATM   14  C   UNL     1      -9.938   6.049  68.697  1.00  0.00    -0.149 A  
HETATM   15  N   UNL     1     -10.840   5.581  69.612  1.00  0.00    -0.292 NA 
HETATM   16  H   UNL     1     -11.461   4.784  69.466  1.00  0.00     0.000 HD 
HETATM   17  C   UNL     1     -10.788   6.338  70.759  1.00  0.00    -0.281 A  
HETATM   18  C   UNL     1     -11.514   6.220  71.949  1.00  0.00    -0.360 A  
HETATM   19  C   UNL     1     -11.237   7.135  72.971  1.00  0.00    -0.279 A  
HETATM   20  C   UNL     1     -10.268   8.122  72.807  1.00  0.00    -0.372 A  
HETATM   21  C   UNL     1      -9.551   8.224  71.612  1.00  0.00    -0.261 A  
HETATM   22  C   UNL     1      -9.817   7.322  70.559  1.00  0.00    -0.183 A  
ENDBRANCH  11  13
ENDBRANCH  10  11
ENDBRANCH   7  10
TORSDOF 3
ENDMDL
MODEL      183
REMARK 921   NORMALIZED FREE ENERGY PREDICTED BY IDOCK:   -4.09 KCAL/MOL
REMARK 922        TOTAL FREE ENERGY PREDICTED BY IDOCK:   -5.25 KCAL/MOL
REMARK 923 INTER-LIGAND FREE ENERGY PREDICTED BY IDOCK:   -4.48 KCAL/MOL
REMARK 924 INTRA-LIGAND FREE ENERGY PREDICTED BY IDOCK:   -0.77 KCAL/MOL
REMARK 927      BINDING AFFINITY PREDICTED BY RF-SCORE:    0.00 PKD
ROOT
HETATM    1  C   UNL     1     -12.508   7.465  71.865  1.00  0.00    -0.302 C  
HETATM    2  C   UNL     1     -13.343   8.695  71.498  1.00  0.00    -0.340 C  
HETATM    3  C   UNL     1     -12.341   9.846  71.472  1.00  0.00    -0.504 C  
HETATM    4  C   UNL     1     -10.999   9.196  71.822  1.00  0.00    -0.359 C  
HETATM    5  N   UNL     1     -11.435   8.076  72.657  1.00  0.00    -0.405 NA 
HETATM    6  C   UNL     1     -10.261   8.736  70.563  1.00  0.00    -0.240 C  
HETATM    7  C   UNL     1     -10.859   7.492  69.881  1.00  0.00    -0.240 C  
HETATM    8  C   UNL     1     -10.381   7.175  73.099  1.00  0.00    -0.295 C  
HETATM    9  C   UNL     1     -11.994   6.756  70.606  1.00  0.00    -0.418 C  
ENDROOT
BRANCH   7  10
HETATM   10  O   UNL     1     -11.269   7.905  68.568  1.00  0.00     0.253 OA 
BRANCH  10  11
HETATM   11  C   UNL     1     -10.546   7.298  67.579  1.00  0.00    -0.274 C  
HETATM   12  O   UNL     1     -10.614   6.102  67.328  1.00  0.00    -0.214 OA 
BRANCH  11  13
HETATM   13  C   UNL     1      -9.594   8.213  66.961  1.00  0.00    -0.253 A  
HETATM   14  C   UNL     1      -9.902   9.236  66.078  1.00  0.00    -0.293 A  
HETATM   15  N   UNL     1      -8.758   9.929  65.797  1.00  0.00    -0.136 NA 
HETATM   16  H   UNL     1      -8.701  10.735  65.173  1.00  0.00     0.000 HD 
HETATM   17  C   UNL     1      -7.695   9.384  66.478  1.00  0.00    -0.094 A  
HETATM   18  C   UNL     1      -6.349   9.769  66.503  1.00  0.00    -0.069 A  
HETATM   19  C   UNL     1      -5.479   9.029  67.311  1.00  0.00    -0.041 A  
HETATM   20  C   UNL     1      -5.940   7.955  68.067  1.00  0.00    -0.041 A  
HETATM   21  C   UNL     1      -7.287   7.585  68.031  1.00  0.00    -0.096 A  
HETATM   22  C   UNL     1      -8.187   8.306  67.216  1.00  0.00    -0.120 A  
ENDBRANCH  11  13
ENDBRANCH  10  11
ENDBRANCH   7  10
TORSDOF 3
ENDMDL
MODEL      184
REMARK 921   NORMALIZED FREE ENERGY PREDICTED BY IDOCK:   -4.08 KCAL/MOL
REMARK 922        TOTAL FREE ENERGY PREDICTED BY IDOCK:   -5.23 KCAL/MOL
REMARK 923 INTER-LIGAND FREE ENERGY PREDICTED BY IDOCK:   -4.98 KCAL/MOL
REMARK 924 INTRA-LIGAND FREE ENERGY PREDICTED BY IDOCK:   -0.25 KCAL/MOL
REMARK 927      BINDING AFFINITY PREDICTED BY RF-SCORE:    0.00 PKD
ROOT
HETATM    1  C   UNL     1     -11.025   7.593  72.851  1.00  0.00    -0.400 C  
HETATM    2  C   UNL     1     -10.413   6.230  72.515  1.00  0.00    -0.228 C  
HETATM    3  C   UNL     1     -11.144   5.781  71.252  1.00  0.00    -0.267 C  
HETATM    4  C   UNL     1     -12.122   6.920  70.949  1.00  0.00    -0.373 C  
HETATM    5  N   UNL     1     -12.372   7.446  72.291  1.00  0.00    -0.187 NA 
HETATM    6  C   UNL     1     -11.491   7.961  70.021  1.00  0.00     0.046 C  
HETATM    7  C   UNL     1     -10.421   8.851  70.680  1.00  0.00    -0.221 C  
HETATM    8  C   UNL     1     -13.219   8.627  72.356  1.00  0.00    -0.346 C  
HETATM    9  C   UNL     1     -10.226   8.728  72.198  1.00  0.00    -0.371 C  
ENDROOT
BRANCH   7  10
HETATM   10  O   UNL     1      -9.193   8.597  69.980  1.00  0.00    -0.151 OA 
BRANCH  10  11
HETATM   11  C   UNL     1      -8.645   9.735  69.456  1.00  0.00    -0.179 C  
HETATM   12  O   UNL     1      -7.605  10.235  69.863  1.00  0.00    -0.160 OA 
BRANCH  11  13
HETATM   13  C   UNL     1      -9.513  10.347  68.459  1.00  0.00    -0.159 A  
HETATM   14  C   UNL     1     -10.476  11.314  68.701  1.00  0.00    -0.203 A  
HETATM   15  N   UNL     1     -11.011  11.705  67.504  1.00  0.00    -0.242 NA 
HETATM   16  H   UNL     1     -11.743  12.409  67.393  1.00  0.00     0.000 HD 
HETATM   17  C   UNL     1     -10.420  11.015  66.473  1.00  0.00    -0.257 A  
HETATM   18  C   UNL     1     -10.641  11.094  65.093  1.00  0.00    -0.319 A  
HETATM   19  C   UNL     1      -9.871  10.270  64.265  1.00  0.00    -0.357 A  
HETATM   20  C   UNL     1      -8.916   9.409  64.798  1.00  0.00    -0.241 A  
HETATM   21  C   UNL     1      -8.707   9.344  66.177  1.00  0.00    -0.165 A  
HETATM   22  C   UNL     1      -9.477  10.155  67.039  1.00  0.00    -0.197 A  
ENDBRANCH  11  13
ENDBRANCH  10  11
ENDBRANCH   7  10
TORSDOF 3
ENDMDL
MODEL      185
REMARK 921   NORMALIZED FREE ENERGY PREDICTED BY IDOCK:   -4.07 KCAL/MOL
REMARK 922        TOTAL FREE ENERGY PREDICTED BY IDOCK:   -5.22 KCAL/MOL
REMARK 923 INTER-LIGAND FREE ENERGY PREDICTED BY IDOCK:   -4.50 KCAL/MOL
REMARK 924 INTRA-LIGAND FREE ENERGY PREDICTED BY IDOCK:   -0.73 KCAL/MOL
REMARK 927      BINDING AFFINITY PREDICTED BY RF-SCORE:    0.00 PKD
ROOT
HETATM    1  C   UNL     1     -10.425  15.271  68.068  1.00  0.00    -0.248 C  
HETATM    2  C   UNL     1     -11.658  14.466  68.487  1.00  0.00    -0.347 C  
HETATM    3  C   UNL     1     -12.126  13.784  67.204  1.00  0.00    -0.416 C  
HETATM    4  C   UNL     1     -11.127  14.243  66.138  1.00  0.00    -0.324 C  
HETATM    5  N   UNL     1     -10.733  15.552  66.661  1.00  0.00    -0.309 NA 
HETATM    6  C   UNL     1      -9.946  13.276  66.032  1.00  0.00    -0.297 C  
HETATM    7  C   UNL     1      -8.953  13.336  67.207  1.00  0.00    -0.217 C  
HETATM    8  C   UNL     1      -9.696  16.243  65.911  1.00  0.00    -0.321 C  
HETATM    9  C   UNL     1      -9.144  14.447  68.248  1.00  0.00    -0.193 C  
ENDROOT
BRANCH   7  10
HETATM   10  O   UNL     1      -8.976  12.040  67.826  1.00  0.00    -0.163 OA 
BRANCH  10  11
HETATM   11  C   UNL     1      -7.726  11.592  68.149  1.00  0.00    -0.120 C  
HETATM   12  O   UNL     1      -7.298  11.547  69.295  1.00  0.00    -0.095 OA 
BRANCH  11  13
HETATM   13  C   UNL     1      -6.927  11.309  66.965  1.00  0.00    -0.126 A  
HETATM   14  C   UNL     1      -5.652  11.790  66.707  1.00  0.00    -0.113 A  
HETATM   15  N   UNL     1      -5.199  11.227  65.546  1.00  0.00    -0.468 NA 
HETATM   16  H   UNL     1      -4.287  11.408  65.126  1.00  0.00     0.000 HD 
HETATM   17  C   UNL     1      -6.151  10.380  65.028  1.00  0.00    -0.117 A  
HETATM   18  C   UNL     1      -6.119   9.590  63.874  1.00  0.00    -0.096 A  
HETATM   19  C   UNL     1      -7.242   8.802  63.597  1.00  0.00    -0.094 A  
HETATM   20  C   UNL     1      -8.346   8.803  64.445  1.00  0.00    -0.165 A  
HETATM   21  C   UNL     1      -8.359   9.597  65.594  1.00  0.00    -0.133 A  
HETATM   22  C   UNL     1      -7.246  10.411  65.894  1.00  0.00    -0.135 A  
ENDBRANCH  11  13
ENDBRANCH  10  11
ENDBRANCH   7  10
TORSDOF 3
ENDMDL
MODEL      186
REMARK 921   NORMALIZED FREE ENERGY PREDICTED BY IDOCK:   -4.06 KCAL/MOL
REMARK 922        TOTAL FREE ENERGY PREDICTED BY IDOCK:   -5.21 KCAL/MOL
REMARK 923 INTER-LIGAND FREE ENERGY PREDICTED BY IDOCK:   -4.92 KCAL/MOL
REMARK 924 INTRA-LIGAND FREE ENERGY PREDICTED BY IDOCK:   -0.28 KCAL/MOL
REMARK 927      BINDING AFFINITY PREDICTED BY RF-SCORE:    0.00 PKD
ROOT
HETATM    1  C   UNL     1      -7.955  17.823  69.018  1.00  0.00    -0.075 C  
HETATM    2  C   UNL     1      -8.124  19.022  68.081  1.00  0.00    -0.347 C  
HETATM    3  C   UNL     1      -7.047  18.832  67.016  1.00  0.00    -0.213 C  
HETATM    4  C   UNL     1      -6.338  17.534  67.414  1.00  0.00    -0.145 C  
HETATM    5  N   UNL     1      -6.524  17.541  68.865  1.00  0.00    -0.203 NA 
HETATM    6  C   UNL     1      -6.987  16.320  66.746  1.00  0.00    -0.165 C  
HETATM    7  C   UNL     1      -8.361  15.924  67.320  1.00  0.00    -0.186 C  
HETATM    8  C   UNL     1      -6.029  16.367  69.567  1.00  0.00    -0.176 C  
HETATM    9  C   UNL     1      -8.846  16.655  68.579  1.00  0.00    -0.235 C  
ENDROOT
BRANCH   7  10
HETATM   10  O   UNL     1      -9.305  16.064  66.247  1.00  0.00    -0.267 OA 
BRANCH  10  11
HETATM   11  C   UNL     1     -10.468  15.384  66.482  1.00  0.00    -0.294 C  
HETATM   12  O   UNL     1     -11.312  15.746  67.291  1.00  0.00    -0.212 OA 
BRANCH  11  13
HETATM   13  C   UNL     1     -10.514  14.119  65.761  1.00  0.00    -0.320 A  
HETATM   14  C   UNL     1     -11.057  13.917  64.502  1.00  0.00    -0.366 A  
HETATM   15  N   UNL     1     -10.822  12.622  64.128  1.00  0.00    -0.367 NA 
HETATM   16  H   UNL     1     -11.116  12.208  63.243  1.00  0.00     0.000 HD 
HETATM   17  C   UNL     1     -10.133  11.961  65.117  1.00  0.00    -0.261 A  
HETATM   18  C   UNL     1      -9.673  10.640  65.165  1.00  0.00    -0.327 A  
HETATM   19  C   UNL     1      -8.975  10.238  66.309  1.00  0.00    -0.172 A  
HETATM   20  C   UNL     1      -8.743  11.125  67.357  1.00  0.00    -0.133 A  
HETATM   21  C   UNL     1      -9.208  12.441  67.291  1.00  0.00    -0.187 A  
HETATM   22  C   UNL     1      -9.925  12.873  66.154  1.00  0.00    -0.274 A  
ENDBRANCH  11  13
ENDBRANCH  10  11
ENDBRANCH   7  10
TORSDOF 3
ENDMDL
MODEL      187
REMARK 921   NORMALIZED FREE ENERGY PREDICTED BY IDOCK:   -4.05 KCAL/MOL
REMARK 922        TOTAL FREE ENERGY PREDICTED BY IDOCK:   -5.19 KCAL/MOL
REMARK 923 INTER-LIGAND FREE ENERGY PREDICTED BY IDOCK:   -4.67 KCAL/MOL
REMARK 924 INTRA-LIGAND FREE ENERGY PREDICTED BY IDOCK:   -0.52 KCAL/MOL
REMARK 927      BINDING AFFINITY PREDICTED BY RF-SCORE:    0.00 PKD
ROOT
HETATM    1  C   UNL     1      -7.583  10.710  66.352  1.00  0.00    -0.138 C  
HETATM    2  C   UNL     1      -8.107   9.280  66.188  1.00  0.00    -0.110 C  
HETATM    3  C   UNL     1      -7.769   8.593  67.508  1.00  0.00    -0.098 C  
HETATM    4  C   UNL     1      -7.078   9.677  68.340  1.00  0.00    -0.070 C  
HETATM    5  N   UNL     1      -6.476  10.501  67.291  1.00  0.00    -0.069 NA 
HETATM    6  C   UNL     1      -8.087  10.455  69.187  1.00  0.00    -0.151 C  
HETATM    7  C   UNL     1      -8.987  11.421  68.396  1.00  0.00    -0.172 C  
HETATM    8  C   UNL     1      -5.796  11.703  67.748  1.00  0.00    -0.052 C  
HETATM    9  C   UNL     1      -8.674  11.633  66.908  1.00  0.00    -0.185 C  
ENDROOT
BRANCH   7  10
HETATM   10  O   UNL     1     -10.336  10.963  68.578  1.00  0.00    -0.171 OA 
BRANCH  10  11
HETATM   11  C   UNL     1     -11.260  11.852  68.104  1.00  0.00    -0.258 C  
HETATM   12  O   UNL     1     -11.723  11.808  66.972  1.00  0.00    -0.555 OA 
BRANCH  11  13
HETATM   13  C   UNL     1     -11.518  12.927  69.053  1.00  0.00    -0.358 A  
HETATM   14  C   UNL     1     -12.029  12.778  70.333  1.00  0.00    -0.249 A  
HETATM   15  N   UNL     1     -12.035  14.002  70.945  1.00  0.00    -0.468 NA 
HETATM   16  H   UNL     1     -12.362  14.178  71.896  1.00  0.00     0.000 HD 
HETATM   17  C   UNL     1     -11.537  14.959  70.094  1.00  0.00    -0.289 A  
HETATM   18  C   UNL     1     -11.348  16.331  70.294  1.00  0.00    -0.299 A  
HETATM   19  C   UNL     1     -10.799  17.071  69.241  1.00  0.00    -0.127 A  
HETATM   20  C   UNL     1     -10.448  16.458  68.041  1.00  0.00    -0.303 A  
HETATM   21  C   UNL     1     -10.642  15.087  67.859  1.00  0.00    -0.259 A  
HETATM   22  C   UNL     1     -11.205  14.316  68.899  1.00  0.00    -0.289 A  
ENDBRANCH  11  13
ENDBRANCH  10  11
ENDBRANCH   7  10
TORSDOF 3
ENDMDL
MODEL      188
REMARK 921   NORMALIZED FREE ENERGY PREDICTED BY IDOCK:   -4.03 KCAL/MOL
REMARK 922        TOTAL FREE ENERGY PREDICTED BY IDOCK:   -5.17 KCAL/MOL
REMARK 923 INTER-LIGAND FREE ENERGY PREDICTED BY IDOCK:   -4.75 KCAL/MOL
REMARK 924 INTRA-LIGAND FREE ENERGY PREDICTED BY IDOCK:   -0.43 KCAL/MOL
REMARK 927      BINDING AFFINITY PREDICTED BY RF-SCORE:    0.00 PKD
ROOT
HETATM    1  C   UNL     1      -6.897   9.657  68.206  1.00  0.00    -0.069 C  
HETATM    2  C   UNL     1      -7.554   8.941  67.023  1.00  0.00    -0.094 C  
HETATM    3  C   UNL     1      -8.064   7.625  67.606  1.00  0.00    -0.121 C  
HETATM    4  C   UNL     1      -7.667   7.679  69.084  1.00  0.00    -0.109 C  
HETATM    5  N   UNL     1      -6.470   8.518  69.027  1.00  0.00    -0.047 NA 
HETATM    6  C   UNL     1      -8.778   8.301  69.934  1.00  0.00    -0.134 C  
HETATM    7  C   UNL     1      -8.946   9.822  69.765  1.00  0.00    -0.221 C  
HETATM    8  C   UNL     1      -5.873   8.850  70.311  1.00  0.00    -0.030 C  
HETATM    9  C   UNL     1      -7.902  10.568  68.923  1.00  0.00    -0.124 C  
ENDROOT
BRANCH   7  10
HETATM   10  O   UNL     1     -10.270  10.031  69.249  1.00  0.00    -0.188 OA 
BRANCH  10  11
HETATM   11  C   UNL     1     -11.101  10.618  70.161  1.00  0.00    -0.268 C  
HETATM   12  O   UNL     1     -11.536  10.043  71.150  1.00  0.00    -0.357 OA 
BRANCH  11  13
HETATM   13  C   UNL     1     -11.512  11.952  69.743  1.00  0.00    -0.303 A  
HETATM   14  C   UNL     1     -11.940  12.972  70.578  1.00  0.00    -0.212 A  
HETATM   15  N   UNL     1     -12.142  14.096  69.825  1.00  0.00    -0.336 NA 
HETATM   16  H   UNL     1     -12.459  14.995  70.191  1.00  0.00     0.000 HD 
HETATM   17  C   UNL     1     -11.855  13.840  68.505  1.00  0.00    -0.370 A  
HETATM   18  C   UNL     1     -11.908  14.687  67.392  1.00  0.00    -0.374 A  
HETATM   19  C   UNL     1     -11.539  14.152  66.153  1.00  0.00    -0.377 A  
HETATM   20  C   UNL     1     -11.129  12.826  66.037  1.00  0.00    -0.315 A  
HETATM   21  C   UNL     1     -11.081  11.995  67.159  1.00  0.00    -0.344 A  
HETATM   22  C   UNL     1     -11.458  12.504  68.422  1.00  0.00    -0.355 A  
ENDBRANCH  11  13
ENDBRANCH  10  11
ENDBRANCH   7  10
TORSDOF 3
ENDMDL
MODEL      189
REMARK 921   NORMALIZED FREE ENERGY PREDICTED BY IDOCK:   -4.02 KCAL/MOL
REMARK 922        TOTAL FREE ENERGY PREDICTED BY IDOCK:   -5.16 KCAL/MOL
REMARK 923 INTER-LIGAND FREE ENERGY PREDICTED BY IDOCK:   -4.49 KCAL/MOL
REMARK 924 INTRA-LIGAND FREE ENERGY PREDICTED BY IDOCK:   -0.67 KCAL/MOL
REMARK 927      BINDING AFFINITY PREDICTED BY RF-SCORE:    0.00 PKD
ROOT
HETATM    1  C   UNL     1      -7.763   4.061  66.574  1.00  0.00    -0.089 C  
HETATM    2  C   UNL     1      -7.746   4.524  65.115  1.00  0.00    -0.085 C  
HETATM    3  C   UNL     1      -9.219   4.613  64.723  1.00  0.00    -0.133 C  
HETATM    4  C   UNL     1      -9.978   4.199  65.987  1.00  0.00    -0.179 C  
HETATM    5  N   UNL     1      -9.014   3.297  66.616  1.00  0.00    -0.145 NA 
HETATM    6  C   UNL     1     -10.303   5.412  66.861  1.00  0.00    -0.310 C  
HETATM    7  C   UNL     1      -9.095   6.017  67.601  1.00  0.00    -0.109 C  
HETATM    8  C   UNL     1      -9.397   2.779  67.920  1.00  0.00    -0.200 C  
HETATM    9  C   UNL     1      -7.761   5.261  67.530  1.00  0.00    -0.096 C  
ENDROOT
BRANCH   7  10
HETATM   10  O   UNL     1      -8.952   7.362  67.116  1.00  0.00    -0.122 OA 
BRANCH  10  11
HETATM   11  C   UNL     1      -9.939   8.190  67.573  1.00  0.00    -0.192 C  
HETATM   12  O   UNL     1     -10.785   8.699  66.849  1.00  0.00    -0.252 OA 
BRANCH  11  13
HETATM   13  C   UNL     1      -9.778   8.500  68.987  1.00  0.00    -0.170 A  
HETATM   14  C   UNL     1      -8.942   9.469  69.519  1.00  0.00    -0.181 A  
HETATM   15  N   UNL     1      -9.141   9.523  70.871  1.00  0.00    -0.324 NA 
HETATM   16  H   UNL     1      -8.653  10.153  71.510  1.00  0.00     0.000 HD 
HETATM   17  C   UNL     1     -10.095   8.606  71.246  1.00  0.00    -0.242 A  
HETATM   18  C   UNL     1     -10.621   8.320  72.511  1.00  0.00    -0.407 A  
HETATM   19  C   UNL     1     -11.608   7.332  72.595  1.00  0.00    -0.259 A  
HETATM   20  C   UNL     1     -12.053   6.665  71.457  1.00  0.00    -0.406 A  
HETATM   21  C   UNL     1     -11.518   6.964  70.201  1.00  0.00    -0.354 A  
HETATM   22  C   UNL     1     -10.512   7.948  70.087  1.00  0.00    -0.231 A  
ENDBRANCH  11  13
ENDBRANCH  10  11
ENDBRANCH   7  10
TORSDOF 3
ENDMDL
MODEL      190
REMARK 921   NORMALIZED FREE ENERGY PREDICTED BY IDOCK:   -4.00 KCAL/MOL
REMARK 922        TOTAL FREE ENERGY PREDICTED BY IDOCK:   -5.14 KCAL/MOL
REMARK 923 INTER-LIGAND FREE ENERGY PREDICTED BY IDOCK:   -5.01 KCAL/MOL
REMARK 924 INTRA-LIGAND FREE ENERGY PREDICTED BY IDOCK:   -0.13 KCAL/MOL
REMARK 927      BINDING AFFINITY PREDICTED BY RF-SCORE:    0.00 PKD
ROOT
HETATM    1  C   UNL     1      -8.267  10.739  66.654  1.00  0.00    -0.140 C  
HETATM    2  C   UNL     1      -8.594  10.430  65.191  1.00  0.00    -0.189 C  
HETATM    3  C   UNL     1     -10.119  10.469  65.122  1.00  0.00    -0.383 C  
HETATM    4  C   UNL     1     -10.559  10.802  66.550  1.00  0.00    -0.218 C  
HETATM    5  N   UNL     1      -9.463  10.226  67.329  1.00  0.00    -0.149 NA 
HETATM    6  C   UNL     1     -10.689  12.313  66.752  1.00  0.00    -0.272 C  
HETATM    7  C   UNL     1      -9.352  13.073  66.825  1.00  0.00    -0.244 C  
HETATM    8  C   UNL     1      -9.527  10.449  68.765  1.00  0.00    -0.175 C  
HETATM    9  C   UNL     1      -8.061  12.245  66.863  1.00  0.00    -0.090 C  
ENDROOT
BRANCH   7  10
HETATM   10  O   UNL     1      -9.344  13.990  65.719  1.00  0.00    -0.081 OA 
BRANCH  10  11
HETATM   11  C   UNL     1      -9.834  15.221  66.055  1.00  0.00    -0.328 C  
HETATM   12  O   UNL     1     -10.953  15.611  65.749  1.00  0.00    -0.314 OA 
BRANCH  11  13
HETATM   13  C   UNL     1      -8.823  16.052  66.695  1.00  0.00    -0.307 A  
HETATM   14  C   UNL     1      -7.470  15.764  66.788  1.00  0.00    -0.100 A  
HETATM   15  N   UNL     1      -6.837  16.828  67.370  1.00  0.00    -0.143 NA 
HETATM   16  H   UNL     1      -5.835  16.880  67.558  1.00  0.00     0.000 HD 
HETATM   17  C   UNL     1      -7.746  17.816  67.666  1.00  0.00    -0.208 A  
HETATM   18  C   UNL     1      -7.551  19.072  68.251  1.00  0.00    -0.331 A  
HETATM   19  C   UNL     1      -8.673  19.891  68.418  1.00  0.00    -0.222 A  
HETATM   20  C   UNL     1      -9.936  19.469  68.011  1.00  0.00    -0.513 A  
HETATM   21  C   UNL     1     -10.112  18.212  67.427  1.00  0.00    -0.359 A  
HETATM   22  C   UNL     1      -9.000  17.359  67.255  1.00  0.00    -0.241 A  
ENDBRANCH  11  13
ENDBRANCH  10  11
ENDBRANCH   7  10
TORSDOF 3
ENDMDL
MODEL      191
REMARK 921   NORMALIZED FREE ENERGY PREDICTED BY IDOCK:   -3.98 KCAL/MOL
REMARK 922        TOTAL FREE ENERGY PREDICTED BY IDOCK:   -5.12 KCAL/MOL
REMARK 923 INTER-LIGAND FREE ENERGY PREDICTED BY IDOCK:   -4.83 KCAL/MOL
REMARK 924 INTRA-LIGAND FREE ENERGY PREDICTED BY IDOCK:   -0.29 KCAL/MOL
REMARK 927      BINDING AFFINITY PREDICTED BY RF-SCORE:    0.00 PKD
ROOT
HETATM    1  C   UNL     1      -9.928  14.671  67.435  1.00  0.00    -0.231 C  
HETATM    2  C   UNL     1     -10.661  14.018  68.610  1.00  0.00    -0.263 C  
HETATM    3  C   UNL     1     -12.080  13.785  68.097  1.00  0.00    -0.316 C  
HETATM    4  C   UNL     1     -12.061  14.316  66.661  1.00  0.00    -0.420 C  
HETATM    5  N   UNL     1     -11.034  15.354  66.754  1.00  0.00    -0.308 NA 
HETATM    6  C   UNL     1     -11.691  13.214  65.666  1.00  0.00    -0.402 C  
HETATM    7  C   UNL     1     -10.211  12.791  65.691  1.00  0.00    -0.279 C  
HETATM    8  C   UNL     1     -10.696  16.018  65.505  1.00  0.00    -0.361 C  
HETATM    9  C   UNL     1      -9.247  13.613  66.558  1.00  0.00    -0.195 C  
ENDROOT
BRANCH   7  10
HETATM   10  O   UNL     1     -10.190  11.405  66.068  1.00  0.00    -0.228 OA 
BRANCH  10  11
HETATM   11  C   UNL     1      -9.906  10.581  65.015  1.00  0.00    -0.306 C  
HETATM   12  O   UNL     1     -10.360  10.740  63.889  1.00  0.00    -0.349 OA 
BRANCH  11  13
HETATM   13  C   UNL     1      -9.119   9.426  65.425  1.00  0.00    -0.280 A  
HETATM   14  C   UNL     1      -9.046   8.902  66.707  1.00  0.00    -0.143 A  
HETATM   15  N   UNL     1      -8.285   7.766  66.672  1.00  0.00    -0.120 NA 
HETATM   16  H   UNL     1      -8.072   7.181  67.480  1.00  0.00     0.000 HD 
HETATM   17  C   UNL     1      -7.851   7.527  65.390  1.00  0.00    -0.117 A  
HETATM   18  C   UNL     1      -7.065   6.484  64.886  1.00  0.00    -0.057 A  
HETATM   19  C   UNL     1      -6.788   6.486  63.514  1.00  0.00    -0.049 A  
HETATM   20  C   UNL     1      -7.285   7.487  62.683  1.00  0.00    -0.085 A  
HETATM   21  C   UNL     1      -8.069   8.519  63.203  1.00  0.00    -0.165 A  
HETATM   22  C   UNL     1      -8.356   8.550  64.585  1.00  0.00    -0.156 A  
ENDBRANCH  11  13
ENDBRANCH  10  11
ENDBRANCH   7  10
TORSDOF 3
ENDMDL
MODEL      192
REMARK 921   NORMALIZED FREE ENERGY PREDICTED BY IDOCK:   -3.98 KCAL/MOL
REMARK 922        TOTAL FREE ENERGY PREDICTED BY IDOCK:   -5.11 KCAL/MOL
REMARK 923 INTER-LIGAND FREE ENERGY PREDICTED BY IDOCK:   -4.67 KCAL/MOL
REMARK 924 INTRA-LIGAND FREE ENERGY PREDICTED BY IDOCK:   -0.44 KCAL/MOL
REMARK 927      BINDING AFFINITY PREDICTED BY RF-SCORE:    0.00 PKD
ROOT
HETATM    1  C   UNL     1      -9.673  14.281  67.139  1.00  0.00    -0.254 C  
HETATM    2  C   UNL     1     -10.350  14.266  68.512  1.00  0.00    -0.244 C  
HETATM    3  C   UNL     1     -11.716  13.631  68.260  1.00  0.00    -0.398 C  
HETATM    4  C   UNL     1     -11.725  13.322  66.760  1.00  0.00    -0.385 C  
HETATM    5  N   UNL     1     -10.836  14.366  66.249  1.00  0.00    -0.308 NA 
HETATM    6  C   UNL     1     -11.196  11.914  66.480  1.00  0.00    -0.383 C  
HETATM    7  C   UNL     1      -9.676  11.746  66.661  1.00  0.00    -0.202 C  
HETATM    8  C   UNL     1     -10.550  14.305  64.824  1.00  0.00    -0.412 C  
HETATM    9  C   UNL     1      -8.844  13.009  66.923  1.00  0.00    -0.184 C  
ENDROOT
BRANCH   7  10
HETATM   10  O   UNL     1      -9.495  10.782  67.709  1.00  0.00    -0.153 OA 
BRANCH  10  11
HETATM   11  C   UNL     1      -8.746   9.710  67.311  1.00  0.00    -0.132 C  
HETATM   12  O   UNL     1      -7.697   9.811  66.687  1.00  0.00    -0.101 OA 
BRANCH  11  13
HETATM   13  C   UNL     1      -9.412   8.446  67.594  1.00  0.00    -0.176 A  
HETATM   14  C   UNL     1     -10.773   8.202  67.499  1.00  0.00    -0.156 A  
HETATM   15  N   UNL     1     -10.998   6.877  67.750  1.00  0.00    -0.489 NA 
HETATM   16  H   UNL     1     -11.915   6.428  67.745  1.00  0.00     0.000 HD 
HETATM   17  C   UNL     1      -9.810   6.236  68.011  1.00  0.00    -0.125 A  
HETATM   18  C   UNL     1      -9.558   4.891  68.307  1.00  0.00    -0.196 A  
HETATM   19  C   UNL     1      -8.227   4.511  68.515  1.00  0.00    -0.082 A  
HETATM   20  C   UNL     1      -7.194   5.440  68.423  1.00  0.00    -0.071 A  
HETATM   21  C   UNL     1      -7.463   6.778  68.126  1.00  0.00    -0.099 A  
HETATM   22  C   UNL     1      -8.797   7.193  67.922  1.00  0.00    -0.124 A  
ENDBRANCH  11  13
ENDBRANCH  10  11
ENDBRANCH   7  10
TORSDOF 3
ENDMDL
MODEL      193
REMARK 921   NORMALIZED FREE ENERGY PREDICTED BY IDOCK:   -3.97 KCAL/MOL
REMARK 922        TOTAL FREE ENERGY PREDICTED BY IDOCK:   -5.11 KCAL/MOL
REMARK 923 INTER-LIGAND FREE ENERGY PREDICTED BY IDOCK:   -5.57 KCAL/MOL
REMARK 924 INTRA-LIGAND FREE ENERGY PREDICTED BY IDOCK:    0.46 KCAL/MOL
REMARK 927      BINDING AFFINITY PREDICTED BY RF-SCORE:    0.00 PKD
ROOT
HETATM    1  C   UNL     1      -8.703  18.341  66.212  1.00  0.00    -0.178 C  
HETATM    2  C   UNL     1      -7.299  18.501  66.801  1.00  0.00    -0.234 C  
HETATM    3  C   UNL     1      -7.426  19.659  67.787  1.00  0.00    -0.313 C  
HETATM    4  C   UNL     1      -8.895  20.080  67.698  1.00  0.00    -0.328 C  
HETATM    5  N   UNL     1      -9.214  19.711  66.319  1.00  0.00    -0.372 NA 
HETATM    6  C   UNL     1      -9.751  19.327  68.719  1.00  0.00    -0.510 C  
HETATM    7  C   UNL     1      -9.998  17.844  68.387  1.00  0.00    -0.367 C  
HETATM    8  C   UNL     1     -10.600  19.903  65.921  1.00  0.00    -0.417 C  
HETATM    9  C   UNL     1      -9.525  17.329  67.020  1.00  0.00    -0.264 C  
ENDROOT
BRANCH   7  10
HETATM   10  O   UNL     1      -9.411  17.085  69.455  1.00  0.00     0.028 OA 
BRANCH  10  11
HETATM   11  C   UNL     1      -8.964  15.861  69.043  1.00  0.00    -0.245 C  
HETATM   12  O   UNL     1      -7.834  15.661  68.617  1.00  0.00    -0.136 OA 
BRANCH  11  13
HETATM   13  C   UNL     1     -10.027  14.865  69.043  1.00  0.00    -0.235 A  
HETATM   14  C   UNL     1     -11.363  15.098  69.333  1.00  0.00    -0.294 A  
HETATM   15  N   UNL     1     -12.062  13.939  69.133  1.00  0.00    -0.372 NA 
HETATM   16  H   UNL     1     -13.067  13.832  69.273  1.00  0.00     0.000 HD 
HETATM   17  C   UNL     1     -11.213  12.941  68.715  1.00  0.00    -0.279 A  
HETATM   18  C   UNL     1     -11.486  11.609  68.384  1.00  0.00    -0.360 A  
HETATM   19  C   UNL     1     -10.413  10.812  67.969  1.00  0.00    -0.225 A  
HETATM   20  C   UNL     1      -9.124  11.332  67.884  1.00  0.00    -0.150 A  
HETATM   21  C   UNL     1      -8.870  12.664  68.218  1.00  0.00    -0.172 A  
HETATM   22  C   UNL     1      -9.931  13.490  68.650  1.00  0.00    -0.149 A  
ENDBRANCH  11  13
ENDBRANCH  10  11
ENDBRANCH   7  10
TORSDOF 3
ENDMDL
MODEL      194
REMARK 921   NORMALIZED FREE ENERGY PREDICTED BY IDOCK:   -3.97 KCAL/MOL
REMARK 922        TOTAL FREE ENERGY PREDICTED BY IDOCK:   -5.11 KCAL/MOL
REMARK 923 INTER-LIGAND FREE ENERGY PREDICTED BY IDOCK:   -4.45 KCAL/MOL
REMARK 924 INTRA-LIGAND FREE ENERGY PREDICTED BY IDOCK:   -0.66 KCAL/MOL
REMARK 927      BINDING AFFINITY PREDICTED BY RF-SCORE:    0.00 PKD
ROOT
HETATM    1  C   UNL     1      -6.913   4.105  68.969  1.00  0.00    -0.047 C  
HETATM    2  C   UNL     1      -5.874   4.773  68.064  1.00  0.00    -0.022 C  
HETATM    3  C   UNL     1      -6.697   5.478  66.989  1.00  0.00    -0.062 C  
HETATM    4  C   UNL     1      -8.152   5.168  67.354  1.00  0.00    -0.100 C  
HETATM    5  N   UNL     1      -8.009   3.874  68.022  1.00  0.00    -0.080 NA 
HETATM    6  C   UNL     1      -8.733   6.242  68.276  1.00  0.00    -0.115 C  
HETATM    7  C   UNL     1      -8.202   6.209  69.722  1.00  0.00    -0.123 C  
HETATM    8  C   UNL     1      -9.229   3.321  68.587  1.00  0.00    -0.172 C  
HETATM    9  C   UNL     1      -7.306   5.030  70.127  1.00  0.00    -0.059 C  
ENDROOT
BRANCH   7  10
HETATM   10  O   UNL     1      -7.536   7.462  69.940  1.00  0.00    -0.086 OA 
BRANCH  10  11
HETATM   11  C   UNL     1      -8.042   8.144  71.012  1.00  0.00    -0.100 C  
HETATM   12  O   UNL     1      -7.748   7.894  72.173  1.00  0.00    -0.087 OA 
BRANCH  11  13
HETATM   13  C   UNL     1      -9.067   9.100  70.614  1.00  0.00    -0.307 A  
HETATM   14  C   UNL     1      -8.946  10.057  69.618  1.00  0.00    -0.202 A  
HETATM   15  N   UNL     1     -10.148  10.694  69.477  1.00  0.00    -0.385 NA 
HETATM   16  H   UNL     1     -10.337  11.444  68.811  1.00  0.00     0.000 HD 
HETATM   17  C   UNL     1     -11.065  10.176  70.361  1.00  0.00    -0.324 A  
HETATM   18  C   UNL     1     -12.409  10.509  70.562  1.00  0.00    -0.432 A  
HETATM   19  C   UNL     1     -13.116   9.794  71.536  1.00  0.00    -0.506 A  
HETATM   20  C   UNL     1     -12.501   8.784  72.271  1.00  0.00    -0.455 A  
HETATM   21  C   UNL     1     -11.158   8.464  72.056  1.00  0.00    -0.397 A  
HETATM   22  C   UNL     1     -10.417   9.176  71.089  1.00  0.00    -0.385 A  
ENDBRANCH  11  13
ENDBRANCH  10  11
ENDBRANCH   7  10
TORSDOF 3
ENDMDL
MODEL      195
REMARK 921   NORMALIZED FREE ENERGY PREDICTED BY IDOCK:   -3.97 KCAL/MOL
REMARK 922        TOTAL FREE ENERGY PREDICTED BY IDOCK:   -5.11 KCAL/MOL
REMARK 923 INTER-LIGAND FREE ENERGY PREDICTED BY IDOCK:   -4.48 KCAL/MOL
REMARK 924 INTRA-LIGAND FREE ENERGY PREDICTED BY IDOCK:   -0.63 KCAL/MOL
REMARK 927      BINDING AFFINITY PREDICTED BY RF-SCORE:    0.00 PKD
ROOT
HETATM    1  C   UNL     1     -12.869  13.870  64.996  1.00  0.00    -0.268 C  
HETATM    2  C   UNL     1     -13.075  12.496  64.351  1.00  0.00    -0.076 C  
HETATM    3  C   UNL     1     -11.732  12.173  63.700  1.00  0.00    -0.588 C  
HETATM    4  C   UNL     1     -10.849  13.382  64.021  1.00  0.00    -0.184 C  
HETATM    5  N   UNL     1     -11.847  14.447  64.117  1.00  0.00    -0.344 NA 
HETATM    6  C   UNL     1     -10.082  13.178  65.330  1.00  0.00    -0.250 C  
HETATM    7  C   UNL     1     -10.942  13.276  66.604  1.00  0.00    -0.283 C  
HETATM    8  C   UNL     1     -11.338  15.752  64.508  1.00  0.00    -0.316 C  
HETATM    9  C   UNL     1     -12.400  13.728  66.449  1.00  0.00    -0.460 C  
ENDROOT
BRANCH   7  10
HETATM   10  O   UNL     1     -10.865  11.993  67.246  1.00  0.00    -0.227 OA 
BRANCH  10  11
HETATM   11  C   UNL     1      -9.721  11.842  67.979  1.00  0.00    -0.185 C  
HETATM   12  O   UNL     1      -9.175  12.759  68.578  1.00  0.00    -0.164 OA 
BRANCH  11  13
HETATM   13  C   UNL     1      -9.163  10.503  67.846  1.00  0.00    -0.143 A  
HETATM   14  C   UNL     1      -9.185   9.511  68.814  1.00  0.00    -0.140 A  
HETATM   15  N   UNL     1      -8.652   8.370  68.282  1.00  0.00    -0.138 NA 
HETATM   16  H   UNL     1      -8.548   7.485  68.781  1.00  0.00     0.000 HD 
HETATM   17  C   UNL     1      -8.275   8.587  66.978  1.00  0.00    -0.107 A  
HETATM   18  C   UNL     1      -7.700   7.711  66.049  1.00  0.00    -0.090 A  
HETATM   19  C   UNL     1      -7.433   8.208  64.769  1.00  0.00    -0.094 A  
HETATM   20  C   UNL     1      -7.737   9.525  64.433  1.00  0.00    -0.123 A  
HETATM   21  C   UNL     1      -8.311  10.385  65.372  1.00  0.00    -0.166 A  
HETATM   22  C   UNL     1      -8.582   9.915  66.675  1.00  0.00    -0.130 A  
ENDBRANCH  11  13
ENDBRANCH  10  11
ENDBRANCH   7  10
TORSDOF 3
ENDMDL
MODEL      196
REMARK 921   NORMALIZED FREE ENERGY PREDICTED BY IDOCK:   -3.97 KCAL/MOL
REMARK 922        TOTAL FREE ENERGY PREDICTED BY IDOCK:   -5.10 KCAL/MOL
REMARK 923 INTER-LIGAND FREE ENERGY PREDICTED BY IDOCK:   -5.30 KCAL/MOL
REMARK 924 INTRA-LIGAND FREE ENERGY PREDICTED BY IDOCK:    0.19 KCAL/MOL
REMARK 927      BINDING AFFINITY PREDICTED BY RF-SCORE:    0.00 PKD
ROOT
HETATM    1  C   UNL     1      -7.586   9.358  65.583  1.00  0.00    -0.095 C  
HETATM    2  C   UNL     1      -8.344   8.223  64.890  1.00  0.00    -0.145 C  
HETATM    3  C   UNL     1      -8.932   7.399  66.033  1.00  0.00    -0.156 C  
HETATM    4  C   UNL     1      -8.473   8.122  67.302  1.00  0.00    -0.125 C  
HETATM    5  N   UNL     1      -7.217   8.722  66.851  1.00  0.00    -0.078 NA 
HETATM    6  C   UNL     1      -9.497   9.171  67.744  1.00  0.00    -0.160 C  
HETATM    7  C   UNL     1      -9.553  10.432  66.862  1.00  0.00    -0.172 C  
HETATM    8  C   UNL     1      -6.546   9.577  67.818  1.00  0.00    -0.062 C  
HETATM    9  C   UNL     1      -8.488  10.586  65.768  1.00  0.00    -0.177 C  
ENDROOT
BRANCH   7  10
HETATM   10  O   UNL     1     -10.875  10.481  66.305  1.00  0.00    -0.125 OA 
BRANCH  10  11
HETATM   11  C   UNL     1     -11.195  11.721  65.826  1.00  0.00    -0.281 C  
HETATM   12  O   UNL     1     -11.213  12.002  64.634  1.00  0.00    -0.311 OA 
BRANCH  11  13
HETATM   13  C   UNL     1     -11.374  12.690  66.899  1.00  0.00    -0.373 A  
HETATM   14  C   UNL     1     -11.363  14.069  66.762  1.00  0.00    -0.334 A  
HETATM   15  N   UNL     1     -11.660  14.630  67.973  1.00  0.00    -0.326 NA 
HETATM   16  H   UNL     1     -11.720  15.633  68.153  1.00  0.00     0.000 HD 
HETATM   17  C   UNL     1     -11.869  13.648  68.912  1.00  0.00    -0.364 A  
HETATM   18  C   UNL     1     -12.205  13.754  70.266  1.00  0.00    -0.429 A  
HETATM   19  C   UNL     1     -12.373  12.566  70.987  1.00  0.00    -0.307 A  
HETATM   20  C   UNL     1     -12.217  11.326  70.373  1.00  0.00    -0.453 A  
HETATM   21  C   UNL     1     -11.883  11.239  69.020  1.00  0.00    -0.421 A  
HETATM   22  C   UNL     1     -11.696  12.420  68.269  1.00  0.00    -0.398 A  
ENDBRANCH  11  13
ENDBRANCH  10  11
ENDBRANCH   7  10
TORSDOF 3
ENDMDL
MODEL      197
REMARK 921   NORMALIZED FREE ENERGY PREDICTED BY IDOCK:   -3.96 KCAL/MOL
REMARK 922        TOTAL FREE ENERGY PREDICTED BY IDOCK:   -5.09 KCAL/MOL
REMARK 923 INTER-LIGAND FREE ENERGY PREDICTED BY IDOCK:   -4.38 KCAL/MOL
REMARK 924 INTRA-LIGAND FREE ENERGY PREDICTED BY IDOCK:   -0.71 KCAL/MOL
REMARK 927      BINDING AFFINITY PREDICTED BY RF-SCORE:    0.00 PKD
ROOT
HETATM    1  C   UNL     1      -8.455   5.410  69.298  1.00  0.00    -0.099 C  
HETATM    2  C   UNL     1      -9.551   4.995  68.312  1.00  0.00    -0.187 C  
HETATM    3  C   UNL     1     -10.623   6.073  68.453  1.00  0.00    -0.322 C  
HETATM    4  C   UNL     1     -10.065   7.033  69.508  1.00  0.00    -0.173 C  
HETATM    5  N   UNL     1      -9.238   6.129  70.308  1.00  0.00    -0.155 NA 
HETATM    6  C   UNL     1      -9.250   8.155  68.861  1.00  0.00    -0.147 C  
HETATM    7  C   UNL     1      -7.879   7.722  68.310  1.00  0.00    -0.121 C  
HETATM    8  C   UNL     1      -8.474   6.756  71.375  1.00  0.00    -0.120 C  
HETATM    9  C   UNL     1      -7.406   6.294  68.611  1.00  0.00    -0.086 C  
ENDROOT
BRANCH   7  10
HETATM   10  O   UNL     1      -7.914   7.966  66.895  1.00  0.00    -0.105 OA 
BRANCH  10  11
HETATM   11  C   UNL     1      -7.586   9.255  66.578  1.00  0.00    -0.093 C  
HETATM   12  O   UNL     1      -6.761   9.916  67.196  1.00  0.00    -0.073 OA 
BRANCH  11  13
HETATM   13  C   UNL     1      -8.428   9.784  65.514  1.00  0.00    -0.150 A  
HETATM   14  C   UNL     1      -8.365   9.435  64.174  1.00  0.00    -0.168 A  
HETATM   15  N   UNL     1      -9.377  10.071  63.509  1.00  0.00    -0.302 NA 
HETATM   16  H   UNL     1      -9.561   9.988  62.508  1.00  0.00     0.000 HD 
HETATM   17  C   UNL     1     -10.111  10.836  64.384  1.00  0.00    -0.353 A  
HETATM   18  C   UNL     1     -11.233  11.640  64.154  1.00  0.00    -0.421 A  
HETATM   19  C   UNL     1     -11.793  12.302  65.252  1.00  0.00    -0.411 A  
HETATM   20  C   UNL     1     -11.254  12.158  66.528  1.00  0.00    -0.378 A  
HETATM   21  C   UNL     1     -10.134  11.350  66.740  1.00  0.00    -0.250 A  
HETATM   22  C   UNL     1      -9.540  10.678  65.649  1.00  0.00    -0.268 A  
ENDBRANCH  11  13
ENDBRANCH  10  11
ENDBRANCH   7  10
TORSDOF 3
ENDMDL
MODEL      198
REMARK 921   NORMALIZED FREE ENERGY PREDICTED BY IDOCK:   -3.95 KCAL/MOL
REMARK 922        TOTAL FREE ENERGY PREDICTED BY IDOCK:   -5.08 KCAL/MOL
REMARK 923 INTER-LIGAND FREE ENERGY PREDICTED BY IDOCK:   -4.62 KCAL/MOL
REMARK 924 INTRA-LIGAND FREE ENERGY PREDICTED BY IDOCK:   -0.46 KCAL/MOL
REMARK 927      BINDING AFFINITY PREDICTED BY RF-SCORE:    0.00 PKD
ROOT
HETATM    1  C   UNL     1      -8.445   9.901  65.752  1.00  0.00    -0.135 C  
HETATM    2  C   UNL     1      -7.850  10.364  67.084  1.00  0.00    -0.110 C  
HETATM    3  C   UNL     1      -8.986  11.118  67.771  1.00  0.00    -0.139 C  
HETATM    4  C   UNL     1     -10.156  11.030  66.787  1.00  0.00    -0.220 C  
HETATM    5  N   UNL     1      -9.448  10.944  65.509  1.00  0.00    -0.200 NA 
HETATM    6  C   UNL     1     -11.021   9.798  67.061  1.00  0.00    -0.059 C  
HETATM    7  C   UNL     1     -10.382   8.457  66.658  1.00  0.00    -0.228 C  
HETATM    8  C   UNL     1     -10.287  10.756  64.337  1.00  0.00    -0.335 C  
HETATM    9  C   UNL     1      -9.058   8.500  65.883  1.00  0.00    -0.237 C  
ENDROOT
BRANCH   7  10
HETATM   10  O   UNL     1     -10.248   7.690  67.865  1.00  0.00    -0.179 OA 
BRANCH  10  11
HETATM   11  C   UNL     1     -10.448   6.353  67.660  1.00  0.00    -0.228 C  
HETATM   12  O   UNL     1     -10.999   5.895  66.668  1.00  0.00    -0.287 OA 
BRANCH  11  13
HETATM   13  C   UNL     1     -10.052   5.561  68.817  1.00  0.00    -0.256 A  
HETATM   14  C   UNL     1      -8.984   4.680  68.875  1.00  0.00    -0.108 A  
HETATM   15  N   UNL     1      -8.879   4.204  70.153  1.00  0.00    -0.077 NA 
HETATM   16  H   UNL     1      -8.175   3.538  70.473  1.00  0.00     0.000 HD 
HETATM   17  C   UNL     1      -9.859   4.754  70.945  1.00  0.00    -0.209 A  
HETATM   18  C   UNL     1     -10.127   4.568  72.306  1.00  0.00    -0.253 A  
HETATM   19  C   UNL     1     -11.196   5.281  72.859  1.00  0.00    -0.375 A  
HETATM   20  C   UNL     1     -11.959   6.148  72.082  1.00  0.00    -0.314 A  
HETATM   21  C   UNL     1     -11.677   6.323  70.725  1.00  0.00    -0.289 A  
HETATM   22  C   UNL     1     -10.612   5.609  70.136  1.00  0.00    -0.380 A  
ENDBRANCH  11  13
ENDBRANCH  10  11
ENDBRANCH   7  10
TORSDOF 3
ENDMDL
MODEL      199
REMARK 921   NORMALIZED FREE ENERGY PREDICTED BY IDOCK:   -3.93 KCAL/MOL
REMARK 922        TOTAL FREE ENERGY PREDICTED BY IDOCK:   -5.06 KCAL/MOL
REMARK 923 INTER-LIGAND FREE ENERGY PREDICTED BY IDOCK:   -4.62 KCAL/MOL
REMARK 924 INTRA-LIGAND FREE ENERGY PREDICTED BY IDOCK:   -0.43 KCAL/MOL
REMARK 927      BINDING AFFINITY PREDICTED BY RF-SCORE:    0.00 PKD
ROOT
HETATM    1  C   UNL     1     -10.230  15.568  68.846  1.00  0.00    -0.210 C  
HETATM    2  C   UNL     1     -11.525  14.912  69.333  1.00  0.00    -0.324 C  
HETATM    3  C   UNL     1     -12.053  14.155  68.117  1.00  0.00    -0.297 C  
HETATM    4  C   UNL     1     -11.021  14.426  67.018  1.00  0.00    -0.304 C  
HETATM    5  N   UNL     1     -10.517  15.740  67.418  1.00  0.00    -0.291 NA 
HETATM    6  C   UNL     1      -9.927  13.356  67.009  1.00  0.00    -0.246 C  
HETATM    7  C   UNL     1      -8.929  13.443  68.178  1.00  0.00    -0.188 C  
HETATM    8  C   UNL     1      -9.428  16.267  66.610  1.00  0.00    -0.248 C  
HETATM    9  C   UNL     1      -9.023  14.659  69.109  1.00  0.00    -0.025 C  
ENDROOT
BRANCH   7  10
HETATM   10  O   UNL     1      -9.059  12.218  68.916  1.00  0.00     0.071 OA 
BRANCH  10  11
HETATM   11  C   UNL     1      -8.604  11.135  68.217  1.00  0.00    -0.146 C  
HETATM   12  O   UNL     1      -7.651  11.176  67.450  1.00  0.00    -0.103 OA 
BRANCH  11  13
HETATM   13  C   UNL     1      -9.467   9.974  68.390  1.00  0.00    -0.146 A  
HETATM   14  C   UNL     1     -10.163   9.319  67.386  1.00  0.00    -0.243 A  
HETATM   15  N   UNL     1     -10.780   8.224  67.926  1.00  0.00    -0.459 NA 
HETATM   16  H   UNL     1     -11.359   7.564  67.405  1.00  0.00     0.000 HD 
HETATM   17  C   UNL     1     -10.506   8.140  69.270  1.00  0.00    -0.214 A  
HETATM   18  C   UNL     1     -10.911   7.190  70.214  1.00  0.00    -0.271 A  
HETATM   19  C   UNL     1     -10.460   7.349  71.529  1.00  0.00    -0.219 A  
HETATM   20  C   UNL     1      -9.634   8.413  71.880  1.00  0.00    -0.324 A  
HETATM   21  C   UNL     1      -9.238   9.353  70.924  1.00  0.00    -0.242 A  
HETATM   22  C   UNL     1      -9.686   9.224  69.592  1.00  0.00    -0.192 A  
ENDBRANCH  11  13
ENDBRANCH  10  11
ENDBRANCH   7  10
TORSDOF 3
ENDMDL
MODEL      200
REMARK 921   NORMALIZED FREE ENERGY PREDICTED BY IDOCK:   -3.91 KCAL/MOL
REMARK 922        TOTAL FREE ENERGY PREDICTED BY IDOCK:   -5.03 KCAL/MOL
REMARK 923 INTER-LIGAND FREE ENERGY PREDICTED BY IDOCK:   -4.71 KCAL/MOL
REMARK 924 INTRA-LIGAND FREE ENERGY PREDICTED BY IDOCK:   -0.32 KCAL/MOL
REMARK 927      BINDING AFFINITY PREDICTED BY RF-SCORE:    0.00 PKD
ROOT
HETATM    1  C   UNL     1     -12.154  14.085  66.782  1.00  0.00    -0.447 C  
HETATM    2  C   UNL     1     -11.782  14.233  65.304  1.00  0.00    -0.357 C  
HETATM    3  C   UNL     1     -10.495  15.055  65.313  1.00  0.00    -0.428 C  
HETATM    4  C   UNL     1     -10.217  15.316  66.796  1.00  0.00    -0.272 C  
HETATM    5  N   UNL     1     -11.572  15.307  67.346  1.00  0.00    -0.255 NA 
HETATM    6  C   UNL     1      -9.333  14.221  67.396  1.00  0.00    -0.203 C  
HETATM    7  C   UNL     1     -10.036  12.868  67.610  1.00  0.00    -0.218 C  
HETATM    8  C   UNL     1     -11.664  15.444  68.791  1.00  0.00    -0.351 C  
HETATM    9  C   UNL     1     -11.551  12.805  67.373  1.00  0.00    -0.415 C  
ENDROOT
BRANCH   7  10
HETATM   10  O   UNL     1      -9.345  11.915  66.787  1.00  0.00    -0.189 OA 
BRANCH  10  11
HETATM   11  C   UNL     1      -8.525  11.095  67.512  1.00  0.00    -0.126 C  
HETATM   12  O   UNL     1      -7.397  11.410  67.869  1.00  0.00    -0.086 OA 
BRANCH  11  13
HETATM   13  C   UNL     1      -9.098   9.767  67.683  1.00  0.00    -0.140 A  
HETATM   14  C   UNL     1     -10.294   9.319  67.143  1.00  0.00    -0.260 A  
HETATM   15  N   UNL     1     -10.440   7.993  67.447  1.00  0.00    -0.320 NA 
HETATM   16  H   UNL     1     -11.234   7.415  67.169  1.00  0.00     0.000 HD 
HETATM   17  C   UNL     1      -9.364   7.554  68.181  1.00  0.00    -0.136 A  
HETATM   18  C   UNL     1      -9.084   6.284  68.696  1.00  0.00    -0.126 A  
HETATM   19  C   UNL     1      -7.887   6.119  69.402  1.00  0.00    -0.100 A  
HETATM   20  C   UNL     1      -7.005   7.182  69.576  1.00  0.00    -0.058 A  
HETATM   21  C   UNL     1      -7.300   8.444  69.053  1.00  0.00    -0.088 A  
HETATM   22  C   UNL     1      -8.506   8.643  68.346  1.00  0.00    -0.131 A  
ENDBRANCH  11  13
ENDBRANCH  10  11
ENDBRANCH   7  10
TORSDOF 3
ENDMDL
MODEL      201
REMARK 921   NORMALIZED FREE ENERGY PREDICTED BY IDOCK:   -3.91 KCAL/MOL
REMARK 922        TOTAL FREE ENERGY PREDICTED BY IDOCK:   -5.03 KCAL/MOL
REMARK 923 INTER-LIGAND FREE ENERGY PREDICTED BY IDOCK:   -4.40 KCAL/MOL
REMARK 924 INTRA-LIGAND FREE ENERGY PREDICTED BY IDOCK:   -0.63 KCAL/MOL
REMARK 927      BINDING AFFINITY PREDICTED BY RF-SCORE:    0.00 PKD
ROOT
HETATM    1  C   UNL     1     -11.295  16.216  68.157  1.00  0.00    -0.270 C  
HETATM    2  C   UNL     1     -10.246  16.786  67.198  1.00  0.00    -0.295 C  
HETATM    3  C   UNL     1      -8.907  16.387  67.812  1.00  0.00    -0.189 C  
HETATM    4  C   UNL     1      -9.281  15.612  69.078  1.00  0.00    -0.243 C  
HETATM    5  N   UNL     1     -10.559  16.232  69.425  1.00  0.00    -0.279 NA 
HETATM    6  C   UNL     1      -9.415  14.114  68.793  1.00  0.00    -0.102 C  
HETATM    7  C   UNL     1     -10.672  13.718  67.996  1.00  0.00    -0.250 C  
HETATM    8  C   UNL     1     -11.250  15.652  70.566  1.00  0.00    -0.362 C  
HETATM    9  C   UNL     1     -11.720  14.806  67.728  1.00  0.00    -0.368 C  
ENDROOT
BRANCH   7  10
HETATM   10  O   UNL     1     -10.208  13.136  66.768  1.00  0.00    -0.245 OA 
BRANCH  10  11
HETATM   11  C   UNL     1     -10.712  11.882  66.560  1.00  0.00    -0.258 C  
HETATM   12  O   UNL     1     -11.565  11.625  65.721  1.00  0.00    -0.284 OA 
BRANCH  11  13
HETATM   13  C   UNL     1     -10.215  10.927  67.542  1.00  0.00    -0.224 A  
HETATM   14  C   UNL     1     -10.978  10.260  68.488  1.00  0.00    -0.247 A  
HETATM   15  N   UNL     1     -10.171   9.381  69.158  1.00  0.00    -0.194 NA 
HETATM   16  H   UNL     1     -10.479   8.762  69.908  1.00  0.00     0.000 HD 
HETATM   17  C   UNL     1      -8.887   9.454  68.673  1.00  0.00    -0.132 A  
HETATM   18  C   UNL     1      -7.743   8.739  69.046  1.00  0.00    -0.091 A  
HETATM   19  C   UNL     1      -6.555   9.013  68.358  1.00  0.00    -0.059 A  
HETATM   20  C   UNL     1      -6.519   9.958  67.336  1.00  0.00    -0.068 A  
HETATM   21  C   UNL     1      -7.671  10.661  66.976  1.00  0.00    -0.117 A  
HETATM   22  C   UNL     1      -8.882  10.414  67.660  1.00  0.00    -0.124 A  
ENDBRANCH  11  13
ENDBRANCH  10  11
ENDBRANCH   7  10
TORSDOF 3
ENDMDL
MODEL      202
REMARK 921   NORMALIZED FREE ENERGY PREDICTED BY IDOCK:   -3.89 KCAL/MOL
REMARK 922        TOTAL FREE ENERGY PREDICTED BY IDOCK:   -5.01 KCAL/MOL
REMARK 923 INTER-LIGAND FREE ENERGY PREDICTED BY IDOCK:   -4.59 KCAL/MOL
REMARK 924 INTRA-LIGAND FREE ENERGY PREDICTED BY IDOCK:   -0.43 KCAL/MOL
REMARK 927      BINDING AFFINITY PREDICTED BY RF-SCORE:    0.00 PKD
ROOT
HETATM    1  C   UNL     1      -9.766   8.603  69.145  1.00  0.00    -0.173 C  
HETATM    2  C   UNL     1      -8.257   8.843  69.233  1.00  0.00    -0.114 C  
HETATM    3  C   UNL     1      -7.719   8.414  67.870  1.00  0.00    -0.103 C  
HETATM    4  C   UNL     1      -8.959   7.961  67.094  1.00  0.00    -0.129 C  
HETATM    5  N   UNL     1      -9.823   7.499  68.180  1.00  0.00    -0.154 NA 
HETATM    6  C   UNL     1      -9.575   9.119  66.307  1.00  0.00    -0.321 C  
HETATM    7  C   UNL     1     -10.308  10.166  67.166  1.00  0.00    -0.238 C  
HETATM    8  C   UNL     1     -11.155   7.071  67.784  1.00  0.00    -0.089 C  
HETATM    9  C   UNL     1     -10.495   9.862  68.658  1.00  0.00    -0.231 C  
ENDROOT
BRANCH   7  10
HETATM   10  O   UNL     1      -9.613  11.408  66.975  1.00  0.00    -0.174 OA 
BRANCH  10  11
HETATM   11  C   UNL     1     -10.433  12.402  66.519  1.00  0.00    -0.230 C  
HETATM   12  O   UNL     1     -11.159  12.286  65.540  1.00  0.00    -0.287 OA 
BRANCH  11  13
HETATM   13  C   UNL     1     -10.236  13.648  67.248  1.00  0.00    -0.246 A  
HETATM   14  C   UNL     1      -9.781  13.766  68.552  1.00  0.00    -0.193 A  
HETATM   15  N   UNL     1      -9.637  15.094  68.846  1.00  0.00    -0.214 NA 
HETATM   16  H   UNL     1      -9.315  15.463  69.742  1.00  0.00     0.000 HD 
HETATM   17  C   UNL     1      -9.988  15.860  67.759  1.00  0.00    -0.229 A  
HETATM   18  C   UNL     1      -9.987  17.250  67.600  1.00  0.00    -0.297 A  
HETATM   19  C   UNL     1     -10.384  17.761  66.360  1.00  0.00    -0.351 A  
HETATM   20  C   UNL     1     -10.760  16.913  65.322  1.00  0.00    -0.147 A  
HETATM   21  C   UNL     1     -10.754  15.527  65.498  1.00  0.00    -0.395 A  
HETATM   22  C   UNL     1     -10.369  14.982  66.742  1.00  0.00    -0.270 A  
ENDBRANCH  11  13
ENDBRANCH  10  11
ENDBRANCH   7  10
TORSDOF 3
ENDMDL
MODEL      203
REMARK 921   NORMALIZED FREE ENERGY PREDICTED BY IDOCK:   -3.88 KCAL/MOL
REMARK 922        TOTAL FREE ENERGY PREDICTED BY IDOCK:   -4.99 KCAL/MOL
REMARK 923 INTER-LIGAND FREE ENERGY PREDICTED BY IDOCK:   -4.55 KCAL/MOL
REMARK 924 INTRA-LIGAND FREE ENERGY PREDICTED BY IDOCK:   -0.44 KCAL/MOL
REMARK 927      BINDING AFFINITY PREDICTED BY RF-SCORE:    0.00 PKD
ROOT
HETATM    1  C   UNL     1     -13.003  13.811  65.210  1.00  0.00    -0.278 C  
HETATM    2  C   UNL     1     -13.111  12.371  64.702  1.00  0.00     0.108 C  
HETATM    3  C   UNL     1     -12.012  12.251  63.649  1.00  0.00    -0.633 C  
HETATM    4  C   UNL     1     -11.347  13.631  63.630  1.00  0.00     0.168 C  
HETATM    5  N   UNL     1     -12.462  14.490  64.028  1.00  0.00    -0.811 NA 
HETATM    6  C   UNL     1     -10.176  13.697  64.613  1.00  0.00    -0.338 C  
HETATM    7  C   UNL     1     -10.581  13.744  66.098  1.00  0.00    -0.291 C  
HETATM    8  C   UNL     1     -12.141  15.899  64.198  1.00  0.00     0.182 C  
HETATM    9  C   UNL     1     -12.073  13.894  66.427  1.00  0.00    -0.489 C  
ENDROOT
BRANCH   7  10
HETATM   10  O   UNL     1     -10.035  12.563  66.706  1.00  0.00    -0.220 OA 
BRANCH  10  11
HETATM   11  C   UNL     1      -9.842  12.710  68.052  1.00  0.00    -0.218 C  
HETATM   12  O   UNL     1     -10.641  12.326  68.896  1.00  0.00    -0.211 OA 
BRANCH  11  13
HETATM   13  C   UNL     1      -8.650  13.493  68.349  1.00  0.00    -0.142 A  
HETATM   14  C   UNL     1      -7.361  12.999  68.471  1.00  0.00    -0.115 A  
HETATM   15  N   UNL     1      -6.507  14.052  68.656  1.00  0.00    -0.085 NA 
HETATM   16  H   UNL     1      -5.496  13.970  68.774  1.00  0.00     0.000 HD 
HETATM   17  C   UNL     1      -7.207  15.235  68.659  1.00  0.00    -0.121 A  
HETATM   18  C   UNL     1      -6.751  16.550  68.803  1.00  0.00    -0.170 A  
HETATM   19  C   UNL     1      -7.702  17.575  68.749  1.00  0.00    -0.252 A  
HETATM   20  C   UNL     1      -9.051  17.293  68.551  1.00  0.00    -0.269 A  
HETATM   21  C   UNL     1      -9.488  15.974  68.407  1.00  0.00    -0.207 A  
HETATM   22  C   UNL     1      -8.554  14.917  68.469  1.00  0.00    -0.162 A  
ENDBRANCH  11  13
ENDBRANCH  10  11
ENDBRANCH   7  10
TORSDOF 3
ENDMDL
MODEL      204
REMARK 921   NORMALIZED FREE ENERGY PREDICTED BY IDOCK:   -3.87 KCAL/MOL
REMARK 922        TOTAL FREE ENERGY PREDICTED BY IDOCK:   -4.99 KCAL/MOL
REMARK 923 INTER-LIGAND FREE ENERGY PREDICTED BY IDOCK:   -4.28 KCAL/MOL
REMARK 924 INTRA-LIGAND FREE ENERGY PREDICTED BY IDOCK:   -0.71 KCAL/MOL
REMARK 927      BINDING AFFINITY PREDICTED BY RF-SCORE:    0.00 PKD
ROOT
HETATM    1  C   UNL     1     -11.119   7.763  72.818  1.00  0.00    -0.398 C  
HETATM    2  C   UNL     1     -10.338   6.892  73.805  1.00  0.00    -0.409 C  
HETATM    3  C   UNL     1     -10.516   5.468  73.285  1.00  0.00    -0.255 C  
HETATM    4  C   UNL     1     -11.384   5.622  72.033  1.00  0.00    -0.176 C  
HETATM    5  N   UNL     1     -12.150   6.824  72.363  1.00  0.00    -0.152 NA 
HETATM    6  C   UNL     1     -10.525   5.801  70.780  1.00  0.00    -0.324 C  
HETATM    7  C   UNL     1      -9.837   7.173  70.658  1.00  0.00    -0.182 C  
HETATM    8  C   UNL     1     -13.036   7.312  71.318  1.00  0.00    -0.328 C  
HETATM    9  C   UNL     1     -10.212   8.253  71.682  1.00  0.00    -0.286 C  
ENDROOT
BRANCH   7  10
HETATM   10  O   UNL     1      -8.423   6.923  70.667  1.00  0.00    -0.133 OA 
BRANCH  10  11
HETATM   11  C   UNL     1      -7.717   7.883  69.998  1.00  0.00    -0.089 C  
HETATM   12  O   UNL     1      -7.030   8.729  70.554  1.00  0.00    -0.039 OA 
BRANCH  11  13
HETATM   13  C   UNL     1      -7.992   7.863  68.567  1.00  0.00    -0.121 A  
HETATM   14  C   UNL     1      -7.799   6.786  67.715  1.00  0.00    -0.113 A  
HETATM   15  N   UNL     1      -8.262   7.124  66.473  1.00  0.00    -0.113 NA 
HETATM   16  H   UNL     1      -8.243   6.512  65.656  1.00  0.00     0.000 HD 
HETATM   17  C   UNL     1      -8.758   8.406  66.486  1.00  0.00    -0.134 A  
HETATM   18  C   UNL     1      -9.337   9.157  65.456  1.00  0.00    -0.287 A  
HETATM   19  C   UNL     1      -9.774  10.450  65.764  1.00  0.00    -0.285 A  
HETATM   20  C   UNL     1      -9.641  10.965  67.051  1.00  0.00    -0.197 A  
HETATM   21  C   UNL     1      -9.062  10.201  68.067  1.00  0.00    -0.131 A  
HETATM   22  C   UNL     1      -8.602   8.896  67.784  1.00  0.00    -0.125 A  
ENDBRANCH  11  13
ENDBRANCH  10  11
ENDBRANCH   7  10
TORSDOF 3
ENDMDL
MODEL      205
REMARK 921   NORMALIZED FREE ENERGY PREDICTED BY IDOCK:   -3.85 KCAL/MOL
REMARK 922        TOTAL FREE ENERGY PREDICTED BY IDOCK:   -4.96 KCAL/MOL
REMARK 923 INTER-LIGAND FREE ENERGY PREDICTED BY IDOCK:   -4.24 KCAL/MOL
REMARK 924 INTRA-LIGAND FREE ENERGY PREDICTED BY IDOCK:   -0.72 KCAL/MOL
REMARK 927      BINDING AFFINITY PREDICTED BY RF-SCORE:    0.00 PKD
ROOT
HETATM    1  C   UNL     1      -9.566   5.686  66.409  1.00  0.00    -0.157 C  
HETATM    2  C   UNL     1      -9.890   4.485  67.301  1.00  0.00    -0.216 C  
HETATM    3  C   UNL     1      -8.554   4.108  67.938  1.00  0.00    -0.107 C  
HETATM    4  C   UNL     1      -7.558   5.122  67.369  1.00  0.00    -0.088 C  
HETATM    5  N   UNL     1      -8.164   5.420  66.071  1.00  0.00    -0.114 NA 
HETATM    6  C   UNL     1      -7.453   6.359  68.263  1.00  0.00    -0.091 C  
HETATM    7  C   UNL     1      -8.672   7.299  68.213  1.00  0.00    -0.125 C  
HETATM    8  C   UNL     1      -7.495   6.445  65.285  1.00  0.00    -0.081 C  
HETATM    9  C   UNL     1      -9.759   7.003  67.170  1.00  0.00    -0.206 C  
ENDROOT
BRANCH   7  10
HETATM   10  O   UNL     1      -9.222   7.324  69.539  1.00  0.00    -0.149 OA 
BRANCH  10  11
HETATM   11  C   UNL     1      -8.934   8.484  70.203  1.00  0.00    -0.147 C  
HETATM   12  O   UNL     1      -7.864   8.699  70.757  1.00  0.00    -0.084 OA 
BRANCH  11  13
HETATM   13  C   UNL     1     -10.092   9.364  70.287  1.00  0.00    -0.288 A  
HETATM   14  C   UNL     1     -11.043   9.365  71.296  1.00  0.00    -0.376 A  
HETATM   15  N   UNL     1     -11.914  10.396  71.073  1.00  0.00    -0.367 NA 
HETATM   16  H   UNL     1     -12.713  10.625  71.666  1.00  0.00     0.000 HD 
HETATM   17  C   UNL     1     -11.559  11.079  69.933  1.00  0.00    -0.337 A  
HETATM   18  C   UNL     1     -12.148  12.197  69.333  1.00  0.00    -0.247 A  
HETATM   19  C   UNL     1     -11.553  12.697  68.169  1.00  0.00    -0.386 A  
HETATM   20  C   UNL     1     -10.412  12.104  67.635  1.00  0.00    -0.225 A  
HETATM   21  C   UNL     1      -9.836  10.989  68.249  1.00  0.00    -0.185 A  
HETATM   22  C   UNL     1     -10.420  10.455  69.418  1.00  0.00    -0.261 A  
ENDBRANCH  11  13
ENDBRANCH  10  11
ENDBRANCH   7  10
TORSDOF 3
ENDMDL
MODEL      206
REMARK 921   NORMALIZED FREE ENERGY PREDICTED BY IDOCK:   -3.85 KCAL/MOL
REMARK 922        TOTAL FREE ENERGY PREDICTED BY IDOCK:   -4.96 KCAL/MOL
REMARK 923 INTER-LIGAND FREE ENERGY PREDICTED BY IDOCK:   -4.32 KCAL/MOL
REMARK 924 INTRA-LIGAND FREE ENERGY PREDICTED BY IDOCK:   -0.64 KCAL/MOL
REMARK 927      BINDING AFFINITY PREDICTED BY RF-SCORE:    0.00 PKD
ROOT
HETATM    1  C   UNL     1     -11.074   8.571  70.114  1.00  0.00    -0.188 C  
HETATM    2  C   UNL     1     -10.184   9.609  70.803  1.00  0.00    -0.330 C  
HETATM    3  C   UNL     1      -9.159   8.783  71.577  1.00  0.00    -0.322 C  
HETATM    4  C   UNL     1      -9.530   7.328  71.274  1.00  0.00    -0.155 C  
HETATM    5  N   UNL     1     -10.971   7.443  71.047  1.00  0.00    -0.247 NA 
HETATM    6  C   UNL     1      -8.782   6.810  70.044  1.00  0.00    -0.141 C  
HETATM    7  C   UNL     1      -9.277   7.375  68.700  1.00  0.00    -0.143 C  
HETATM    8  C   UNL     1     -11.642   6.219  70.638  1.00  0.00    -0.281 C  
HETATM    9  C   UNL     1     -10.546   8.240  68.713  1.00  0.00    -0.152 C  
ENDROOT
BRANCH   7  10
HETATM   10  O   UNL     1      -8.171   8.091  68.128  1.00  0.00    -0.123 OA 
BRANCH  10  11
HETATM   11  C   UNL     1      -8.507   8.732  66.968  1.00  0.00    -0.109 C  
HETATM   12  O   UNL     1      -8.920   8.154  65.970  1.00  0.00    -0.166 OA 
BRANCH  11  13
HETATM   13  C   UNL     1      -8.185  10.151  67.018  1.00  0.00    -0.118 A  
HETATM   14  C   UNL     1      -6.919  10.705  66.903  1.00  0.00    -0.100 A  
HETATM   15  N   UNL     1      -7.037  12.068  66.902  1.00  0.00    -0.338 NA 
HETATM   16  H   UNL     1      -6.257  12.721  66.828  1.00  0.00     0.000 HD 
HETATM   17  C   UNL     1      -8.359  12.428  67.015  1.00  0.00    -0.157 A  
HETATM   18  C   UNL     1      -8.946  13.699  67.045  1.00  0.00    -0.244 A  
HETATM   19  C   UNL     1     -10.339  13.766  67.153  1.00  0.00    -0.261 A  
HETATM   20  C   UNL     1     -11.111  12.609  67.221  1.00  0.00    -0.320 A  
HETATM   21  C   UNL     1     -10.508  11.349  67.188  1.00  0.00    -0.259 A  
HETATM   22  C   UNL     1      -9.103  11.249  67.091  1.00  0.00    -0.160 A  
ENDBRANCH  11  13
ENDBRANCH  10  11
ENDBRANCH   7  10
TORSDOF 3
ENDMDL
MODEL      207
REMARK 921   NORMALIZED FREE ENERGY PREDICTED BY IDOCK:   -3.82 KCAL/MOL
REMARK 922        TOTAL FREE ENERGY PREDICTED BY IDOCK:   -4.93 KCAL/MOL
REMARK 923 INTER-LIGAND FREE ENERGY PREDICTED BY IDOCK:   -4.66 KCAL/MOL
REMARK 924 INTRA-LIGAND FREE ENERGY PREDICTED BY IDOCK:   -0.26 KCAL/MOL
REMARK 927      BINDING AFFINITY PREDICTED BY RF-SCORE:    0.00 PKD
ROOT
HETATM    1  C   UNL     1     -10.744  13.337  64.401  1.00  0.00    -0.415 C  
HETATM    2  C   UNL     1     -10.341  14.644  65.091  1.00  0.00    -0.431 C  
HETATM    3  C   UNL     1     -11.366  14.820  66.208  1.00  0.00    -0.334 C  
HETATM    4  C   UNL     1     -12.283  13.600  66.085  1.00  0.00    -0.444 C  
HETATM    5  N   UNL     1     -12.189  13.316  64.653  1.00  0.00    -0.422 NA 
HETATM    6  C   UNL     1     -11.781  12.439  66.946  1.00  0.00    -0.432 C  
HETATM    7  C   UNL     1     -10.520  11.736  66.412  1.00  0.00    -0.235 C  
HETATM    8  C   UNL     1     -12.895  12.128  64.200  1.00  0.00    -0.236 C  
HETATM    9  C   UNL     1     -10.011  12.141  65.022  1.00  0.00    -0.242 C  
ENDROOT
BRANCH   7  10
HETATM   10  O   UNL     1      -9.500  11.915  67.407  1.00  0.00    -0.172 OA 
BRANCH  10  11
HETATM   11  C   UNL     1      -8.333  11.284  67.080  1.00  0.00    -0.151 C  
HETATM   12  O   UNL     1      -7.283  11.874  66.860  1.00  0.00    -0.138 OA 
BRANCH  11  13
HETATM   13  C   UNL     1      -8.523   9.852  66.893  1.00  0.00    -0.125 A  
HETATM   14  C   UNL     1      -9.240   9.009  67.727  1.00  0.00    -0.140 A  
HETATM   15  N   UNL     1      -9.269   7.762  67.166  1.00  0.00    -0.141 NA 
HETATM   16  H   UNL     1      -9.733   6.949  67.573  1.00  0.00     0.000 HD 
HETATM   17  C   UNL     1      -8.584   7.762  65.974  1.00  0.00    -0.151 A  
HETATM   18  C   UNL     1      -8.366   6.725  65.061  1.00  0.00    -0.052 A  
HETATM   19  C   UNL     1      -7.635   7.021  63.905  1.00  0.00    -0.109 A  
HETATM   20  C   UNL     1      -7.150   8.306  63.673  1.00  0.00    -0.086 A  
HETATM   21  C   UNL     1      -7.379   9.330  64.594  1.00  0.00    -0.101 A  
HETATM   22  C   UNL     1      -8.104   9.059  65.775  1.00  0.00    -0.109 A  
ENDBRANCH  11  13
ENDBRANCH  10  11
ENDBRANCH   7  10
TORSDOF 3
ENDMDL
MODEL      208
REMARK 921   NORMALIZED FREE ENERGY PREDICTED BY IDOCK:   -3.81 KCAL/MOL
REMARK 922        TOTAL FREE ENERGY PREDICTED BY IDOCK:   -4.92 KCAL/MOL
REMARK 923 INTER-LIGAND FREE ENERGY PREDICTED BY IDOCK:   -4.36 KCAL/MOL
REMARK 924 INTRA-LIGAND FREE ENERGY PREDICTED BY IDOCK:   -0.56 KCAL/MOL
REMARK 927      BINDING AFFINITY PREDICTED BY RF-SCORE:    0.00 PKD
ROOT
HETATM    1  C   UNL     1     -11.224   8.521  70.400  1.00  0.00    -0.211 C  
HETATM    2  C   UNL     1     -10.902   7.154  69.789  1.00  0.00    -0.261 C  
HETATM    3  C   UNL     1      -9.796   7.438  68.776  1.00  0.00    -0.164 C  
HETATM    4  C   UNL     1      -9.558   8.947  68.879  1.00  0.00    -0.160 C  
HETATM    5  N   UNL     1     -10.881   9.417  69.291  1.00  0.00    -0.208 NA 
HETATM    6  C   UNL     1      -8.475   9.269  69.911  1.00  0.00    -0.170 C  
HETATM    7  C   UNL     1      -8.904   9.082  71.378  1.00  0.00    -0.150 C  
HETATM    8  C   UNL     1     -10.984  10.841  69.570  1.00  0.00    -0.266 C  
HETATM    9  C   UNL     1     -10.381   8.772  71.656  1.00  0.00    -0.391 C  
ENDROOT
BRANCH   7  10
HETATM   10  O   UNL     1      -8.052   8.064  71.925  1.00  0.00    -0.102 OA 
BRANCH  10  11
HETATM   11  C   UNL     1      -8.259   7.871  73.263  1.00  0.00    -0.182 C  
HETATM   12  O   UNL     1      -7.730   8.549  74.134  1.00  0.00    -0.344 OA 
BRANCH  11  13
HETATM   13  C   UNL     1      -9.066   6.687  73.523  1.00  0.00    -0.146 A  
HETATM   14  C   UNL     1      -9.969   6.529  74.563  1.00  0.00    -0.334 A  
HETATM   15  N   UNL     1     -10.599   5.324  74.413  1.00  0.00    -0.307 NA 
HETATM   16  H   UNL     1     -11.314   4.957  75.043  1.00  0.00     0.000 HD 
HETATM   17  C   UNL     1     -10.130   4.680  73.293  1.00  0.00    -0.160 A  
HETATM   18  C   UNL     1     -10.491   3.441  72.750  1.00  0.00    -0.211 A  
HETATM   19  C   UNL     1      -9.849   3.038  71.574  1.00  0.00    -0.192 A  
HETATM   20  C   UNL     1      -8.891   3.846  70.966  1.00  0.00    -0.134 A  
HETATM   21  C   UNL     1      -8.545   5.080  71.521  1.00  0.00    -0.129 A  
HETATM   22  C   UNL     1      -9.167   5.509  72.714  1.00  0.00    -0.137 A  
ENDBRANCH  11  13
ENDBRANCH  10  11
ENDBRANCH   7  10
TORSDOF 3
ENDMDL
MODEL      209
REMARK 921   NORMALIZED FREE ENERGY PREDICTED BY IDOCK:   -3.80 KCAL/MOL
REMARK 922        TOTAL FREE ENERGY PREDICTED BY IDOCK:   -4.90 KCAL/MOL
REMARK 923 INTER-LIGAND FREE ENERGY PREDICTED BY IDOCK:   -4.29 KCAL/MOL
REMARK 924 INTRA-LIGAND FREE ENERGY PREDICTED BY IDOCK:   -0.61 KCAL/MOL
REMARK 927      BINDING AFFINITY PREDICTED BY RF-SCORE:    0.00 PKD
ROOT
HETATM    1  C   UNL     1      -9.073  11.482  67.844  1.00  0.00    -0.167 C  
HETATM    2  C   UNL     1     -10.002  10.426  68.448  1.00  0.00    -0.177 C  
HETATM    3  C   UNL     1     -11.372  10.730  67.846  1.00  0.00    -0.372 C  
HETATM    4  C   UNL     1     -11.132  11.938  66.936  1.00  0.00    -0.305 C  
HETATM    5  N   UNL     1     -10.009  12.587  67.613  1.00  0.00    -0.198 NA 
HETATM    6  C   UNL     1     -10.781  11.498  65.512  1.00  0.00    -0.328 C  
HETATM    7  C   UNL     1      -9.371  10.902  65.349  1.00  0.00    -0.208 C  
HETATM    8  C   UNL     1      -9.460  13.754  66.942  1.00  0.00    -0.262 C  
HETATM    9  C   UNL     1      -8.423  10.968  66.554  1.00  0.00    -0.161 C  
ENDROOT
BRANCH   7  10
HETATM   10  O   UNL     1      -9.551   9.547  64.907  1.00  0.00    -0.246 OA 
BRANCH  10  11
HETATM   11  C   UNL     1      -8.378   8.965  64.513  1.00  0.00    -0.170 C  
HETATM   12  O   UNL     1      -7.693   9.382  63.587  1.00  0.00    -0.114 OA 
BRANCH  11  13
HETATM   13  C   UNL     1      -8.119   7.724  65.229  1.00  0.00    -0.133 A  
HETATM   14  C   UNL     1      -6.948   6.983  65.180  1.00  0.00    -0.052 A  
HETATM   15  N   UNL     1      -7.053   5.942  66.060  1.00  0.00    -0.072 NA 
HETATM   16  H   UNL     1      -6.330   5.240  66.224  1.00  0.00     0.000 HD 
HETATM   17  C   UNL     1      -8.274   5.977  66.692  1.00  0.00    -0.106 A  
HETATM   18  C   UNL     1      -8.807   5.127  67.668  1.00  0.00    -0.105 A  
HETATM   19  C   UNL     1     -10.088   5.418  68.150  1.00  0.00    -0.220 A  
HETATM   20  C   UNL     1     -10.800   6.518  67.679  1.00  0.00    -0.419 A  
HETATM   21  C   UNL     1     -10.251   7.357  66.706  1.00  0.00    -0.313 A  
HETATM   22  C   UNL     1      -8.965   7.083  66.192  1.00  0.00    -0.162 A  
ENDBRANCH  11  13
ENDBRANCH  10  11
ENDBRANCH   7  10
TORSDOF 3
ENDMDL
MODEL      210
REMARK 921   NORMALIZED FREE ENERGY PREDICTED BY IDOCK:   -3.79 KCAL/MOL
REMARK 922        TOTAL FREE ENERGY PREDICTED BY IDOCK:   -4.89 KCAL/MOL
REMARK 923 INTER-LIGAND FREE ENERGY PREDICTED BY IDOCK:   -4.90 KCAL/MOL
REMARK 924 INTRA-LIGAND FREE ENERGY PREDICTED BY IDOCK:    0.01 KCAL/MOL
REMARK 927      BINDING AFFINITY PREDICTED BY RF-SCORE:    0.00 PKD
ROOT
HETATM    1  C   UNL     1      -9.921  12.024  65.216  1.00  0.00    -0.247 C  
HETATM    2  C   UNL     1     -10.493  12.464  63.866  1.00  0.00    -0.469 C  
HETATM    3  C   UNL     1     -12.002  12.533  64.092  1.00  0.00    -0.508 C  
HETATM    4  C   UNL     1     -12.188  12.132  65.558  1.00  0.00    -0.018 C  
HETATM    5  N   UNL     1     -11.040  11.248  65.761  1.00  0.00    -0.152 NA 
HETATM    6  C   UNL     1     -12.155  13.355  66.477  1.00  0.00    -0.444 C  
HETATM    7  C   UNL     1     -10.762  13.982  66.668  1.00  0.00    -0.281 C  
HETATM    8  C   UNL     1     -10.864  10.746  67.114  1.00  0.00    -0.277 C  
HETATM    9  C   UNL     1      -9.556  13.238  66.079  1.00  0.00    -0.174 C  
ENDROOT
BRANCH   7  10
HETATM   10  O   UNL     1     -10.844  15.320  66.153  1.00  0.00    -0.316 OA 
BRANCH  10  11
HETATM   11  C   UNL     1     -10.217  16.230  66.957  1.00  0.00    -0.280 C  
HETATM   12  O   UNL     1      -9.730  17.275  66.546  1.00  0.00    -0.264 OA 
BRANCH  11  13
HETATM   13  C   UNL     1     -10.078  15.744  68.324  1.00  0.00    -0.222 A  
HETATM   14  C   UNL     1      -8.884  15.502  68.985  1.00  0.00    -0.242 A  
HETATM   15  N   UNL     1      -9.165  15.150  70.277  1.00  0.00    -0.168 NA 
HETATM   16  H   UNL     1      -8.467  14.918  70.984  1.00  0.00     0.000 HD 
HETATM   17  C   UNL     1     -10.524  15.154  70.484  1.00  0.00    -0.004 A  
HETATM   18  C   UNL     1     -11.259  14.872  71.641  1.00  0.00    -0.082 A  
HETATM   19  C   UNL     1     -12.653  14.973  71.564  1.00  0.00    -0.410 A  
HETATM   20  C   UNL     1     -13.281  15.346  70.379  1.00  0.00    -0.139 A  
HETATM   21  C   UNL     1     -12.531  15.626  69.234  1.00  0.00     0.085 A  
HETATM   22  C   UNL     1     -11.124  15.522  69.277  1.00  0.00    -0.285 A  
ENDBRANCH  11  13
ENDBRANCH  10  11
ENDBRANCH   7  10
TORSDOF 3
ENDMDL
MODEL      211
REMARK 921   NORMALIZED FREE ENERGY PREDICTED BY IDOCK:   -3.76 KCAL/MOL
REMARK 922        TOTAL FREE ENERGY PREDICTED BY IDOCK:   -4.86 KCAL/MOL
REMARK 923 INTER-LIGAND FREE ENERGY PREDICTED BY IDOCK:   -4.09 KCAL/MOL
REMARK 924 INTRA-LIGAND FREE ENERGY PREDICTED BY IDOCK:   -0.77 KCAL/MOL
REMARK 927      BINDING AFFINITY PREDICTED BY RF-SCORE:    0.00 PKD
ROOT
HETATM    1  C   UNL     1     -10.241   8.599  68.370  1.00  0.00    -0.200 C  
HETATM    2  C   UNL     1      -8.793   8.166  68.128  1.00  0.00    -0.132 C  
HETATM    3  C   UNL     1      -7.970   9.025  69.085  1.00  0.00    -0.101 C  
HETATM    4  C   UNL     1      -9.005   9.889  69.812  1.00  0.00    -0.221 C  
HETATM    5  N   UNL     1     -10.055   9.989  68.799  1.00  0.00    -0.176 NA 
HETATM    6  C   UNL     1      -9.491   9.210  71.094  1.00  0.00    -0.331 C  
HETATM    7  C   UNL     1     -10.426   8.006  70.874  1.00  0.00    -0.202 C  
HETATM    8  C   UNL     1     -11.260  10.692  69.210  1.00  0.00    -0.273 C  
HETATM    9  C   UNL     1     -10.903   7.724  69.443  1.00  0.00    -0.121 C  
ENDROOT
BRANCH   7  10
HETATM   10  O   UNL     1      -9.755   6.863  71.428  1.00  0.00    -0.174 OA 
BRANCH  10  11
HETATM   11  C   UNL     1     -10.602   5.812  71.642  1.00  0.00    -0.245 C  
HETATM   12  O   UNL     1     -11.704   5.926  72.163  1.00  0.00    -0.294 OA 
BRANCH  11  13
HETATM   13  C   UNL     1      -9.983   4.537  71.306  1.00  0.00    -0.258 A  
HETATM   14  C   UNL     1      -9.656   3.529  72.200  1.00  0.00    -0.140 A  
HETATM   15  N   UNL     1      -9.184   2.456  71.494  1.00  0.00    -0.095 NA 
HETATM   16  H   UNL     1      -8.872   1.577  71.907  1.00  0.00     0.000 HD 
HETATM   17  C   UNL     1      -9.192   2.735  70.148  1.00  0.00    -0.135 A  
HETATM   18  C   UNL     1      -8.812   1.938  69.062  1.00  0.00    -0.135 A  
HETATM   19  C   UNL     1      -8.944   2.484  67.780  1.00  0.00    -0.191 A  
HETATM   20  C   UNL     1      -9.443   3.770  67.596  1.00  0.00    -0.234 A  
HETATM   21  C   UNL     1      -9.820   4.551  68.692  1.00  0.00    -0.168 A  
HETATM   22  C   UNL     1      -9.687   4.032  69.998  1.00  0.00    -0.264 A  
ENDBRANCH  11  13
ENDBRANCH  10  11
ENDBRANCH   7  10
TORSDOF 3
ENDMDL
MODEL      212
REMARK 921   NORMALIZED FREE ENERGY PREDICTED BY IDOCK:   -3.70 KCAL/MOL
REMARK 922        TOTAL FREE ENERGY PREDICTED BY IDOCK:   -4.78 KCAL/MOL
REMARK 923 INTER-LIGAND FREE ENERGY PREDICTED BY IDOCK:   -4.19 KCAL/MOL
REMARK 924 INTRA-LIGAND FREE ENERGY PREDICTED BY IDOCK:   -0.59 KCAL/MOL
REMARK 927      BINDING AFFINITY PREDICTED BY RF-SCORE:    0.00 PKD
ROOT
HETATM    1  C   UNL     1     -11.010  15.625  68.480  1.00  0.00    -0.303 C  
HETATM    2  C   UNL     1     -12.182  14.729  68.071  1.00  0.00    -0.028 C  
HETATM    3  C   UNL     1     -11.925  14.407  66.601  1.00  0.00    -0.414 C  
HETATM    4  C   UNL     1     -10.620  15.138  66.270  1.00  0.00    -0.310 C  
HETATM    5  N   UNL     1     -10.680  16.265  67.202  1.00  0.00    -0.288 NA 
HETATM    6  C   UNL     1      -9.405  14.241  66.514  1.00  0.00    -0.292 C  
HETATM    7  C   UNL     1      -9.069  13.995  67.996  1.00  0.00    -0.190 C  
HETATM    8  C   UNL     1      -9.516  17.136  67.211  1.00  0.00    -0.245 C  
HETATM    9  C   UNL     1      -9.854  14.791  69.048  1.00  0.00    -0.206 C  
ENDROOT
BRANCH   7  10
HETATM   10  O   UNL     1      -9.201  12.582  68.214  1.00  0.00    -0.201 OA 
BRANCH  10  11
HETATM   11  C   UNL     1      -7.992  11.951  68.303  1.00  0.00    -0.148 C  
HETATM   12  O   UNL     1      -7.085  12.325  69.035  1.00  0.00    -0.101 OA 
BRANCH  11  13
HETATM   13  C   UNL     1      -7.867  10.874  67.330  1.00  0.00    -0.116 A  
HETATM   14  C   UNL     1      -6.884  10.762  66.359  1.00  0.00    -0.135 A  
HETATM   15  N   UNL     1      -7.048   9.571  65.707  1.00  0.00    -0.093 NA 
HETATM   16  H   UNL     1      -6.458   9.236  64.945  1.00  0.00     0.000 HD 
HETATM   17  C   UNL     1      -8.124   8.890  66.228  1.00  0.00    -0.110 A  
HETATM   18  C   UNL     1      -8.651   7.641  65.883  1.00  0.00    -0.164 A  
HETATM   19  C   UNL     1      -9.759   7.183  66.604  1.00  0.00    -0.233 A  
HETATM   20  C   UNL     1     -10.310   7.944  67.632  1.00  0.00    -0.307 A  
HETATM   21  C   UNL     1      -9.770   9.189  67.964  1.00  0.00    -0.177 A  
HETATM   22  C   UNL     1      -8.659   9.682  67.246  1.00  0.00    -0.132 A  
ENDBRANCH  11  13
ENDBRANCH  10  11
ENDBRANCH   7  10
TORSDOF 3
ENDMDL
MODEL      213
REMARK 921   NORMALIZED FREE ENERGY PREDICTED BY IDOCK:   -3.69 KCAL/MOL
REMARK 922        TOTAL FREE ENERGY PREDICTED BY IDOCK:   -4.78 KCAL/MOL
REMARK 923 INTER-LIGAND FREE ENERGY PREDICTED BY IDOCK:   -4.11 KCAL/MOL
REMARK 924 INTRA-LIGAND FREE ENERGY PREDICTED BY IDOCK:   -0.67 KCAL/MOL
REMARK 927      BINDING AFFINITY PREDICTED BY RF-SCORE:    0.00 PKD
ROOT
HETATM    1  C   UNL     1      -9.606   4.119  68.172  1.00  0.00    -0.134 C  
HETATM    2  C   UNL     1      -8.258   3.948  68.878  1.00  0.00    -0.083 C  
HETATM    3  C   UNL     1      -7.288   4.804  68.067  1.00  0.00    -0.070 C  
HETATM    4  C   UNL     1      -8.148   5.410  66.954  1.00  0.00    -0.105 C  
HETATM    5  N   UNL     1      -9.174   4.380  66.794  1.00  0.00    -0.129 NA 
HETATM    6  C   UNL     1      -8.733   6.759  67.377  1.00  0.00    -0.119 C  
HETATM    7  C   UNL     1      -9.867   6.674  68.416  1.00  0.00    -0.138 C  
HETATM    8  C   UNL     1     -10.233   4.689  65.846  1.00  0.00    -0.276 C  
HETATM    9  C   UNL     1     -10.400   5.282  68.781  1.00  0.00    -0.206 C  
ENDROOT
BRANCH   7  10
HETATM   10  O   UNL     1      -9.401   7.370  69.584  1.00  0.00    -0.150 OA 
BRANCH  10  11
HETATM   11  C   UNL     1     -10.169   8.461  69.883  1.00  0.00    -0.201 C  
HETATM   12  O   UNL     1     -11.304   8.386  70.336  1.00  0.00    -0.250 OA 
BRANCH  11  13
HETATM   13  C   UNL     1      -9.531   9.704  69.473  1.00  0.00    -0.211 A  
HETATM   14  C   UNL     1      -8.260  10.125  69.832  1.00  0.00    -0.109 A  
HETATM   15  N   UNL     1      -7.984  11.291  69.173  1.00  0.00    -0.346 NA 
HETATM   16  H   UNL     1      -7.113  11.817  69.255  1.00  0.00     0.000 HD 
HETATM   17  C   UNL     1      -9.049  11.652  68.383  1.00  0.00    -0.180 A  
HETATM   18  C   UNL     1      -9.208  12.752  67.532  1.00  0.00    -0.191 A  
HETATM   19  C   UNL     1     -10.412  12.859  66.828  1.00  0.00    -0.262 A  
HETATM   20  C   UNL     1     -11.411  11.899  66.965  1.00  0.00    -0.392 A  
HETATM   21  C   UNL     1     -11.235  10.806  67.817  1.00  0.00    -0.385 A  
HETATM   22  C   UNL     1     -10.035  10.677  68.550  1.00  0.00    -0.176 A  
ENDBRANCH  11  13
ENDBRANCH  10  11
ENDBRANCH   7  10
TORSDOF 3
ENDMDL
MODEL      214
REMARK 921   NORMALIZED FREE ENERGY PREDICTED BY IDOCK:   -3.69 KCAL/MOL
REMARK 922        TOTAL FREE ENERGY PREDICTED BY IDOCK:   -4.77 KCAL/MOL
REMARK 923 INTER-LIGAND FREE ENERGY PREDICTED BY IDOCK:   -4.97 KCAL/MOL
REMARK 924 INTRA-LIGAND FREE ENERGY PREDICTED BY IDOCK:    0.20 KCAL/MOL
REMARK 927      BINDING AFFINITY PREDICTED BY RF-SCORE:    0.00 PKD
ROOT
HETATM    1  C   UNL     1      -7.734   9.679  68.306  1.00  0.00    -0.082 C  
HETATM    2  C   UNL     1      -8.194   9.049  66.989  1.00  0.00    -0.109 C  
HETATM    3  C   UNL     1      -9.057   7.862  67.411  1.00  0.00    -0.146 C  
HETATM    4  C   UNL     1      -9.036   7.897  68.941  1.00  0.00    -0.141 C  
HETATM    5  N   UNL     1      -7.733   8.512  69.195  1.00  0.00    -0.089 NA 
HETATM    6  C   UNL     1     -10.194   8.732  69.493  1.00  0.00    -0.208 C  
HETATM    7  C   UNL     1     -10.043  10.252  69.305  1.00  0.00    -0.227 C  
HETATM    8  C   UNL     1      -7.425   8.778  70.591  1.00  0.00    -0.079 C  
HETATM    9  C   UNL     1      -8.707  10.775  68.758  1.00  0.00    -0.163 C  
ENDROOT
BRANCH   7  10
HETATM   10  O   UNL     1     -11.138  10.671  68.476  1.00  0.00    -0.226 OA 
BRANCH  10  11
HETATM   11  C   UNL     1     -10.932  11.902  67.917  1.00  0.00    -0.222 C  
HETATM   12  O   UNL     1     -10.546  12.068  66.767  1.00  0.00    -0.217 OA 
BRANCH  11  13
HETATM   13  C   UNL     1     -11.092  12.974  68.890  1.00  0.00    -0.307 A  
HETATM   14  C   UNL     1     -10.544  14.244  68.801  1.00  0.00    -0.252 A  
HETATM   15  N   UNL     1     -10.999  14.990  69.853  1.00  0.00    -0.282 NA 
HETATM   16  H   UNL     1     -10.751  15.965  70.029  1.00  0.00     0.000 HD 
HETATM   17  C   UNL     1     -11.839  14.238  70.639  1.00  0.00    -0.281 A  
HETATM   18  C   UNL     1     -12.538  14.587  71.801  1.00  0.00    -0.417 A  
HETATM   19  C   UNL     1     -13.345  13.608  72.390  1.00  0.00    -0.641 A  
HETATM   20  C   UNL     1     -13.452  12.336  71.834  1.00  0.00    -0.339 A  
HETATM   21  C   UNL     1     -12.749  12.005  70.673  1.00  0.00    -0.163 A  
HETATM   22  C   UNL     1     -11.917  12.969  70.062  1.00  0.00    -0.383 A  
ENDBRANCH  11  13
ENDBRANCH  10  11
ENDBRANCH   7  10
TORSDOF 3
ENDMDL
MODEL      215
REMARK 921   NORMALIZED FREE ENERGY PREDICTED BY IDOCK:   -3.66 KCAL/MOL
REMARK 922        TOTAL FREE ENERGY PREDICTED BY IDOCK:   -4.74 KCAL/MOL
REMARK 923 INTER-LIGAND FREE ENERGY PREDICTED BY IDOCK:   -4.22 KCAL/MOL
REMARK 924 INTRA-LIGAND FREE ENERGY PREDICTED BY IDOCK:   -0.52 KCAL/MOL
REMARK 927      BINDING AFFINITY PREDICTED BY RF-SCORE:    0.00 PKD
ROOT
HETATM    1  C   UNL     1     -11.119   7.065  72.451  1.00  0.00    -0.259 C  
HETATM    2  C   UNL     1      -9.985   8.085  72.587  1.00  0.00    -0.358 C  
HETATM    3  C   UNL     1      -8.726   7.238  72.758  1.00  0.00    -0.148 C  
HETATM    4  C   UNL     1      -9.225   5.792  72.704  1.00  0.00    -0.137 C  
HETATM    5  N   UNL     1     -10.584   5.939  73.225  1.00  0.00    -0.240 NA 
HETATM    6  C   UNL     1      -9.202   5.250  71.273  1.00  0.00    -0.178 C  
HETATM    7  C   UNL     1     -10.292   5.821  70.348  1.00  0.00    -0.244 C  
HETATM    8  C   UNL     1     -11.392   4.730  73.226  1.00  0.00    -0.322 C  
HETATM    9  C   UNL     1     -11.368   6.715  70.979  1.00  0.00    -0.366 C  
ENDROOT
BRANCH   7  10
HETATM   10  O   UNL     1      -9.607   6.508  69.288  1.00  0.00    -0.139 OA 
BRANCH  10  11
HETATM   11  C   UNL     1     -10.018   6.100  68.050  1.00  0.00    -0.141 C  
HETATM   12  O   UNL     1     -10.407   4.966  67.804  1.00  0.00    -0.106 OA 
BRANCH  11  13
HETATM   13  C   UNL     1      -9.809   7.131  67.041  1.00  0.00    -0.257 A  
HETATM   14  C   UNL     1     -10.464   8.351  66.974  1.00  0.00    -0.305 A  
HETATM   15  N   UNL     1      -9.926   9.078  65.948  1.00  0.00    -0.436 NA 
HETATM   16  H   UNL     1     -10.224  10.017  65.679  1.00  0.00     0.000 HD 
HETATM   17  C   UNL     1      -8.926   8.363  65.333  1.00  0.00    -0.052 A  
HETATM   18  C   UNL     1      -8.101   8.711  64.257  1.00  0.00    -0.158 A  
HETATM   19  C   UNL     1      -7.144   7.776  63.846  1.00  0.00    -0.069 A  
HETATM   20  C   UNL     1      -7.015   6.550  64.492  1.00  0.00    -0.051 A  
HETATM   21  C   UNL     1      -7.846   6.219  65.565  1.00  0.00    -0.101 A  
HETATM   22  C   UNL     1      -8.829   7.137  65.995  1.00  0.00    -0.154 A  
ENDBRANCH  11  13
ENDBRANCH  10  11
ENDBRANCH   7  10
TORSDOF 3
ENDMDL
MODEL      216
REMARK 921   NORMALIZED FREE ENERGY PREDICTED BY IDOCK:   -3.62 KCAL/MOL
REMARK 922        TOTAL FREE ENERGY PREDICTED BY IDOCK:   -4.70 KCAL/MOL
REMARK 923 INTER-LIGAND FREE ENERGY PREDICTED BY IDOCK:   -4.18 KCAL/MOL
REMARK 924 INTRA-LIGAND FREE ENERGY PREDICTED BY IDOCK:   -0.52 KCAL/MOL
REMARK 927      BINDING AFFINITY PREDICTED BY RF-SCORE:    0.00 PKD
ROOT
HETATM    1  C   UNL     1      -8.276   7.581  70.764  1.00  0.00    -0.110 C  
HETATM    2  C   UNL     1      -7.543   8.732  71.458  1.00  0.00    -0.130 C  
HETATM    3  C   UNL     1      -6.575   9.262  70.404  1.00  0.00    -0.068 C  
HETATM    4  C   UNL     1      -6.822   8.380  69.177  1.00  0.00    -0.055 C  
HETATM    5  N   UNL     1      -7.260   7.134  69.805  1.00  0.00    -0.077 NA 
HETATM    6  C   UNL     1      -7.893   8.985  68.266  1.00  0.00    -0.100 C  
HETATM    7  C   UNL     1      -9.331   8.895  68.810  1.00  0.00    -0.137 C  
HETATM    8  C   UNL     1      -7.671   6.080  68.891  1.00  0.00    -0.092 C  
HETATM    9  C   UNL     1      -9.561   8.077  70.088  1.00  0.00    -0.175 C  
ENDROOT
BRANCH   7  10
HETATM   10  O   UNL     1      -9.790  10.246  68.972  1.00  0.00    -0.186 OA 
BRANCH  10  11
HETATM   11  C   UNL     1     -10.908  10.511  68.232  1.00  0.00    -0.248 C  
HETATM   12  O   UNL     1     -11.529   9.656  67.613  1.00  0.00     0.106 OA 
BRANCH  11  13
HETATM   13  C   UNL     1     -11.186  11.939  68.160  1.00  0.00    -0.316 A  
HETATM   14  C   UNL     1     -11.021  12.746  67.044  1.00  0.00    -0.263 A  
HETATM   15  N   UNL     1     -11.479  14.000  67.342  1.00  0.00    -0.329 NA 
HETATM   16  H   UNL     1     -11.476  14.791  66.697  1.00  0.00     0.000 HD 
HETATM   17  C   UNL     1     -11.944  14.040  68.635  1.00  0.00    -0.354 A  
HETATM   18  C   UNL     1     -12.507  15.099  69.356  1.00  0.00    -0.069 A  
HETATM   19  C   UNL     1     -12.912  14.844  70.672  1.00  0.00    -0.389 A  
HETATM   20  C   UNL     1     -12.765  13.580  71.235  1.00  0.00    -0.432 A  
HETATM   21  C   UNL     1     -12.202  12.534  70.500  1.00  0.00    -0.382 A  
HETATM   22  C   UNL     1     -11.773  12.763  69.174  1.00  0.00    -0.375 A  
ENDBRANCH  11  13
ENDBRANCH  10  11
ENDBRANCH   7  10
TORSDOF 3
ENDMDL
MODEL      217
REMARK 921   NORMALIZED FREE ENERGY PREDICTED BY IDOCK:   -3.62 KCAL/MOL
REMARK 922        TOTAL FREE ENERGY PREDICTED BY IDOCK:   -4.69 KCAL/MOL
REMARK 923 INTER-LIGAND FREE ENERGY PREDICTED BY IDOCK:   -4.06 KCAL/MOL
REMARK 924 INTRA-LIGAND FREE ENERGY PREDICTED BY IDOCK:   -0.63 KCAL/MOL
REMARK 927      BINDING AFFINITY PREDICTED BY RF-SCORE:    0.00 PKD
ROOT
HETATM    1  C   UNL     1      -9.239   9.993  66.158  1.00  0.00    -0.165 C  
HETATM    2  C   UNL     1      -8.346   9.403  65.063  1.00  0.00    -0.155 C  
HETATM    3  C   UNL     1      -7.026   9.100  65.766  1.00  0.00    -0.085 C  
HETATM    4  C   UNL     1      -7.255   9.533  67.217  1.00  0.00    -0.087 C  
HETATM    5  N   UNL     1      -8.240  10.600  67.044  1.00  0.00    -0.121 NA 
HETATM    6  C   UNL     1      -7.788   8.376  68.065  1.00  0.00    -0.111 C  
HETATM    7  C   UNL     1      -9.253   7.993  67.787  1.00  0.00    -0.134 C  
HETATM    8  C   UNL     1      -8.754  11.187  68.272  1.00  0.00    -0.151 C  
HETATM    9  C   UNL     1     -10.062   8.896  66.845  1.00  0.00    -0.343 C  
ENDROOT
BRANCH   7  10
HETATM   10  O   UNL     1      -9.238   6.637  67.314  1.00  0.00    -0.122 OA 
BRANCH  10  11
HETATM   11  C   UNL     1     -10.318   5.920  67.747  1.00  0.00    -0.210 C  
HETATM   12  O   UNL     1     -11.404   5.925  67.183  1.00  0.00    -0.013 OA 
BRANCH  11  13
HETATM   13  C   UNL     1     -10.061   5.265  69.023  1.00  0.00    -0.272 A  
HETATM   14  C   UNL     1      -9.116   4.278  69.257  1.00  0.00    -0.122 A  
HETATM   15  N   UNL     1      -9.110   3.988  70.593  1.00  0.00    -0.101 NA 
HETATM   16  H   UNL     1      -8.506   3.295  71.038  1.00  0.00     0.000 HD 
HETATM   17  C   UNL     1     -10.035   4.764  71.251  1.00  0.00    -0.200 A  
HETATM   18  C   UNL     1     -10.363   4.816  72.610  1.00  0.00    -0.253 A  
HETATM   19  C   UNL     1     -11.348   5.728  73.005  1.00  0.00    -0.254 A  
HETATM   20  C   UNL     1     -11.971   6.557  72.076  1.00  0.00    -0.372 A  
HETATM   21  C   UNL     1     -11.630   6.493  70.723  1.00  0.00    -0.437 A  
HETATM   22  C   UNL     1     -10.648   5.575  70.293  1.00  0.00    -0.357 A  
ENDBRANCH  11  13
ENDBRANCH  10  11
ENDBRANCH   7  10
TORSDOF 3
ENDMDL
MODEL      218
REMARK 921   NORMALIZED FREE ENERGY PREDICTED BY IDOCK:   -3.61 KCAL/MOL
REMARK 922        TOTAL FREE ENERGY PREDICTED BY IDOCK:   -4.69 KCAL/MOL
REMARK 923 INTER-LIGAND FREE ENERGY PREDICTED BY IDOCK:   -4.20 KCAL/MOL
REMARK 924 INTRA-LIGAND FREE ENERGY PREDICTED BY IDOCK:   -0.49 KCAL/MOL
REMARK 927      BINDING AFFINITY PREDICTED BY RF-SCORE:    0.00 PKD
ROOT
HETATM    1  C   UNL     1     -10.951  13.700  64.925  1.00  0.00    -0.367 C  
HETATM    2  C   UNL     1      -9.456  13.780  65.245  1.00  0.00     0.321 C  
HETATM    3  C   UNL     1      -9.294  15.098  65.998  1.00  0.00    -0.326 C  
HETATM    4  C   UNL     1     -10.710  15.680  66.062  1.00  0.00    -0.317 C  
HETATM    5  N   UNL     1     -11.303  15.121  64.847  1.00  0.00    -0.402 NA 
HETATM    6  C   UNL     1     -11.438  15.228  67.330  1.00  0.00    -0.246 C  
HETATM    7  C   UNL     1     -11.880  13.753  67.332  1.00  0.00    -0.396 C  
HETATM    8  C   UNL     1     -12.712  15.416  64.643  1.00  0.00     0.451 C  
HETATM    9  C   UNL     1     -11.708  12.955  66.032  1.00  0.00    -0.456 C  
ENDROOT
BRANCH   7  10
HETATM   10  O   UNL     1     -11.187  13.122  68.420  1.00  0.00    -0.240 OA 
BRANCH  10  11
HETATM   11  C   UNL     1     -11.234  11.758  68.349  1.00  0.00    -0.251 C  
HETATM   12  O   UNL     1     -12.243  11.102  68.574  1.00  0.00    -0.600 OA 
BRANCH  11  13
HETATM   13  C   UNL     1      -9.918  11.180  68.112  1.00  0.00    -0.189 A  
HETATM   14  C   UNL     1      -8.712  11.677  68.583  1.00  0.00    -0.083 A  
HETATM   15  N   UNL     1      -7.716  10.808  68.233  1.00  0.00    -0.104 NA 
HETATM   16  H   UNL     1      -6.727  10.932  68.457  1.00  0.00     0.000 HD 
HETATM   17  C   UNL     1      -8.238   9.743  67.537  1.00  0.00    -0.114 A  
HETATM   18  C   UNL     1      -7.600   8.621  66.998  1.00  0.00    -0.084 A  
HETATM   19  C   UNL     1      -8.397   7.674  66.344  1.00  0.00    -0.129 A  
HETATM   20  C   UNL     1      -9.775   7.844  66.242  1.00  0.00    -0.170 A  
HETATM   21  C   UNL     1     -10.396   8.971  66.788  1.00  0.00    -0.310 A  
HETATM   22  C   UNL     1      -9.616   9.948  67.444  1.00  0.00    -0.185 A  
ENDBRANCH  11  13
ENDBRANCH  10  11
ENDBRANCH   7  10
TORSDOF 3
ENDMDL
MODEL      219
REMARK 921   NORMALIZED FREE ENERGY PREDICTED BY IDOCK:   -3.61 KCAL/MOL
REMARK 922        TOTAL FREE ENERGY PREDICTED BY IDOCK:   -4.68 KCAL/MOL
REMARK 923 INTER-LIGAND FREE ENERGY PREDICTED BY IDOCK:   -4.43 KCAL/MOL
REMARK 924 INTRA-LIGAND FREE ENERGY PREDICTED BY IDOCK:   -0.25 KCAL/MOL
REMARK 927      BINDING AFFINITY PREDICTED BY RF-SCORE:    0.00 PKD
ROOT
HETATM    1  C   UNL     1     -10.405   7.831  71.419  1.00  0.00    -0.197 C  
HETATM    2  C   UNL     1      -9.296   8.568  72.176  1.00  0.00    -0.353 C  
HETATM    3  C   UNL     1      -8.092   8.518  71.238  1.00  0.00    -0.166 C  
HETATM    4  C   UNL     1      -8.595   7.760  70.007  1.00  0.00    -0.140 C  
HETATM    5  N   UNL     1      -9.620   6.901  70.600  1.00  0.00    -0.169 NA 
HETATM    6  C   UNL     1      -9.168   8.718  68.961  1.00  0.00    -0.141 C  
HETATM    7  C   UNL     1     -10.531   9.335  69.327  1.00  0.00    -0.218 C  
HETATM    8  C   UNL     1     -10.379   6.087  69.663  1.00  0.00    -0.232 C  
HETATM    9  C   UNL     1     -11.240   8.808  70.582  1.00  0.00    -0.294 C  
ENDROOT
BRANCH   7  10
HETATM   10  O   UNL     1     -10.327  10.754  69.406  1.00  0.00    -0.218 OA 
BRANCH  10  11
HETATM   11  C   UNL     1     -11.212  11.454  68.634  1.00  0.00    -0.243 C  
HETATM   12  O   UNL     1     -12.396  11.162  68.527  1.00  0.00    -0.561 OA 
BRANCH  11  13
HETATM   13  C   UNL     1     -10.551  12.493  67.856  1.00  0.00    -0.233 A  
HETATM   14  C   UNL     1     -11.158  13.331  66.933  1.00  0.00    -0.289 A  
HETATM   15  N   UNL     1     -10.231  14.232  66.486  1.00  0.00    -0.270 NA 
HETATM   16  H   UNL     1     -10.413  14.965  65.800  1.00  0.00     0.000 HD 
HETATM   17  C   UNL     1      -9.020  14.007  67.096  1.00  0.00    -0.232 A  
HETATM   18  C   UNL     1      -7.802  14.684  66.956  1.00  0.00    -0.056 A  
HETATM   19  C   UNL     1      -6.722  14.240  67.727  1.00  0.00    -0.190 A  
HETATM   20  C   UNL     1      -6.860  13.168  68.605  1.00  0.00    -0.099 A  
HETATM   21  C   UNL     1      -8.083  12.505  68.733  1.00  0.00     0.087 A  
HETATM   22  C   UNL     1      -9.188  12.923  67.960  1.00  0.00    -0.212 A  
ENDBRANCH  11  13
ENDBRANCH  10  11
ENDBRANCH   7  10
TORSDOF 3
ENDMDL
MODEL      220
REMARK 921   NORMALIZED FREE ENERGY PREDICTED BY IDOCK:   -3.59 KCAL/MOL
REMARK 922        TOTAL FREE ENERGY PREDICTED BY IDOCK:   -4.66 KCAL/MOL
REMARK 923 INTER-LIGAND FREE ENERGY PREDICTED BY IDOCK:   -4.30 KCAL/MOL
REMARK 924 INTRA-LIGAND FREE ENERGY PREDICTED BY IDOCK:   -0.36 KCAL/MOL
REMARK 927      BINDING AFFINITY PREDICTED BY RF-SCORE:    0.00 PKD
ROOT
HETATM    1  C   UNL     1      -9.001   7.284  73.059  1.00  0.00    -0.138 C  
HETATM    2  C   UNL     1      -7.712   7.108  72.252  1.00  0.00    -0.089 C  
HETATM    3  C   UNL     1      -8.037   6.009  71.244  1.00  0.00    -0.118 C  
HETATM    4  C   UNL     1      -9.492   5.634  71.540  1.00  0.00    -0.150 C  
HETATM    5  N   UNL     1      -9.580   5.939  72.968  1.00  0.00    -0.154 NA 
HETATM    6  C   UNL     1     -10.462   6.469  70.701  1.00  0.00    -0.257 C  
HETATM    7  C   UNL     1     -10.593   7.940  71.137  1.00  0.00    -0.213 C  
HETATM    8  C   UNL     1     -10.896   5.773  73.566  1.00  0.00    -0.237 C  
HETATM    9  C   UNL     1      -9.894   8.364  72.436  1.00  0.00    -0.378 C  
ENDROOT
BRANCH   7  10
HETATM   10  O   UNL     1     -10.145   8.735  70.028  1.00  0.00    -0.182 OA 
BRANCH  10  11
HETATM   11  C   UNL     1     -11.046   9.703  69.681  1.00  0.00    -0.193 C  
HETATM   12  O   UNL     1     -12.057   9.949  70.325  1.00  0.00    -0.207 OA 
BRANCH  11  13
HETATM   13  C   UNL     1     -10.730  10.303  68.392  1.00  0.00    -0.263 A  
HETATM   14  C   UNL     1     -10.873  11.641  68.058  1.00  0.00    -0.215 A  
HETATM   15  N   UNL     1     -10.382  11.831  66.796  1.00  0.00    -0.214 NA 
HETATM   16  H   UNL     1     -10.364  12.725  66.304  1.00  0.00     0.000 HD 
HETATM   17  C   UNL     1      -9.916  10.642  66.285  1.00  0.00    -0.222 A  
HETATM   18  C   UNL     1      -9.324  10.365  65.048  1.00  0.00    -0.279 A  
HETATM   19  C   UNL     1      -8.925   9.046  64.801  1.00  0.00    -0.146 A  
HETATM   20  C   UNL     1      -9.106   8.051  65.758  1.00  0.00    -0.109 A  
HETATM   21  C   UNL     1      -9.698   8.346  66.989  1.00  0.00    -0.268 A  
HETATM   22  C   UNL     1     -10.120   9.665  67.262  1.00  0.00    -0.267 A  
ENDBRANCH  11  13
ENDBRANCH  10  11
ENDBRANCH   7  10
TORSDOF 3
ENDMDL
MODEL      221
REMARK 921   NORMALIZED FREE ENERGY PREDICTED BY IDOCK:   -3.59 KCAL/MOL
REMARK 922        TOTAL FREE ENERGY PREDICTED BY IDOCK:   -4.66 KCAL/MOL
REMARK 923 INTER-LIGAND FREE ENERGY PREDICTED BY IDOCK:   -4.19 KCAL/MOL
REMARK 924 INTRA-LIGAND FREE ENERGY PREDICTED BY IDOCK:   -0.47 KCAL/MOL
REMARK 927      BINDING AFFINITY PREDICTED BY RF-SCORE:    0.00 PKD
ROOT
HETATM    1  C   UNL     1      -8.148   5.859  71.644  1.00  0.00    -0.118 C  
HETATM    2  C   UNL     1      -9.451   5.071  71.798  1.00  0.00    -0.194 C  
HETATM    3  C   UNL     1     -10.290   5.901  72.766  1.00  0.00    -0.222 C  
HETATM    4  C   UNL     1      -9.410   7.111  73.096  1.00  0.00    -0.157 C  
HETATM    5  N   UNL     1      -8.072   6.541  72.940  1.00  0.00    -0.105 NA 
HETATM    6  C   UNL     1      -9.671   8.267  72.129  1.00  0.00    -0.344 C  
HETATM    7  C   UNL     1      -9.116   8.059  70.708  1.00  0.00    -0.145 C  
HETATM    8  C   UNL     1      -6.968   7.475  73.102  1.00  0.00    -0.068 C  
HETATM    9  C   UNL     1      -8.231   6.830  70.459  1.00  0.00    -0.117 C  
ENDROOT
BRANCH   7  10
HETATM   10  O   UNL     1     -10.248   8.068  69.824  1.00  0.00    -0.197 OA 
BRANCH  10  11
HETATM   11  C   UNL     1     -10.160   9.044  68.871  1.00  0.00    -0.196 C  
HETATM   12  O   UNL     1      -9.360   9.016  67.944  1.00  0.00    -0.140 OA 
BRANCH  11  13
HETATM   13  C   UNL     1     -11.029  10.174  69.169  1.00  0.00    -0.270 A  
HETATM   14  C   UNL     1     -12.146  10.150  69.989  1.00  0.00    -0.095 A  
HETATM   15  N   UNL     1     -12.638  11.422  70.095  1.00  0.00    -0.155 NA 
HETATM   16  H   UNL     1     -13.458  11.688  70.642  1.00  0.00     0.000 HD 
HETATM   17  C   UNL     1     -11.867  12.290  69.359  1.00  0.00    -0.310 A  
HETATM   18  C   UNL     1     -11.986  13.674  69.185  1.00  0.00    -0.394 A  
HETATM   19  C   UNL     1     -11.035  14.310  68.381  1.00  0.00    -0.267 A  
HETATM   20  C   UNL     1     -10.004  13.591  67.783  1.00  0.00    -0.232 A  
HETATM   21  C   UNL     1      -9.899  12.210  67.968  1.00  0.00    -0.202 A  
HETATM   22  C   UNL     1     -10.851  11.538  68.766  1.00  0.00    -0.258 A  
ENDBRANCH  11  13
ENDBRANCH  10  11
ENDBRANCH   7  10
TORSDOF 3
ENDMDL
MODEL      222
REMARK 921   NORMALIZED FREE ENERGY PREDICTED BY IDOCK:   -3.57 KCAL/MOL
REMARK 922        TOTAL FREE ENERGY PREDICTED BY IDOCK:   -4.64 KCAL/MOL
REMARK 923 INTER-LIGAND FREE ENERGY PREDICTED BY IDOCK:   -4.37 KCAL/MOL
REMARK 924 INTRA-LIGAND FREE ENERGY PREDICTED BY IDOCK:   -0.27 KCAL/MOL
REMARK 927      BINDING AFFINITY PREDICTED BY RF-SCORE:    0.00 PKD
ROOT
HETATM    1  C   UNL     1      -9.126   9.807  65.627  1.00  0.00    -0.178 C  
HETATM    2  C   UNL     1      -8.470   8.476  65.251  1.00  0.00    -0.192 C  
HETATM    3  C   UNL     1      -7.441   8.229  66.352  1.00  0.00    -0.080 C  
HETATM    4  C   UNL     1      -7.582   9.435  67.285  1.00  0.00    -0.091 C  
HETATM    5  N   UNL     1      -8.035  10.467  66.352  1.00  0.00    -0.125 NA 
HETATM    6  C   UNL     1      -8.599   9.162  68.395  1.00  0.00    -0.129 C  
HETATM    7  C   UNL     1     -10.069   9.153  67.937  1.00  0.00    -0.199 C  
HETATM    8  C   UNL     1      -8.357  11.755  66.947  1.00  0.00    -0.170 C  
HETATM    9  C   UNL     1     -10.370   9.579  66.494  1.00  0.00    -0.263 C  
ENDROOT
BRANCH   7  10
HETATM   10  O   UNL     1     -10.569   7.832  68.199  1.00  0.00    -0.193 OA 
BRANCH  10  11
HETATM   11  C   UNL     1     -10.660   7.563  69.536  1.00  0.00    -0.236 C  
HETATM   12  O   UNL     1     -10.934   8.406  70.380  1.00  0.00    -0.238 OA 
BRANCH  11  13
HETATM   13  C   UNL     1     -10.260   6.196  69.844  1.00  0.00    -0.246 A  
HETATM   14  C   UNL     1      -9.479   5.375  69.045  1.00  0.00    -0.133 A  
HETATM   15  N   UNL     1      -9.243   4.208  69.718  1.00  0.00    -0.126 NA 
HETATM   16  H   UNL     1      -8.693   3.427  69.358  1.00  0.00     0.000 HD 
HETATM   17  C   UNL     1      -9.854   4.240  70.950  1.00  0.00    -0.189 A  
HETATM   18  C   UNL     1      -9.873   3.281  71.970  1.00  0.00    -0.240 A  
HETATM   19  C   UNL     1     -10.573   3.595  73.140  1.00  0.00    -0.269 A  
HETATM   20  C   UNL     1     -11.219   4.819  73.283  1.00  0.00    -0.421 A  
HETATM   21  C   UNL     1     -11.189   5.765  72.255  1.00  0.00    -0.333 A  
HETATM   22  C   UNL     1     -10.500   5.473  71.058  1.00  0.00    -0.314 A  
ENDBRANCH  11  13
ENDBRANCH  10  11
ENDBRANCH   7  10
TORSDOF 3
ENDMDL
MODEL      223
REMARK 921   NORMALIZED FREE ENERGY PREDICTED BY IDOCK:   -3.57 KCAL/MOL
REMARK 922        TOTAL FREE ENERGY PREDICTED BY IDOCK:   -4.63 KCAL/MOL
REMARK 923 INTER-LIGAND FREE ENERGY PREDICTED BY IDOCK:   -4.54 KCAL/MOL
REMARK 924 INTRA-LIGAND FREE ENERGY PREDICTED BY IDOCK:   -0.09 KCAL/MOL
REMARK 927      BINDING AFFINITY PREDICTED BY RF-SCORE:    0.00 PKD
ROOT
HETATM    1  C   UNL     1      -5.964  18.293  67.790  1.00  0.00    -0.162 C  
HETATM    2  C   UNL     1      -6.831  19.202  68.665  1.00  0.00    -0.320 C  
HETATM    3  C   UNL     1      -7.907  19.733  67.720  1.00  0.00    -0.326 C  
HETATM    4  C   UNL     1      -7.584  19.087  66.369  1.00  0.00    -0.263 C  
HETATM    5  N   UNL     1      -6.134  18.917  66.474  1.00  0.00    -0.165 NA 
HETATM    6  C   UNL     1      -8.319  17.756  66.201  1.00  0.00    -0.171 C  
HETATM    7  C   UNL     1      -7.768  16.600  67.057  1.00  0.00    -0.200 C  
HETATM    8  C   UNL     1      -5.500  18.230  65.359  1.00  0.00    -0.177 C  
HETATM    9  C   UNL     1      -6.469  16.845  67.836  1.00  0.00    -0.152 C  
ENDROOT
BRANCH   7  10
HETATM   10  O   UNL     1      -8.831  16.204  67.939  1.00  0.00    -0.180 OA 
BRANCH  10  11
HETATM   11  C   UNL     1      -8.716  14.905  68.346  1.00  0.00    -0.172 C  
HETATM   12  O   UNL     1      -7.787  14.488  69.027  1.00  0.00    -0.137 OA 
BRANCH  11  13
HETATM   13  C   UNL     1      -9.747  14.058  67.762  1.00  0.00    -0.228 A  
HETATM   14  C   UNL     1     -11.045  14.442  67.465  1.00  0.00    -0.302 A  
HETATM   15  N   UNL     1     -11.676  13.400  66.842  1.00  0.00    -0.367 NA 
HETATM   16  H   UNL     1     -12.643  13.415  66.514  1.00  0.00     0.000 HD 
HETATM   17  C   UNL     1     -10.820  12.332  66.721  1.00  0.00    -0.253 A  
HETATM   18  C   UNL     1     -11.028  11.072  66.147  1.00  0.00    -0.157 A  
HETATM   19  C   UNL     1      -9.955  10.173  66.151  1.00  0.00    -0.310 A  
HETATM   20  C   UNL     1      -8.726  10.526  66.702  1.00  0.00    -0.138 A  
HETATM   21  C   UNL     1      -8.536  11.788  67.269  1.00  0.00    -0.160 A  
HETATM   22  C   UNL     1      -9.603  12.712  67.290  1.00  0.00    -0.203 A  
ENDBRANCH  11  13
ENDBRANCH  10  11
ENDBRANCH   7  10
TORSDOF 3
ENDMDL
MODEL      224
REMARK 921   NORMALIZED FREE ENERGY PREDICTED BY IDOCK:   -3.55 KCAL/MOL
REMARK 922        TOTAL FREE ENERGY PREDICTED BY IDOCK:   -4.61 KCAL/MOL
REMARK 923 INTER-LIGAND FREE ENERGY PREDICTED BY IDOCK:   -4.83 KCAL/MOL
REMARK 924 INTRA-LIGAND FREE ENERGY PREDICTED BY IDOCK:    0.23 KCAL/MOL
REMARK 927      BINDING AFFINITY PREDICTED BY RF-SCORE:    0.00 PKD
ROOT
HETATM    1  C   UNL     1      -8.314  10.733  67.254  1.00  0.00    -0.124 C  
HETATM    2  C   UNL     1      -9.525  11.428  67.882  1.00  0.00    -0.174 C  
HETATM    3  C   UNL     1     -10.665  11.175  66.899  1.00  0.00    -0.322 C  
HETATM    4  C   UNL     1     -10.030  10.347  65.778  1.00  0.00    -0.270 C  
HETATM    5  N   UNL     1      -8.645  10.816  65.828  1.00  0.00    -0.181 NA 
HETATM    6  C   UNL     1     -10.151   8.848  66.058  1.00  0.00    -0.098 C  
HETATM    7  C   UNL     1      -9.230   8.322  67.175  1.00  0.00    -0.144 C  
HETATM    8  C   UNL     1      -7.722  10.149  64.922  1.00  0.00    -0.143 C  
HETATM    9  C   UNL     1      -8.189   9.289  67.757  1.00  0.00    -0.115 C  
ENDROOT
BRANCH   7  10
HETATM   10  O   UNL     1     -10.091   7.810  68.204  1.00  0.00    -0.172 OA 
BRANCH  10  11
HETATM   11  C   UNL     1      -9.603   8.046  69.459  1.00  0.00    -0.164 C  
HETATM   12  O   UNL     1      -8.570   7.550  69.889  1.00  0.00    -0.137 OA 
BRANCH  11  13
HETATM   13  C   UNL     1     -10.525   8.841  70.260  1.00  0.00    -0.231 A  
HETATM   14  C   UNL     1     -10.419  10.198  70.519  1.00  0.00    -0.105 A  
HETATM   15  N   UNL     1     -11.523  10.596  71.223  1.00  0.00    -0.116 NA 
HETATM   16  H   UNL     1     -11.699  11.549  71.543  1.00  0.00     0.000 HD 
HETATM   17  C   UNL     1     -12.359   9.526  71.436  1.00  0.00    -0.364 A  
HETATM   18  C   UNL     1     -13.594   9.465  72.092  1.00  0.00    -0.528 A  
HETATM   19  C   UNL     1     -14.240   8.225  72.144  1.00  0.00    -0.460 A  
HETATM   20  C   UNL     1     -13.675   7.096  71.556  1.00  0.00    -0.413 A  
HETATM   21  C   UNL     1     -12.442   7.175  70.904  1.00  0.00    -0.302 A  
HETATM   22  C   UNL     1     -11.761   8.411  70.845  1.00  0.00    -0.269 A  
ENDBRANCH  11  13
ENDBRANCH  10  11
ENDBRANCH   7  10
TORSDOF 3
ENDMDL
MODEL      225
REMARK 921   NORMALIZED FREE ENERGY PREDICTED BY IDOCK:   -3.53 KCAL/MOL
REMARK 922        TOTAL FREE ENERGY PREDICTED BY IDOCK:   -4.58 KCAL/MOL
REMARK 923 INTER-LIGAND FREE ENERGY PREDICTED BY IDOCK:   -4.05 KCAL/MOL
REMARK 924 INTRA-LIGAND FREE ENERGY PREDICTED BY IDOCK:   -0.54 KCAL/MOL
REMARK 927      BINDING AFFINITY PREDICTED BY RF-SCORE:    0.00 PKD
ROOT
HETATM    1  C   UNL     1     -10.832   9.524  69.091  1.00  0.00    -0.173 C  
HETATM    2  C   UNL     1     -10.739   8.050  68.689  1.00  0.00    -0.066 C  
HETATM    3  C   UNL     1     -10.093   8.069  67.305  1.00  0.00    -0.309 C  
HETATM    4  C   UNL     1      -9.856   9.553  67.013  1.00  0.00    -0.190 C  
HETATM    5  N   UNL     1     -10.938  10.171  67.779  1.00  0.00    -0.294 NA 
HETATM    6  C   UNL     1      -8.472   9.999  67.490  1.00  0.00    -0.118 C  
HETATM    7  C   UNL     1      -8.323  10.120  69.018  1.00  0.00    -0.138 C  
HETATM    8  C   UNL     1     -10.951  11.626  67.789  1.00  0.00    -0.233 C  
HETATM    9  C   UNL     1      -9.586   9.958  69.874  1.00  0.00    -0.265 C  
ENDROOT
BRANCH   7  10
HETATM   10  O   UNL     1      -7.313   9.175  69.404  1.00  0.00    -0.071 OA 
BRANCH  10  11
HETATM   11  C   UNL     1      -7.407   8.817  70.720  1.00  0.00    -0.080 C  
HETATM   12  O   UNL     1      -6.974   9.499  71.640  1.00  0.00    -0.313 OA 
BRANCH  11  13
HETATM   13  C   UNL     1      -7.956   7.477  70.882  1.00  0.00    -0.096 A  
HETATM   14  C   UNL     1      -7.491   6.326  70.265  1.00  0.00    -0.094 A  
HETATM   15  N   UNL     1      -8.200   5.258  70.742  1.00  0.00    -0.108 NA 
HETATM   16  H   UNL     1      -8.061   4.289  70.455  1.00  0.00     0.000 HD 
HETATM   17  C   UNL     1      -9.128   5.681  71.664  1.00  0.00    -0.139 A  
HETATM   18  C   UNL     1     -10.055   4.944  72.411  1.00  0.00    -0.240 A  
HETATM   19  C   UNL     1     -10.876   5.646  73.300  1.00  0.00    -0.321 A  
HETATM   20  C   UNL     1     -10.767   7.027  73.439  1.00  0.00    -0.379 A  
HETATM   21  C   UNL     1      -9.835   7.747  72.687  1.00  0.00    -0.284 A  
HETATM   22  C   UNL     1      -9.000   7.067  71.773  1.00  0.00    -0.135 A  
ENDBRANCH  11  13
ENDBRANCH  10  11
ENDBRANCH   7  10
TORSDOF 3
ENDMDL
MODEL      226
REMARK 921   NORMALIZED FREE ENERGY PREDICTED BY IDOCK:   -3.47 KCAL/MOL
REMARK 922        TOTAL FREE ENERGY PREDICTED BY IDOCK:   -4.52 KCAL/MOL
REMARK 923 INTER-LIGAND FREE ENERGY PREDICTED BY IDOCK:   -3.77 KCAL/MOL
REMARK 924 INTRA-LIGAND FREE ENERGY PREDICTED BY IDOCK:   -0.75 KCAL/MOL
REMARK 927      BINDING AFFINITY PREDICTED BY RF-SCORE:    0.00 PKD
ROOT
HETATM    1  C   UNL     1     -11.178   6.282  71.542  1.00  0.00    -0.290 C  
HETATM    2  C   UNL     1     -12.202   7.328  71.094  1.00  0.00    -0.376 C  
HETATM    3  C   UNL     1     -11.697   8.640  71.689  1.00  0.00    -0.380 C  
HETATM    4  C   UNL     1     -10.416   8.255  72.434  1.00  0.00    -0.334 C  
HETATM    5  N   UNL     1     -10.704   6.868  72.800  1.00  0.00    -0.238 NA 
HETATM    6  C   UNL     1      -9.189   8.379  71.529  1.00  0.00    -0.257 C  
HETATM    7  C   UNL     1      -9.069   7.288  70.449  1.00  0.00    -0.155 C  
HETATM    8  C   UNL     1      -9.624   6.156  73.464  1.00  0.00    -0.147 C  
HETATM    9  C   UNL     1     -10.066   6.121  70.499  1.00  0.00    -0.237 C  
ENDROOT
BRANCH   7  10
HETATM   10  O   UNL     1      -9.127   7.961  69.182  1.00  0.00    -0.145 OA 
BRANCH  10  11
HETATM   11  C   UNL     1      -7.887   8.199  68.659  1.00  0.00    -0.114 C  
HETATM   12  O   UNL     1      -6.990   7.367  68.637  1.00  0.00    -0.073 OA 
BRANCH  11  13
HETATM   13  C   UNL     1      -7.722   9.592  68.262  1.00  0.00    -0.086 A  
HETATM   14  C   UNL     1      -8.283  10.193  67.146  1.00  0.00    -0.121 A  
HETATM   15  N   UNL     1      -7.978  11.526  67.170  1.00  0.00    -0.152 NA 
HETATM   16  H   UNL     1      -8.268  12.205  66.464  1.00  0.00     0.000 HD 
HETATM   17  C   UNL     1      -7.224  11.820  68.281  1.00  0.00    -0.084 A  
HETATM   18  C   UNL     1      -6.700  13.043  68.716  1.00  0.00    -0.100 A  
HETATM   19  C   UNL     1      -5.973  13.048  69.912  1.00  0.00    -0.136 A  
HETATM   20  C   UNL     1      -5.786  11.878  70.642  1.00  0.00    -0.125 A  
HETATM   21  C   UNL     1      -6.317  10.666  70.194  1.00  0.00    -0.139 A  
HETATM   22  C   UNL     1      -7.046  10.627  68.985  1.00  0.00    -0.086 A  
ENDBRANCH  11  13
ENDBRANCH  10  11
ENDBRANCH   7  10
TORSDOF 3
ENDMDL
MODEL      227
REMARK 921   NORMALIZED FREE ENERGY PREDICTED BY IDOCK:   -3.43 KCAL/MOL
REMARK 922        TOTAL FREE ENERGY PREDICTED BY IDOCK:   -4.47 KCAL/MOL
REMARK 923 INTER-LIGAND FREE ENERGY PREDICTED BY IDOCK:   -4.21 KCAL/MOL
REMARK 924 INTRA-LIGAND FREE ENERGY PREDICTED BY IDOCK:   -0.27 KCAL/MOL
REMARK 927      BINDING AFFINITY PREDICTED BY RF-SCORE:    0.00 PKD
ROOT
HETATM    1  C   UNL     1      -7.742   7.487  65.308  1.00  0.00    -0.112 C  
HETATM    2  C   UNL     1      -6.424   7.293  66.063  1.00  0.00    -0.045 C  
HETATM    3  C   UNL     1      -5.440   8.227  65.364  1.00  0.00    -0.035 C  
HETATM    4  C   UNL     1      -6.263   8.896  64.259  1.00  0.00    -0.071 C  
HETATM    5  N   UNL     1      -7.255   7.859  63.975  1.00  0.00    -0.079 NA 
HETATM    6  C   UNL     1      -6.900  10.197  64.752  1.00  0.00    -0.121 C  
HETATM    7  C   UNL     1      -8.078  10.011  65.727  1.00  0.00    -0.128 C  
HETATM    8  C   UNL     1      -8.276   8.215  63.003  1.00  0.00    -0.103 C  
HETATM    9  C   UNL     1      -8.592   8.584  65.962  1.00  0.00    -0.162 C  
ENDROOT
BRANCH   7  10
HETATM   10  O   UNL     1      -7.684  10.627  66.963  1.00  0.00    -0.110 OA 
BRANCH  10  11
HETATM   11  C   UNL     1      -8.625  10.481  67.944  1.00  0.00    -0.123 C  
HETATM   12  O   UNL     1      -8.487   9.743  68.910  1.00  0.00    -0.118 OA 
BRANCH  11  13
HETATM   13  C   UNL     1      -9.855  11.196  67.629  1.00  0.00    -0.191 A  
HETATM   14  C   UNL     1     -11.144  10.718  67.805  1.00  0.00    -0.318 A  
HETATM   15  N   UNL     1     -12.026  11.713  67.487  1.00  0.00    -0.621 NA 
HETATM   16  H   UNL     1     -13.043  11.629  67.529  1.00  0.00     0.000 HD 
HETATM   17  C   UNL     1     -11.345  12.844  67.101  1.00  0.00    -0.306 A  
HETATM   18  C   UNL     1     -11.830  14.095  66.703  1.00  0.00    -0.447 A  
HETATM   19  C   UNL     1     -10.891  15.080  66.377  1.00  0.00    -0.326 A  
HETATM   20  C   UNL     1      -9.525  14.822  66.454  1.00  0.00    -0.328 A  
HETATM   21  C   UNL     1      -9.059  13.568  66.854  1.00  0.00    -0.246 A  
HETATM   22  C   UNL     1      -9.982  12.550  67.179  1.00  0.00    -0.217 A  
ENDBRANCH  11  13
ENDBRANCH  10  11
ENDBRANCH   7  10
TORSDOF 3
ENDMDL
MODEL      228
REMARK 921   NORMALIZED FREE ENERGY PREDICTED BY IDOCK:   -3.43 KCAL/MOL
REMARK 922        TOTAL FREE ENERGY PREDICTED BY IDOCK:   -4.47 KCAL/MOL
REMARK 923 INTER-LIGAND FREE ENERGY PREDICTED BY IDOCK:   -4.23 KCAL/MOL
REMARK 924 INTRA-LIGAND FREE ENERGY PREDICTED BY IDOCK:   -0.24 KCAL/MOL
REMARK 927      BINDING AFFINITY PREDICTED BY RF-SCORE:    0.00 PKD
ROOT
HETATM    1  C   UNL     1     -13.000  13.797  65.215  1.00  0.00    -0.278 C  
HETATM    2  C   UNL     1     -13.148  12.362  64.703  1.00  0.00     0.108 C  
HETATM    3  C   UNL     1     -12.037  12.207  63.668  1.00  0.00    -0.648 C  
HETATM    4  C   UNL     1     -11.326  13.563  63.661  1.00  0.00     0.047 C  
HETATM    5  N   UNL     1     -12.417  14.459  64.043  1.00  0.00    -0.800 NA 
HETATM    6  C   UNL     1     -10.170  13.588  64.664  1.00  0.00    -0.341 C  
HETATM    7  C   UNL     1     -10.597  13.648  66.142  1.00  0.00    -0.291 C  
HETATM    8  C   UNL     1     -12.051  15.856  64.220  1.00  0.00     0.102 C  
HETATM    9  C   UNL     1     -12.088  13.848  66.447  1.00  0.00    -0.489 C  
ENDROOT
BRANCH   7  10
HETATM   10  O   UNL     1     -10.101  12.449  66.758  1.00  0.00    -0.211 OA 
BRANCH  10  11
HETATM   11  C   UNL     1      -9.916  12.590  68.105  1.00  0.00    -0.224 C  
HETATM   12  O   UNL     1     -10.015  13.659  68.693  1.00  0.00    -0.224 OA 
BRANCH  11  13
HETATM   13  C   UNL     1      -9.454  11.355  68.723  1.00  0.00    -0.128 A  
HETATM   14  C   UNL     1     -10.258  10.330  69.197  1.00  0.00    -0.218 A  
HETATM   15  N   UNL     1      -9.457   9.304  69.614  1.00  0.00    -0.170 NA 
HETATM   16  H   UNL     1      -9.792   8.424  70.008  1.00  0.00     0.000 HD 
HETATM   17  C   UNL     1      -8.134   9.629  69.426  1.00  0.00    -0.118 A  
HETATM   18  C   UNL     1      -6.978   8.888  69.696  1.00  0.00    -0.054 A  
HETATM   19  C   UNL     1      -5.746   9.472  69.383  1.00  0.00    -0.034 A  
HETATM   20  C   UNL     1      -5.678  10.743  68.818  1.00  0.00    -0.040 A  
HETATM   21  C   UNL     1      -6.842  11.468  68.554  1.00  0.00    -0.074 A  
HETATM   22  C   UNL     1      -8.100  10.909  68.870  1.00  0.00    -0.144 A  
ENDBRANCH  11  13
ENDBRANCH  10  11
ENDBRANCH   7  10
TORSDOF 3
ENDMDL
MODEL      229
REMARK 921   NORMALIZED FREE ENERGY PREDICTED BY IDOCK:   -3.43 KCAL/MOL
REMARK 922        TOTAL FREE ENERGY PREDICTED BY IDOCK:   -4.47 KCAL/MOL
REMARK 923 INTER-LIGAND FREE ENERGY PREDICTED BY IDOCK:   -3.85 KCAL/MOL
REMARK 924 INTRA-LIGAND FREE ENERGY PREDICTED BY IDOCK:   -0.62 KCAL/MOL
REMARK 927      BINDING AFFINITY PREDICTED BY RF-SCORE:    0.00 PKD
ROOT
HETATM    1  C   UNL     1      -7.348   5.925  67.661  1.00  0.00    -0.077 C  
HETATM    2  C   UNL     1      -6.899   6.339  66.257  1.00  0.00    -0.061 C  
HETATM    3  C   UNL     1      -8.178   6.805  65.566  1.00  0.00    -0.131 C  
HETATM    4  C   UNL     1      -9.271   6.631  66.624  1.00  0.00    -0.157 C  
HETATM    5  N   UNL     1      -8.735   5.519  67.408  1.00  0.00    -0.108 NA 
HETATM    6  C   UNL     1      -9.447   7.904  67.456  1.00  0.00    -0.175 C  
HETATM    7  C   UNL     1      -8.310   8.183  68.457  1.00  0.00    -0.126 C  
HETATM    8  C   UNL     1      -9.510   5.145  68.581  1.00  0.00    -0.133 C  
HETATM    9  C   UNL     1      -7.238   7.101  68.640  1.00  0.00    -0.094 C  
ENDROOT
BRANCH   7  10
HETATM   10  O   UNL     1      -7.721   9.432  68.065  1.00  0.00    -0.084 OA 
BRANCH  10  11
HETATM   11  C   UNL     1      -8.014  10.445  68.934  1.00  0.00    -0.123 C  
HETATM   12  O   UNL     1      -8.140  10.286  70.142  1.00  0.00    -0.089 OA 
BRANCH  11  13
HETATM   13  C   UNL     1      -8.292  11.696  68.240  1.00  0.00    -0.159 A  
HETATM   14  C   UNL     1      -7.386  12.431  67.492  1.00  0.00    -0.146 A  
HETATM   15  N   UNL     1      -8.045  13.485  66.921  1.00  0.00    -0.402 NA 
HETATM   16  H   UNL     1      -7.614  14.186  66.317  1.00  0.00     0.000 HD 
HETATM   17  C   UNL     1      -9.373  13.461  67.277  1.00  0.00    -0.233 A  
HETATM   18  C   UNL     1     -10.415  14.326  66.922  1.00  0.00    -0.272 A  
HETATM   19  C   UNL     1     -11.690  14.045  67.428  1.00  0.00    -0.421 A  
HETATM   20  C   UNL     1     -11.910  12.941  68.247  1.00  0.00    -0.372 A  
HETATM   21  C   UNL     1     -10.858  12.088  68.589  1.00  0.00    -0.273 A  
HETATM   22  C   UNL     1      -9.559  12.352  68.104  1.00  0.00    -0.218 A  
ENDBRANCH  11  13
ENDBRANCH  10  11
ENDBRANCH   7  10
TORSDOF 3
ENDMDL
MODEL      230
REMARK 921   NORMALIZED FREE ENERGY PREDICTED BY IDOCK:   -3.42 KCAL/MOL
REMARK 922        TOTAL FREE ENERGY PREDICTED BY IDOCK:   -4.46 KCAL/MOL
REMARK 923 INTER-LIGAND FREE ENERGY PREDICTED BY IDOCK:   -4.09 KCAL/MOL
REMARK 924 INTRA-LIGAND FREE ENERGY PREDICTED BY IDOCK:   -0.37 KCAL/MOL
REMARK 927      BINDING AFFINITY PREDICTED BY RF-SCORE:    0.00 PKD
ROOT
HETATM    1  C   UNL     1      -6.814   4.489  69.065  1.00  0.00    -0.050 C  
HETATM    2  C   UNL     1      -6.485   5.477  67.944  1.00  0.00    -0.047 C  
HETATM    3  C   UNL     1      -7.690   5.414  67.009  1.00  0.00    -0.100 C  
HETATM    4  C   UNL     1      -8.630   4.396  67.662  1.00  0.00    -0.103 C  
HETATM    5  N   UNL     1      -7.675   3.534  68.359  1.00  0.00    -0.056 NA 
HETATM    6  C   UNL     1      -9.609   5.079  68.619  1.00  0.00    -0.204 C  
HETATM    7  C   UNL     1      -8.985   5.577  69.936  1.00  0.00    -0.127 C  
HETATM    8  C   UNL     1      -8.259   2.482  69.177  1.00  0.00    -0.051 C  
HETATM    9  C   UNL     1      -7.527   5.194  70.226  1.00  0.00    -0.067 C  
ENDROOT
BRANCH   7  10
HETATM   10  O   UNL     1      -9.157   7.002  69.955  1.00  0.00    -0.145 OA 
BRANCH  10  11
HETATM   11  C   UNL     1     -10.437   7.371  70.264  1.00  0.00    -0.221 C  
HETATM   12  O   UNL     1     -11.301   6.582  70.625  1.00  0.00    -0.304 OA 
BRANCH  11  13
HETATM   13  C   UNL     1     -10.681   8.779  69.981  1.00  0.00    -0.236 A  
HETATM   14  C   UNL     1     -10.908   9.772  70.922  1.00  0.00    -0.328 A  
HETATM   15  N   UNL     1     -10.996  10.974  70.275  1.00  0.00    -0.441 NA 
HETATM   16  H   UNL     1     -11.160  11.872  70.730  1.00  0.00     0.000 HD 
HETATM   17  C   UNL     1     -10.831  10.796  68.921  1.00  0.00    -0.227 A  
HETATM   18  C   UNL     1     -10.833  11.735  67.883  1.00  0.00    -0.255 A  
HETATM   19  C   UNL     1     -10.621  11.264  66.583  1.00  0.00    -0.309 A  
HETATM   20  C   UNL     1     -10.410   9.910  66.336  1.00  0.00    -0.246 A  
HETATM   21  C   UNL     1     -10.410   8.987  67.384  1.00  0.00    -0.335 A  
HETATM   22  C   UNL     1     -10.632   9.431  68.706  1.00  0.00    -0.234 A  
ENDBRANCH  11  13
ENDBRANCH  10  11
ENDBRANCH   7  10
TORSDOF 3
ENDMDL
MODEL      231
REMARK 921   NORMALIZED FREE ENERGY PREDICTED BY IDOCK:   -3.41 KCAL/MOL
REMARK 922        TOTAL FREE ENERGY PREDICTED BY IDOCK:   -4.45 KCAL/MOL
REMARK 923 INTER-LIGAND FREE ENERGY PREDICTED BY IDOCK:   -4.05 KCAL/MOL
REMARK 924 INTRA-LIGAND FREE ENERGY PREDICTED BY IDOCK:   -0.39 KCAL/MOL
REMARK 927      BINDING AFFINITY PREDICTED BY RF-SCORE:    0.00 PKD
ROOT
HETATM    1  C   UNL     1      -8.928  10.155  64.968  1.00  0.00    -0.195 C  
HETATM    2  C   UNL     1      -8.469   9.157  63.902  1.00  0.00    -0.189 C  
HETATM    3  C   UNL     1      -7.306   8.411  64.550  1.00  0.00    -0.094 C  
HETATM    4  C   UNL     1      -7.181   9.031  65.944  1.00  0.00    -0.093 C  
HETATM    5  N   UNL     1      -7.678  10.385  65.700  1.00  0.00    -0.148 NA 
HETATM    6  C   UNL     1      -8.028   8.271  66.967  1.00  0.00    -0.100 C  
HETATM    7  C   UNL     1      -9.547   8.490  66.839  1.00  0.00    -0.197 C  
HETATM    8  C   UNL     1      -7.778  11.239  66.873  1.00  0.00    -0.152 C  
HETATM    9  C   UNL     1     -10.034   9.552  65.844  1.00  0.00    -0.342 C  
ENDROOT
BRANCH   7  10
HETATM   10  O   UNL     1     -10.120   7.207  66.545  1.00  0.00    -0.180 OA 
BRANCH  10  11
HETATM   11  C   UNL     1     -10.330   6.457  67.669  1.00  0.00    -0.197 C  
HETATM   12  O   UNL     1     -10.639   6.935  68.753  1.00  0.00    -0.202 OA 
BRANCH  11  13
HETATM   13  C   UNL     1     -10.009   5.053  67.454  1.00  0.00    -0.214 A  
HETATM   14  C   UNL     1      -9.796   4.444  66.227  1.00  0.00    -0.231 A  
HETATM   15  N   UNL     1      -9.425   3.145  66.443  1.00  0.00    -0.375 NA 
HETATM   16  H   UNL     1      -9.207   2.470  65.709  1.00  0.00     0.000 HD 
HETATM   17  C   UNL     1      -9.390   2.881  67.791  1.00  0.00    -0.199 A  
HETATM   18  C   UNL     1      -9.057   1.702  68.469  1.00  0.00    -0.187 A  
HETATM   19  C   UNL     1      -9.093   1.727  69.868  1.00  0.00    -0.151 A  
HETATM   20  C   UNL     1      -9.440   2.886  70.556  1.00  0.00    -0.210 A  
HETATM   21  C   UNL     1      -9.768   4.055  69.863  1.00  0.00    -0.263 A  
HETATM   22  C   UNL     1      -9.752   4.057  68.452  1.00  0.00    -0.135 A  
ENDBRANCH  11  13
ENDBRANCH  10  11
ENDBRANCH   7  10
TORSDOF 3
ENDMDL
MODEL      232
REMARK 921   NORMALIZED FREE ENERGY PREDICTED BY IDOCK:   -3.40 KCAL/MOL
REMARK 922        TOTAL FREE ENERGY PREDICTED BY IDOCK:   -4.44 KCAL/MOL
REMARK 923 INTER-LIGAND FREE ENERGY PREDICTED BY IDOCK:   -4.01 KCAL/MOL
REMARK 924 INTRA-LIGAND FREE ENERGY PREDICTED BY IDOCK:   -0.43 KCAL/MOL
REMARK 927      BINDING AFFINITY PREDICTED BY RF-SCORE:    0.00 PKD
ROOT
HETATM    1  C   UNL     1     -11.781   6.561  71.876  1.00  0.00    -0.324 C  
HETATM    2  C   UNL     1     -13.162   7.118  71.523  1.00  0.00    -0.419 C  
HETATM    3  C   UNL     1     -12.995   8.633  71.592  1.00  0.00    -0.377 C  
HETATM    4  C   UNL     1     -11.527   8.841  71.976  1.00  0.00    -0.371 C  
HETATM    5  N   UNL     1     -11.258   7.624  72.742  1.00  0.00    -0.365 NA 
HETATM    6  C   UNL     1     -10.640   8.959  70.734  1.00  0.00    -0.281 C  
HETATM    7  C   UNL     1     -10.413   7.640  69.973  1.00  0.00    -0.229 C  
HETATM    8  C   UNL     1      -9.886   7.456  73.194  1.00  0.00    -0.254 C  
HETATM    9  C   UNL     1     -10.937   6.347  70.614  1.00  0.00    -0.355 C  
ENDROOT
BRANCH   7  10
HETATM   10  O   UNL     1     -10.967   7.826  68.661  1.00  0.00    -0.018 OA 
BRANCH  10  11
HETATM   11  C   UNL     1     -10.005   7.888  67.692  1.00  0.00    -0.181 C  
HETATM   12  O   UNL     1     -10.000   8.722  66.796  1.00  0.00    -0.218 OA 
BRANCH  11  13
HETATM   13  C   UNL     1      -9.077   6.769  67.774  1.00  0.00    -0.117 A  
HETATM   14  C   UNL     1      -9.266   5.510  67.224  1.00  0.00    -0.110 A  
HETATM   15  N   UNL     1      -8.136   4.769  67.431  1.00  0.00    -0.101 NA 
HETATM   16  H   UNL     1      -8.006   3.804  67.125  1.00  0.00     0.000 HD 
HETATM   17  C   UNL     1      -7.199   5.513  68.109  1.00  0.00    -0.072 A  
HETATM   18  C   UNL     1      -5.906   5.172  68.522  1.00  0.00    -0.017 A  
HETATM   19  C   UNL     1      -5.160   6.150  69.190  1.00  0.00    -0.004 A  
HETATM   20  C   UNL     1      -5.687   7.417  69.426  1.00  0.00    -0.023 A  
HETATM   21  C   UNL     1      -6.979   7.740  69.005  1.00  0.00    -0.069 A  
HETATM   22  C   UNL     1      -7.760   6.771  68.339  1.00  0.00    -0.106 A  
ENDBRANCH  11  13
ENDBRANCH  10  11
ENDBRANCH   7  10
TORSDOF 3
ENDMDL
MODEL      233
REMARK 921   NORMALIZED FREE ENERGY PREDICTED BY IDOCK:   -3.39 KCAL/MOL
REMARK 922        TOTAL FREE ENERGY PREDICTED BY IDOCK:   -4.42 KCAL/MOL
REMARK 923 INTER-LIGAND FREE ENERGY PREDICTED BY IDOCK:   -3.96 KCAL/MOL
REMARK 924 INTRA-LIGAND FREE ENERGY PREDICTED BY IDOCK:   -0.47 KCAL/MOL
REMARK 927      BINDING AFFINITY PREDICTED BY RF-SCORE:    0.00 PKD
ROOT
HETATM    1  C   UNL     1     -11.882   7.240  72.118  1.00  0.00    -0.286 C  
HETATM    2  C   UNL     1     -11.173   8.594  72.034  1.00  0.00    -0.434 C  
HETATM    3  C   UNL     1      -9.686   8.254  72.102  1.00  0.00    -0.344 C  
HETATM    4  C   UNL     1      -9.646   6.727  72.217  1.00  0.00    -0.144 C  
HETATM    5  N   UNL     1     -10.914   6.459  72.896  1.00  0.00    -0.253 NA 
HETATM    6  C   UNL     1      -9.570   6.069  70.838  1.00  0.00    -0.196 C  
HETATM    7  C   UNL     1     -10.874   6.126  70.021  1.00  0.00    -0.341 C  
HETATM    8  C   UNL     1     -11.240   5.055  73.088  1.00  0.00    -0.335 C  
HETATM    9  C   UNL     1     -12.131   6.663  70.719  1.00  0.00    -0.364 C  
ENDROOT
BRANCH   7  10
HETATM   10  O   UNL     1     -10.580   6.881  68.836  1.00  0.00    -0.202 OA 
BRANCH  10  11
HETATM   11  C   UNL     1      -9.905   6.146  67.901  1.00  0.00    -0.123 C  
HETATM   12  O   UNL     1     -10.372   5.156  67.352  1.00  0.00    -0.191 OA 
BRANCH  11  13
HETATM   13  C   UNL     1      -8.530   6.598  67.743  1.00  0.00    -0.122 A  
HETATM   14  C   UNL     1      -7.511   5.904  67.109  1.00  0.00    -0.084 A  
HETATM   15  N   UNL     1      -6.396   6.695  67.080  1.00  0.00    -0.039 NA 
HETATM   16  H   UNL     1      -5.500   6.428  66.670  1.00  0.00     0.000 HD 
HETATM   17  C   UNL     1      -6.656   7.903  67.684  1.00  0.00    -0.060 A  
HETATM   18  C   UNL     1      -5.824   9.012  67.872  1.00  0.00    -0.042 A  
HETATM   19  C   UNL     1      -6.370  10.129  68.515  1.00  0.00    -0.048 A  
HETATM   20  C   UNL     1      -7.694  10.134  68.944  1.00  0.00    -0.093 A  
HETATM   21  C   UNL     1      -8.511   9.018  68.746  1.00  0.00    -0.131 A  
HETATM   22  C   UNL     1      -7.985   7.872  68.110  1.00  0.00    -0.125 A  
ENDBRANCH  11  13
ENDBRANCH  10  11
ENDBRANCH   7  10
TORSDOF 3
ENDMDL
MODEL      234
REMARK 921   NORMALIZED FREE ENERGY PREDICTED BY IDOCK:   -3.31 KCAL/MOL
REMARK 922        TOTAL FREE ENERGY PREDICTED BY IDOCK:   -4.33 KCAL/MOL
REMARK 923 INTER-LIGAND FREE ENERGY PREDICTED BY IDOCK:   -3.56 KCAL/MOL
REMARK 924 INTRA-LIGAND FREE ENERGY PREDICTED BY IDOCK:   -0.77 KCAL/MOL
REMARK 927      BINDING AFFINITY PREDICTED BY RF-SCORE:    0.00 PKD
ROOT
HETATM    1  C   UNL     1      -8.954   5.439  67.338  1.00  0.00    -0.108 C  
HETATM    2  C   UNL     1     -10.477   5.332  67.226  1.00  0.00    -0.236 C  
HETATM    3  C   UNL     1     -11.008   6.237  68.335  1.00  0.00    -0.409 C  
HETATM    4  C   UNL     1      -9.753   6.803  69.004  1.00  0.00    -0.145 C  
HETATM    5  N   UNL     1      -8.793   5.724  68.768  1.00  0.00    -0.110 NA 
HETATM    6  C   UNL     1      -9.323   8.120  68.354  1.00  0.00    -0.135 C  
HETATM    7  C   UNL     1      -8.698   7.977  66.955  1.00  0.00    -0.130 C  
HETATM    8  C   UNL     1      -7.433   5.983  69.214  1.00  0.00    -0.089 C  
HETATM    9  C   UNL     1      -8.415   6.559  66.440  1.00  0.00    -0.124 C  
ENDROOT
BRANCH   7  10
HETATM   10  O   UNL     1      -9.556   8.692  66.051  1.00  0.00    -0.236 OA 
BRANCH  10  11
HETATM   11  C   UNL     1      -8.879   9.623  65.314  1.00  0.00    -0.171 C  
HETATM   12  O   UNL     1      -8.104   9.339  64.410  1.00  0.00    -0.125 OA 
BRANCH  11  13
HETATM   13  C   UNL     1      -9.086  10.973  65.822  1.00  0.00    -0.219 A  
HETATM   14  C   UNL     1     -10.110  11.833  65.457  1.00  0.00    -0.249 A  
HETATM   15  N   UNL     1     -10.020  12.966  66.219  1.00  0.00    -0.266 NA 
HETATM   16  H   UNL     1     -10.653  13.764  66.156  1.00  0.00     0.000 HD 
HETATM   17  C   UNL     1      -8.955  12.872  67.083  1.00  0.00    -0.219 A  
HETATM   18  C   UNL     1      -8.494  13.778  68.045  1.00  0.00    -0.176 A  
HETATM   19  C   UNL     1      -7.379  13.406  68.804  1.00  0.00    -0.076 A  
HETATM   20  C   UNL     1      -6.757  12.175  68.610  1.00  0.00    -0.081 A  
HETATM   21  C   UNL     1      -7.232  11.282  67.646  1.00  0.00    -0.092 A  
HETATM   22  C   UNL     1      -8.349  11.634  66.857  1.00  0.00    -0.169 A  
ENDBRANCH  11  13
ENDBRANCH  10  11
ENDBRANCH   7  10
TORSDOF 3
ENDMDL
MODEL      235
REMARK 921   NORMALIZED FREE ENERGY PREDICTED BY IDOCK:   -3.31 KCAL/MOL
REMARK 922        TOTAL FREE ENERGY PREDICTED BY IDOCK:   -4.33 KCAL/MOL
REMARK 923 INTER-LIGAND FREE ENERGY PREDICTED BY IDOCK:   -3.86 KCAL/MOL
REMARK 924 INTRA-LIGAND FREE ENERGY PREDICTED BY IDOCK:   -0.48 KCAL/MOL
REMARK 927      BINDING AFFINITY PREDICTED BY RF-SCORE:    0.00 PKD
ROOT
HETATM    1  C   UNL     1      -8.797  10.051  67.323  1.00  0.00    -0.135 C  
HETATM    2  C   UNL     1     -10.078   9.819  66.518  1.00  0.00    -0.307 C  
HETATM    3  C   UNL     1     -10.103   8.314  66.260  1.00  0.00    -0.101 C  
HETATM    4  C   UNL     1      -8.835   7.788  66.938  1.00  0.00    -0.131 C  
HETATM    5  N   UNL     1      -7.954   8.952  66.840  1.00  0.00    -0.101 NA 
HETATM    6  C   UNL     1      -9.109   7.381  68.388  1.00  0.00    -0.132 C  
HETATM    7  C   UNL     1      -9.323   8.557  69.359  1.00  0.00    -0.154 C  
HETATM    8  C   UNL     1      -6.658   8.815  67.485  1.00  0.00    -0.062 C  
HETATM    9  C   UNL     1      -9.074   9.976  68.829  1.00  0.00    -0.148 C  
ENDROOT
BRANCH   7  10
HETATM   10  O   UNL     1     -10.659   8.424  69.870  1.00  0.00    -0.224 OA 
BRANCH  10  11
HETATM   11  C   UNL     1     -10.884   7.201  70.437  1.00  0.00    -0.246 C  
HETATM   12  O   UNL     1     -11.510   6.304  69.886  1.00  0.00    -0.422 OA 
BRANCH  11  13
HETATM   13  C   UNL     1     -10.412   7.145  71.814  1.00  0.00    -0.219 A  
HETATM   14  C   UNL     1     -11.107   7.578  72.932  1.00  0.00    -0.375 A  
HETATM   15  N   UNL     1     -10.377   7.269  74.046  1.00  0.00    -0.406 NA 
HETATM   16  H   UNL     1     -10.658   7.477  75.005  1.00  0.00     0.000 HD 
HETATM   17  C   UNL     1      -9.209   6.639  73.688  1.00  0.00    -0.143 A  
HETATM   18  C   UNL     1      -8.174   6.139  74.486  1.00  0.00    -0.124 A  
HETATM   19  C   UNL     1      -7.097   5.522  73.840  1.00  0.00    -0.086 A  
HETATM   20  C   UNL     1      -7.064   5.405  72.453  1.00  0.00    -0.083 A  
HETATM   21  C   UNL     1      -8.107   5.908  71.671  1.00  0.00    -0.118 A  
HETATM   22  C   UNL     1      -9.201   6.547  72.294  1.00  0.00    -0.138 A  
ENDBRANCH  11  13
ENDBRANCH  10  11
ENDBRANCH   7  10
TORSDOF 3
ENDMDL
MODEL      236
REMARK 921   NORMALIZED FREE ENERGY PREDICTED BY IDOCK:   -3.30 KCAL/MOL
REMARK 922        TOTAL FREE ENERGY PREDICTED BY IDOCK:   -4.31 KCAL/MOL
REMARK 923 INTER-LIGAND FREE ENERGY PREDICTED BY IDOCK:   -3.59 KCAL/MOL
REMARK 924 INTRA-LIGAND FREE ENERGY PREDICTED BY IDOCK:   -0.72 KCAL/MOL
REMARK 927      BINDING AFFINITY PREDICTED BY RF-SCORE:    0.00 PKD
ROOT
HETATM    1  C   UNL     1      -7.170   5.129  65.882  1.00  0.00    -0.073 C  
HETATM    2  C   UNL     1      -8.174   6.258  65.634  1.00  0.00    -0.143 C  
HETATM    3  C   UNL     1      -9.486   5.740  66.218  1.00  0.00    -0.166 C  
HETATM    4  C   UNL     1      -9.142   4.351  66.764  1.00  0.00    -0.128 C  
HETATM    5  N   UNL     1      -8.051   3.957  65.872  1.00  0.00    -0.100 NA 
HETATM    6  C   UNL     1      -8.705   4.423  68.228  1.00  0.00    -0.116 C  
HETATM    7  C   UNL     1      -7.306   5.027  68.456  1.00  0.00    -0.063 C  
HETATM    8  C   UNL     1      -7.418   2.684  66.180  1.00  0.00    -0.068 C  
HETATM    9  C   UNL     1      -6.446   5.323  67.220  1.00  0.00    -0.052 C  
ENDROOT
BRANCH   7  10
HETATM   10  O   UNL     1      -7.497   6.210  69.248  1.00  0.00    -0.085 OA 
BRANCH  10  11
HETATM   11  C   UNL     1      -7.378   5.968  70.588  1.00  0.00    -0.085 C  
HETATM   12  O   UNL     1      -6.751   5.025  71.052  1.00  0.00    -0.039 OA 
BRANCH  11  13
HETATM   13  C   UNL     1      -8.193   6.880  71.380  1.00  0.00    -0.110 A  
HETATM   14  C   UNL     1      -7.720   7.881  72.214  1.00  0.00    -0.104 A  
HETATM   15  N   UNL     1      -8.787   8.581  72.704  1.00  0.00    -0.361 NA 
HETATM   16  H   UNL     1      -8.722   9.374  73.344  1.00  0.00     0.000 HD 
HETATM   17  C   UNL     1      -9.961   8.062  72.210  1.00  0.00    -0.239 A  
HETATM   18  C   UNL     1     -11.284   8.462  72.429  1.00  0.00    -0.438 A  
HETATM   19  C   UNL     1     -12.294   7.750  71.772  1.00  0.00    -0.346 A  
HETATM   20  C   UNL     1     -11.987   6.686  70.927  1.00  0.00    -0.413 A  
HETATM   21  C   UNL     1     -10.661   6.301  70.719  1.00  0.00    -0.297 A  
HETATM   22  C   UNL     1      -9.621   6.994  71.377  1.00  0.00    -0.162 A  
ENDBRANCH  11  13
ENDBRANCH  10  11
ENDBRANCH   7  10
TORSDOF 3
ENDMDL
MODEL      237
REMARK 921   NORMALIZED FREE ENERGY PREDICTED BY IDOCK:   -3.29 KCAL/MOL
REMARK 922        TOTAL FREE ENERGY PREDICTED BY IDOCK:   -4.30 KCAL/MOL
REMARK 923 INTER-LIGAND FREE ENERGY PREDICTED BY IDOCK:   -3.92 KCAL/MOL
REMARK 924 INTRA-LIGAND FREE ENERGY PREDICTED BY IDOCK:   -0.38 KCAL/MOL
REMARK 927      BINDING AFFINITY PREDICTED BY RF-SCORE:    0.00 PKD
ROOT
HETATM    1  C   UNL     1     -10.993   6.514  71.099  1.00  0.00    -0.266 C  
HETATM    2  C   UNL     1     -11.365   7.936  70.673  1.00  0.00    -0.267 C  
HETATM    3  C   UNL     1     -10.569   8.839  71.612  1.00  0.00    -0.401 C  
HETATM    4  C   UNL     1      -9.792   7.870  72.509  1.00  0.00    -0.236 C  
HETATM    5  N   UNL     1     -10.686   6.712  72.519  1.00  0.00    -0.220 NA 
HETATM    6  C   UNL     1      -8.419   7.545  71.916  1.00  0.00    -0.120 C  
HETATM    7  C   UNL     1      -8.449   6.621  70.684  1.00  0.00    -0.138 C  
HETATM    8  C   UNL     1     -10.192   5.544  73.231  1.00  0.00    -0.195 C  
HETATM    9  C   UNL     1      -9.795   5.996  70.293  1.00  0.00    -0.221 C  
ENDROOT
BRANCH   7  10
HETATM   10  O   UNL     1      -7.896   7.376  69.595  1.00  0.00    -0.111 OA 
BRANCH  10  11
HETATM   11  C   UNL     1      -7.962   6.705  68.406  1.00  0.00    -0.111 C  
HETATM   12  O   UNL     1      -7.368   5.658  68.185  1.00  0.00    -0.071 OA 
BRANCH  11  13
HETATM   13  C   UNL     1      -8.706   7.452  67.401  1.00  0.00    -0.121 A  
HETATM   14  C   UNL     1     -10.079   7.419  67.211  1.00  0.00    -0.228 A  
HETATM   15  N   UNL     1     -10.407   8.326  66.241  1.00  0.00    -0.362 NA 
HETATM   16  H   UNL     1     -11.355   8.506  65.906  1.00  0.00     0.000 HD 
HETATM   17  C   UNL     1      -9.276   8.959  65.783  1.00  0.00    -0.221 A  
HETATM   18  C   UNL     1      -9.135   9.957  64.811  1.00  0.00    -0.283 A  
HETATM   19  C   UNL     1      -7.844  10.435  64.557  1.00  0.00    -0.066 A  
HETATM   20  C   UNL     1      -6.745   9.938  65.252  1.00  0.00    -0.106 A  
HETATM   21  C   UNL     1      -6.905   8.943  66.219  1.00  0.00    -0.074 A  
HETATM   22  C   UNL     1      -8.194   8.433  66.490  1.00  0.00    -0.105 A  
ENDBRANCH  11  13
ENDBRANCH  10  11
ENDBRANCH   7  10
TORSDOF 3
ENDMDL
MODEL      238
REMARK 921   NORMALIZED FREE ENERGY PREDICTED BY IDOCK:   -3.27 KCAL/MOL
REMARK 922        TOTAL FREE ENERGY PREDICTED BY IDOCK:   -4.28 KCAL/MOL
REMARK 923 INTER-LIGAND FREE ENERGY PREDICTED BY IDOCK:   -4.41 KCAL/MOL
REMARK 924 INTRA-LIGAND FREE ENERGY PREDICTED BY IDOCK:    0.13 KCAL/MOL
REMARK 927      BINDING AFFINITY PREDICTED BY RF-SCORE:    0.00 PKD
ROOT
HETATM    1  C   UNL     1      -7.206   4.761  67.791  1.00  0.00    -0.066 C  
HETATM    2  C   UNL     1      -6.086   5.616  67.191  1.00  0.00    -0.029 C  
HETATM    3  C   UNL     1      -6.673   6.161  65.891  1.00  0.00    -0.048 C  
HETATM    4  C   UNL     1      -8.090   5.584  65.838  1.00  0.00    -0.110 C  
HETATM    5  N   UNL     1      -7.918   4.335  66.581  1.00  0.00    -0.098 NA 
HETATM    6  C   UNL     1      -9.098   6.525  66.501  1.00  0.00    -0.166 C  
HETATM    7  C   UNL     1      -9.015   6.583  68.037  1.00  0.00    -0.116 C  
HETATM    8  C   UNL     1      -9.130   3.561  66.798  1.00  0.00    -0.164 C  
HETATM    9  C   UNL     1      -8.080   5.590  68.740  1.00  0.00    -0.099 C  
ENDROOT
BRANCH   7  10
HETATM   10  O   UNL     1      -8.679   7.937  68.376  1.00  0.00    -0.131 OA 
BRANCH  10  11
HETATM   11  C   UNL     1      -9.736   8.792  68.231  1.00  0.00    -0.158 C  
HETATM   12  O   UNL     1      -9.857   9.565  67.291  1.00  0.00    -0.159 OA 
BRANCH  11  13
HETATM   13  C   UNL     1     -10.618   8.767  69.391  1.00  0.00    -0.218 A  
HETATM   14  C   UNL     1     -10.815   7.691  70.242  1.00  0.00    -0.246 A  
HETATM   15  N   UNL     1     -11.637   8.086  71.262  1.00  0.00    -0.272 NA 
HETATM   16  H   UNL     1     -11.944   7.488  72.030  1.00  0.00     0.000 HD 
HETATM   17  C   UNL     1     -11.989   9.406  71.101  1.00  0.00    -0.337 A  
HETATM   18  C   UNL     1     -12.796  10.225  71.899  1.00  0.00    -0.528 A  
HETATM   19  C   UNL     1     -12.970  11.553  71.495  1.00  0.00    -0.485 A  
HETATM   20  C   UNL     1     -12.356  12.040  70.345  1.00  0.00    -0.317 A  
HETATM   21  C   UNL     1     -11.552  11.208  69.561  1.00  0.00    -0.392 A  
HETATM   22  C   UNL     1     -11.366   9.860  69.937  1.00  0.00    -0.273 A  
ENDBRANCH  11  13
ENDBRANCH  10  11
ENDBRANCH   7  10
TORSDOF 3
ENDMDL
MODEL      239
REMARK 921   NORMALIZED FREE ENERGY PREDICTED BY IDOCK:   -3.27 KCAL/MOL
REMARK 922        TOTAL FREE ENERGY PREDICTED BY IDOCK:   -4.28 KCAL/MOL
REMARK 923 INTER-LIGAND FREE ENERGY PREDICTED BY IDOCK:   -3.57 KCAL/MOL
REMARK 924 INTRA-LIGAND FREE ENERGY PREDICTED BY IDOCK:   -0.71 KCAL/MOL
REMARK 927      BINDING AFFINITY PREDICTED BY RF-SCORE:    0.00 PKD
ROOT
HETATM    1  C   UNL     1     -10.343   9.287  67.955  1.00  0.00    -0.221 C  
HETATM    2  C   UNL     1      -9.017   9.377  67.195  1.00  0.00    -0.144 C  
HETATM    3  C   UNL     1      -7.975   9.666  68.273  1.00  0.00    -0.096 C  
HETATM    4  C   UNL     1      -8.776   9.717  69.577  1.00  0.00    -0.185 C  
HETATM    5  N   UNL     1     -10.079  10.172  69.094  1.00  0.00    -0.201 NA 
HETATM    6  C   UNL     1      -8.846   8.339  70.240  1.00  0.00    -0.141 C  
HETATM    7  C   UNL     1      -9.769   7.329  69.534  1.00  0.00    -0.158 C  
HETATM    8  C   UNL     1     -11.130  10.246  70.096  1.00  0.00    -0.319 C  
HETATM    9  C   UNL     1     -10.636   7.841  68.375  1.00  0.00    -0.157 C  
ENDROOT
BRANCH   7  10
HETATM   10  O   UNL     1      -8.933   6.240  69.110  1.00  0.00    -0.127 OA 
BRANCH  10  11
HETATM   11  C   UNL     1      -9.582   5.037  69.146  1.00  0.00    -0.154 C  
HETATM   12  O   UNL     1     -10.371   4.720  70.027  1.00  0.00    -0.249 OA 
BRANCH  11  13
HETATM   13  C   UNL     1      -9.120   4.138  68.097  1.00  0.00    -0.175 A  
HETATM   14  C   UNL     1      -8.162   3.146  68.238  1.00  0.00    -0.073 A  
HETATM   15  N   UNL     1      -8.073   2.455  67.061  1.00  0.00    -0.071 NA 
HETATM   16  H   UNL     1      -7.444   1.670  66.890  1.00  0.00     0.000 HD 
HETATM   17  C   UNL     1      -8.954   2.973  66.141  1.00  0.00    -0.148 A  
HETATM   18  C   UNL     1      -9.212   2.580  64.822  1.00  0.00    -0.137 A  
HETATM   19  C   UNL     1     -10.190   3.289  64.115  1.00  0.00    -0.170 A  
HETATM   20  C   UNL     1     -10.882   4.342  64.707  1.00  0.00    -0.108 A  
HETATM   21  C   UNL     1     -10.613   4.719  66.025  1.00  0.00    -0.300 A  
HETATM   22  C   UNL     1      -9.624   4.030  66.761  1.00  0.00    -0.234 A  
ENDBRANCH  11  13
ENDBRANCH  10  11
ENDBRANCH   7  10
TORSDOF 3
ENDMDL
MODEL      240
REMARK 921   NORMALIZED FREE ENERGY PREDICTED BY IDOCK:   -3.27 KCAL/MOL
REMARK 922        TOTAL FREE ENERGY PREDICTED BY IDOCK:   -4.28 KCAL/MOL
REMARK 923 INTER-LIGAND FREE ENERGY PREDICTED BY IDOCK:   -3.76 KCAL/MOL
REMARK 924 INTRA-LIGAND FREE ENERGY PREDICTED BY IDOCK:   -0.52 KCAL/MOL
REMARK 927      BINDING AFFINITY PREDICTED BY RF-SCORE:    0.00 PKD
ROOT
HETATM    1  C   UNL     1      -8.494   5.502  71.558  1.00  0.00    -0.127 C  
HETATM    2  C   UNL     1      -9.683   4.736  70.973  1.00  0.00    -0.257 C  
HETATM    3  C   UNL     1     -10.887   5.226  71.774  1.00  0.00    -0.198 C  
HETATM    4  C   UNL     1     -10.304   6.242  72.761  1.00  0.00    -0.197 C  
HETATM    5  N   UNL     1      -8.947   5.723  72.935  1.00  0.00    -0.124 NA 
HETATM    6  C   UNL     1     -10.320   7.656  72.176  1.00  0.00    -0.270 C  
HETATM    7  C   UNL     1      -9.282   7.908  71.067  1.00  0.00    -0.151 C  
HETATM    8  C   UNL     1      -8.070   6.528  73.771  1.00  0.00    -0.103 C  
HETATM    9  C   UNL     1      -8.250   6.807  70.790  1.00  0.00    -0.123 C  
ENDROOT
BRANCH   7  10
HETATM   10  O   UNL     1     -10.024   8.230  69.880  1.00  0.00    -0.185 OA 
BRANCH  10  11
HETATM   11  C   UNL     1     -10.053   9.573  69.629  1.00  0.00    -0.212 C  
HETATM   12  O   UNL     1     -10.956  10.312  69.999  1.00  0.00    -0.270 OA 
BRANCH  11  13
HETATM   13  C   UNL     1      -8.961   9.987  68.758  1.00  0.00    -0.145 A  
HETATM   14  C   UNL     1      -7.672  10.303  69.160  1.00  0.00    -0.119 A  
HETATM   15  N   UNL     1      -6.916  10.548  68.047  1.00  0.00    -0.073 NA 
HETATM   16  H   UNL     1      -5.927  10.802  68.057  1.00  0.00     0.000 HD 
HETATM   17  C   UNL     1      -7.679  10.401  66.913  1.00  0.00    -0.111 A  
HETATM   18  C   UNL     1      -7.327  10.541  65.566  1.00  0.00    -0.106 A  
HETATM   19  C   UNL     1      -8.321  10.312  64.609  1.00  0.00    -0.169 A  
HETATM   20  C   UNL     1      -9.612   9.952  64.987  1.00  0.00    -0.364 A  
HETATM   21  C   UNL     1      -9.946   9.815  66.337  1.00  0.00    -0.314 A  
HETATM   22  C   UNL     1      -8.967  10.050  67.326  1.00  0.00    -0.144 A  
ENDBRANCH  11  13
ENDBRANCH  10  11
ENDBRANCH   7  10
TORSDOF 3
ENDMDL
MODEL      241
REMARK 921   NORMALIZED FREE ENERGY PREDICTED BY IDOCK:   -3.24 KCAL/MOL
REMARK 922        TOTAL FREE ENERGY PREDICTED BY IDOCK:   -4.25 KCAL/MOL
REMARK 923 INTER-LIGAND FREE ENERGY PREDICTED BY IDOCK:   -3.79 KCAL/MOL
REMARK 924 INTRA-LIGAND FREE ENERGY PREDICTED BY IDOCK:   -0.46 KCAL/MOL
REMARK 927      BINDING AFFINITY PREDICTED BY RF-SCORE:    0.00 PKD
ROOT
HETATM    1  C   UNL     1     -10.951  13.702  64.924  1.00  0.00    -0.367 C  
HETATM    2  C   UNL     1      -9.451  13.763  65.226  1.00  0.00     0.321 C  
HETATM    3  C   UNL     1      -9.266  15.073  65.987  1.00  0.00    -0.245 C  
HETATM    4  C   UNL     1     -10.674  15.671  66.072  1.00  0.00    -0.317 C  
HETATM    5  N   UNL     1     -11.287  15.128  64.859  1.00  0.00    -0.402 NA 
HETATM    6  C   UNL     1     -11.393  15.219  67.345  1.00  0.00    -0.285 C  
HETATM    7  C   UNL     1     -11.852  13.749  67.341  1.00  0.00    -0.396 C  
HETATM    8  C   UNL     1     -12.695  15.440  64.674  1.00  0.00     0.451 C  
HETATM    9  C   UNL     1     -11.704  12.958  66.034  1.00  0.00    -0.456 C  
ENDROOT
BRANCH   7  10
HETATM   10  O   UNL     1     -11.154  13.102  68.416  1.00  0.00    -0.242 OA 
BRANCH  10  11
HETATM   11  C   UNL     1     -11.231  11.739  68.345  1.00  0.00    -0.251 C  
HETATM   12  O   UNL     1     -12.247  11.104  68.596  1.00  0.00    -0.582 OA 
BRANCH  11  13
HETATM   13  C   UNL     1      -9.934  11.134  68.073  1.00  0.00    -0.190 A  
HETATM   14  C   UNL     1      -9.715   9.844  67.614  1.00  0.00    -0.155 A  
HETATM   15  N   UNL     1      -8.376   9.682  67.389  1.00  0.00    -0.114 NA 
HETATM   16  H   UNL     1      -7.941   8.825  67.046  1.00  0.00     0.000 HD 
HETATM   17  C   UNL     1      -7.701  10.841  67.691  1.00  0.00    -0.104 A  
HETATM   18  C   UNL     1      -6.336  11.137  67.605  1.00  0.00    -0.054 A  
HETATM   19  C   UNL     1      -5.927  12.425  67.969  1.00  0.00    -0.072 A  
HETATM   20  C   UNL     1      -6.850  13.376  68.395  1.00  0.00    -0.102 A  
HETATM   21  C   UNL     1      -8.209  13.065  68.474  1.00  0.00    -0.067 A  
HETATM   22  C   UNL     1      -8.651  11.770  68.124  1.00  0.00    -0.160 A  
ENDBRANCH  11  13
ENDBRANCH  10  11
ENDBRANCH   7  10
TORSDOF 3
ENDMDL
MODEL      242
REMARK 921   NORMALIZED FREE ENERGY PREDICTED BY IDOCK:   -3.24 KCAL/MOL
REMARK 922        TOTAL FREE ENERGY PREDICTED BY IDOCK:   -4.24 KCAL/MOL
REMARK 923 INTER-LIGAND FREE ENERGY PREDICTED BY IDOCK:   -4.24 KCAL/MOL
REMARK 924 INTRA-LIGAND FREE ENERGY PREDICTED BY IDOCK:   -0.00 KCAL/MOL
REMARK 927      BINDING AFFINITY PREDICTED BY RF-SCORE:    0.00 PKD
ROOT
HETATM    1  C   UNL     1      -7.206   9.419  70.734  1.00  0.00    -0.113 C  
HETATM    2  C   UNL     1      -7.309  10.615  69.783  1.00  0.00    -0.115 C  
HETATM    3  C   UNL     1      -6.979  10.042  68.407  1.00  0.00    -0.067 C  
HETATM    4  C   UNL     1      -6.713   8.556  68.664  1.00  0.00    -0.059 C  
HETATM    5  N   UNL     1      -6.216   8.588  70.039  1.00  0.00    -0.034 NA 
HETATM    6  C   UNL     1      -7.994   7.731  68.523  1.00  0.00    -0.122 C  
HETATM    7  C   UNL     1      -9.005   7.905  69.672  1.00  0.00    -0.146 C  
HETATM    8  C   UNL     1      -5.944   7.292  70.640  1.00  0.00    -0.031 C  
HETATM    9  C   UNL     1      -8.565   8.726  70.892  1.00  0.00    -0.229 C  
ENDROOT
BRANCH   7  10
HETATM   10  O   UNL     1     -10.197   8.450  69.086  1.00  0.00    -0.202 OA 
BRANCH  10  11
HETATM   11  C   UNL     1     -10.485   7.894  67.871  1.00  0.00    -0.198 C  
HETATM   12  O   UNL     1     -10.911   6.755  67.731  1.00  0.00    -0.244 OA 
BRANCH  11  13
HETATM   13  C   UNL     1     -10.096   8.764  66.769  1.00  0.00    -0.359 A  
HETATM   14  C   UNL     1      -9.406   8.379  65.630  1.00  0.00     0.005 A  
HETATM   15  N   UNL     1      -9.315   9.454  64.790  1.00  0.00    -0.431 NA 
HETATM   16  H   UNL     1      -8.856   9.446  63.878  1.00  0.00     0.000 HD 
HETATM   17  C   UNL     1      -9.933  10.547  65.351  1.00  0.00    -0.289 A  
HETATM   18  C   UNL     1     -10.094  11.844  64.852  1.00  0.00    -0.296 A  
HETATM   19  C   UNL     1     -10.790  12.762  65.646  1.00  0.00    -0.300 A  
HETATM   20  C   UNL     1     -11.308  12.392  66.884  1.00  0.00    -0.392 A  
HETATM   21  C   UNL     1     -11.139  11.092  67.367  1.00  0.00    -0.370 A  
HETATM   22  C   UNL     1     -10.431  10.146  66.593  1.00  0.00    -0.254 A  
ENDBRANCH  11  13
ENDBRANCH  10  11
ENDBRANCH   7  10
TORSDOF 3
ENDMDL
MODEL      243
REMARK 921   NORMALIZED FREE ENERGY PREDICTED BY IDOCK:   -3.21 KCAL/MOL
REMARK 922        TOTAL FREE ENERGY PREDICTED BY IDOCK:   -4.22 KCAL/MOL
REMARK 923 INTER-LIGAND FREE ENERGY PREDICTED BY IDOCK:   -3.98 KCAL/MOL
REMARK 924 INTRA-LIGAND FREE ENERGY PREDICTED BY IDOCK:   -0.23 KCAL/MOL
REMARK 927      BINDING AFFINITY PREDICTED BY RF-SCORE:    0.00 PKD
ROOT
HETATM    1  C   UNL     1      -7.118  10.001  65.910  1.00  0.00    -0.114 C  
HETATM    2  C   UNL     1      -8.480  10.685  65.768  1.00  0.00    -0.179 C  
HETATM    3  C   UNL     1      -9.103  10.046  64.529  1.00  0.00    -0.285 C  
HETATM    4  C   UNL     1      -8.055   9.038  64.049  1.00  0.00    -0.158 C  
HETATM    5  N   UNL     1      -6.819   9.668  64.513  1.00  0.00    -0.101 NA 
HETATM    6  C   UNL     1      -8.282   7.661  64.676  1.00  0.00    -0.067 C  
HETATM    7  C   UNL     1      -7.915   7.562  66.168  1.00  0.00    -0.111 C  
HETATM    8  C   UNL     1      -5.602   8.904  64.290  1.00  0.00    -0.064 C  
HETATM    9  C   UNL     1      -7.216   8.765  66.813  1.00  0.00    -0.082 C  
ENDROOT
BRANCH   7  10
HETATM   10  O   UNL     1      -9.129   7.236  66.864  1.00  0.00    -0.130 OA 
BRANCH  10  11
HETATM   11  C   UNL     1      -8.946   7.138  68.215  1.00  0.00    -0.125 C  
HETATM   12  O   UNL     1      -8.240   6.290  68.744  1.00  0.00    -0.117 OA 
BRANCH  11  13
HETATM   13  C   UNL     1      -9.796   8.069  68.947  1.00  0.00    -0.176 A  
HETATM   14  C   UNL     1      -9.917   9.428  68.701  1.00  0.00    -0.173 A  
HETATM   15  N   UNL     1     -10.879   9.937  69.531  1.00  0.00    -0.236 NA 
HETATM   16  H   UNL     1     -11.169  10.915  69.557  1.00  0.00     0.000 HD 
HETATM   17  C   UNL     1     -11.397   8.940  70.323  1.00  0.00    -0.159 A  
HETATM   18  C   UNL     1     -12.397   8.995  71.300  1.00  0.00    -0.361 A  
HETATM   19  C   UNL     1     -12.738   7.802  71.947  1.00  0.00    -0.328 A  
HETATM   20  C   UNL     1     -12.106   6.604  71.623  1.00  0.00    -0.404 A  
HETATM   21  C   UNL     1     -11.110   6.567  70.644  1.00  0.00    -0.364 A  
HETATM   22  C   UNL     1     -10.737   7.757  69.982  1.00  0.00    -0.245 A  
ENDBRANCH  11  13
ENDBRANCH  10  11
ENDBRANCH   7  10
TORSDOF 3
ENDMDL
MODEL      244
REMARK 921   NORMALIZED FREE ENERGY PREDICTED BY IDOCK:   -3.19 KCAL/MOL
REMARK 922        TOTAL FREE ENERGY PREDICTED BY IDOCK:   -4.19 KCAL/MOL
REMARK 923 INTER-LIGAND FREE ENERGY PREDICTED BY IDOCK:   -3.58 KCAL/MOL
REMARK 924 INTRA-LIGAND FREE ENERGY PREDICTED BY IDOCK:   -0.62 KCAL/MOL
REMARK 927      BINDING AFFINITY PREDICTED BY RF-SCORE:    0.00 PKD
ROOT
HETATM    1  C   UNL     1      -6.824   9.368  65.534  1.00  0.00    -0.078 C  
HETATM    2  C   UNL     1      -6.703  10.384  66.673  1.00  0.00    -0.090 C  
HETATM    3  C   UNL     1      -7.893  11.321  66.481  1.00  0.00    -0.133 C  
HETATM    4  C   UNL     1      -8.617  10.774  65.247  1.00  0.00    -0.148 C  
HETATM    5  N   UNL     1      -7.507  10.168  64.511  1.00  0.00    -0.142 NA 
HETATM    6  C   UNL     1      -9.688   9.754  65.639  1.00  0.00    -0.357 C  
HETATM    7  C   UNL     1      -9.142   8.393  66.110  1.00  0.00    -0.189 C  
HETATM    8  C   UNL     1      -7.873   9.461  63.294  1.00  0.00    -0.131 C  
HETATM    9  C   UNL     1      -7.634   8.143  65.977  1.00  0.00    -0.082 C  
ENDROOT
BRANCH   7  10
HETATM   10  O   UNL     1      -9.574   8.230  67.470  1.00  0.00    -0.145 OA 
BRANCH  10  11
HETATM   11  C   UNL     1     -10.185   7.027  67.685  1.00  0.00    -0.193 C  
HETATM   12  O   UNL     1     -10.688   6.354  66.794  1.00  0.00    -0.290 OA 
BRANCH  11  13
HETATM   13  C   UNL     1     -10.285   6.713  69.104  1.00  0.00    -0.201 A  
HETATM   14  C   UNL     1     -11.457   6.632  69.840  1.00  0.00    -0.354 A  
HETATM   15  N   UNL     1     -11.149   6.222  71.108  1.00  0.00    -0.286 NA 
HETATM   16  H   UNL     1     -11.827   6.079  71.857  1.00  0.00     0.000 HD 
HETATM   17  C   UNL     1      -9.793   6.030  71.227  1.00  0.00    -0.178 A  
HETATM   18  C   UNL     1      -9.037   5.606  72.325  1.00  0.00    -0.144 A  
HETATM   19  C   UNL     1      -7.654   5.482  72.151  1.00  0.00    -0.100 A  
HETATM   20  C   UNL     1      -7.057   5.765  70.926  1.00  0.00    -0.071 A  
HETATM   21  C   UNL     1      -7.827   6.186  69.839  1.00  0.00    -0.109 A  
HETATM   22  C   UNL     1      -9.224   6.330  69.987  1.00  0.00    -0.157 A  
ENDBRANCH  11  13
ENDBRANCH  10  11
ENDBRANCH   7  10
TORSDOF 3
ENDMDL
MODEL      245
REMARK 921   NORMALIZED FREE ENERGY PREDICTED BY IDOCK:   -3.18 KCAL/MOL
REMARK 922        TOTAL FREE ENERGY PREDICTED BY IDOCK:   -4.18 KCAL/MOL
REMARK 923 INTER-LIGAND FREE ENERGY PREDICTED BY IDOCK:   -3.48 KCAL/MOL
REMARK 924 INTRA-LIGAND FREE ENERGY PREDICTED BY IDOCK:   -0.70 KCAL/MOL
REMARK 927      BINDING AFFINITY PREDICTED BY RF-SCORE:    0.00 PKD
ROOT
HETATM    1  C   UNL     1      -6.310   8.668  71.553  1.00  0.00    -0.066 C  
HETATM    2  C   UNL     1      -5.894   9.982  70.886  1.00  0.00    -0.088 C  
HETATM    3  C   UNL     1      -5.531   9.588  69.456  1.00  0.00    -0.034 C  
HETATM    4  C   UNL     1      -5.768   8.076  69.402  1.00  0.00    -0.027 C  
HETATM    5  N   UNL     1      -5.515   7.698  70.792  1.00  0.00    -0.026 NA 
HETATM    6  C   UNL     1      -7.196   7.754  68.958  1.00  0.00    -0.080 C  
HETATM    7  C   UNL     1      -8.281   8.040  70.012  1.00  0.00    -0.118 C  
HETATM    8  C   UNL     1      -5.744   6.298  71.114  1.00  0.00    -0.026 C  
HETATM    9  C   UNL     1      -7.821   8.440  71.421  1.00  0.00    -0.137 C  
ENDROOT
BRANCH   7  10
HETATM   10  O   UNL     1      -9.144   9.040  69.449  1.00  0.00    -0.141 OA 
BRANCH  10  11
HETATM   11  C   UNL     1     -10.042   8.517  68.561  1.00  0.00    -0.194 C  
HETATM   12  O   UNL     1     -10.534   7.402  68.674  1.00  0.00    -0.196 OA 
BRANCH  11  13
HETATM   13  C   UNL     1     -10.232   9.383  67.405  1.00  0.00    -0.298 A  
HETATM   14  C   UNL     1     -11.003  10.534  67.367  1.00  0.00    -0.288 A  
HETATM   15  N   UNL     1     -10.853  11.120  66.140  1.00  0.00    -0.227 NA 
HETATM   16  H   UNL     1     -11.311  11.983  65.844  1.00  0.00     0.000 HD 
HETATM   17  C   UNL     1      -9.996  10.377  65.362  1.00  0.00    -0.295 A  
HETATM   18  C   UNL     1      -9.546  10.597  64.056  1.00  0.00    -0.351 A  
HETATM   19  C   UNL     1      -8.650   9.669  63.513  1.00  0.00    -0.215 A  
HETATM   20  C   UNL     1      -8.219   8.572  64.253  1.00  0.00    -0.147 A  
HETATM   21  C   UNL     1      -8.677   8.368  65.557  1.00  0.00    -0.196 A  
HETATM   22  C   UNL     1      -9.590   9.281  66.127  1.00  0.00    -0.327 A  
ENDBRANCH  11  13
ENDBRANCH  10  11
ENDBRANCH   7  10
TORSDOF 3
ENDMDL
MODEL      246
REMARK 921   NORMALIZED FREE ENERGY PREDICTED BY IDOCK:   -3.16 KCAL/MOL
REMARK 922        TOTAL FREE ENERGY PREDICTED BY IDOCK:   -4.15 KCAL/MOL
REMARK 923 INTER-LIGAND FREE ENERGY PREDICTED BY IDOCK:   -3.59 KCAL/MOL
REMARK 924 INTRA-LIGAND FREE ENERGY PREDICTED BY IDOCK:   -0.56 KCAL/MOL
REMARK 927      BINDING AFFINITY PREDICTED BY RF-SCORE:    0.00 PKD
ROOT
HETATM    1  C   UNL     1      -8.092   7.037  68.414  1.00  0.00    -0.124 C  
HETATM    2  C   UNL     1      -9.579   7.287  68.682  1.00  0.00    -0.141 C  
HETATM    3  C   UNL     1      -9.733   7.112  70.191  1.00  0.00    -0.171 C  
HETATM    4  C   UNL     1      -8.322   6.779  70.684  1.00  0.00    -0.129 C  
HETATM    5  N   UNL     1      -7.756   6.119  69.507  1.00  0.00    -0.097 NA 
HETATM    6  C   UNL     1      -7.555   8.046  71.070  1.00  0.00    -0.083 C  
HETATM    7  C   UNL     1      -7.100   8.913  69.882  1.00  0.00    -0.055 C  
HETATM    8  C   UNL     1      -6.356   5.741  69.611  1.00  0.00    -0.037 C  
HETATM    9  C   UNL     1      -7.298   8.349  68.468  1.00  0.00    -0.093 C  
ENDROOT
BRANCH   7  10
HETATM   10  O   UNL     1      -7.756  10.181  70.028  1.00  0.00    -0.170 OA 
BRANCH  10  11
HETATM   11  C   UNL     1      -6.960  11.229  69.658  1.00  0.00    -0.056 C  
HETATM   12  O   UNL     1      -5.912  11.516  70.223  1.00  0.00    -0.144 OA 
BRANCH  11  13
HETATM   13  C   UNL     1      -7.572  12.035  68.611  1.00  0.00    -0.112 A  
HETATM   14  C   UNL     1      -6.929  12.981  67.828  1.00  0.00    -0.143 A  
HETATM   15  N   UNL     1      -7.813  13.452  66.897  1.00  0.00    -0.370 NA 
HETATM   16  H   UNL     1      -7.598  14.158  66.192  1.00  0.00     0.000 HD 
HETATM   17  C   UNL     1      -9.033  12.836  67.048  1.00  0.00    -0.221 A  
HETATM   18  C   UNL     1     -10.217  12.994  66.320  1.00  0.00    -0.291 A  
HETATM   19  C   UNL     1     -11.316  12.211  66.692  1.00  0.00    -0.405 A  
HETATM   20  C   UNL     1     -11.227  11.304  67.745  1.00  0.00    -0.354 A  
HETATM   21  C   UNL     1     -10.036  11.158  68.460  1.00  0.00    -0.208 A  
HETATM   22  C   UNL     1      -8.914  11.942  68.115  1.00  0.00    -0.185 A  
ENDBRANCH  11  13
ENDBRANCH  10  11
ENDBRANCH   7  10
TORSDOF 3
ENDMDL
MODEL      247
REMARK 921   NORMALIZED FREE ENERGY PREDICTED BY IDOCK:   -3.16 KCAL/MOL
REMARK 922        TOTAL FREE ENERGY PREDICTED BY IDOCK:   -4.15 KCAL/MOL
REMARK 923 INTER-LIGAND FREE ENERGY PREDICTED BY IDOCK:   -3.58 KCAL/MOL
REMARK 924 INTRA-LIGAND FREE ENERGY PREDICTED BY IDOCK:   -0.58 KCAL/MOL
REMARK 927      BINDING AFFINITY PREDICTED BY RF-SCORE:    0.00 PKD
ROOT
HETATM    1  C   UNL     1     -11.184   7.466  70.299  1.00  0.00    -0.247 C  
HETATM    2  C   UNL     1     -11.619   8.596  71.236  1.00  0.00    -0.340 C  
HETATM    3  C   UNL     1     -10.387   8.879  72.094  1.00  0.00    -0.313 C  
HETATM    4  C   UNL     1      -9.331   7.894  71.585  1.00  0.00    -0.148 C  
HETATM    5  N   UNL     1     -10.170   6.791  71.117  1.00  0.00    -0.193 NA 
HETATM    6  C   UNL     1      -8.493   8.510  70.462  1.00  0.00    -0.143 C  
HETATM    7  C   UNL     1      -9.225   8.656  69.116  1.00  0.00    -0.152 C  
HETATM    8  C   UNL     1      -9.465   5.693  70.475  1.00  0.00    -0.163 C  
HETATM    9  C   UNL     1     -10.619   8.028  68.988  1.00  0.00    -0.169 C  
ENDROOT
BRANCH   7  10
HETATM   10  O   UNL     1      -9.264  10.062  68.824  1.00  0.00    -0.146 OA 
BRANCH  10  11
HETATM   11  C   UNL     1      -8.667  10.366  67.632  1.00  0.00    -0.118 C  
HETATM   12  O   UNL     1      -8.236   9.523  66.856  1.00  0.00    -0.112 OA 
BRANCH  11  13
HETATM   13  C   UNL     1      -8.483  11.802  67.467  1.00  0.00    -0.154 A  
HETATM   14  C   UNL     1      -9.107  12.599  66.520  1.00  0.00    -0.162 A  
HETATM   15  N   UNL     1      -8.753  13.901  66.745  1.00  0.00    -0.422 NA 
HETATM   16  H   UNL     1      -9.073  14.697  66.192  1.00  0.00     0.000 HD 
HETATM   17  C   UNL     1      -7.906  13.982  67.824  1.00  0.00    -0.171 A  
HETATM   18  C   UNL     1      -7.307  15.099  68.417  1.00  0.00    -0.115 A  
HETATM   19  C   UNL     1      -6.491  14.882  69.532  1.00  0.00    -0.143 A  
HETATM   20  C   UNL     1      -6.290  13.600  70.035  1.00  0.00    -0.065 A  
HETATM   21  C   UNL     1      -6.897  12.495  69.432  1.00  0.00     0.033 A  
HETATM   22  C   UNL     1      -7.717  12.682  68.298  1.00  0.00    -0.135 A  
ENDBRANCH  11  13
ENDBRANCH  10  11
ENDBRANCH   7  10
TORSDOF 3
ENDMDL
MODEL      248
REMARK 921   NORMALIZED FREE ENERGY PREDICTED BY IDOCK:   -3.15 KCAL/MOL
REMARK 922        TOTAL FREE ENERGY PREDICTED BY IDOCK:   -4.14 KCAL/MOL
REMARK 923 INTER-LIGAND FREE ENERGY PREDICTED BY IDOCK:   -3.87 KCAL/MOL
REMARK 924 INTRA-LIGAND FREE ENERGY PREDICTED BY IDOCK:   -0.27 KCAL/MOL
REMARK 927      BINDING AFFINITY PREDICTED BY RF-SCORE:    0.00 PKD
ROOT
HETATM    1  C   UNL     1      -8.140   8.477  64.990  1.00  0.00    -0.148 C  
HETATM    2  C   UNL     1      -7.281   7.228  64.775  1.00  0.00    -0.072 C  
HETATM    3  C   UNL     1      -6.026   7.477  65.609  1.00  0.00    -0.038 C  
HETATM    4  C   UNL     1      -6.256   8.849  66.248  1.00  0.00    -0.064 C  
HETATM    5  N   UNL     1      -7.111   9.490  65.249  1.00  0.00    -0.095 NA 
HETATM    6  C   UNL     1      -6.941   8.719  67.610  1.00  0.00    -0.075 C  
HETATM    7  C   UNL     1      -8.430   8.329  67.549  1.00  0.00    -0.130 C  
HETATM    8  C   UNL     1      -7.600  10.815  65.596  1.00  0.00    -0.044 C  
HETATM    9  C   UNL     1      -9.101   8.284  66.170  1.00  0.00    -0.238 C  
ENDROOT
BRANCH   7  10
HETATM   10  O   UNL     1      -8.547   7.066  68.222  1.00  0.00    -0.128 OA 
BRANCH  10  11
HETATM   11  C   UNL     1      -8.554   7.196  69.583  1.00  0.00    -0.137 C  
HETATM   12  O   UNL     1      -7.558   7.463  70.243  1.00  0.00    -0.085 OA 
BRANCH  11  13
HETATM   13  C   UNL     1      -9.847   6.846  70.156  1.00  0.00    -0.185 A  
HETATM   14  C   UNL     1     -10.311   5.562  70.398  1.00  0.00    -0.276 A  
HETATM   15  N   UNL     1     -11.521   5.647  71.029  1.00  0.00     0.048 NA 
HETATM   16  H   UNL     1     -12.084   4.848  71.323  1.00  0.00     0.000 HD 
HETATM   17  C   UNL     1     -11.869   6.964  71.210  1.00  0.00    -0.341 A  
HETATM   18  C   UNL     1     -13.003   7.521  71.813  1.00  0.00    -0.364 A  
HETATM   19  C   UNL     1     -13.086   8.917  71.872  1.00  0.00    -0.436 A  
HETATM   20  C   UNL     1     -12.073   9.718  71.354  1.00  0.00    -0.486 A  
HETATM   21  C   UNL     1     -10.947   9.146  70.757  1.00  0.00    -0.332 A  
HETATM   22  C   UNL     1     -10.840   7.740  70.673  1.00  0.00    -0.241 A  
ENDBRANCH  11  13
ENDBRANCH  10  11
ENDBRANCH   7  10
TORSDOF 3
ENDMDL
MODEL      249
REMARK 921   NORMALIZED FREE ENERGY PREDICTED BY IDOCK:   -3.14 KCAL/MOL
REMARK 922        TOTAL FREE ENERGY PREDICTED BY IDOCK:   -4.13 KCAL/MOL
REMARK 923 INTER-LIGAND FREE ENERGY PREDICTED BY IDOCK:   -3.63 KCAL/MOL
REMARK 924 INTRA-LIGAND FREE ENERGY PREDICTED BY IDOCK:   -0.50 KCAL/MOL
REMARK 927      BINDING AFFINITY PREDICTED BY RF-SCORE:    0.00 PKD
ROOT
HETATM    1  C   UNL     1      -9.618   6.768  72.025  1.00  0.00    -0.147 C  
HETATM    2  C   UNL     1      -9.207   5.479  71.309  1.00  0.00    -0.169 C  
HETATM    3  C   UNL     1     -10.378   5.164  70.381  1.00  0.00    -0.326 C  
HETATM    4  C   UNL     1     -11.378   6.298  70.627  1.00  0.00    -0.343 C  
HETATM    5  N   UNL     1     -11.079   6.644  72.017  1.00  0.00    -0.245 NA 
HETATM    6  C   UNL     1     -11.140   7.466  69.668  1.00  0.00    -0.129 C  
HETATM    7  C   UNL     1      -9.883   8.304  69.970  1.00  0.00    -0.182 C  
HETATM    8  C   UNL     1     -11.815   7.779  72.554  1.00  0.00    -0.302 C  
HETATM    9  C   UNL     1      -9.117   8.002  71.265  1.00  0.00    -0.168 C  
ENDROOT
BRANCH   7  10
HETATM   10  O   UNL     1      -9.027   8.181  68.823  1.00  0.00    -0.143 OA 
BRANCH  10  11
HETATM   11  C   UNL     1      -8.629   9.395  68.336  1.00  0.00    -0.124 C  
HETATM   12  O   UNL     1      -9.055  10.464  68.750  1.00  0.00    -0.148 OA 
BRANCH  11  13
HETATM   13  C   UNL     1      -7.749   9.255  67.183  1.00  0.00    -0.095 A  
HETATM   14  C   UNL     1      -6.440   8.799  67.207  1.00  0.00    -0.058 A  
HETATM   15  N   UNL     1      -5.982   8.719  65.921  1.00  0.00    -0.051 NA 
HETATM   16  H   UNL     1      -5.047   8.411  65.651  1.00  0.00     0.000 HD 
HETATM   17  C   UNL     1      -6.964   9.114  65.043  1.00  0.00    -0.081 A  
HETATM   18  C   UNL     1      -6.947   9.183  63.645  1.00  0.00    -0.089 A  
HETATM   19  C   UNL     1      -8.114   9.613  63.004  1.00  0.00    -0.143 A  
HETATM   20  C   UNL     1      -9.250   9.953  63.733  1.00  0.00    -0.289 A  
HETATM   21  C   UNL     1      -9.250   9.877  65.128  1.00  0.00    -0.288 A  
HETATM   22  C   UNL     1      -8.083   9.457  65.804  1.00  0.00    -0.114 A  
ENDBRANCH  11  13
ENDBRANCH  10  11
ENDBRANCH   7  10
TORSDOF 3
ENDMDL
MODEL      250
REMARK 921   NORMALIZED FREE ENERGY PREDICTED BY IDOCK:   -2.96 KCAL/MOL
REMARK 922        TOTAL FREE ENERGY PREDICTED BY IDOCK:   -3.92 KCAL/MOL
REMARK 923 INTER-LIGAND FREE ENERGY PREDICTED BY IDOCK:   -4.48 KCAL/MOL
REMARK 924 INTRA-LIGAND FREE ENERGY PREDICTED BY IDOCK:    0.56 KCAL/MOL
REMARK 927      BINDING AFFINITY PREDICTED BY RF-SCORE:    0.00 PKD
ROOT
HETATM    1  C   UNL     1     -12.375  13.205  65.705  1.00  0.00    -0.435 C  
HETATM    2  C   UNL     1     -12.910  12.320  64.576  1.00  0.00    -0.228 C  
HETATM    3  C   UNL     1     -11.901  12.492  63.443  1.00  0.00    -0.587 C  
HETATM    4  C   UNL     1     -10.855  13.461  64.003  1.00  0.00    -0.184 C  
HETATM    5  N   UNL     1     -11.662  14.237  64.946  1.00  0.00    -0.377 NA 
HETATM    6  C   UNL     1      -9.714  12.708  64.690  1.00  0.00     0.061 C  
HETATM    7  C   UNL     1     -10.080  12.078  66.047  1.00  0.00    -0.230 C  
HETATM    8  C   UNL     1     -10.934  15.217  65.736  1.00  0.00    -0.338 C  
HETATM    9  C   UNL     1     -11.457  12.406  66.639  1.00  0.00    -0.429 C  
ENDROOT
BRANCH   7  10
HETATM   10  O   UNL     1      -9.908  10.660  65.897  1.00  0.00    -0.219 OA 
BRANCH  10  11
HETATM   11  C   UNL     1     -10.366   9.959  66.978  1.00  0.00    -0.239 C  
HETATM   12  O   UNL     1     -11.478  10.118  67.465  1.00  0.00    -0.249 OA 
BRANCH  11  13
HETATM   13  C   UNL     1      -9.331   9.112  67.555  1.00  0.00    -0.157 A  
HETATM   14  C   UNL     1      -8.549   9.417  68.658  1.00  0.00    -0.123 A  
HETATM   15  N   UNL     1      -7.765   8.335  68.950  1.00  0.00    -0.100 NA 
HETATM   16  H   UNL     1      -7.094   8.290  69.718  1.00  0.00     0.000 HD 
HETATM   17  C   UNL     1      -8.014   7.317  68.060  1.00  0.00    -0.119 A  
HETATM   18  C   UNL     1      -7.459   6.034  67.983  1.00  0.00    -0.085 A  
HETATM   19  C   UNL     1      -7.919   5.189  66.967  1.00  0.00    -0.100 A  
HETATM   20  C   UNL     1      -8.899   5.611  66.072  1.00  0.00    -0.147 A  
HETATM   21  C   UNL     1      -9.443   6.894  66.165  1.00  0.00    -0.054 A  
HETATM   22  C   UNL     1      -8.990   7.774  67.173  1.00  0.00    -0.138 A  
ENDBRANCH  11  13
ENDBRANCH  10  11
ENDBRANCH   7  10
TORSDOF 3
ENDMDL
MODEL      251
REMARK 921   NORMALIZED FREE ENERGY PREDICTED BY IDOCK:   -2.95 KCAL/MOL
REMARK 922        TOTAL FREE ENERGY PREDICTED BY IDOCK:   -3.90 KCAL/MOL
REMARK 923 INTER-LIGAND FREE ENERGY PREDICTED BY IDOCK:   -3.51 KCAL/MOL
REMARK 924 INTRA-LIGAND FREE ENERGY PREDICTED BY IDOCK:   -0.39 KCAL/MOL
REMARK 927      BINDING AFFINITY PREDICTED BY RF-SCORE:    0.00 PKD
ROOT
HETATM    1  C   UNL     1      -8.706   8.189  71.668  1.00  0.00    -0.145 C  
HETATM    2  C   UNL     1     -10.193   8.393  71.970  1.00  0.00    -0.364 C  
HETATM    3  C   UNL     1     -10.693   9.298  70.847  1.00  0.00    -0.371 C  
HETATM    4  C   UNL     1      -9.458   9.547  69.976  1.00  0.00    -0.232 C  
HETATM    5  N   UNL     1      -8.385   9.436  70.964  1.00  0.00    -0.307 NA 
HETATM    6  C   UNL     1      -9.342   8.501  68.865  1.00  0.00    -0.146 C  
HETATM    7  C   UNL     1      -8.914   7.100  69.339  1.00  0.00    -0.136 C  
HETATM    8  C   UNL     1      -7.033   9.536  70.438  1.00  0.00    -0.112 C  
HETATM    9  C   UNL     1      -8.488   6.940  70.805  1.00  0.00    -0.136 C  
ENDROOT
BRANCH   7  10
HETATM   10  O   UNL     1      -9.997   6.213  69.017  1.00  0.00    -0.141 OA 
BRANCH  10  11
HETATM   11  C   UNL     1      -9.572   4.938  68.765  1.00  0.00    -0.156 C  
HETATM   12  O   UNL     1      -9.706   4.011  69.554  1.00  0.00    -0.202 OA 
BRANCH  11  13
HETATM   13  C   UNL     1      -8.824   4.850  67.518  1.00  0.00    -0.105 A  
HETATM   14  C   UNL     1      -7.446   4.916  67.387  1.00  0.00    -0.082 A  
HETATM   15  N   UNL     1      -7.121   4.698  66.076  1.00  0.00    -0.073 NA 
HETATM   16  H   UNL     1      -6.171   4.691  65.703  1.00  0.00     0.000 HD 
HETATM   17  C   UNL     1      -8.260   4.489  65.335  1.00  0.00    -0.111 A  
HETATM   18  C   UNL     1      -8.408   4.220  63.969  1.00  0.00    -0.103 A  
HETATM   19  C   UNL     1      -9.707   4.033  63.483  1.00  0.00    -0.143 A  
HETATM   20  C   UNL     1     -10.808   4.107  64.331  1.00  0.00    -0.115 A  
HETATM   21  C   UNL     1     -10.642   4.376  65.692  1.00  0.00    -0.179 A  
HETATM   22  C   UNL     1      -9.344   4.580  66.210  1.00  0.00    -0.151 A  
ENDBRANCH  11  13
ENDBRANCH  10  11
ENDBRANCH   7  10
TORSDOF 3
ENDMDL
MODEL      252
REMARK 921   NORMALIZED FREE ENERGY PREDICTED BY IDOCK:   -2.91 KCAL/MOL
REMARK 922        TOTAL FREE ENERGY PREDICTED BY IDOCK:   -3.86 KCAL/MOL
REMARK 923 INTER-LIGAND FREE ENERGY PREDICTED BY IDOCK:   -3.20 KCAL/MOL
REMARK 924 INTRA-LIGAND FREE ENERGY PREDICTED BY IDOCK:   -0.66 KCAL/MOL
REMARK 927      BINDING AFFINITY PREDICTED BY RF-SCORE:    0.00 PKD
ROOT
HETATM    1  C   UNL     1      -8.185   7.662  66.259  1.00  0.00    -0.120 C  
HETATM    2  C   UNL     1      -7.590   9.020  65.877  1.00  0.00    -0.094 C  
HETATM    3  C   UNL     1      -8.520  10.042  66.526  1.00  0.00    -0.128 C  
HETATM    4  C   UNL     1      -9.582   9.199  67.238  1.00  0.00    -0.154 C  
HETATM    5  N   UNL     1      -9.606   8.002  66.397  1.00  0.00    -0.214 NA 
HETATM    6  C   UNL     1      -9.173   8.894  68.680  1.00  0.00    -0.137 C  
HETATM    7  C   UNL     1      -8.037   7.864  68.826  1.00  0.00    -0.126 C  
HETATM    8  C   UNL     1     -10.473   6.928  66.857  1.00  0.00    -0.279 C  
HETATM    9  C   UNL     1      -7.565   7.137  67.559  1.00  0.00    -0.110 C  
ENDROOT
BRANCH   7  10
HETATM   10  O   UNL     1      -6.948   8.546  69.466  1.00  0.00    -0.047 OA 
BRANCH  10  11
HETATM   11  C   UNL     1      -7.223   8.869  70.765  1.00  0.00    -0.083 C  
HETATM   12  O   UNL     1      -7.250  10.019  71.186  1.00  0.00    -0.250 OA 
BRANCH  11  13
HETATM   13  C   UNL     1      -7.342   7.686  71.607  1.00  0.00    -0.068 A  
HETATM   14  C   UNL     1      -6.373   6.710  71.782  1.00  0.00    -0.042 A  
HETATM   15  N   UNL     1      -6.818   5.817  72.717  1.00  0.00    -0.073 NA 
HETATM   16  H   UNL     1      -6.299   4.998  73.036  1.00  0.00     0.000 HD 
HETATM   17  C   UNL     1      -8.065   6.182  73.166  1.00  0.00    -0.111 A  
HETATM   18  C   UNL     1      -8.891   5.578  74.120  1.00  0.00    -0.119 A  
HETATM   19  C   UNL     1     -10.121   6.188  74.392  1.00  0.00    -0.337 A  
HETATM   20  C   UNL     1     -10.501   7.358  73.740  1.00  0.00    -0.258 A  
HETATM   21  C   UNL     1      -9.663   7.949  72.792  1.00  0.00    -0.322 A  
HETATM   22  C   UNL     1      -8.421   7.350  72.487  1.00  0.00    -0.131 A  
ENDBRANCH  11  13
ENDBRANCH  10  11
ENDBRANCH   7  10
TORSDOF 3
ENDMDL
MODEL      253
REMARK 921   NORMALIZED FREE ENERGY PREDICTED BY IDOCK:   -2.91 KCAL/MOL
REMARK 922        TOTAL FREE ENERGY PREDICTED BY IDOCK:   -3.85 KCAL/MOL
REMARK 923 INTER-LIGAND FREE ENERGY PREDICTED BY IDOCK:   -3.50 KCAL/MOL
REMARK 924 INTRA-LIGAND FREE ENERGY PREDICTED BY IDOCK:   -0.36 KCAL/MOL
REMARK 927      BINDING AFFINITY PREDICTED BY RF-SCORE:    0.00 PKD
ROOT
HETATM    1  C   UNL     1      -8.769   8.038  65.541  1.00  0.00    -0.102 C  
HETATM    2  C   UNL     1      -7.699   7.100  64.975  1.00  0.00    -0.115 C  
HETATM    3  C   UNL     1      -6.374   7.733  65.393  1.00  0.00    -0.041 C  
HETATM    4  C   UNL     1      -6.777   8.988  66.173  1.00  0.00    -0.070 C  
HETATM    5  N   UNL     1      -8.054   9.319  65.542  1.00  0.00    -0.110 NA 
HETATM    6  C   UNL     1      -6.922   8.689  67.667  1.00  0.00    -0.075 C  
HETATM    7  C   UNL     1      -8.169   7.869  68.044  1.00  0.00    -0.127 C  
HETATM    8  C   UNL     1      -8.769  10.444  66.122  1.00  0.00    -0.152 C  
HETATM    9  C   UNL     1      -9.202   7.593  66.943  1.00  0.00    -0.179 C  
ENDROOT
BRANCH   7  10
HETATM   10  O   UNL     1      -7.692   6.644  68.623  1.00  0.00    -0.105 OA 
BRANCH  10  11
HETATM   11  C   UNL     1      -7.018   6.847  69.795  1.00  0.00    -0.062 C  
HETATM   12  O   UNL     1      -5.874   6.462  69.993  1.00  0.00    -0.017 OA 
BRANCH  11  13
HETATM   13  C   UNL     1      -7.869   7.448  70.814  1.00  0.00    -0.096 A  
HETATM   14  C   UNL     1      -7.520   8.493  71.654  1.00  0.00    -0.105 A  
HETATM   15  N   UNL     1      -8.613   8.837  72.401  1.00  0.00    -0.406 NA 
HETATM   16  H   UNL     1      -8.633   9.580  73.101  1.00  0.00     0.000 HD 
HETATM   17  C   UNL     1      -9.682   8.037  72.071  1.00  0.00    -0.203 A  
HETATM   18  C   UNL     1     -10.991   8.036  72.565  1.00  0.00    -0.430 A  
HETATM   19  C   UNL     1     -11.887   7.106  72.025  1.00  0.00    -0.333 A  
HETATM   20  C   UNL     1     -11.487   6.220  71.029  1.00  0.00    -0.370 A  
HETATM   21  C   UNL     1     -10.175   6.236  70.547  1.00  0.00    -0.240 A  
HETATM   22  C   UNL     1      -9.246   7.155  71.079  1.00  0.00    -0.158 A  
ENDBRANCH  11  13
ENDBRANCH  10  11
ENDBRANCH   7  10
TORSDOF 3
ENDMDL
MODEL      254
REMARK 921   NORMALIZED FREE ENERGY PREDICTED BY IDOCK:   -2.90 KCAL/MOL
REMARK 922        TOTAL FREE ENERGY PREDICTED BY IDOCK:   -3.85 KCAL/MOL
REMARK 923 INTER-LIGAND FREE ENERGY PREDICTED BY IDOCK:   -3.16 KCAL/MOL
REMARK 924 INTRA-LIGAND FREE ENERGY PREDICTED BY IDOCK:   -0.69 KCAL/MOL
REMARK 927      BINDING AFFINITY PREDICTED BY RF-SCORE:    0.00 PKD
ROOT
HETATM    1  C   UNL     1      -8.309   5.946  72.218  1.00  0.00    -0.118 C  
HETATM    2  C   UNL     1      -9.563   5.203  72.688  1.00  0.00    -0.170 C  
HETATM    3  C   UNL     1     -10.577   6.307  72.979  1.00  0.00    -0.263 C  
HETATM    4  C   UNL     1      -9.835   7.606  72.652  1.00  0.00    -0.206 C  
HETATM    5  N   UNL     1      -8.451   7.222  72.929  1.00  0.00    -0.108 NA 
HETATM    6  C   UNL     1     -10.050   8.015  71.194  1.00  0.00    -0.221 C  
HETATM    7  C   UNL     1      -9.301   7.150  70.163  1.00  0.00    -0.158 C  
HETATM    8  C   UNL     1      -7.447   8.230  72.628  1.00  0.00    -0.112 C  
HETATM    9  C   UNL     1      -8.307   6.107  70.693  1.00  0.00    -0.126 C  
ENDROOT
BRANCH   7  10
HETATM   10  O   UNL     1     -10.306   6.534  69.342  1.00  0.00    -0.182 OA 
BRANCH  10  11
HETATM   11  C   UNL     1      -9.934   6.457  68.029  1.00  0.00    -0.135 C  
HETATM   12  O   UNL     1      -9.740   5.401  67.441  1.00  0.00    -0.126 OA 
BRANCH  11  13
HETATM   13  C   UNL     1      -9.667   7.771  67.462  1.00  0.00    -0.201 A  
HETATM   14  C   UNL     1     -10.575   8.813  67.353  1.00  0.00    -0.233 A  
HETATM   15  N   UNL     1      -9.925   9.910  66.859  1.00  0.00    -0.201 NA 
HETATM   16  H   UNL     1     -10.359  10.816  66.682  1.00  0.00     0.000 HD 
HETATM   17  C   UNL     1      -8.600   9.615  66.637  1.00  0.00    -0.130 A  
HETATM   18  C   UNL     1      -7.567  10.424  66.152  1.00  0.00    -0.130 A  
HETATM   19  C   UNL     1      -6.294   9.854  66.043  1.00  0.00    -0.082 A  
HETATM   20  C   UNL     1      -6.067   8.530  66.410  1.00  0.00    -0.056 A  
HETATM   21  C   UNL     1      -7.110   7.737  66.893  1.00  0.00    -0.081 A  
HETATM   22  C   UNL     1      -8.408   8.281  67.004  1.00  0.00    -0.122 A  
ENDBRANCH  11  13
ENDBRANCH  10  11
ENDBRANCH   7  10
TORSDOF 3
ENDMDL
MODEL      255
REMARK 921   NORMALIZED FREE ENERGY PREDICTED BY IDOCK:   -2.90 KCAL/MOL
REMARK 922        TOTAL FREE ENERGY PREDICTED BY IDOCK:   -3.85 KCAL/MOL
REMARK 923 INTER-LIGAND FREE ENERGY PREDICTED BY IDOCK:   -3.49 KCAL/MOL
REMARK 924 INTRA-LIGAND FREE ENERGY PREDICTED BY IDOCK:   -0.35 KCAL/MOL
REMARK 927      BINDING AFFINITY PREDICTED BY RF-SCORE:    0.00 PKD
ROOT
HETATM    1  C   UNL     1     -10.581  13.895  68.455  1.00  0.00    -0.252 C  
HETATM    2  C   UNL     1     -11.861  13.056  68.418  1.00  0.00    -0.370 C  
HETATM    3  C   UNL     1     -11.858  12.412  67.034  1.00  0.00    -0.368 C  
HETATM    4  C   UNL     1     -10.574  12.924  66.375  1.00  0.00    -0.271 C  
HETATM    5  N   UNL     1     -10.411  14.219  67.035  1.00  0.00    -0.270 NA 
HETATM    6  C   UNL     1      -9.399  11.979  66.641  1.00  0.00    -0.221 C  
HETATM    7  C   UNL     1      -8.855  12.014  68.081  1.00  0.00    -0.182 C  
HETATM    8  C   UNL     1      -9.203  14.952  66.691  1.00  0.00    -0.276 C  
HETATM    9  C   UNL     1      -9.411  13.086  69.029  1.00  0.00     0.407 C  
ENDROOT
BRANCH   7  10
HETATM   10  O   UNL     1      -9.048  10.697  68.621  1.00  0.00    -0.154 OA 
BRANCH  10  11
HETATM   11  C   UNL     1      -8.528  10.566  69.878  1.00  0.00     0.261 C  
HETATM   12  O   UNL     1      -7.393  10.910  70.181  1.00  0.00    -0.066 OA 
BRANCH  11  13
HETATM   13  C   UNL     1      -9.431   9.849  70.768  1.00  0.00     0.239 A  
HETATM   14  C   UNL     1     -10.813   9.809  70.668  1.00  0.00    -0.329 A  
HETATM   15  N   UNL     1     -11.296   8.957  71.623  1.00  0.00    -0.312 NA 
HETATM   16  H   UNL     1     -12.283   8.742  71.770  1.00  0.00     0.000 HD 
HETATM   17  C   UNL     1     -10.258   8.431  72.356  1.00  0.00    -0.329 A  
HETATM   18  C   UNL     1     -10.278   7.518  73.417  1.00  0.00    -0.399 A  
HETATM   19  C   UNL     1      -9.049   7.143  73.971  1.00  0.00    -0.260 A  
HETATM   20  C   UNL     1      -7.853   7.656  73.478  1.00  0.00    -0.169 A  
HETATM   21  C   UNL     1      -7.852   8.566  72.418  1.00  0.00    -0.112 A  
HETATM   22  C   UNL     1      -9.077   8.972  71.845  1.00  0.00    -0.061 A  
ENDBRANCH  11  13
ENDBRANCH  10  11
ENDBRANCH   7  10
TORSDOF 3
ENDMDL
MODEL      256
REMARK 921   NORMALIZED FREE ENERGY PREDICTED BY IDOCK:   -2.86 KCAL/MOL
REMARK 922        TOTAL FREE ENERGY PREDICTED BY IDOCK:   -3.79 KCAL/MOL
REMARK 923 INTER-LIGAND FREE ENERGY PREDICTED BY IDOCK:   -3.17 KCAL/MOL
REMARK 924 INTRA-LIGAND FREE ENERGY PREDICTED BY IDOCK:   -0.63 KCAL/MOL
REMARK 927      BINDING AFFINITY PREDICTED BY RF-SCORE:    0.00 PKD
ROOT
HETATM    1  C   UNL     1      -9.078   6.594  71.907  1.00  0.00    -0.143 C  
HETATM    2  C   UNL     1      -8.709   5.109  71.973  1.00  0.00    -0.134 C  
HETATM    3  C   UNL     1      -9.900   4.389  71.346  1.00  0.00    -0.262 C  
HETATM    4  C   UNL     1     -10.868   5.512  70.961  1.00  0.00    -0.173 C  
HETATM    5  N   UNL     1     -10.542   6.526  71.964  1.00  0.00    -0.213 NA 
HETATM    6  C   UNL     1     -10.615   5.998  69.532  1.00  0.00    -0.363 C  
HETATM    7  C   UNL     1      -9.334   6.833  69.351  1.00  0.00    -0.148 C  
HETATM    8  C   UNL     1     -11.241   7.794  71.826  1.00  0.00    -0.256 C  
HETATM    9  C   UNL     1      -8.557   7.232  70.613  1.00  0.00    -0.142 C  
ENDROOT
BRANCH   7  10
HETATM   10  O   UNL     1      -8.498   6.104  68.440  1.00  0.00    -0.113 OA 
BRANCH  10  11
HETATM   11  C   UNL     1      -8.328   6.755  67.250  1.00  0.00    -0.121 C  
HETATM   12  O   UNL     1      -8.611   7.933  67.076  1.00  0.00    -0.124 OA 
BRANCH  11  13
HETATM   13  C   UNL     1      -7.906   5.849  66.189  1.00  0.00    -0.104 A  
HETATM   14  C   UNL     1      -6.599   5.607  65.797  1.00  0.00    -0.041 A  
HETATM   15  N   UNL     1      -6.604   4.628  64.842  1.00  0.00    -0.042 NA 
HETATM   16  H   UNL     1      -5.773   4.256  64.381  1.00  0.00     0.000 HD 
HETATM   17  C   UNL     1      -7.892   4.216  64.593  1.00  0.00    -0.085 A  
HETATM   18  C   UNL     1      -8.371   3.240  63.712  1.00  0.00    -0.090 A  
HETATM   19  C   UNL     1      -9.752   3.018  63.679  1.00  0.00    -0.131 A  
HETATM   20  C   UNL     1     -10.615   3.740  64.499  1.00  0.00    -0.168 A  
HETATM   21  C   UNL     1     -10.119   4.710  65.374  1.00  0.00    -0.170 A  
HETATM   22  C   UNL     1      -8.732   4.964  65.422  1.00  0.00    -0.143 A  
ENDBRANCH  11  13
ENDBRANCH  10  11
ENDBRANCH   7  10
TORSDOF 3
ENDMDL
MODEL      257
REMARK 921   NORMALIZED FREE ENERGY PREDICTED BY IDOCK:   -2.77 KCAL/MOL
REMARK 922        TOTAL FREE ENERGY PREDICTED BY IDOCK:   -3.70 KCAL/MOL
REMARK 923 INTER-LIGAND FREE ENERGY PREDICTED BY IDOCK:   -3.12 KCAL/MOL
REMARK 924 INTRA-LIGAND FREE ENERGY PREDICTED BY IDOCK:   -0.57 KCAL/MOL
REMARK 927      BINDING AFFINITY PREDICTED BY RF-SCORE:    0.00 PKD
ROOT
HETATM    1  C   UNL     1      -8.154   8.443  70.233  1.00  0.00    -0.104 C  
HETATM    2  C   UNL     1      -8.552   8.477  71.711  1.00  0.00    -0.254 C  
HETATM    3  C   UNL     1     -10.005   8.946  71.708  1.00  0.00    -0.397 C  
HETATM    4  C   UNL     1     -10.340   9.145  70.227  1.00  0.00    -0.214 C  
HETATM    5  N   UNL     1      -9.026   9.485  69.680  1.00  0.00    -0.173 NA 
HETATM    6  C   UNL     1     -10.918   7.869  69.612  1.00  0.00    -0.114 C  
HETATM    7  C   UNL     1      -9.896   6.740  69.386  1.00  0.00    -0.156 C  
HETATM    8  C   UNL     1      -8.972   9.657  68.237  1.00  0.00    -0.123 C  
HETATM    9  C   UNL     1      -8.414   7.059  69.627  1.00  0.00    -0.134 C  
ENDROOT
BRANCH   7  10
HETATM   10  O   UNL     1     -10.324   5.635  70.196  1.00  0.00    -0.224 OA 
BRANCH  10  11
HETATM   11  C   UNL     1      -9.608   4.497  69.950  1.00  0.00    -0.199 C  
HETATM   12  O   UNL     1      -9.390   4.064  68.826  1.00  0.00    -0.140 OA 
BRANCH  11  13
HETATM   13  C   UNL     1      -9.259   3.797  71.179  1.00  0.00    -0.201 A  
HETATM   14  C   UNL     1      -9.700   2.538  71.554  1.00  0.00    -0.152 A  
HETATM   15  N   UNL     1      -9.079   2.187  72.721  1.00  0.00    -0.073 NA 
HETATM   16  H   UNL     1      -9.223   1.307  73.218  1.00  0.00     0.000 HD 
HETATM   17  C   UNL     1      -8.233   3.192  73.128  1.00  0.00    -0.076 A  
HETATM   18  C   UNL     1      -7.395   3.265  74.246  1.00  0.00    -0.052 A  
HETATM   19  C   UNL     1      -6.622   4.421  74.402  1.00  0.00    -0.059 A  
HETATM   20  C   UNL     1      -6.682   5.455  73.472  1.00  0.00    -0.081 A  
HETATM   21  C   UNL     1      -7.524   5.364  72.360  1.00  0.00    -0.096 A  
HETATM   22  C   UNL     1      -8.324   4.215  72.182  1.00  0.00    -0.102 A  
ENDBRANCH  11  13
ENDBRANCH  10  11
ENDBRANCH   7  10
TORSDOF 3
ENDMDL
MODEL      258
REMARK 921   NORMALIZED FREE ENERGY PREDICTED BY IDOCK:   -2.66 KCAL/MOL
REMARK 922        TOTAL FREE ENERGY PREDICTED BY IDOCK:   -3.57 KCAL/MOL
REMARK 923 INTER-LIGAND FREE ENERGY PREDICTED BY IDOCK:   -2.98 KCAL/MOL
REMARK 924 INTRA-LIGAND FREE ENERGY PREDICTED BY IDOCK:   -0.58 KCAL/MOL
REMARK 927      BINDING AFFINITY PREDICTED BY RF-SCORE:    0.00 PKD
ROOT
HETATM    1  C   UNL     1      -8.882   3.293  68.864  1.00  0.00    -0.114 C  
HETATM    2  C   UNL     1      -9.899   4.402  68.581  1.00  0.00    -0.141 C  
HETATM    3  C   UNL     1     -10.190   5.014  69.949  1.00  0.00    -0.340 C  
HETATM    4  C   UNL     1      -9.316   4.216  70.921  1.00  0.00    -0.147 C  
HETATM    5  N   UNL     1      -9.237   2.924  70.238  1.00  0.00    -0.125 NA 
HETATM    6  C   UNL     1      -7.944   4.869  71.098  1.00  0.00    -0.092 C  
HETATM    7  C   UNL     1      -6.998   4.726  69.891  1.00  0.00    -0.052 C  
HETATM    8  C   UNL     1      -8.383   1.931  70.869  1.00  0.00    -0.049 C  
HETATM    9  C   UNL     1      -7.447   3.819  68.737  1.00  0.00    -0.054 C  
ENDROOT
BRANCH   7  10
HETATM   10  O   UNL     1      -6.727   6.057  69.427  1.00  0.00    -0.055 OA 
BRANCH  10  11
HETATM   11  C   UNL     1      -6.387   6.090  68.103  1.00  0.00    -0.044 C  
HETATM   12  O   UNL     1      -5.275   5.798  67.682  1.00  0.00    -0.004 OA 
BRANCH  11  13
HETATM   13  C   UNL     1      -7.455   6.642  67.281  1.00  0.00    -0.092 A  
HETATM   14  C   UNL     1      -7.817   6.208  66.015  1.00  0.00    -0.106 A  
HETATM   15  N   UNL     1      -8.921   6.908  65.613  1.00  0.00    -0.361 NA 
HETATM   16  H   UNL     1      -9.396   6.785  64.718  1.00  0.00     0.000 HD 
HETATM   17  C   UNL     1      -9.299   7.799  66.589  1.00  0.00    -0.188 A  
HETATM   18  C   UNL     1     -10.366   8.704  66.618  1.00  0.00    -0.303 A  
HETATM   19  C   UNL     1     -10.521   9.487  67.767  1.00  0.00    -0.309 A  
HETATM   20  C   UNL     1      -9.646   9.363  68.843  1.00  0.00    -0.155 A  
HETATM   21  C   UNL     1      -8.587   8.453  68.798  1.00  0.00    -0.135 A  
HETATM   22  C   UNL     1      -8.398   7.657  67.647  1.00  0.00    -0.118 A  
ENDBRANCH  11  13
ENDBRANCH  10  11
ENDBRANCH   7  10
TORSDOF 3
ENDMDL
MODEL      259
REMARK 921   NORMALIZED FREE ENERGY PREDICTED BY IDOCK:   -2.59 KCAL/MOL
REMARK 922        TOTAL FREE ENERGY PREDICTED BY IDOCK:   -3.48 KCAL/MOL
REMARK 923 INTER-LIGAND FREE ENERGY PREDICTED BY IDOCK:   -3.30 KCAL/MOL
REMARK 924 INTRA-LIGAND FREE ENERGY PREDICTED BY IDOCK:   -0.18 KCAL/MOL
REMARK 927      BINDING AFFINITY PREDICTED BY RF-SCORE:    0.00 PKD
ROOT
HETATM    1  C   UNL     1      -9.036   8.310  65.704  1.00  0.00    -0.065 C  
HETATM    2  C   UNL     1      -7.823   7.410  65.952  1.00  0.00    -0.104 C  
HETATM    3  C   UNL     1      -6.903   8.242  66.842  1.00  0.00    -0.069 C  
HETATM    4  C   UNL     1      -7.654   9.560  67.045  1.00  0.00    -0.091 C  
HETATM    5  N   UNL     1      -8.429   9.641  65.807  1.00  0.00    -0.130 NA 
HETATM    6  C   UNL     1      -8.543   9.505  68.290  1.00  0.00    -0.120 C  
HETATM    7  C   UNL     1      -9.804   8.633  68.145  1.00  0.00    -0.165 C  
HETATM    8  C   UNL     1      -9.346  10.766  65.712  1.00  0.00    -0.203 C  
HETATM    9  C   UNL     1     -10.125   8.065  66.756  1.00  0.00    -0.357 C  
ENDROOT
BRANCH   7  10
HETATM   10  O   UNL     1      -9.685   7.582  69.117  1.00  0.00    -0.163 OA 
BRANCH  10  11
HETATM   11  C   UNL     1     -10.391   6.464  68.769  1.00  0.00    -0.198 C  
HETATM   12  O   UNL     1     -11.588   6.326  68.983  1.00  0.00    -0.278 OA 
BRANCH  11  13
HETATM   13  C   UNL     1      -9.526   5.416  68.244  1.00  0.00    -0.146 A  
HETATM   14  C   UNL     1      -8.485   4.802  68.922  1.00  0.00    -0.081 A  
HETATM   15  N   UNL     1      -7.977   3.806  68.134  1.00  0.00    -0.072 NA 
HETATM   16  H   UNL     1      -7.202   3.194  68.392  1.00  0.00     0.000 HD 
HETATM   17  C   UNL     1      -8.662   3.749  66.943  1.00  0.00    -0.114 A  
HETATM   18  C   UNL     1      -8.498   2.891  65.850  1.00  0.00    -0.111 A  
HETATM   19  C   UNL     1      -9.363   3.054  64.762  1.00  0.00    -0.148 A  
HETATM   20  C   UNL     1     -10.353   4.032  64.773  1.00  0.00    -0.212 A  
HETATM   21  C   UNL     1     -10.504   4.880  65.873  1.00  0.00    -0.282 A  
HETATM   22  C   UNL     1      -9.639   4.747  66.982  1.00  0.00    -0.187 A  
ENDBRANCH  11  13
ENDBRANCH  10  11
ENDBRANCH   7  10
TORSDOF 3
ENDMDL
MODEL      260
REMARK 921   NORMALIZED FREE ENERGY PREDICTED BY IDOCK:   -2.53 KCAL/MOL
REMARK 922        TOTAL FREE ENERGY PREDICTED BY IDOCK:   -3.41 KCAL/MOL
REMARK 923 INTER-LIGAND FREE ENERGY PREDICTED BY IDOCK:   -3.19 KCAL/MOL
REMARK 924 INTRA-LIGAND FREE ENERGY PREDICTED BY IDOCK:   -0.22 KCAL/MOL
REMARK 927      BINDING AFFINITY PREDICTED BY RF-SCORE:    0.00 PKD
ROOT
HETATM    1  C   UNL     1     -10.125   9.832  67.205  1.00  0.00    -0.207 C  
HETATM    2  C   UNL     1      -8.599   9.936  67.121  1.00  0.00    -0.125 C  
HETATM    3  C   UNL     1      -8.206  10.797  68.318  1.00  0.00    -0.124 C  
HETATM    4  C   UNL     1      -9.533  11.124  69.009  1.00  0.00    -0.058 C  
HETATM    5  N   UNL     1     -10.459  11.092  67.877  1.00  0.00    -0.182 NA 
HETATM    6  C   UNL     1      -9.876  10.080  70.075  1.00  0.00    -0.247 C  
HETATM    7  C   UNL     1     -10.324   8.715  69.522  1.00  0.00    -0.214 C  
HETATM    8  C   UNL     1     -11.863  11.282  68.207  1.00  0.00    -0.229 C  
HETATM    9  C   UNL     1     -10.546   8.595  68.008  1.00  0.00    -0.205 C  
ENDROOT
BRANCH   7  10
HETATM   10  O   UNL     1      -9.360   7.754  69.980  1.00  0.00    -0.157 OA 
BRANCH  10  11
HETATM   11  C   UNL     1      -9.922   6.537  70.250  1.00  0.00    -0.174 C  
HETATM   12  O   UNL     1     -10.656   5.942  69.472  1.00  0.00    -0.244 OA 
BRANCH  11  13
HETATM   13  C   UNL     1      -9.655   6.107  71.616  1.00  0.00    -0.166 A  
HETATM   14  C   UNL     1     -10.450   6.365  72.722  1.00  0.00    -0.214 A  
HETATM   15  N   UNL     1      -9.918   5.715  73.802  1.00  0.00    -0.178 NA 
HETATM   16  H   UNL     1     -10.307   5.735  74.746  1.00  0.00     0.000 HD 
HETATM   17  C   UNL     1      -8.784   5.031  73.433  1.00  0.00    -0.111 A  
HETATM   18  C   UNL     1      -7.929   4.228  74.196  1.00  0.00    -0.092 A  
HETATM   19  C   UNL     1      -6.843   3.635  73.542  1.00  0.00    -0.044 A  
HETATM   20  C   UNL     1      -6.630   3.833  72.181  1.00  0.00    -0.015 A  
HETATM   21  C   UNL     1      -7.495   4.636  71.434  1.00  0.00    -0.076 A  
HETATM   22  C   UNL     1      -8.593   5.258  72.068  1.00  0.00    -0.130 A  
ENDBRANCH  11  13
ENDBRANCH  10  11
ENDBRANCH   7  10
TORSDOF 3
ENDMDL
MODEL      261
REMARK 921   NORMALIZED FREE ENERGY PREDICTED BY IDOCK:   -2.46 KCAL/MOL
REMARK 922        TOTAL FREE ENERGY PREDICTED BY IDOCK:   -3.33 KCAL/MOL
REMARK 923 INTER-LIGAND FREE ENERGY PREDICTED BY IDOCK:   -2.56 KCAL/MOL
REMARK 924 INTRA-LIGAND FREE ENERGY PREDICTED BY IDOCK:   -0.77 KCAL/MOL
REMARK 927      BINDING AFFINITY PREDICTED BY RF-SCORE:    0.00 PKD
ROOT
HETATM    1  C   UNL     1      -9.605   9.257  67.504  1.00  0.00    -0.149 C  
HETATM    2  C   UNL     1      -8.331  10.056  67.220  1.00  0.00    -0.121 C  
HETATM    3  C   UNL     1      -7.548  10.009  68.531  1.00  0.00    -0.087 C  
HETATM    4  C   UNL     1      -8.427   9.183  69.474  1.00  0.00    -0.128 C  
HETATM    5  N   UNL     1      -9.761   9.472  68.947  1.00  0.00    -0.160 NA 
HETATM    6  C   UNL     1      -8.077   7.695  69.398  1.00  0.00    -0.127 C  
HETATM    7  C   UNL     1      -8.533   6.989  68.108  1.00  0.00    -0.129 C  
HETATM    8  C   UNL     1     -10.856   8.755  69.581  1.00  0.00    -0.169 C  
HETATM    9  C   UNL     1      -9.420   7.780  67.136  1.00  0.00    -0.198 C  
ENDROOT
BRANCH   7  10
HETATM   10  O   UNL     1      -7.342   6.523  67.456  1.00  0.00    -0.090 OA 
BRANCH  10  11
HETATM   11  C   UNL     1      -7.301   5.161  67.352  1.00  0.00    -0.082 C  
HETATM   12  O   UNL     1      -7.140   4.413  68.308  1.00  0.00    -0.058 OA 
BRANCH  11  13
HETATM   13  C   UNL     1      -7.332   4.719  65.964  1.00  0.00    -0.077 A  
HETATM   14  C   UNL     1      -6.230   4.420  65.179  1.00  0.00    -0.034 A  
HETATM   15  N   UNL     1      -6.669   3.950  63.971  1.00  0.00    -0.042 NA 
HETATM   16  H   UNL     1      -6.064   3.655  63.204  1.00  0.00     0.000 HD 
HETATM   17  C   UNL     1      -8.043   3.933  63.941  1.00  0.00    -0.090 A  
HETATM   18  C   UNL     1      -8.916   3.525  62.927  1.00  0.00    -0.094 A  
HETATM   19  C   UNL     1     -10.290   3.604  63.183  1.00  0.00    -0.208 A  
HETATM   20  C   UNL     1     -10.766   4.065  64.407  1.00  0.00    -0.191 A  
HETATM   21  C   UNL     1      -9.880   4.468  65.410  1.00  0.00    -0.204 A  
HETATM   22  C   UNL     1      -8.489   4.410  65.176  1.00  0.00    -0.123 A  
ENDBRANCH  11  13
ENDBRANCH  10  11
ENDBRANCH   7  10
TORSDOF 3
ENDMDL
MODEL      262
REMARK 921   NORMALIZED FREE ENERGY PREDICTED BY IDOCK:   -2.45 KCAL/MOL
REMARK 922        TOTAL FREE ENERGY PREDICTED BY IDOCK:   -3.32 KCAL/MOL
REMARK 923 INTER-LIGAND FREE ENERGY PREDICTED BY IDOCK:   -2.79 KCAL/MOL
REMARK 924 INTRA-LIGAND FREE ENERGY PREDICTED BY IDOCK:   -0.53 KCAL/MOL
REMARK 927      BINDING AFFINITY PREDICTED BY RF-SCORE:    0.00 PKD
ROOT
HETATM    1  C   UNL     1      -6.963   7.615  71.255  1.00  0.00    -0.050 C  
HETATM    2  C   UNL     1      -6.591   6.602  70.169  1.00  0.00    -0.045 C  
HETATM    3  C   UNL     1      -7.850   6.476  69.314  1.00  0.00    -0.110 C  
HETATM    4  C   UNL     1      -8.855   7.429  69.968  1.00  0.00    -0.141 C  
HETATM    5  N   UNL     1      -8.410   7.401  71.361  1.00  0.00    -0.111 NA 
HETATM    6  C   UNL     1      -8.773   8.828  69.355  1.00  0.00    -0.142 C  
HETATM    7  C   UNL     1      -7.521   9.634  69.749  1.00  0.00    -0.110 C  
HETATM    8  C   UNL     1      -9.119   8.293  72.265  1.00  0.00    -0.221 C  
HETATM    9  C   UNL     1      -6.599   9.041  70.823  1.00  0.00    -0.063 C  
ENDROOT
BRANCH   7  10
HETATM   10  O   UNL     1      -6.800   9.888  68.533  1.00  0.00    -0.058 OA 
BRANCH  10  11
HETATM   11  C   UNL     1      -7.255  10.998  67.877  1.00  0.00    -0.086 C  
HETATM   12  O   UNL     1      -7.646  12.008  68.447  1.00  0.00    -0.115 OA 
BRANCH  11  13
HETATM   13  C   UNL     1      -7.346  10.780  66.440  1.00  0.00    -0.142 A  
HETATM   14  C   UNL     1      -6.464  10.038  65.669  1.00  0.00    -0.099 A  
HETATM   15  N   UNL     1      -6.939   9.988  64.388  1.00  0.00    -0.129 NA 
HETATM   16  H   UNL     1      -6.483   9.504  63.614  1.00  0.00     0.000 HD 
HETATM   17  C   UNL     1      -8.121  10.685  64.294  1.00  0.00     0.054 A  
HETATM   18  C   UNL     1      -8.959  10.891  63.192  1.00  0.00    -0.226 A  
HETATM   19  C   UNL     1     -10.124  11.639  63.394  1.00  0.00    -0.468 A  
HETATM   20  C   UNL     1     -10.438  12.152  64.650  1.00  0.00    -0.336 A  
HETATM   21  C   UNL     1      -9.591  11.935  65.739  1.00  0.00    -0.241 A  
HETATM   22  C   UNL     1      -8.402  11.194  65.563  1.00  0.00     0.052 A  
ENDBRANCH  11  13
ENDBRANCH  10  11
ENDBRANCH   7  10
TORSDOF 3
ENDMDL
MODEL      263
REMARK 921   NORMALIZED FREE ENERGY PREDICTED BY IDOCK:   -2.30 KCAL/MOL
REMARK 922        TOTAL FREE ENERGY PREDICTED BY IDOCK:   -3.14 KCAL/MOL
REMARK 923 INTER-LIGAND FREE ENERGY PREDICTED BY IDOCK:   -3.06 KCAL/MOL
REMARK 924 INTRA-LIGAND FREE ENERGY PREDICTED BY IDOCK:   -0.08 KCAL/MOL
REMARK 927      BINDING AFFINITY PREDICTED BY RF-SCORE:    0.00 PKD
ROOT
HETATM    1  C   UNL     1      -6.139   6.224  72.480  1.00  0.00    -0.042 C  
HETATM    2  C   UNL     1      -6.045   5.311  71.255  1.00  0.00    -0.029 C  
HETATM    3  C   UNL     1      -7.413   4.638  71.170  1.00  0.00    -0.068 C  
HETATM    4  C   UNL     1      -8.198   5.215  72.352  1.00  0.00    -0.117 C  
HETATM    5  N   UNL     1      -7.120   5.502  73.298  1.00  0.00    -0.084 NA 
HETATM    6  C   UNL     1      -8.969   6.473  71.944  1.00  0.00    -0.137 C  
HETATM    7  C   UNL     1      -8.097   7.721  71.718  1.00  0.00    -0.106 C  
HETATM    8  C   UNL     1      -7.524   6.159  74.531  1.00  0.00    -0.093 C  
HETATM    9  C   UNL     1      -6.609   7.629  72.083  1.00  0.00    -0.055 C  
ENDROOT
BRANCH   7  10
HETATM   10  O   UNL     1      -8.268   8.093  70.341  1.00  0.00    -0.109 OA 
BRANCH  10  11
HETATM   11  C   UNL     1      -9.583   8.143  69.972  1.00  0.00    -0.171 C  
HETATM   12  O   UNL     1     -10.492   8.428  70.741  1.00  0.00    -0.192 OA 
BRANCH  11  13
HETATM   13  C   UNL     1      -9.782   7.684  68.603  1.00  0.00    -0.157 A  
HETATM   14  C   UNL     1     -10.037   8.488  67.503  1.00  0.00    -0.221 A  
HETATM   15  N   UNL     1     -10.065   7.701  66.385  1.00  0.00    -0.476 NA 
HETATM   16  H   UNL     1     -10.233   8.040  65.437  1.00  0.00     0.000 HD 
HETATM   17  C   UNL     1      -9.835   6.389  66.724  1.00  0.00    -0.162 A  
HETATM   18  C   UNL     1      -9.763   5.250  65.914  1.00  0.00    -0.125 A  
HETATM   19  C   UNL     1      -9.495   4.026  66.538  1.00  0.00    -0.208 A  
HETATM   20  C   UNL     1      -9.301   3.951  67.915  1.00  0.00    -0.227 A  
HETATM   21  C   UNL     1      -9.374   5.099  68.708  1.00  0.00    -0.166 A  
HETATM   22  C   UNL     1      -9.654   6.346  68.108  1.00  0.00    -0.115 A  
ENDBRANCH  11  13
ENDBRANCH  10  11
ENDBRANCH   7  10
TORSDOF 3
ENDMDL
MODEL      264
REMARK 921   NORMALIZED FREE ENERGY PREDICTED BY IDOCK:   -2.21 KCAL/MOL
REMARK 922        TOTAL FREE ENERGY PREDICTED BY IDOCK:   -3.03 KCAL/MOL
REMARK 923 INTER-LIGAND FREE ENERGY PREDICTED BY IDOCK:   -2.66 KCAL/MOL
REMARK 924 INTRA-LIGAND FREE ENERGY PREDICTED BY IDOCK:   -0.37 KCAL/MOL
REMARK 927      BINDING AFFINITY PREDICTED BY RF-SCORE:    0.00 PKD
ROOT
HETATM    1  C   UNL     1      -9.183   3.914  68.691  1.00  0.00    -0.151 C  
HETATM    2  C   UNL     1     -10.376   4.874  68.710  1.00  0.00    -0.049 C  
HETATM    3  C   UNL     1     -10.293   5.562  70.070  1.00  0.00    -0.358 C  
HETATM    4  C   UNL     1      -9.056   4.952  70.735  1.00  0.00    -0.137 C  
HETATM    5  N   UNL     1      -9.027   3.625  70.121  1.00  0.00    -0.099 NA 
HETATM    6  C   UNL     1      -7.799   5.768  70.424  1.00  0.00    -0.104 C  
HETATM    7  C   UNL     1      -7.280   5.631  68.981  1.00  0.00    -0.073 C  
HETATM    8  C   UNL     1      -7.891   2.791  70.479  1.00  0.00    -0.042 C  
HETATM    9  C   UNL     1      -7.948   4.586  68.078  1.00  0.00    -0.084 C  
ENDROOT
BRANCH   7  10
HETATM   10  O   UNL     1      -7.352   6.940  68.396  1.00  0.00    -0.088 OA 
BRANCH  10  11
HETATM   11  C   UNL     1      -6.844   6.975  67.127  1.00  0.00    -0.065 C  
HETATM   12  O   UNL     1      -5.730   6.561  66.832  1.00  0.00    -0.013 OA 
BRANCH  11  13
HETATM   13  C   UNL     1      -7.724   7.685  66.208  1.00  0.00    -0.089 A  
HETATM   14  C   UNL     1      -9.089   7.868  66.365  1.00  0.00    -0.179 A  
HETATM   15  N   UNL     1      -9.542   8.663  65.349  1.00  0.00    -0.395 NA 
HETATM   16  H   UNL     1     -10.511   8.957  65.224  1.00  0.00     0.000 HD 
HETATM   17  C   UNL     1      -8.501   9.011  64.520  1.00  0.00    -0.175 A  
HETATM   18  C   UNL     1      -8.494   9.812  63.372  1.00  0.00    -0.186 A  
HETATM   19  C   UNL     1      -7.267  10.010  62.728  1.00  0.00    -0.126 A  
HETATM   20  C   UNL     1      -6.098   9.435  63.219  1.00  0.00    -0.091 A  
HETATM   21  C   UNL     1      -6.124   8.639  64.367  1.00  0.00    -0.066 A  
HETATM   22  C   UNL     1      -7.348   8.412  65.032  1.00  0.00    -0.086 A  
ENDBRANCH  11  13
ENDBRANCH  10  11
ENDBRANCH   7  10
TORSDOF 3
ENDMDL
MODEL      265
REMARK 921   NORMALIZED FREE ENERGY PREDICTED BY IDOCK:   -1.78 KCAL/MOL
REMARK 922        TOTAL FREE ENERGY PREDICTED BY IDOCK:   -2.54 KCAL/MOL
REMARK 923 INTER-LIGAND FREE ENERGY PREDICTED BY IDOCK:   -2.52 KCAL/MOL
REMARK 924 INTRA-LIGAND FREE ENERGY PREDICTED BY IDOCK:   -0.01 KCAL/MOL
REMARK 927      BINDING AFFINITY PREDICTED BY RF-SCORE:    0.00 PKD
ROOT
HETATM    1  C   UNL     1      -8.933   9.882  67.402  1.00  0.00    -0.135 C  
HETATM    2  C   UNL     1      -7.776  10.424  66.558  1.00  0.00    -0.121 C  
HETATM    3  C   UNL     1      -6.581  10.437  67.508  1.00  0.00    -0.066 C  
HETATM    4  C   UNL     1      -7.135   9.899  68.830  1.00  0.00    -0.071 C  
HETATM    5  N   UNL     1      -8.534  10.317  68.744  1.00  0.00    -0.122 NA 
HETATM    6  C   UNL     1      -6.983   8.378  68.917  1.00  0.00    -0.062 C  
HETATM    7  C   UNL     1      -7.941   7.580  68.014  1.00  0.00    -0.123 C  
HETATM    8  C   UNL     1      -9.390   9.876  69.834  1.00  0.00    -0.216 C  
HETATM    9  C   UNL     1      -9.038   8.357  67.273  1.00  0.00    -0.156 C  
ENDROOT
BRANCH   7  10
HETATM   10  O   UNL     1      -7.118   6.847  67.094  1.00  0.00    -0.075 OA 
BRANCH  10  11
HETATM   11  C   UNL     1      -7.795   6.476  65.966  1.00  0.00    -0.103 C  
HETATM   12  O   UNL     1      -7.827   7.147  64.943  1.00  0.00    -0.113 OA 
BRANCH  11  13
HETATM   13  C   UNL     1      -8.579   5.266  66.176  1.00  0.00    -0.120 A  
HETATM   14  C   UNL     1      -9.839   5.010  65.658  1.00  0.00    -0.085 A  
HETATM   15  N   UNL     1     -10.200   3.735  65.996  1.00  0.00    -0.390 NA 
HETATM   16  H   UNL     1     -11.083   3.290  65.741  1.00  0.00     0.000 HD 
HETATM   17  C   UNL     1      -9.202   3.139  66.730  1.00  0.00    -0.154 A  
HETATM   18  C   UNL     1      -9.130   1.852  67.274  1.00  0.00    -0.148 A  
HETATM   19  C   UNL     1      -7.967   1.506  67.971  1.00  0.00    -0.060 A  
HETATM   20  C   UNL     1      -6.919   2.412  68.110  1.00  0.00    -0.047 A  
HETATM   21  C   UNL     1      -7.006   3.693  67.560  1.00  0.00    -0.055 A  
HETATM   22  C   UNL     1      -8.172   4.074  66.860  1.00  0.00    -0.100 A  
ENDBRANCH  11  13
ENDBRANCH  10  11
ENDBRANCH   7  10
TORSDOF 3
ENDMDL
MODEL      266
REMARK 921   NORMALIZED FREE ENERGY PREDICTED BY IDOCK:   -1.74 KCAL/MOL
REMARK 922        TOTAL FREE ENERGY PREDICTED BY IDOCK:   -2.49 KCAL/MOL
REMARK 923 INTER-LIGAND FREE ENERGY PREDICTED BY IDOCK:   -2.33 KCAL/MOL
REMARK 924 INTRA-LIGAND FREE ENERGY PREDICTED BY IDOCK:   -0.16 KCAL/MOL
REMARK 927      BINDING AFFINITY PREDICTED BY RF-SCORE:    0.00 PKD
ROOT
HETATM    1  C   UNL     1      -9.012  10.390  66.828  1.00  0.00    -0.140 C  
HETATM    2  C   UNL     1      -7.591  10.380  66.259  1.00  0.00    -0.127 C  
HETATM    3  C   UNL     1      -6.779  11.221  67.241  1.00  0.00    -0.104 C  
HETATM    4  C   UNL     1      -7.790  11.652  68.306  1.00  0.00    -0.136 C  
HETATM    5  N   UNL     1      -9.030  11.678  67.529  1.00  0.00    -0.161 NA 
HETATM    6  C   UNL     1      -7.844  10.648  69.459  1.00  0.00    -0.092 C  
HETATM    7  C   UNL     1      -8.536   9.314  69.124  1.00  0.00    -0.133 C  
HETATM    8  C   UNL     1     -10.238  11.974  68.282  1.00  0.00    -0.206 C  
HETATM    9  C   UNL     1      -9.237   9.196  67.764  1.00  0.00    -0.145 C  
ENDROOT
BRANCH   7  10
HETATM   10  O   UNL     1      -7.543   8.289  69.283  1.00  0.00    -0.089 OA 
BRANCH  10  11
HETATM   11  C   UNL     1      -8.083   7.089  69.653  1.00  0.00    -0.130 C  
HETATM   12  O   UNL     1      -8.722   6.371  68.895  1.00  0.00    -0.125 OA 
BRANCH  11  13
HETATM   13  C   UNL     1      -7.927   6.840  71.080  1.00  0.00    -0.103 A  
HETATM   14  C   UNL     1      -8.597   5.875  71.817  1.00  0.00    -0.131 A  
HETATM   15  N   UNL     1      -8.110   5.887  73.095  1.00  0.00    -0.116 NA 
HETATM   16  H   UNL     1      -8.429   5.275  73.847  1.00  0.00     0.000 HD 
HETATM   17  C   UNL     1      -7.129   6.843  73.220  1.00  0.00    -0.074 A  
HETATM   18  C   UNL     1      -6.354   7.197  74.329  1.00  0.00    -0.078 A  
HETATM   19  C   UNL     1      -5.405   8.212  74.160  1.00  0.00    -0.062 A  
HETATM   20  C   UNL     1      -5.237   8.838  72.928  1.00  0.00    -0.062 A  
HETATM   21  C   UNL     1      -6.019   8.470  71.830  1.00  0.00    -0.051 A  
HETATM   22  C   UNL     1      -6.992   7.457  71.973  1.00  0.00    -0.062 A  
ENDBRANCH  11  13
ENDBRANCH  10  11
ENDBRANCH   7  10
TORSDOF 3
ENDMDL
MODEL      267
REMARK 921   NORMALIZED FREE ENERGY PREDICTED BY IDOCK:   -1.73 KCAL/MOL
REMARK 922        TOTAL FREE ENERGY PREDICTED BY IDOCK:   -2.47 KCAL/MOL
REMARK 923 INTER-LIGAND FREE ENERGY PREDICTED BY IDOCK:   -2.44 KCAL/MOL
REMARK 924 INTRA-LIGAND FREE ENERGY PREDICTED BY IDOCK:   -0.02 KCAL/MOL
REMARK 927      BINDING AFFINITY PREDICTED BY RF-SCORE:    0.00 PKD
ROOT
HETATM    1  C   UNL     1      -9.923   8.090  69.249  1.00  0.00    -0.191 C  
HETATM    2  C   UNL     1     -10.271   9.440  68.617  1.00  0.00    -0.222 C  
HETATM    3  C   UNL     1      -9.186  10.390  69.119  1.00  0.00    -0.202 C  
HETATM    4  C   UNL     1      -8.289   9.517  70.000  1.00  0.00    -0.179 C  
HETATM    5  N   UNL     1      -9.244   8.516  70.477  1.00  0.00    -0.149 NA 
HETATM    6  C   UNL     1      -7.148   8.898  69.190  1.00  0.00    -0.063 C  
HETATM    7  C   UNL     1      -7.573   7.765  68.237  1.00  0.00    -0.109 C  
HETATM    8  C   UNL     1      -8.684   7.452  71.295  1.00  0.00    -0.126 C  
HETATM    9  C   UNL     1      -9.022   7.266  68.321  1.00  0.00    -0.125 C  
ENDROOT
BRANCH   7  10
HETATM   10  O   UNL     1      -7.257   8.212  66.908  1.00  0.00    -0.080 OA 
BRANCH  10  11
HETATM   11  C   UNL     1      -8.050   7.629  65.959  1.00  0.00    -0.118 C  
HETATM   12  O   UNL     1      -9.157   8.051  65.649  1.00  0.00    -0.114 OA 
BRANCH  11  13
HETATM   13  C   UNL     1      -7.481   6.382  65.466  1.00  0.00    -0.083 A  
HETATM   14  C   UNL     1      -6.133   6.120  65.274  1.00  0.00    -0.030 A  
HETATM   15  N   UNL     1      -5.992   4.813  64.896  1.00  0.00    -0.021 NA 
HETATM   16  H   UNL     1      -5.102   4.358  64.690  1.00  0.00     0.000 HD 
HETATM   17  C   UNL     1      -7.223   4.203  64.833  1.00  0.00    -0.070 A  
HETATM   18  C   UNL     1      -7.557   2.884  64.505  1.00  0.00    -0.076 A  
HETATM   19  C   UNL     1      -8.911   2.532  64.540  1.00  0.00    -0.115 A  
HETATM   20  C   UNL     1      -9.885   3.460  64.896  1.00  0.00    -0.097 A  
HETATM   21  C   UNL     1      -9.533   4.772  65.222  1.00  0.00    -0.141 A  
HETATM   22  C   UNL     1      -8.176   5.161  65.184  1.00  0.00    -0.132 A  
ENDBRANCH  11  13
ENDBRANCH  10  11
ENDBRANCH   7  10
TORSDOF 3
ENDMDL
MODEL      268
REMARK 921   NORMALIZED FREE ENERGY PREDICTED BY IDOCK:   -1.64 KCAL/MOL
REMARK 922        TOTAL FREE ENERGY PREDICTED BY IDOCK:   -2.36 KCAL/MOL
REMARK 923 INTER-LIGAND FREE ENERGY PREDICTED BY IDOCK:   -3.56 KCAL/MOL
REMARK 924 INTRA-LIGAND FREE ENERGY PREDICTED BY IDOCK:    1.20 KCAL/MOL
REMARK 927      BINDING AFFINITY PREDICTED BY RF-SCORE:    0.00 PKD
ROOT
HETATM    1  C   UNL     1      -8.163  15.486  69.619  1.00  0.00    -0.117 C  
HETATM    2  C   UNL     1      -8.122  16.964  69.223  1.00  0.00     0.037 C  
HETATM    3  C   UNL     1      -6.698  17.189  68.721  1.00  0.00    -0.200 C  
HETATM    4  C   UNL     1      -6.022  15.822  68.861  1.00  0.00    -0.108 C  
HETATM    5  N   UNL     1      -6.762  15.251  69.986  1.00  0.00    -0.145 NA 
HETATM    6  C   UNL     1      -6.172  14.995  67.582  1.00  0.00    -0.134 C  
HETATM    7  C   UNL     1      -7.586  14.440  67.333  1.00  0.00    -0.172 C  
HETATM    8  C   UNL     1      -6.419  13.881  70.334  1.00  0.00     0.043 C  
HETATM    9  C   UNL     1      -8.629  14.616  68.445  1.00  0.00    -0.169 C  
ENDROOT
BRANCH   7  10
HETATM   10  O   UNL     1      -8.042  15.024  66.102  1.00  0.00     0.451 OA 
BRANCH  10  11
HETATM   11  C   UNL     1      -9.180  15.764  66.263  1.00  0.00    -0.333 C  
HETATM   12  O   UNL     1      -9.178  16.956  66.541  1.00  0.00    -0.243 OA 
BRANCH  11  13
HETATM   13  C   UNL     1     -10.379  14.939  66.201  1.00  0.00    -0.312 A  
HETATM   14  C   UNL     1     -11.454  14.996  67.074  1.00  0.00    -0.284 A  
HETATM   15  N   UNL     1     -12.422  14.137  66.631  1.00  0.00    -0.548 NA 
HETATM   16  H   UNL     1     -13.321  13.985  67.089  1.00  0.00     0.000 HD 
HETATM   17  C   UNL     1     -12.008  13.510  65.480  1.00  0.00    -0.390 A  
HETATM   18  C   UNL     1     -12.667  12.570  64.681  1.00  0.00    -0.434 A  
HETATM   19  C   UNL     1     -12.001  12.108  63.540  1.00  0.00    -0.619 A  
HETATM   20  C   UNL     1     -10.731  12.574  63.213  1.00  0.00    -0.161 A  
HETATM   21  C   UNL     1     -10.087  13.514  64.022  1.00  0.00     0.668 A  
HETATM   22  C   UNL     1     -10.730  13.991  65.186  1.00  0.00    -0.393 A  
ENDBRANCH  11  13
ENDBRANCH  10  11
ENDBRANCH   7  10
TORSDOF 3
ENDMDL
MODEL      269
REMARK 921   NORMALIZED FREE ENERGY PREDICTED BY IDOCK:   -0.98 KCAL/MOL
REMARK 922        TOTAL FREE ENERGY PREDICTED BY IDOCK:   -1.59 KCAL/MOL
REMARK 923 INTER-LIGAND FREE ENERGY PREDICTED BY IDOCK:   -1.70 KCAL/MOL
REMARK 924 INTRA-LIGAND FREE ENERGY PREDICTED BY IDOCK:    0.12 KCAL/MOL
REMARK 927      BINDING AFFINITY PREDICTED BY RF-SCORE:    0.00 PKD
ROOT
HETATM    1  C   UNL     1      -8.107   2.581  68.767  1.00  0.00    -0.052 C  
HETATM    2  C   UNL     1      -9.179   3.468  68.128  1.00  0.00    -0.228 C  
HETATM    3  C   UNL     1      -9.189   4.734  68.981  1.00  0.00    -0.174 C  
HETATM    4  C   UNL     1      -8.119   4.487  70.048  1.00  0.00    -0.067 C  
HETATM    5  N   UNL     1      -8.162   3.029  70.163  1.00  0.00    -0.044 NA 
HETATM    6  C   UNL     1      -6.751   4.998  69.591  1.00  0.00    -0.051 C  
HETATM    7  C   UNL     1      -6.075   4.149  68.499  1.00  0.00    -0.031 C  
HETATM    8  C   UNL     1      -7.178   2.439  71.057  1.00  0.00    -0.033 C  
HETATM    9  C   UNL     1      -6.739   2.819  68.116  1.00  0.00    -0.036 C  
ENDROOT
BRANCH   7  10
HETATM   10  O   UNL     1      -5.929   5.001  67.353  1.00  0.00    -0.024 OA 
BRANCH  10  11
HETATM   11  C   UNL     1      -6.039   4.317  66.174  1.00  0.00    -0.031 C  
HETATM   12  O   UNL     1      -5.413   3.296  65.923  1.00  0.00    -0.015 OA 
BRANCH  11  13
HETATM   13  C   UNL     1      -6.876   5.022  65.212  1.00  0.00    -0.060 A  
HETATM   14  C   UNL     1      -7.947   4.483  64.516  1.00  0.00    -0.092 A  
HETATM   15  N   UNL     1      -8.538   5.478  63.787  1.00  0.00    -0.323 NA 
HETATM   16  H   UNL     1      -9.351   5.356  63.182  1.00  0.00     0.000 HD 
HETATM   17  C   UNL     1      -7.877   6.667  63.986  1.00  0.00    -0.112 A  
HETATM   18  C   UNL     1      -8.133   7.938  63.459  1.00  0.00    -0.079 A  
HETATM   19  C   UNL     1      -7.293   8.985  63.855  1.00  0.00    -0.097 A  
HETATM   20  C   UNL     1      -6.246   8.767  64.747  1.00  0.00    -0.065 A  
HETATM   21  C   UNL     1      -6.006   7.492  65.264  1.00  0.00    -0.038 A  
HETATM   22  C   UNL     1      -6.830   6.413  64.874  1.00  0.00    -0.050 A  
ENDBRANCH  11  13
ENDBRANCH  10  11
ENDBRANCH   7  10
TORSDOF 3
ENDMDL
MODEL      270
REMARK 921   NORMALIZED FREE ENERGY PREDICTED BY IDOCK:   -0.88 KCAL/MOL
REMARK 922        TOTAL FREE ENERGY PREDICTED BY IDOCK:   -1.47 KCAL/MOL
REMARK 923 INTER-LIGAND FREE ENERGY PREDICTED BY IDOCK:   -3.27 KCAL/MOL
REMARK 924 INTRA-LIGAND FREE ENERGY PREDICTED BY IDOCK:    1.80 KCAL/MOL
REMARK 927      BINDING AFFINITY PREDICTED BY RF-SCORE:    0.00 PKD
ROOT
HETATM    1  C   UNL     1     -10.509  14.468  67.159  1.00  0.00    -0.267 C  
HETATM    2  C   UNL     1     -11.364  13.411  66.454  1.00  0.00    -0.338 C  
HETATM    3  C   UNL     1     -10.415  12.754  65.455  1.00  0.00    -0.305 C  
HETATM    4  C   UNL     1      -9.080  13.476  65.660  1.00  0.00     0.657 C  
HETATM    5  N   UNL     1      -9.535  14.792  66.111  1.00  0.00    -0.304 NA 
HETATM    6  C   UNL     1      -8.218  12.764  66.704  1.00  0.00     0.166 C  
HETATM    7  C   UNL     1      -8.701  12.922  68.157  1.00  0.00    -0.190 C  
HETATM    8  C   UNL     1      -8.484  15.724  66.489  1.00  0.00    -0.300 C  
HETATM    9  C   UNL     1      -9.859  13.892  68.424  1.00  0.00    -0.229 C  
ENDROOT
BRANCH   7  10
HETATM   10  O   UNL     1      -9.015  11.602  68.628  1.00  0.00    -0.159 OA 
BRANCH  10  11
HETATM   11  C   UNL     1     -10.286  11.511  69.123  1.00  0.00    -0.013 C  
HETATM   12  O   UNL     1     -10.948  12.481  69.470  1.00  0.00    -0.077 OA 
BRANCH  11  13
HETATM   13  C   UNL     1     -10.698  10.127  69.314  1.00  0.00    -0.259 A  
HETATM   14  C   UNL     1     -11.565   9.662  70.291  1.00  0.00    -0.198 A  
HETATM   15  N   UNL     1     -11.778   8.327  70.085  1.00  0.00    -0.452 NA 
HETATM   16  H   UNL     1     -12.378   7.736  70.661  1.00  0.00     0.000 HD 
HETATM   17  C   UNL     1     -11.067   7.897  68.989  1.00  0.00     0.232 A  
HETATM   18  C   UNL     1     -10.992   6.627  68.407  1.00  0.00    -0.313 A  
HETATM   19  C   UNL     1     -10.189   6.481  67.270  1.00  0.00    -0.242 A  
HETATM   20  C   UNL     1      -9.498   7.566  66.736  1.00  0.00    -0.230 A  
HETATM   21  C   UNL     1      -9.586   8.828  67.330  1.00  0.00    -0.214 A  
HETATM   22  C   UNL     1     -10.379   9.003  68.485  1.00  0.00    -0.233 A  
ENDBRANCH  11  13
ENDBRANCH  10  11
ENDBRANCH   7  10
TORSDOF 3
ENDMDL
MODEL      271
REMARK 921   NORMALIZED FREE ENERGY PREDICTED BY IDOCK:    0.07 KCAL/MOL
REMARK 922        TOTAL FREE ENERGY PREDICTED BY IDOCK:   -0.36 KCAL/MOL
REMARK 923 INTER-LIGAND FREE ENERGY PREDICTED BY IDOCK:   -0.59 KCAL/MOL
REMARK 924 INTRA-LIGAND FREE ENERGY PREDICTED BY IDOCK:    0.23 KCAL/MOL
REMARK 927      BINDING AFFINITY PREDICTED BY RF-SCORE:    0.00 PKD
ROOT
HETATM    1  C   UNL     1     -11.291  12.065  66.146  1.00  0.00    -0.351 C  
HETATM    2  C   UNL     1     -10.040  11.184  66.195  1.00  0.00    -0.284 C  
HETATM    3  C   UNL     1      -9.604  11.056  64.737  1.00  0.00    -0.292 C  
HETATM    4  C   UNL     1     -10.634  11.876  63.955  1.00  0.00    -0.394 C  
HETATM    5  N   UNL     1     -11.812  11.748  64.812  1.00  0.00    -0.170 NA 
HETATM    6  C   UNL     1     -10.180  13.329  63.796  1.00  0.00     0.576 C  
HETATM    7  C   UNL     1     -10.257  14.174  65.080  1.00  0.00    -0.384 C  
HETATM    8  C   UNL     1     -12.981  12.504  64.392  1.00  0.00    -0.153 C  
HETATM    9  C   UNL     1     -10.926  13.545  66.311  1.00  0.00    -0.293 C  
ENDROOT
BRANCH   7  10
HETATM   10  O   UNL     1      -8.914  14.586  65.377  1.00  0.00     0.665 OA 
BRANCH  10  11
HETATM   11  C   UNL     1      -8.699  14.742  66.718  1.00  0.00    -0.224 C  
HETATM   12  O   UNL     1      -8.124  13.914  67.413  1.00  0.00    -0.170 OA 
BRANCH  11  13
HETATM   13  C   UNL     1      -9.352  15.936  67.239  1.00  0.00    -0.218 A  
HETATM   14  C   UNL     1      -9.589  17.107  66.537  1.00  0.00    -0.279 A  
HETATM   15  N   UNL     1     -10.307  17.956  67.334  1.00  0.00    -0.363 NA 
HETATM   16  H   UNL     1     -10.617  18.890  67.062  1.00  0.00     0.000 HD 
HETATM   17  C   UNL     1     -10.551  17.369  68.553  1.00  0.00    -0.340 A  
HETATM   18  C   UNL     1     -11.249  17.856  69.663  1.00  0.00     1.956 A  
HETATM   19  C   UNL     1     -11.354  17.021  70.781  1.00  0.00     0.832 A  
HETATM   20  C   UNL     1     -10.788  15.748  70.781  1.00  0.00    -0.229 A  
HETATM   21  C   UNL     1     -10.096  15.277  69.663  1.00  0.00    -0.246 A  
HETATM   22  C   UNL     1      -9.964  16.102  68.524  1.00  0.00    -0.229 A  
ENDBRANCH  11  13
ENDBRANCH  10  11
ENDBRANCH   7  10
TORSDOF 3
ENDMDL
MODEL      272
REMARK 921   NORMALIZED FREE ENERGY PREDICTED BY IDOCK:    0.72 KCAL/MOL
REMARK 922        TOTAL FREE ENERGY PREDICTED BY IDOCK:    0.41 KCAL/MOL
REMARK 923 INTER-LIGAND FREE ENERGY PREDICTED BY IDOCK:   -0.31 KCAL/MOL
REMARK 924 INTRA-LIGAND FREE ENERGY PREDICTED BY IDOCK:    0.71 KCAL/MOL
REMARK 927      BINDING AFFINITY PREDICTED BY RF-SCORE:    0.00 PKD
ROOT
HETATM    1  C   UNL     1     -11.055  13.615  65.974  1.00  0.00    -0.293 C  
HETATM    2  C   UNL     1      -9.590  13.518  66.409  1.00  0.00    -0.268 C  
HETATM    3  C   UNL     1      -8.960  14.823  65.928  1.00  0.00     0.246 C  
HETATM    4  C   UNL     1     -10.108  15.579  65.254  1.00  0.00    -0.302 C  
HETATM    5  N   UNL     1     -10.944  14.472  64.789  1.00  0.00    -0.399 NA 
HETATM    6  C   UNL     1     -10.837  16.484  66.250  1.00  0.00    -0.037 C  
HETATM    7  C   UNL     1     -11.720  15.743  67.271  1.00  0.00     0.275 C  
HETATM    8  C   UNL     1     -12.201  14.853  64.163  1.00  0.00    -0.255 C  
HETATM    9  C   UNL     1     -11.916  14.233  67.083  1.00  0.00    -0.449 C  
ENDROOT
BRANCH   7  10
HETATM   10  O   UNL     1     -11.177  16.035  68.568  1.00  0.00    -0.338 OA 
BRANCH  10  11
HETATM   11  C   UNL     1     -10.882  14.905  69.279  1.00  0.00    -0.266 C  
HETATM   12  O   UNL     1     -11.733  14.166  69.758  1.00  0.00    -0.276 OA 
BRANCH  11  13
HETATM   13  C   UNL     1      -9.451  14.766  69.511  1.00  0.00     0.079 A  
HETATM   14  C   UNL     1      -8.603  15.753  69.989  1.00  0.00     0.554 A  
HETATM   15  N   UNL     1      -7.359  15.212  70.163  1.00  0.00    -0.165 NA 
HETATM   16  H   UNL     1      -6.543  15.721  70.506  1.00  0.00     0.000 HD 
HETATM   17  C   UNL     1      -7.366  13.884  69.808  1.00  0.00     0.413 A  
HETATM   18  C   UNL     1      -6.332  12.940  69.832  1.00  0.00    -0.029 A  
HETATM   19  C   UNL     1      -6.635  11.636  69.424  1.00  0.00    -0.115 A  
HETATM   20  C   UNL     1      -7.921  11.293  69.015  1.00  0.00    -0.062 A  
HETATM   21  C   UNL     1      -8.941  12.248  68.998  1.00  0.00     0.429 A  
HETATM   22  C   UNL     1      -8.663  13.574  69.394  1.00  0.00     0.953 A  
ENDBRANCH  11  13
ENDBRANCH  10  11
ENDBRANCH   7  10
TORSDOF 3
ENDMDL
MODEL      273
REMARK 921   NORMALIZED FREE ENERGY PREDICTED BY IDOCK:    1.02 KCAL/MOL
REMARK 922        TOTAL FREE ENERGY PREDICTED BY IDOCK:    0.76 KCAL/MOL
REMARK 923 INTER-LIGAND FREE ENERGY PREDICTED BY IDOCK:    0.29 KCAL/MOL
REMARK 924 INTRA-LIGAND FREE ENERGY PREDICTED BY IDOCK:    0.47 KCAL/MOL
REMARK 927      BINDING AFFINITY PREDICTED BY RF-SCORE:    0.00 PKD
ROOT
HETATM    1  C   UNL     1     -11.423  14.510  68.067  1.00  0.00    -0.321 C  
HETATM    2  C   UNL     1     -10.113  13.721  67.993  1.00  0.00    -0.245 C  
HETATM    3  C   UNL     1      -9.533  14.068  66.624  1.00  0.00    -0.300 C  
HETATM    4  C   UNL     1     -10.549  15.035  66.010  1.00  0.00    -0.322 C  
HETATM    5  N   UNL     1     -11.788  14.590  66.648  1.00  0.00    -0.389 NA 
HETATM    6  C   UNL     1     -10.205  16.488  66.346  1.00  0.00    -0.324 C  
HETATM    7  C   UNL     1     -10.472  16.894  67.807  1.00  0.00    -0.340 C  
HETATM    8  C   UNL     1     -12.971  15.379  66.342  1.00  0.00     2.355 C  
HETATM    9  C   UNL     1     -11.199  15.885  68.707  1.00  0.00    -0.359 C  
ENDROOT
BRANCH   7  10
HETATM   10  O   UNL     1      -9.202  17.263  68.366  1.00  0.00    -0.253 OA 
BRANCH  10  11
HETATM   11  C   UNL     1      -8.228  17.387  67.415  1.00  0.00    -0.201 C  
HETATM   12  O   UNL     1      -8.265  18.212  66.511  1.00  0.00    -0.253 OA 
BRANCH  11  13
HETATM   13  C   UNL     1      -7.222  16.340  67.527  1.00  0.00    -0.179 A  
HETATM   14  C   UNL     1      -6.192  16.099  66.630  1.00  0.00     0.510 A  
HETATM   15  N   UNL     1      -5.404  15.099  67.129  1.00  0.00    -0.087 NA 
HETATM   16  H   UNL     1      -4.573  14.725  66.669  1.00  0.00     0.000 HD 
HETATM   17  C   UNL     1      -5.892  14.670  68.341  1.00  0.00    -0.105 A  
HETATM   18  C   UNL     1      -5.409  13.685  69.208  1.00  0.00    -0.078 A  
HETATM   19  C   UNL     1      -6.111  13.469  70.399  1.00  0.00    -0.092 A  
HETATM   20  C   UNL     1      -7.245  14.214  70.709  1.00  0.00     1.342 A  
HETATM   21  C   UNL     1      -7.713  15.195  69.831  1.00  0.00     0.041 A  
HETATM   22  C   UNL     1      -7.032  15.429  68.617  1.00  0.00    -0.111 A  
ENDBRANCH  11  13
ENDBRANCH  10  11
ENDBRANCH   7  10
TORSDOF 3
ENDMDL
MODEL      274
REMARK 921   NORMALIZED FREE ENERGY PREDICTED BY IDOCK:    7.32 KCAL/MOL
REMARK 922        TOTAL FREE ENERGY PREDICTED BY IDOCK:    8.17 KCAL/MOL
REMARK 923 INTER-LIGAND FREE ENERGY PREDICTED BY IDOCK:    8.17 KCAL/MOL
REMARK 924 INTRA-LIGAND FREE ENERGY PREDICTED BY IDOCK:    0.00 KCAL/MOL
REMARK 927      BINDING AFFINITY PREDICTED BY RF-SCORE:    0.00 PKD
ROOT
HETATM    1  C   UNL     1      -9.194  18.513  65.974  1.00  0.00     0.016 C  
HETATM    2  C   UNL     1      -8.914  17.032  66.243  1.00  0.00    -0.282 C  
HETATM    3  C   UNL     1      -7.518  16.795  65.670  1.00  0.00     1.106 C  
HETATM    4  C   UNL     1      -7.094  18.158  65.116  1.00  0.00     0.822 C  
HETATM    5  N   UNL     1      -8.390  18.741  64.768  1.00  0.00     2.723 NA 
HETATM    6  C   UNL     1      -6.347  18.978  66.171  1.00  0.00    -0.216 C  
HETATM    7  C   UNL     1      -7.233  19.541  67.298  1.00  0.00    -0.213 C  
HETATM    8  C   UNL     1      -8.352  20.110  64.280  1.00  0.00     3.521 C  
HETATM    9  C   UNL     1      -8.753  19.379  67.160  1.00  0.00    -0.332 C  
ENDROOT
BRANCH   7  10
HETATM   10  O   UNL     1      -6.760  18.953  68.520  1.00  0.00    -0.239 OA 
BRANCH  10  11
HETATM   11  C   UNL     1      -7.739  18.860  69.469  1.00  0.00     0.232 C  
HETATM   12  O   UNL     1      -7.991  19.749  70.271  1.00  0.00     0.575 OA 
BRANCH  11  13
HETATM   13  C   UNL     1      -8.344  17.535  69.498  1.00  0.00     0.670 A  
HETATM   14  C   UNL     1      -9.702  17.259  69.495  1.00  0.00     0.217 A  
HETATM   15  N   UNL     1      -9.872  15.903  69.429  1.00  0.00    -0.268 NA 
HETATM   16  H   UNL     1     -10.774  15.427  69.412  1.00  0.00     0.000 HD 
HETATM   17  C   UNL     1      -8.649  15.274  69.391  1.00  0.00    -0.226 A  
HETATM   18  C   UNL     1      -8.340  13.912  69.311  1.00  0.00     0.443 A  
HETATM   19  C   UNL     1      -6.987  13.555  69.271  1.00  0.00    -0.008 A  
HETATM   20  C   UNL     1      -5.989  14.525  69.301  1.00  0.00    -0.104 A  
HETATM   21  C   UNL     1      -6.316  15.881  69.379  1.00  0.00    -0.160 A  
HETATM   22  C   UNL     1      -7.672  16.271  69.433  1.00  0.00    -0.108 A  
ENDBRANCH  11  13
ENDBRANCH  10  11
ENDBRANCH   7  10
TORSDOF 3
ENDMDL
MODEL      275
REMARK 921   NORMALIZED FREE ENERGY PREDICTED BY IDOCK:   38.83 KCAL/MOL
REMARK 922        TOTAL FREE ENERGY PREDICTED BY IDOCK:   45.21 KCAL/MOL
REMARK 923 INTER-LIGAND FREE ENERGY PREDICTED BY IDOCK:   31.87 KCAL/MOL
REMARK 924 INTRA-LIGAND FREE ENERGY PREDICTED BY IDOCK:   13.34 KCAL/MOL
REMARK 927      BINDING AFFINITY PREDICTED BY RF-SCORE:    0.00 PKD
ROOT
HETATM    1  C   UNL     1      -8.910  18.715  66.026  1.00  0.00     0.025 C  
HETATM    2  C   UNL     1      -7.839  17.624  65.961  1.00  0.00    -0.201 C  
HETATM    3  C   UNL     1      -7.012  17.821  67.229  1.00  0.00    -0.197 C  
HETATM    4  C   UNL     1      -7.670  19.009  67.935  1.00  0.00    -0.266 C  
HETATM    5  N   UNL     1      -8.215  19.751  66.798  1.00  0.00    -0.298 NA 
HETATM    6  C   UNL     1      -8.756  18.545  68.908  1.00  0.00    -0.178 C  
HETATM    7  C   UNL     1     -10.046  18.033  68.239  1.00  0.00    -0.385 C  
HETATM    8  C   UNL     1      -9.002  20.927  67.134  1.00  0.00    -0.031 C  
HETATM    9  C   UNL     1     -10.177  18.199  66.719  1.00  0.00    -0.379 C  
ENDROOT
BRANCH   7  10
HETATM   10  O   UNL     1     -10.183  16.656  68.622  1.00  0.00    -0.251 OA 
BRANCH  10  11
HETATM   11  C   UNL     1     -11.059  15.976  67.822  1.00  0.00    -0.273 C  
HETATM   12  O   UNL     1     -12.141  15.554  68.209  1.00  0.00    -0.163 OA 
BRANCH  11  13
HETATM   13  C   UNL     1     -10.493  15.697  66.509  1.00  0.00    -0.303 A  
HETATM   14  C   UNL     1     -11.201  15.586  65.323  1.00  0.00    -0.275 A  
HETATM   15  N   UNL     1     -10.312  15.417  64.298  1.00  0.00    -0.198 NA 
HETATM   16  H   UNL     1     -10.567  15.310  63.315  1.00  0.00     0.000 HD 
HETATM   17  C   UNL     1      -9.025  15.413  64.783  1.00  0.00     3.604 A  
HETATM   18  C   UNL     1      -7.808  15.282  64.105  1.00  0.00    15.606 A  
HETATM   19  C   UNL     1      -6.634  15.331  64.865  1.00  0.00    14.227 A  
HETATM   20  C   UNL     1      -6.680  15.512  66.244  1.00  0.00     2.420 A  
HETATM   21  C   UNL     1      -7.904  15.643  66.905  1.00  0.00    -0.258 A  
HETATM   22  C   UNL     1      -9.106  15.586  66.166  1.00  0.00    -0.359 A  
ENDBRANCH  11  13
ENDBRANCH  10  11
ENDBRANCH   7  10
TORSDOF 3
ENDMDL
