MODEL        1
REMARK 921   NORMALIZED FREE ENERGY PREDICTED BY IDOCK:   -9.33 KCAL/MOL
REMARK 922        TOTAL FREE ENERGY PREDICTED BY IDOCK:  -10.96 KCAL/MOL
REMARK 923 INTER-LIGAND FREE ENERGY PREDICTED BY IDOCK:  -10.43 KCAL/MOL
REMARK 924 INTRA-LIGAND FREE ENERGY PREDICTED BY IDOCK:   -0.53 KCAL/MOL
REMARK 927      BINDING AFFINITY PREDICTED BY RF-SCORE:    0.00 PKD
ROOT
HETATM    1  C   UNL     1      -9.505  19.189  68.492  1.00  0.00    -0.389 C  
HETATM    2  C   UNL     1     -10.481  19.873  67.532  1.00  0.00    -0.535 C  
HETATM    3  C   UNL     1      -9.935  19.600  66.140  1.00  0.00    -0.554 C  
HETATM    4  C   UNL     1      -8.647  18.785  66.344  1.00  0.00    -0.284 C  
HETATM    5  N   UNL     1      -8.161  19.211  67.732  1.00  0.00    -0.280 N  
HETATM    6  C   UNL     1      -8.957  17.294  66.336  1.00  0.00    -0.282 C  
HETATM    7  C   UNL     1      -9.528  16.737  67.647  1.00  0.00    -0.234 C  
HETATM    8  C   UNL     1      -7.051  18.359  68.377  1.00  0.00    -0.264 C  
HETATM    9  C   UNL     1      -6.447  19.296  69.394  1.00  0.00    -0.346 C  
HETATM   10  C   UNL     1      -6.240  20.529  68.555  1.00  0.00    -0.357 C  
HETATM   11  C   UNL     1      -9.956  17.742  68.729  1.00  0.00    -0.367 C  
HETATM   12  C   UNL     1      -7.504  20.633  67.703  1.00  0.00    -0.256 C  
ENDROOT
BRANCH   7  13
HETATM   13  O   UNL     1     -10.613  15.846  67.360  1.00  0.00    -0.305 OA 
BRANCH  13  14
HETATM   14  C   UNL     1     -10.273  14.511  67.466  1.00  0.00    -0.232 C  
HETATM   15  C   UNL     1     -11.510  13.599  67.141  1.00  0.00    -0.342 C  
HETATM   16  O   UNL     1      -9.150  14.137  67.788  1.00  0.00    -0.177 OA 
HETATM   17  O   UNL     1     -12.660  14.425  66.871  1.00  0.00    -0.540 OA 
HETATM   18  C   UNL     1     -11.181  12.769  65.887  1.00  0.00    -0.334 A  
HETATM   19  C   UNL     1     -11.860  12.813  68.414  1.00  0.00    -0.353 A  
HETATM   20  C   UNL     1     -12.148  13.522  69.602  1.00  0.00    -0.365 A  
HETATM   21  C   UNL     1     -10.024  11.963  65.845  1.00  0.00    -0.261 A  
HETATM   22  H   UNL     1     -13.408  13.873  66.674  1.00  0.00     0.000 HD 
HETATM   23  C   UNL     1      -9.712  11.192  64.723  1.00  0.00    -0.303 A  
HETATM   24  C   UNL     1     -12.321  12.860  70.820  1.00  0.00    -0.385 A  
HETATM   25  C   UNL     1     -10.546  11.224  63.611  1.00  0.00    -0.453 A  
HETATM   26  C   UNL     1     -12.231  11.474  70.874  1.00  0.00    -0.425 A  
HETATM   27  C   UNL     1     -11.686  12.021  63.622  1.00  0.00    -0.587 A  
HETATM   28  C   UNL     1     -12.013  10.749  69.705  1.00  0.00    -0.397 A  
HETATM   29  C   UNL     1     -11.848  11.411  68.485  1.00  0.00    -0.364 A  
HETATM   30  C   UNL     1     -12.006  12.782  64.749  1.00  0.00    -0.455 A  
ENDBRANCH  13  14
ENDBRANCH   7  13
TORSDOF 2
ENDMDL
MODEL        2
REMARK 921   NORMALIZED FREE ENERGY PREDICTED BY IDOCK:   -8.85 KCAL/MOL
REMARK 922        TOTAL FREE ENERGY PREDICTED BY IDOCK:  -10.41 KCAL/MOL
REMARK 923 INTER-LIGAND FREE ENERGY PREDICTED BY IDOCK:   -9.88 KCAL/MOL
REMARK 924 INTRA-LIGAND FREE ENERGY PREDICTED BY IDOCK:   -0.53 KCAL/MOL
REMARK 927      BINDING AFFINITY PREDICTED BY RF-SCORE:    0.00 PKD
ROOT
HETATM    1  C   UNL     1      -9.207  19.743  68.500  1.00  0.00    -0.265 C  
HETATM    2  C   UNL     1     -10.149  20.231  67.396  1.00  0.00    -0.534 C  
HETATM    3  C   UNL     1      -9.597  19.643  66.108  1.00  0.00    -0.464 C  
HETATM    4  C   UNL     1      -8.341  18.852  66.508  1.00  0.00    -0.302 C  
HETATM    5  N   UNL     1      -7.855  19.556  67.778  1.00  0.00    -0.281 N  
HETATM    6  C   UNL     1      -8.703  17.406  66.820  1.00  0.00    -0.278 C  
HETATM    7  C   UNL     1      -9.307  17.168  68.210  1.00  0.00    -0.265 C  
HETATM    8  C   UNL     1      -6.783  18.830  68.614  1.00  0.00    -0.266 C  
HETATM    9  C   UNL     1      -6.157  19.947  69.412  1.00  0.00    -0.338 C  
HETATM   10  C   UNL     1      -5.898  20.960  68.328  1.00  0.00    -0.386 C  
HETATM   11  C   UNL     1      -9.711  18.398  69.039  1.00  0.00    -0.249 C  
HETATM   12  C   UNL     1      -7.148  20.915  67.451  1.00  0.00    -0.361 C  
ENDROOT
BRANCH   7  13
HETATM   13  O   UNL     1     -10.420  16.271  68.105  1.00  0.00    -0.266 OA 
BRANCH  13  14
HETATM   14  C   UNL     1     -10.309  15.157  68.916  1.00  0.00    -0.243 C  
HETATM   15  C   UNL     1     -11.551  14.214  68.730  1.00  0.00    -0.327 C  
HETATM   16  O   UNL     1      -9.360  14.980  69.671  1.00  0.00    -0.131 OA 
HETATM   17  O   UNL     1     -12.475  14.811  67.798  1.00  0.00    -0.533 OA 
HETATM   18  C   UNL     1     -11.057  12.872  68.160  1.00  0.00    -0.282 A  
HETATM   19  C   UNL     1     -12.302  14.159  70.070  1.00  0.00    -0.403 A  
HETATM   20  C   UNL     1     -12.758  15.363  70.653  1.00  0.00    -0.490 A  
HETATM   21  C   UNL     1     -10.051  12.140  68.824  1.00  0.00    -0.098 A  
HETATM   22  H   UNL     1     -13.226  14.240  67.686  1.00  0.00     0.000 HD 
HETATM   23  C   UNL     1      -9.597  10.914  68.333  1.00  0.00    -0.177 A  
HETATM   24  C   UNL     1     -13.307  15.386  71.937  1.00  0.00    -0.554 A  
HETATM   25  C   UNL     1     -10.131  10.403  67.155  1.00  0.00    -0.254 A  
HETATM   26  C   UNL     1     -13.431  14.205  72.659  1.00  0.00    -0.634 A  
HETATM   27  C   UNL     1     -11.115  11.112  66.474  1.00  0.00    -0.233 A  
HETATM   28  C   UNL     1     -13.049  12.998  72.081  1.00  0.00    -0.465 A  
HETATM   29  C   UNL     1     -12.507  12.972  70.793  1.00  0.00    -0.384 A  
HETATM   30  C   UNL     1     -11.580  12.332  66.973  1.00  0.00    -0.418 A  
ENDBRANCH  13  14
ENDBRANCH   7  13
TORSDOF 2
ENDMDL
MODEL        3
REMARK 921   NORMALIZED FREE ENERGY PREDICTED BY IDOCK:   -7.75 KCAL/MOL
REMARK 922        TOTAL FREE ENERGY PREDICTED BY IDOCK:   -9.18 KCAL/MOL
REMARK 923 INTER-LIGAND FREE ENERGY PREDICTED BY IDOCK:   -8.60 KCAL/MOL
REMARK 924 INTRA-LIGAND FREE ENERGY PREDICTED BY IDOCK:   -0.59 KCAL/MOL
REMARK 927      BINDING AFFINITY PREDICTED BY RF-SCORE:    0.00 PKD
ROOT
HETATM    1  C   UNL     1     -10.160  16.392  66.604  1.00  0.00    -0.284 C  
HETATM    2  C   UNL     1      -9.105  15.493  65.955  1.00  0.00    -0.316 C  
HETATM    3  C   UNL     1      -7.922  15.508  66.909  1.00  0.00    -0.264 C  
HETATM    4  C   UNL     1      -8.324  16.435  68.068  1.00  0.00    -0.178 C  
HETATM    5  N   UNL     1      -9.331  17.398  67.432  1.00  0.00    -0.235 N  
HETATM    6  C   UNL     1      -8.997  15.635  69.176  1.00  0.00    -0.257 C  
HETATM    7  C   UNL     1     -10.471  15.287  68.930  1.00  0.00    -0.241 C  
HETATM    8  C   UNL     1     -10.164  18.272  68.390  1.00  0.00    -0.380 C  
HETATM    9  C   UNL     1     -10.604  19.418  67.512  1.00  0.00    -0.591 C  
HETATM   10  C   UNL     1      -9.297  19.804  66.874  1.00  0.00    -0.469 C  
HETATM   11  C   UNL     1     -11.047  15.548  67.529  1.00  0.00    -0.305 C  
HETATM   12  C   UNL     1      -8.620  18.474  66.545  1.00  0.00    -0.276 C  
ENDROOT
BRANCH   7  13
HETATM   13  O   UNL     1     -10.713  13.924  69.304  1.00  0.00    -0.195 OA 
BRANCH  13  14
HETATM   14  C   UNL     1     -10.120  13.007  68.457  1.00  0.00    -0.192 C  
HETATM   15  C   UNL     1     -11.204  12.076  67.806  1.00  0.00    -0.271 C  
HETATM   16  O   UNL     1      -8.907  12.957  68.281  1.00  0.00    -0.186 OA 
HETATM   17  O   UNL     1     -12.506  12.419  68.321  1.00  0.00    -0.003 OA 
HETATM   18  C   UNL     1     -11.187  12.306  66.284  1.00  0.00    -0.367 A  
HETATM   19  C   UNL     1     -10.939  10.641  68.288  1.00  0.00    -0.314 A  
HETATM   20  C   UNL     1     -10.918  10.374  69.675  1.00  0.00    -0.325 A  
HETATM   21  C   UNL     1      -9.991  12.160  65.551  1.00  0.00    -0.269 A  
HETATM   22  H   UNL     1     -13.162  11.855  67.927  1.00  0.00     0.000 HD 
HETATM   23  C   UNL     1      -9.955  12.351  64.168  1.00  0.00    -0.244 A  
HETATM   24  C   UNL     1     -10.532   9.126  70.170  1.00  0.00    -0.249 A  
HETATM   25  C   UNL     1     -11.116  12.710  63.491  1.00  0.00    -0.449 A  
HETATM   26  C   UNL     1     -10.178   8.111  69.289  1.00  0.00    -0.216 A  
HETATM   27  C   UNL     1     -12.305  12.874  64.193  1.00  0.00    -0.450 A  
HETATM   28  C   UNL     1     -10.252   8.330  67.917  1.00  0.00    -0.276 A  
HETATM   29  C   UNL     1     -10.647   9.576  67.420  1.00  0.00    -0.337 A  
HETATM   30  C   UNL     1     -12.345  12.669  65.575  1.00  0.00    -0.455 A  
ENDBRANCH  13  14
ENDBRANCH   7  13
TORSDOF 2
ENDMDL
MODEL        4
REMARK 921   NORMALIZED FREE ENERGY PREDICTED BY IDOCK:   -7.74 KCAL/MOL
REMARK 922        TOTAL FREE ENERGY PREDICTED BY IDOCK:   -9.18 KCAL/MOL
REMARK 923 INTER-LIGAND FREE ENERGY PREDICTED BY IDOCK:   -8.33 KCAL/MOL
REMARK 924 INTRA-LIGAND FREE ENERGY PREDICTED BY IDOCK:   -0.85 KCAL/MOL
REMARK 927      BINDING AFFINITY PREDICTED BY RF-SCORE:    0.00 PKD
ROOT
HETATM    1  C   UNL     1      -8.606  17.651  68.427  1.00  0.00    -0.284 C  
HETATM    2  C   UNL     1     -10.033  17.987  68.868  1.00  0.00    -0.347 C  
HETATM    3  C   UNL     1     -10.907  17.692  67.660  1.00  0.00    -0.227 C  
HETATM    4  C   UNL     1      -9.952  17.216  66.553  1.00  0.00    -0.302 C  
HETATM    5  N   UNL     1      -8.623  17.892  66.902  1.00  0.00    -0.238 N  
HETATM    6  C   UNL     1      -9.795  15.702  66.604  1.00  0.00    -0.258 C  
HETATM    7  C   UNL     1      -8.828  15.179  67.675  1.00  0.00    -0.173 C  
HETATM    8  C   UNL     1      -7.367  17.389  66.164  1.00  0.00    -0.296 C  
HETATM    9  C   UNL     1      -6.406  18.545  66.297  1.00  0.00    -0.228 C  
HETATM   10  C   UNL     1      -7.282  19.692  65.869  1.00  0.00    -0.314 C  
HETATM   11  C   UNL     1      -8.316  16.176  68.727  1.00  0.00    -0.231 C  
HETATM   12  C   UNL     1      -8.632  19.413  66.527  1.00  0.00    -0.343 C  
ENDROOT
BRANCH   7  13
HETATM   13  O   UNL     1      -9.403  14.041  68.328  1.00  0.00    -0.199 OA 
BRANCH  13  14
HETATM   14  C   UNL     1      -9.279  12.869  67.604  1.00  0.00    -0.193 C  
HETATM   15  C   UNL     1     -10.668  12.148  67.481  1.00  0.00    -0.232 C  
HETATM   16  O   UNL     1      -8.208  12.481  67.153  1.00  0.00    -0.180 OA 
HETATM   17  O   UNL     1     -11.667  12.896  68.204  1.00  0.00    -0.316 OA 
HETATM   18  C   UNL     1     -11.056  12.098  65.992  1.00  0.00    -0.354 A  
HETATM   19  C   UNL     1     -10.562  10.799  68.210  1.00  0.00    -0.233 A  
HETATM   20  C   UNL     1     -10.186  10.781  69.573  1.00  0.00    -0.146 A  
HETATM   21  C   UNL     1     -10.183  11.525  65.044  1.00  0.00    -0.328 A  
HETATM   22  H   UNL     1     -12.507  12.459  68.129  1.00  0.00     0.000 HD 
HETATM   23  C   UNL     1     -10.519  11.457  63.691  1.00  0.00    -0.472 A  
HETATM   24  C   UNL     1      -9.925   9.582  70.240  1.00  0.00    -0.310 A  
HETATM   25  C   UNL     1     -11.733  11.977  63.255  1.00  0.00    -0.425 A  
HETATM   26  C   UNL     1     -10.054   8.373  69.566  1.00  0.00    -0.200 A  
HETATM   27  C   UNL     1     -12.606  12.560  64.168  1.00  0.00    -0.474 A  
HETATM   28  C   UNL     1     -10.485   8.361  68.243  1.00  0.00    -0.214 A  
HETATM   29  C   UNL     1     -10.754   9.561  67.577  1.00  0.00    -0.311 A  
HETATM   30  C   UNL     1     -12.276  12.615  65.525  1.00  0.00    -0.501 A  
ENDBRANCH  13  14
ENDBRANCH   7  13
TORSDOF 2
ENDMDL
MODEL        5
REMARK 921   NORMALIZED FREE ENERGY PREDICTED BY IDOCK:   -7.51 KCAL/MOL
REMARK 922        TOTAL FREE ENERGY PREDICTED BY IDOCK:   -8.93 KCAL/MOL
REMARK 923 INTER-LIGAND FREE ENERGY PREDICTED BY IDOCK:   -8.23 KCAL/MOL
REMARK 924 INTRA-LIGAND FREE ENERGY PREDICTED BY IDOCK:   -0.70 KCAL/MOL
REMARK 927      BINDING AFFINITY PREDICTED BY RF-SCORE:    0.00 PKD
ROOT
HETATM    1  C   UNL     1      -8.806   8.532  69.187  1.00  0.00    -0.142 C  
HETATM    2  C   UNL     1      -8.075   8.378  67.851  1.00  0.00    -0.123 C  
HETATM    3  C   UNL     1      -9.149   8.529  66.785  1.00  0.00    -0.186 C  
HETATM    4  C   UNL     1     -10.469   8.743  67.543  1.00  0.00    -0.271 C  
HETATM    5  N   UNL     1     -10.239   8.041  68.885  1.00  0.00    -0.206 N  
HETATM    6  C   UNL     1     -10.716  10.229  67.769  1.00  0.00    -0.324 C  
HETATM    7  C   UNL     1      -9.936  10.853  68.934  1.00  0.00    -0.196 C  
HETATM    8  C   UNL     1     -11.257   8.323  70.006  1.00  0.00    -0.081 C  
HETATM    9  C   UNL     1     -11.089   7.139  70.927  1.00  0.00    -0.290 C  
HETATM   10  C   UNL     1     -11.150   6.002  69.941  1.00  0.00    -0.469 C  
HETATM   11  C   UNL     1      -8.826  10.012  69.587  1.00  0.00    -0.217 C  
HETATM   12  C   UNL     1     -10.330   6.484  68.745  1.00  0.00    -0.193 C  
ENDROOT
BRANCH   7  13
HETATM   13  O   UNL     1      -9.406  12.123  68.533  1.00  0.00    -0.183 OA 
BRANCH  13  14
HETATM   14  C   UNL     1     -10.334  12.934  67.907  1.00  0.00    -0.231 C  
HETATM   15  C   UNL     1      -9.780  13.445  66.530  1.00  0.00    -0.282 C  
HETATM   16  O   UNL     1     -11.422  13.201  68.405  1.00  0.00    -0.271 OA 
HETATM   17  O   UNL     1      -8.437  12.956  66.339  1.00  0.00    -0.407 OA 
HETATM   18  C   UNL     1     -10.681  12.891  65.411  1.00  0.00    -0.307 A  
HETATM   19  C   UNL     1      -9.649  14.974  66.615  1.00  0.00    -0.281 A  
HETATM   20  C   UNL     1      -8.853  15.540  67.637  1.00  0.00    -0.185 A  
HETATM   21  C   UNL     1     -12.072  13.123  65.433  1.00  0.00    -0.478 A  
HETATM   22  H   UNL     1      -8.102  13.265  65.505  1.00  0.00     0.000 HD 
HETATM   23  C   UNL     1     -12.907  12.642  64.423  1.00  0.00    -0.344 A  
HETATM   24  C   UNL     1      -8.823  16.919  67.855  1.00  0.00    -0.218 A  
HETATM   25  C   UNL     1     -12.368  11.903  63.375  1.00  0.00    -0.577 A  
HETATM   26  C   UNL     1      -9.571  17.765  67.044  1.00  0.00    -0.284 A  
HETATM   27  C   UNL     1     -11.000  11.649  63.338  1.00  0.00    -0.442 A  
HETATM   28  C   UNL     1     -10.311  17.237  65.990  1.00  0.00    -0.312 A  
HETATM   29  C   UNL     1     -10.336  15.857  65.767  1.00  0.00    -0.396 A  
HETATM   30  C   UNL     1     -10.162  12.142  64.341  1.00  0.00    -0.333 A  
ENDBRANCH  13  14
ENDBRANCH   7  13
TORSDOF 2
ENDMDL
MODEL        6
REMARK 921   NORMALIZED FREE ENERGY PREDICTED BY IDOCK:   -7.44 KCAL/MOL
REMARK 922        TOTAL FREE ENERGY PREDICTED BY IDOCK:   -8.84 KCAL/MOL
REMARK 923 INTER-LIGAND FREE ENERGY PREDICTED BY IDOCK:   -8.16 KCAL/MOL
REMARK 924 INTRA-LIGAND FREE ENERGY PREDICTED BY IDOCK:   -0.68 KCAL/MOL
REMARK 927      BINDING AFFINITY PREDICTED BY RF-SCORE:    0.00 PKD
ROOT
HETATM    1  C   UNL     1      -9.072   8.183  70.327  1.00  0.00    -0.151 C  
HETATM    2  C   UNL     1      -8.330   7.528  69.160  1.00  0.00    -0.135 C  
HETATM    3  C   UNL     1      -9.330   7.493  68.016  1.00  0.00    -0.142 C  
HETATM    4  C   UNL     1     -10.626   8.109  68.568  1.00  0.00    -0.100 C  
HETATM    5  N   UNL     1     -10.553   7.826  70.071  1.00  0.00    -0.235 N  
HETATM    6  C   UNL     1     -10.645   9.612  68.321  1.00  0.00    -0.268 C  
HETATM    7  C   UNL     1      -9.817  10.448  69.306  1.00  0.00    -0.225 C  
HETATM    8  C   UNL     1     -11.553   8.575  70.974  1.00  0.00    -0.279 C  
HETATM    9  C   UNL     1     -11.602   7.718  72.215  1.00  0.00    -0.390 C  
HETATM   10  C   UNL     1     -11.806   6.355  71.610  1.00  0.00    -0.361 C  
HETATM   11  C   UNL     1      -8.875   9.702  70.266  1.00  0.00    -0.253 C  
HETATM   12  C   UNL     1     -10.881   6.329  70.394  1.00  0.00    -0.299 C  
ENDROOT
BRANCH   7  13
HETATM   13  O   UNL     1      -9.082  11.448  68.590  1.00  0.00    -0.175 OA 
BRANCH  13  14
HETATM   14  C   UNL     1      -9.875  12.471  68.104  1.00  0.00    -0.221 C  
HETATM   15  C   UNL     1      -9.352  12.957  66.705  1.00  0.00    -0.243 C  
HETATM   16  O   UNL     1     -10.836  12.914  68.722  1.00  0.00    -0.249 OA 
HETATM   17  O   UNL     1      -8.161  12.224  66.355  1.00  0.00    -0.392 OA 
HETATM   18  C   UNL     1     -10.443  12.676  65.657  1.00  0.00    -0.298 A  
HETATM   19  C   UNL     1      -8.902  14.419  66.856  1.00  0.00    -0.246 A  
HETATM   20  C   UNL     1      -7.919  14.741  67.820  1.00  0.00    -0.167 A  
HETATM   21  C   UNL     1     -11.749  13.179  65.831  1.00  0.00    -0.427 A  
HETATM   22  H   UNL     1      -7.844  12.518  65.508  1.00  0.00     0.000 HD 
HETATM   23  C   UNL     1     -12.752  12.948  64.887  1.00  0.00    -0.474 A  
HETATM   24  C   UNL     1      -7.586  16.067  68.104  1.00  0.00    -0.139 A  
HETATM   25  C   UNL     1     -12.471  12.193  63.754  1.00  0.00    -0.620 A  
HETATM   26  C   UNL     1      -8.213  17.100  67.418  1.00  0.00    -0.197 A  
HETATM   27  C   UNL     1     -11.194  11.674  63.565  1.00  0.00    -0.462 A  
HETATM   28  C   UNL     1      -9.137  16.807  66.419  1.00  0.00    -0.321 A  
HETATM   29  C   UNL     1      -9.464  15.480  66.128  1.00  0.00    -0.376 A  
HETATM   30  C   UNL     1     -10.187  11.916  64.503  1.00  0.00    -0.320 A  
ENDBRANCH  13  14
ENDBRANCH   7  13
TORSDOF 2
ENDMDL
MODEL        7
REMARK 921   NORMALIZED FREE ENERGY PREDICTED BY IDOCK:   -7.39 KCAL/MOL
REMARK 922        TOTAL FREE ENERGY PREDICTED BY IDOCK:   -8.78 KCAL/MOL
REMARK 923 INTER-LIGAND FREE ENERGY PREDICTED BY IDOCK:   -8.36 KCAL/MOL
REMARK 924 INTRA-LIGAND FREE ENERGY PREDICTED BY IDOCK:   -0.42 KCAL/MOL
REMARK 927      BINDING AFFINITY PREDICTED BY RF-SCORE:    0.00 PKD
ROOT
HETATM    1  C   UNL     1      -8.433  10.355  67.011  1.00  0.00    -0.127 C  
HETATM    2  C   UNL     1      -7.718  10.418  65.660  1.00  0.00    -0.150 C  
HETATM    3  C   UNL     1      -8.824  10.538  64.624  1.00  0.00    -0.211 C  
HETATM    4  C   UNL     1     -10.145  10.517  65.412  1.00  0.00    -0.291 C  
HETATM    5  N   UNL     1      -9.803   9.725  66.677  1.00  0.00    -0.202 N  
HETATM    6  C   UNL     1     -10.562  11.935  65.783  1.00  0.00    -0.309 C  
HETATM    7  C   UNL     1      -9.838  12.535  66.995  1.00  0.00    -0.217 C  
HETATM    8  C   UNL     1     -10.824   9.772  67.830  1.00  0.00    -0.246 C  
HETATM    9  C   UNL     1     -10.495   8.536  68.630  1.00  0.00    -0.200 C  
HETATM   10  C   UNL     1     -10.440   7.499  67.539  1.00  0.00    -0.341 C  
HETATM   11  C   UNL     1      -8.622  11.777  67.553  1.00  0.00    -0.157 C  
HETATM   12  C   UNL     1      -9.710   8.188  66.388  1.00  0.00    -0.205 C  
ENDROOT
BRANCH   7  13
HETATM   13  O   UNL     1      -9.473  13.892  66.714  1.00  0.00    -0.260 OA 
BRANCH  13  14
HETATM   14  C   UNL     1     -10.402  14.815  67.157  1.00  0.00    -0.255 C  
HETATM   15  C   UNL     1      -9.964  15.420  68.538  1.00  0.00    -0.213 C  
HETATM   16  O   UNL     1     -11.422  15.081  66.530  1.00  0.00    -0.330 OA 
HETATM   17  O   UNL     1      -8.736  14.798  68.969  1.00  0.00    -0.227 OA 
HETATM   18  C   UNL     1      -9.725  16.929  68.350  1.00  0.00    -0.263 A  
HETATM   19  C   UNL     1     -11.016  15.014  69.583  1.00  0.00    -0.294 A  
HETATM   20  C   UNL     1     -11.294  13.643  69.782  1.00  0.00    -0.181 A  
HETATM   21  C   UNL     1     -10.738  17.753  67.817  1.00  0.00    -0.332 A  
HETATM   22  H   UNL     1      -8.471  15.165  69.804  1.00  0.00     0.000 HD 
HETATM   23  C   UNL     1     -10.548  19.126  67.649  1.00  0.00    -0.546 A  
HETATM   24  C   UNL     1     -12.344  13.226  70.603  1.00  0.00    -0.416 A  
HETATM   25  C   UNL     1      -9.331  19.702  67.998  1.00  0.00    -0.425 A  
HETATM   26  C   UNL     1     -13.126  14.169  71.260  1.00  0.00    -0.420 A  
HETATM   27  C   UNL     1      -8.311  18.909  68.514  1.00  0.00    -0.384 A  
HETATM   28  C   UNL     1     -12.830  15.523  71.131  1.00  0.00    -0.551 A  
HETATM   29  C   UNL     1     -11.774  15.941  70.315  1.00  0.00    -0.352 A  
HETATM   30  C   UNL     1      -8.505  17.537  68.695  1.00  0.00    -0.258 A  
ENDBRANCH  13  14
ENDBRANCH   7  13
TORSDOF 2
ENDMDL
MODEL        8
REMARK 921   NORMALIZED FREE ENERGY PREDICTED BY IDOCK:   -7.36 KCAL/MOL
REMARK 922        TOTAL FREE ENERGY PREDICTED BY IDOCK:   -8.75 KCAL/MOL
REMARK 923 INTER-LIGAND FREE ENERGY PREDICTED BY IDOCK:   -8.31 KCAL/MOL
REMARK 924 INTRA-LIGAND FREE ENERGY PREDICTED BY IDOCK:   -0.44 KCAL/MOL
REMARK 927      BINDING AFFINITY PREDICTED BY RF-SCORE:    0.00 PKD
ROOT
HETATM    1  C   UNL     1     -10.982   8.933  69.788  1.00  0.00    -0.156 C  
HETATM    2  C   UNL     1     -10.353   9.105  71.173  1.00  0.00    -0.387 C  
HETATM    3  C   UNL     1      -8.852   9.058  70.942  1.00  0.00    -0.294 C  
HETATM    4  C   UNL     1      -8.663   8.837  69.432  1.00  0.00    -0.142 C  
HETATM    5  N   UNL     1      -9.938   8.104  69.008  1.00  0.00    -0.184 N  
HETATM    6  C   UNL     1      -8.566  10.175  68.710  1.00  0.00    -0.133 C  
HETATM    7  C   UNL     1      -9.906  10.877  68.450  1.00  0.00    -0.177 C  
HETATM    8  C   UNL     1     -10.213   7.997  67.495  1.00  0.00    -0.245 C  
HETATM    9  C   UNL     1     -11.157   6.824  67.401  1.00  0.00    -0.366 C  
HETATM   10  C   UNL     1     -10.431   5.808  68.242  1.00  0.00    -0.281 C  
HETATM   11  C   UNL     1     -11.159  10.310  69.137  1.00  0.00    -0.283 C  
HETATM   12  C   UNL     1      -9.911   6.600  69.441  1.00  0.00    -0.151 C  
ENDROOT
BRANCH   7  13
HETATM   13  O   UNL     1      -9.783  12.274  68.746  1.00  0.00    -0.112 OA 
BRANCH  13  14
HETATM   14  C   UNL     1     -10.657  13.068  68.027  1.00  0.00    -0.235 C  
HETATM   15  C   UNL     1      -9.985  13.562  66.696  1.00  0.00    -0.282 C  
HETATM   16  O   UNL     1     -11.787  13.333  68.421  1.00  0.00    -0.336 OA 
HETATM   17  O   UNL     1      -8.627  13.082  66.634  1.00  0.00    -0.410 OA 
HETATM   18  C   UNL     1     -10.779  12.985  65.511  1.00  0.00    -0.299 A  
HETATM   19  C   UNL     1      -9.873  15.094  66.769  1.00  0.00    -0.251 A  
HETATM   20  C   UNL     1      -9.176  15.681  67.849  1.00  0.00    -0.190 A  
HETATM   21  C   UNL     1     -12.168  13.205  65.404  1.00  0.00    -0.510 A  
HETATM   22  H   UNL     1      -8.221  13.381  65.829  1.00  0.00     0.000 HD 
HETATM   23  C   UNL     1     -12.906  12.702  64.331  1.00  0.00    -0.344 A  
HETATM   24  C   UNL     1      -9.175  17.064  68.047  1.00  0.00    -0.241 A  
HETATM   25  C   UNL     1     -12.270  11.952  63.348  1.00  0.00    -0.561 A  
HETATM   26  C   UNL     1      -9.853  17.891  67.160  1.00  0.00    -0.308 A  
HETATM   27  C   UNL     1     -10.903  11.709  63.437  1.00  0.00    -0.453 A  
HETATM   28  C   UNL     1     -10.492  17.341  66.052  1.00  0.00    -0.285 A  
HETATM   29  C   UNL     1     -10.487  15.958  65.849  1.00  0.00    -0.373 A  
HETATM   30  C   UNL     1     -10.161  12.224  64.503  1.00  0.00    -0.322 A  
ENDBRANCH  13  14
ENDBRANCH   7  13
TORSDOF 2
ENDMDL
MODEL        9
REMARK 921   NORMALIZED FREE ENERGY PREDICTED BY IDOCK:   -7.36 KCAL/MOL
REMARK 922        TOTAL FREE ENERGY PREDICTED BY IDOCK:   -8.75 KCAL/MOL
REMARK 923 INTER-LIGAND FREE ENERGY PREDICTED BY IDOCK:   -8.00 KCAL/MOL
REMARK 924 INTRA-LIGAND FREE ENERGY PREDICTED BY IDOCK:   -0.75 KCAL/MOL
REMARK 927      BINDING AFFINITY PREDICTED BY RF-SCORE:    0.00 PKD
ROOT
HETATM    1  C   UNL     1      -7.024  17.507  66.545  1.00  0.00    -0.252 C  
HETATM    2  C   UNL     1      -5.633  16.870  66.589  1.00  0.00    -0.115 C  
HETATM    3  C   UNL     1      -5.188  16.972  68.038  1.00  0.00    -0.122 C  
HETATM    4  C   UNL     1      -6.329  17.687  68.781  1.00  0.00    -0.200 C  
HETATM    5  N   UNL     1      -6.995  18.537  67.696  1.00  0.00    -0.208 N  
HETATM    6  C   UNL     1      -7.323  16.671  69.329  1.00  0.00    -0.184 C  
HETATM    7  C   UNL     1      -8.324  16.116  68.307  1.00  0.00    -0.171 C  
HETATM    8  C   UNL     1      -8.367  19.153  68.032  1.00  0.00    -0.305 C  
HETATM    9  C   UNL     1      -8.475  20.301  67.059  1.00  0.00    -0.388 C  
HETATM   10  C   UNL     1      -7.137  20.964  67.253  1.00  0.00    -0.430 C  
HETATM   11  C   UNL     1      -8.084  16.434  66.822  1.00  0.00    -0.287 C  
HETATM   12  C   UNL     1      -6.144  19.806  67.353  1.00  0.00    -0.188 C  
ENDROOT
BRANCH   7  13
HETATM   13  O   UNL     1      -8.456  14.700  68.482  1.00  0.00    -0.150 OA 
BRANCH  13  14
HETATM   14  C   UNL     1      -9.765  14.259  68.432  1.00  0.00    -0.225 C  
HETATM   15  C   UNL     1      -9.846  12.850  67.743  1.00  0.00    -0.221 C  
HETATM   16  O   UNL     1     -10.703  14.919  68.865  1.00  0.00    -0.229 OA 
HETATM   17  O   UNL     1      -8.529  12.445  67.317  1.00  0.00    -0.168 OA 
HETATM   18  C   UNL     1     -10.375  11.838  68.775  1.00  0.00    -0.198 A  
HETATM   19  C   UNL     1     -10.663  13.006  66.451  1.00  0.00    -0.295 A  
HETATM   20  C   UNL     1     -10.238  13.938  65.477  1.00  0.00    -0.348 A  
HETATM   21  C   UNL     1     -11.598  12.067  69.441  1.00  0.00    -0.393 A  
HETATM   22  H   UNL     1      -8.579  11.592  66.901  1.00  0.00     0.000 HD 
HETATM   23  C   UNL     1     -12.104  11.157  70.371  1.00  0.00    -0.475 A  
HETATM   24  C   UNL     1     -11.023  14.231  64.359  1.00  0.00    -0.204 A  
HETATM   25  C   UNL     1     -11.386  10.003  70.667  1.00  0.00    -0.425 A  
HETATM   26  C   UNL     1     -12.240  13.584  64.179  1.00  0.00    -0.449 A  
HETATM   27  C   UNL     1     -10.171   9.760  70.034  1.00  0.00    -0.308 A  
HETATM   28  C   UNL     1     -12.649  12.614  65.090  1.00  0.00    -0.459 A  
HETATM   29  C   UNL     1     -11.860  12.315  66.205  1.00  0.00    -0.398 A  
HETATM   30  C   UNL     1      -9.671  10.663  69.093  1.00  0.00    -0.205 A  
ENDBRANCH  13  14
ENDBRANCH   7  13
TORSDOF 2
ENDMDL
MODEL       10
REMARK 921   NORMALIZED FREE ENERGY PREDICTED BY IDOCK:   -7.29 KCAL/MOL
REMARK 922        TOTAL FREE ENERGY PREDICTED BY IDOCK:   -8.67 KCAL/MOL
REMARK 923 INTER-LIGAND FREE ENERGY PREDICTED BY IDOCK:   -7.97 KCAL/MOL
REMARK 924 INTRA-LIGAND FREE ENERGY PREDICTED BY IDOCK:   -0.70 KCAL/MOL
REMARK 927      BINDING AFFINITY PREDICTED BY RF-SCORE:    0.00 PKD
ROOT
HETATM    1  C   UNL     1      -9.838  13.332  66.477  1.00  0.00    -0.281 C  
HETATM    2  C   UNL     1      -9.464  14.559  67.312  1.00  0.00    -0.218 C  
HETATM    3  C   UNL     1     -10.748  14.979  68.009  1.00  0.00    -0.262 C  
HETATM    4  C   UNL     1     -11.828  13.992  67.536  1.00  0.00    -0.407 C  
HETATM    5  N   UNL     1     -11.334  13.543  66.157  1.00  0.00    -0.303 N  
HETATM    6  C   UNL     1     -11.901  12.796  68.476  1.00  0.00    -0.345 C  
HETATM    7  C   UNL     1     -10.819  11.728  68.264  1.00  0.00    -0.220 C  
HETATM    8  C   UNL     1     -12.029  12.320  65.528  1.00  0.00    -0.321 C  
HETATM    9  C   UNL     1     -11.732  12.476  64.057  1.00  0.00    -0.499 C  
HETATM   10  C   UNL     1     -12.113  13.917  63.843  1.00  0.00    -0.387 C  
HETATM   11  C   UNL     1      -9.651  12.066  67.323  1.00  0.00    -0.185 C  
HETATM   12  C   UNL     1     -11.572  14.646  65.071  1.00  0.00    -0.385 C  
ENDROOT
BRANCH   7  13
HETATM   13  O   UNL     1     -10.308  11.302  69.533  1.00  0.00    -0.088 OA 
BRANCH  13  14
HETATM   14  C   UNL     1     -10.790  10.070  69.936  1.00  0.00    -0.285 C  
HETATM   15  C   UNL     1      -9.636   9.005  69.951  1.00  0.00    -0.183 C  
HETATM   16  O   UNL     1     -11.968   9.881  70.218  1.00  0.00    -0.228 OA 
HETATM   17  O   UNL     1      -8.412   9.613  69.492  1.00  0.00    -0.130 OA 
HETATM   18  C   UNL     1      -9.446   8.520  71.400  1.00  0.00    -0.279 A  
HETATM   19  C   UNL     1      -9.976   7.931  68.905  1.00  0.00    -0.194 A  
HETATM   20  C   UNL     1     -10.185   8.321  67.563  1.00  0.00    -0.309 A  
HETATM   21  C   UNL     1     -10.534   7.994  72.127  1.00  0.00    -0.329 A  
HETATM   22  H   UNL     1      -7.714   8.968  69.502  1.00  0.00     0.000 HD 
HETATM   23  C   UNL     1     -10.382   7.536  73.437  1.00  0.00    -0.405 A  
HETATM   24  C   UNL     1     -10.645   7.414  66.606  1.00  0.00    -0.124 A  
HETATM   25  C   UNL     1      -9.137   7.612  74.054  1.00  0.00    -0.280 A  
HETATM   26  C   UNL     1     -10.887   6.092  66.964  1.00  0.00    -0.435 A  
HETATM   27  C   UNL     1      -8.052   8.140  73.363  1.00  0.00    -0.253 A  
HETATM   28  C   UNL     1     -10.626   5.670  68.264  1.00  0.00    -0.253 A  
HETATM   29  C   UNL     1     -10.158   6.575  69.221  1.00  0.00    -0.192 A  
HETATM   30  C   UNL     1      -8.200   8.585  72.047  1.00  0.00    -0.192 A  
ENDBRANCH  13  14
ENDBRANCH   7  13
TORSDOF 2
ENDMDL
MODEL       11
REMARK 921   NORMALIZED FREE ENERGY PREDICTED BY IDOCK:   -7.27 KCAL/MOL
REMARK 922        TOTAL FREE ENERGY PREDICTED BY IDOCK:   -8.66 KCAL/MOL
REMARK 923 INTER-LIGAND FREE ENERGY PREDICTED BY IDOCK:   -7.90 KCAL/MOL
REMARK 924 INTRA-LIGAND FREE ENERGY PREDICTED BY IDOCK:   -0.76 KCAL/MOL
REMARK 927      BINDING AFFINITY PREDICTED BY RF-SCORE:    0.00 PKD
ROOT
HETATM    1  C   UNL     1     -11.394   9.175  69.616  1.00  0.00     0.088 C  
HETATM    2  C   UNL     1     -11.066   9.363  71.099  1.00  0.00    -0.432 C  
HETATM    3  C   UNL     1      -9.554   9.246  71.196  1.00  0.00    -0.305 C  
HETATM    4  C   UNL     1      -9.059   8.972  69.766  1.00  0.00    -0.159 C  
HETATM    5  N   UNL     1     -10.249   8.280  69.095  1.00  0.00    -0.214 N  
HETATM    6  C   UNL     1      -8.748  10.281  69.053  1.00  0.00    -0.164 C  
HETATM    7  C   UNL     1      -9.967  11.030  68.497  1.00  0.00    -0.193 C  
HETATM    8  C   UNL     1     -10.201   8.137  67.561  1.00  0.00    -0.243 C  
HETATM    9  C   UNL     1     -11.158   7.002  67.293  1.00  0.00    -0.302 C  
HETATM   10  C   UNL     1     -10.677   5.983  68.291  1.00  0.00    -0.352 C  
HETATM   11  C   UNL     1     -11.363  10.538  68.913  1.00  0.00    -0.313 C  
HETATM   12  C   UNL     1     -10.386   6.789  69.556  1.00  0.00    -0.202 C  
ENDROOT
BRANCH   7  13
HETATM   13  O   UNL     1      -9.844  12.429  68.783  1.00  0.00    -0.129 OA 
BRANCH  13  14
HETATM   14  C   UNL     1      -9.593  13.199  67.663  1.00  0.00    -0.210 C  
HETATM   15  C   UNL     1     -10.771  14.207  67.411  1.00  0.00    -0.284 C  
HETATM   16  O   UNL     1      -8.581  13.068  66.982  1.00  0.00    -0.200 OA 
HETATM   17  O   UNL     1     -11.801  14.001  68.399  1.00  0.00    -0.332 OA 
HETATM   18  C   UNL     1     -10.220  15.638  67.548  1.00  0.00    -0.263 A  
HETATM   19  C   UNL     1     -11.418  13.844  66.065  1.00  0.00    -0.345 A  
HETATM   20  C   UNL     1     -11.920  12.537  65.873  1.00  0.00    -0.472 A  
HETATM   21  C   UNL     1      -9.117  16.057  66.775  1.00  0.00    -0.271 A  
HETATM   22  H   UNL     1     -12.513  14.610  68.247  1.00  0.00     0.000 HD 
HETATM   23  C   UNL     1      -8.609  17.354  66.873  1.00  0.00    -0.270 A  
HETATM   24  C   UNL     1     -12.376  12.109  64.625  1.00  0.00    -0.356 A  
HETATM   25  C   UNL     1      -9.186  18.255  67.761  1.00  0.00    -0.276 A  
HETATM   26  C   UNL     1     -12.361  12.984  63.545  1.00  0.00    -0.500 A  
HETATM   27  C   UNL     1     -10.267  17.862  68.544  1.00  0.00    -0.393 A  
HETATM   28  C   UNL     1     -11.932  14.296  63.724  1.00  0.00    -0.077 A  
HETATM   29  C   UNL     1     -11.482  14.727  64.975  1.00  0.00    -0.389 A  
HETATM   30  C   UNL     1     -10.785  16.569  68.437  1.00  0.00    -0.339 A  
ENDBRANCH  13  14
ENDBRANCH   7  13
TORSDOF 2
ENDMDL
MODEL       12
REMARK 921   NORMALIZED FREE ENERGY PREDICTED BY IDOCK:   -7.23 KCAL/MOL
REMARK 922        TOTAL FREE ENERGY PREDICTED BY IDOCK:   -8.61 KCAL/MOL
REMARK 923 INTER-LIGAND FREE ENERGY PREDICTED BY IDOCK:   -7.87 KCAL/MOL
REMARK 924 INTRA-LIGAND FREE ENERGY PREDICTED BY IDOCK:   -0.74 KCAL/MOL
REMARK 927      BINDING AFFINITY PREDICTED BY RF-SCORE:    0.00 PKD
ROOT
HETATM    1  C   UNL     1      -9.783   7.511  66.863  1.00  0.00    -0.209 C  
HETATM    2  C   UNL     1     -10.061   6.722  68.145  1.00  0.00    -0.182 C  
HETATM    3  C   UNL     1      -8.787   6.826  68.966  1.00  0.00    -0.129 C  
HETATM    4  C   UNL     1      -7.806   7.654  68.121  1.00  0.00    -0.121 C  
HETATM    5  N   UNL     1      -8.254   7.394  66.680  1.00  0.00    -0.121 N  
HETATM    6  C   UNL     1      -7.944   9.136  68.449  1.00  0.00    -0.103 C  
HETATM    7  C   UNL     1      -9.130   9.846  67.784  1.00  0.00    -0.131 C  
HETATM    8  C   UNL     1      -7.672   8.312  65.589  1.00  0.00    -0.092 C  
HETATM    9  C   UNL     1      -7.845   7.500  64.329  1.00  0.00    -0.133 C  
HETATM   10  C   UNL     1      -7.277   6.176  64.766  1.00  0.00    -0.063 C  
HETATM   11  C   UNL     1     -10.181   8.977  67.074  1.00  0.00    -0.336 C  
HETATM   12  C   UNL     1      -7.809   5.977  66.185  1.00  0.00    -0.104 C  
ENDROOT
BRANCH   7  13
HETATM   13  O   UNL     1      -9.776  10.700  68.737  1.00  0.00    -0.173 OA 
BRANCH  13  14
HETATM   14  C   UNL     1      -9.841  12.021  68.337  1.00  0.00    -0.204 C  
HETATM   15  C   UNL     1     -11.330  12.522  68.332  1.00  0.00    -0.291 C  
HETATM   16  O   UNL     1      -8.848  12.668  68.024  1.00  0.00    -0.180 OA 
HETATM   17  O   UNL     1     -12.205  11.438  68.702  1.00  0.00    -0.532 OA 
HETATM   18  C   UNL     1     -11.462  13.653  69.368  1.00  0.00    -0.343 A  
HETATM   19  C   UNL     1     -11.702  12.871  66.881  1.00  0.00    -0.445 A  
HETATM   20  C   UNL     1     -11.577  11.879  65.882  1.00  0.00    -0.291 A  
HETATM   21  C   UNL     1     -10.623  14.785  69.304  1.00  0.00    -0.248 A  
HETATM   22  H   UNL     1     -13.105  11.741  68.699  1.00  0.00     0.000 HD 
HETATM   23  C   UNL     1     -10.733  15.828  70.225  1.00  0.00    -0.342 A  
HETATM   24  C   UNL     1     -11.753  12.182  64.531  1.00  0.00    -0.410 A  
HETATM   25  C   UNL     1     -11.679  15.752  71.242  1.00  0.00    -0.496 A  
HETATM   26  C   UNL     1     -12.078  13.479  64.149  1.00  0.00    -0.488 A  
HETATM   27  C   UNL     1     -12.510  14.641  71.335  1.00  0.00    -0.410 A  
HETATM   28  C   UNL     1     -12.270  14.458  65.119  1.00  0.00    -0.393 A  
HETATM   29  C   UNL     1     -12.102  14.153  66.473  1.00  0.00    -0.481 A  
HETATM   30  C   UNL     1     -12.410  13.603  70.405  1.00  0.00    -0.415 A  
ENDBRANCH  13  14
ENDBRANCH   7  13
TORSDOF 2
ENDMDL
MODEL       13
REMARK 921   NORMALIZED FREE ENERGY PREDICTED BY IDOCK:   -7.19 KCAL/MOL
REMARK 922        TOTAL FREE ENERGY PREDICTED BY IDOCK:   -8.56 KCAL/MOL
REMARK 923 INTER-LIGAND FREE ENERGY PREDICTED BY IDOCK:   -8.12 KCAL/MOL
REMARK 924 INTRA-LIGAND FREE ENERGY PREDICTED BY IDOCK:   -0.44 KCAL/MOL
REMARK 927      BINDING AFFINITY PREDICTED BY RF-SCORE:    0.00 PKD
ROOT
HETATM    1  C   UNL     1      -8.168  16.962  66.228  1.00  0.00    -0.309 C  
HETATM    2  C   UNL     1      -7.555  15.709  66.859  1.00  0.00    -0.201 C  
HETATM    3  C   UNL     1      -7.102  16.137  68.245  1.00  0.00    -0.130 C  
HETATM    4  C   UNL     1      -7.450  17.630  68.361  1.00  0.00    -0.253 C  
HETATM    5  N   UNL     1      -7.419  18.126  66.913  1.00  0.00    -0.201 N  
HETATM    6  C   UNL     1      -8.847  17.805  68.942  1.00  0.00    -0.122 C  
HETATM    7  C   UNL     1      -9.999  17.605  67.949  1.00  0.00    -0.323 C  
HETATM    8  C   UNL     1      -8.019  19.518  66.637  1.00  0.00    -0.293 C  
HETATM    9  C   UNL     1      -7.370  19.918  65.334  1.00  0.00    -0.184 C  
HETATM   10  C   UNL     1      -5.925  19.622  65.635  1.00  0.00    -0.209 C  
HETATM   11  C   UNL     1      -9.663  17.021  66.567  1.00  0.00    -0.296 C  
HETATM   12  C   UNL     1      -5.952  18.295  66.391  1.00  0.00    -0.167 C  
ENDROOT
BRANCH   7  13
HETATM   13  O   UNL     1     -11.034  16.827  68.562  1.00  0.00    -0.345 OA 
BRANCH  13  14
HETATM   14  C   UNL     1     -10.585  15.629  69.087  1.00  0.00    -0.237 C  
HETATM   15  C   UNL     1     -11.442  14.432  68.539  1.00  0.00    -0.297 C  
HETATM   16  O   UNL     1      -9.652  15.562  69.878  1.00  0.00    -0.275 OA 
HETATM   17  O   UNL     1     -12.485  14.938  67.681  1.00  0.00    -0.436 OA 
HETATM   18  C   UNL     1     -10.518  13.512  67.720  1.00  0.00    -0.242 A  
HETATM   19  C   UNL     1     -12.169  13.792  69.732  1.00  0.00    -0.368 A  
HETATM   20  C   UNL     1     -13.012  14.594  70.534  1.00  0.00    -0.319 A  
HETATM   21  C   UNL     1      -9.346  12.980  68.295  1.00  0.00    -0.199 A  
HETATM   22  H   UNL     1     -13.003  14.214  67.350  1.00  0.00     0.000 HD 
HETATM   23  C   UNL     1      -8.500  12.133  67.577  1.00  0.00    -0.169 A  
HETATM   24  C   UNL     1     -13.574  14.104  71.715  1.00  0.00    -0.483 A  
HETATM   25  C   UNL     1      -8.803  11.814  66.257  1.00  0.00    -0.142 A  
HETATM   26  C   UNL     1     -13.322  12.795  72.110  1.00  0.00    -0.593 A  
HETATM   27  C   UNL     1      -9.947  12.337  65.662  1.00  0.00    -0.271 A  
HETATM   28  C   UNL     1     -12.548  11.966  71.304  1.00  0.00    -0.383 A  
HETATM   29  C   UNL     1     -11.993  12.454  70.117  1.00  0.00    -0.376 A  
HETATM   30  C   UNL     1     -10.801  13.173  66.386  1.00  0.00    -0.299 A  
ENDBRANCH  13  14
ENDBRANCH   7  13
TORSDOF 2
ENDMDL
MODEL       14
REMARK 921   NORMALIZED FREE ENERGY PREDICTED BY IDOCK:   -7.15 KCAL/MOL
REMARK 922        TOTAL FREE ENERGY PREDICTED BY IDOCK:   -8.52 KCAL/MOL
REMARK 923 INTER-LIGAND FREE ENERGY PREDICTED BY IDOCK:   -7.67 KCAL/MOL
REMARK 924 INTRA-LIGAND FREE ENERGY PREDICTED BY IDOCK:   -0.85 KCAL/MOL
REMARK 927      BINDING AFFINITY PREDICTED BY RF-SCORE:    0.00 PKD
ROOT
HETATM    1  C   UNL     1      -9.768   6.968  71.212  1.00  0.00    -0.171 C  
HETATM    2  C   UNL     1     -11.219   6.511  71.045  1.00  0.00    -0.362 C  
HETATM    3  C   UNL     1     -12.065   7.642  71.606  1.00  0.00    -0.336 C  
HETATM    4  C   UNL     1     -11.072   8.707  72.101  1.00  0.00    -0.364 C  
HETATM    5  N   UNL     1      -9.813   7.903  72.440  1.00  0.00    -0.203 N  
HETATM    6  C   UNL     1     -10.768   9.704  70.990  1.00  0.00    -0.393 C  
HETATM    7  C   UNL     1      -9.752   9.230  69.944  1.00  0.00    -0.201 C  
HETATM    8  C   UNL     1      -8.517   8.700  72.681  1.00  0.00     0.007 C  
HETATM    9  C   UNL     1      -7.672   7.745  73.488  1.00  0.00    -0.179 C  
HETATM   10  C   UNL     1      -8.657   7.319  74.544  1.00  0.00    -0.230 C  
HETATM   11  C   UNL     1      -9.335   7.750  69.966  1.00  0.00    -0.157 C  
HETATM   12  C   UNL     1      -9.972   7.125  73.790  1.00  0.00    -0.331 C  
ENDROOT
BRANCH   7  13
HETATM   13  O   UNL     1     -10.212   9.581  68.632  1.00  0.00    -0.181 OA 
BRANCH  13  14
HETATM   14  C   UNL     1      -9.804  10.837  68.224  1.00  0.00    -0.166 C  
HETATM   15  C   UNL     1     -11.044  11.722  67.842  1.00  0.00    -0.245 C  
HETATM   16  O   UNL     1      -8.624  11.164  68.170  1.00  0.00    -0.128 OA 
HETATM   17  O   UNL     1     -12.251  10.948  67.983  1.00  0.00    -0.695 OA 
HETATM   18  C   UNL     1     -11.098  12.920  68.807  1.00  0.00    -0.305 A  
HETATM   19  C   UNL     1     -10.941  12.050  66.344  1.00  0.00    -0.337 A  
HETATM   20  C   UNL     1     -10.865  10.991  65.412  1.00  0.00    -0.168 A  
HETATM   21  C   UNL     1      -9.983  13.772  68.954  1.00  0.00    -0.043 A  
HETATM   22  H   UNL     1     -13.001  11.484  67.752  1.00  0.00     0.000 HD 
HETATM   23  C   UNL     1     -10.014  14.872  69.813  1.00  0.00     0.018 A  
HETATM   24  C   UNL     1     -10.617  11.229  64.058  1.00  0.00    -0.450 A  
HETATM   25  C   UNL     1     -11.158  15.132  70.559  1.00  0.00    -0.294 A  
HETATM   26  C   UNL     1     -10.460  12.533  63.602  1.00  0.00    -0.418 A  
HETATM   27  C   UNL     1     -12.266  14.299  70.443  1.00  0.00    -0.411 A  
HETATM   28  C   UNL     1     -10.596  13.597  64.490  1.00  0.00    -0.428 A  
HETATM   29  C   UNL     1     -10.852  13.359  65.843  1.00  0.00    -0.282 A  
HETATM   30  C   UNL     1     -12.241  13.207  69.573  1.00  0.00    -0.214 A  
ENDBRANCH  13  14
ENDBRANCH   7  13
TORSDOF 2
ENDMDL
MODEL       15
REMARK 921   NORMALIZED FREE ENERGY PREDICTED BY IDOCK:   -7.11 KCAL/MOL
REMARK 922        TOTAL FREE ENERGY PREDICTED BY IDOCK:   -8.47 KCAL/MOL
REMARK 923 INTER-LIGAND FREE ENERGY PREDICTED BY IDOCK:   -7.80 KCAL/MOL
REMARK 924 INTRA-LIGAND FREE ENERGY PREDICTED BY IDOCK:   -0.67 KCAL/MOL
REMARK 927      BINDING AFFINITY PREDICTED BY RF-SCORE:    0.00 PKD
ROOT
HETATM    1  C   UNL     1      -8.785  10.096  68.209  1.00  0.00    -0.120 C  
HETATM    2  C   UNL     1      -8.849   9.841  66.702  1.00  0.00    -0.153 C  
HETATM    3  C   UNL     1     -10.329   9.858  66.353  1.00  0.00    -0.246 C  
HETATM    4  C   UNL     1     -11.072  10.101  67.677  1.00  0.00    -0.206 C  
HETATM    5  N   UNL     1     -10.123   9.535  68.738  1.00  0.00    -0.181 N  
HETATM    6  C   UNL     1     -11.276  11.593  67.904  1.00  0.00    -0.334 C  
HETATM    7  C   UNL     1     -10.052  12.347  68.442  1.00  0.00    -0.217 C  
HETATM    8  C   UNL     1     -10.425   9.888  70.207  1.00  0.00    -0.291 C  
HETATM    9  C   UNL     1      -9.711   8.802  70.974  1.00  0.00    -0.292 C  
HETATM   10  C   UNL     1     -10.192   7.577  70.242  1.00  0.00    -0.204 C  
HETATM   11  C   UNL     1      -8.705  11.606  68.465  1.00  0.00    -0.130 C  
HETATM   12  C   UNL     1     -10.156   7.970  68.766  1.00  0.00    -0.195 C  
ENDROOT
BRANCH   7  13
HETATM   13  O   UNL     1      -9.907  13.590  67.743  1.00  0.00    -0.221 OA 
BRANCH  13  14
HETATM   14  C   UNL     1      -9.790  14.683  68.582  1.00  0.00    -0.224 C  
HETATM   15  C   UNL     1     -11.056  15.605  68.465  1.00  0.00    -0.322 C  
HETATM   16  O   UNL     1      -8.808  14.871  69.291  1.00  0.00    -0.173 OA 
HETATM   17  O   UNL     1     -11.955  15.067  67.475  1.00  0.00    -0.426 OA 
HETATM   18  C   UNL     1     -11.765  15.628  69.831  1.00  0.00    -0.372 A  
HETATM   19  C   UNL     1     -10.597  16.961  67.905  1.00  0.00    -0.361 A  
HETATM   20  C   UNL     1      -9.919  16.999  66.665  1.00  0.00    -0.307 A  
HETATM   21  C   UNL     1     -11.063  16.000  70.996  1.00  0.00    -0.238 A  
HETATM   22  H   UNL     1     -12.721  15.625  67.404  1.00  0.00     0.000 HD 
HETATM   23  C   UNL     1     -11.689  16.040  72.243  1.00  0.00    -0.581 A  
HETATM   24  C   UNL     1      -9.347  18.180  66.186  1.00  0.00    -0.147 A  
HETATM   25  C   UNL     1     -13.031  15.692  72.353  1.00  0.00    -0.532 A  
HETATM   26  C   UNL     1      -9.457  19.352  66.924  1.00  0.00    -0.406 A  
HETATM   27  C   UNL     1     -13.743  15.309  71.221  1.00  0.00    -0.570 A  
HETATM   28  C   UNL     1     -10.175  19.354  68.116  1.00  0.00    -0.537 A  
HETATM   29  C   UNL     1     -10.755  18.175  68.593  1.00  0.00     0.103 A  
HETATM   30  C   UNL     1     -13.120  15.282  69.970  1.00  0.00     0.086 A  
ENDBRANCH  13  14
ENDBRANCH   7  13
TORSDOF 2
ENDMDL
MODEL       16
REMARK 921   NORMALIZED FREE ENERGY PREDICTED BY IDOCK:   -7.10 KCAL/MOL
REMARK 922        TOTAL FREE ENERGY PREDICTED BY IDOCK:   -8.46 KCAL/MOL
REMARK 923 INTER-LIGAND FREE ENERGY PREDICTED BY IDOCK:   -7.69 KCAL/MOL
REMARK 924 INTRA-LIGAND FREE ENERGY PREDICTED BY IDOCK:   -0.77 KCAL/MOL
REMARK 927      BINDING AFFINITY PREDICTED BY RF-SCORE:    0.00 PKD
ROOT
HETATM    1  C   UNL     1     -11.803  12.789  65.975  1.00  0.00    -0.439 C  
HETATM    2  C   UNL     1     -12.641  12.366  64.767  1.00  0.00    -0.419 C  
HETATM    3  C   UNL     1     -11.657  12.254  63.614  1.00  0.00    -0.581 C  
HETATM    4  C   UNL     1     -10.284  12.639  64.191  1.00  0.00    -0.340 C  
HETATM    5  N   UNL     1     -10.626  13.573  65.355  1.00  0.00    -0.297 N  
HETATM    6  C   UNL     1      -9.563  11.402  64.711  1.00  0.00    -0.239 C  
HETATM    7  C   UNL     1     -10.017  10.912  66.092  1.00  0.00    -0.233 C  
HETATM    8  C   UNL     1      -9.491  13.905  66.342  1.00  0.00    -0.250 C  
HETATM    9  C   UNL     1      -9.958  15.190  66.982  1.00  0.00    -0.242 C  
HETATM   10  C   UNL     1     -10.333  15.992  65.765  1.00  0.00    -0.398 C  
HETATM   11  C   UNL     1     -11.284  11.539  66.697  1.00  0.00    -0.336 C  
HETATM   12  C   UNL     1     -11.044  14.996  64.849  1.00  0.00    -0.415 C  
ENDROOT
BRANCH   7  13
HETATM   13  O   UNL     1     -10.144   9.485  66.079  1.00  0.00    -0.295 OA 
BRANCH  13  14
HETATM   14  C   UNL     1      -9.292   8.847  66.962  1.00  0.00    -0.152 C  
HETATM   15  C   UNL     1     -10.033   7.669  67.689  1.00  0.00    -0.175 C  
HETATM   16  O   UNL     1      -8.130   9.199  67.131  1.00  0.00    -0.108 OA 
HETATM   17  O   UNL     1     -11.408   7.624  67.258  1.00  0.00    -0.382 OA 
HETATM   18  C   UNL     1      -9.340   6.350  67.300  1.00  0.00    -0.125 A  
HETATM   19  C   UNL     1     -10.086   8.003  69.188  1.00  0.00    -0.202 A  
HETATM   20  C   UNL     1     -10.689   9.212  69.603  1.00  0.00    -0.236 A  
HETATM   21  C   UNL     1      -7.954   6.183  67.503  1.00  0.00    -0.106 A  
HETATM   22  H   UNL     1     -11.856   6.911  67.698  1.00  0.00     0.000 HD 
HETATM   23  C   UNL     1      -7.306   4.992  67.170  1.00  0.00    -0.082 A  
HETATM   24  C   UNL     1     -10.628   9.637  70.932  1.00  0.00    -0.386 A  
HETATM   25  C   UNL     1      -8.032   3.946  66.611  1.00  0.00    -0.096 A  
HETATM   26  C   UNL     1      -9.982   8.853  71.880  1.00  0.00    -0.384 A  
HETATM   27  C   UNL     1      -9.398   4.090  66.389  1.00  0.00    -0.186 A  
HETATM   28  C   UNL     1      -9.436   7.627  71.509  1.00  0.00    -0.166 A  
HETATM   29  C   UNL     1      -9.504   7.198  70.181  1.00  0.00    -0.161 A  
HETATM   30  C   UNL     1     -10.049   5.277  66.735  1.00  0.00    -0.255 A  
ENDBRANCH  13  14
ENDBRANCH   7  13
TORSDOF 2
ENDMDL
MODEL       17
REMARK 921   NORMALIZED FREE ENERGY PREDICTED BY IDOCK:   -7.07 KCAL/MOL
REMARK 922        TOTAL FREE ENERGY PREDICTED BY IDOCK:   -8.42 KCAL/MOL
REMARK 923 INTER-LIGAND FREE ENERGY PREDICTED BY IDOCK:   -8.15 KCAL/MOL
REMARK 924 INTRA-LIGAND FREE ENERGY PREDICTED BY IDOCK:   -0.27 KCAL/MOL
REMARK 927      BINDING AFFINITY PREDICTED BY RF-SCORE:    0.00 PKD
ROOT
HETATM    1  C   UNL     1      -8.445  17.296  66.435  1.00  0.00    -0.269 C  
HETATM    2  C   UNL     1      -6.923  17.163  66.519  1.00  0.00    -0.296 C  
HETATM    3  C   UNL     1      -6.582  17.360  67.987  1.00  0.00    -0.169 C  
HETATM    4  C   UNL     1      -7.918  17.622  68.700  1.00  0.00    -0.275 C  
HETATM    5  N   UNL     1      -8.800  18.235  67.609  1.00  0.00    -0.254 N  
HETATM    6  C   UNL     1      -8.526  16.311  69.185  1.00  0.00    -0.218 C  
HETATM    7  C   UNL     1      -9.249  15.488  68.112  1.00  0.00    -0.189 C  
HETATM    8  C   UNL     1     -10.309  18.340  67.905  1.00  0.00    -0.399 C  
HETATM    9  C   UNL     1     -10.770  19.418  66.955  1.00  0.00    -0.582 C  
HETATM   10  C   UNL     1      -9.741  20.485  67.217  1.00  0.00    -0.600 C  
HETATM   11  C   UNL     1      -9.087  15.919  66.645  1.00  0.00    -0.290 C  
HETATM   12  C   UNL     1      -8.419  19.728  67.329  1.00  0.00    -0.317 C  
ENDROOT
BRANCH   7  13
HETATM   13  O   UNL     1      -8.900  14.105  68.249  1.00  0.00    -0.175 OA 
BRANCH  13  14
HETATM   14  C   UNL     1      -9.938  13.242  67.950  1.00  0.00    -0.233 C  
HETATM   15  C   UNL     1      -9.531  12.276  66.780  1.00  0.00    -0.222 C  
HETATM   16  O   UNL     1     -11.015  13.275  68.534  1.00  0.00    -0.246 OA 
HETATM   17  O   UNL     1      -8.204  12.603  66.324  1.00  0.00    -0.306 OA 
HETATM   18  C   UNL     1      -9.538  10.835  67.321  1.00  0.00    -0.182 A  
HETATM   19  C   UNL     1     -10.457  12.568  65.588  1.00  0.00    -0.299 A  
HETATM   20  C   UNL     1     -10.510  13.880  65.065  1.00  0.00    -0.428 A  
HETATM   21  C   UNL     1     -10.690  10.307  67.940  1.00  0.00    -0.310 A  
HETATM   22  H   UNL     1      -7.958  12.018  65.616  1.00  0.00     0.000 HD 
HETATM   23  C   UNL     1     -10.723   8.999  68.425  1.00  0.00    -0.145 A  
HETATM   24  C   UNL     1     -11.443  14.235  64.087  1.00  0.00    -0.149 A  
HETATM   25  C   UNL     1      -9.594   8.194  68.316  1.00  0.00    -0.154 A  
HETATM   26  C   UNL     1     -12.328  13.283  63.597  1.00  0.00    -0.456 A  
HETATM   27  C   UNL     1      -8.440   8.695  67.722  1.00  0.00    -0.125 A  
HETATM   28  C   UNL     1     -12.252  11.969  64.049  1.00  0.00    -0.505 A  
HETATM   29  C   UNL     1     -11.313  11.611  65.022  1.00  0.00    -0.237 A  
HETATM   30  C   UNL     1      -8.411  10.000  67.223  1.00  0.00    -0.122 A  
ENDBRANCH  13  14
ENDBRANCH   7  13
TORSDOF 2
ENDMDL
MODEL       18
REMARK 921   NORMALIZED FREE ENERGY PREDICTED BY IDOCK:   -7.06 KCAL/MOL
REMARK 922        TOTAL FREE ENERGY PREDICTED BY IDOCK:   -8.42 KCAL/MOL
REMARK 923 INTER-LIGAND FREE ENERGY PREDICTED BY IDOCK:   -7.62 KCAL/MOL
REMARK 924 INTRA-LIGAND FREE ENERGY PREDICTED BY IDOCK:   -0.80 KCAL/MOL
REMARK 927      BINDING AFFINITY PREDICTED BY RF-SCORE:    0.00 PKD
ROOT
HETATM    1  C   UNL     1      -9.068  17.448  68.378  1.00  0.00    -0.274 C  
HETATM    2  C   UNL     1     -10.493  17.689  67.874  1.00  0.00    -0.392 C  
HETATM    3  C   UNL     1     -10.519  17.133  66.460  1.00  0.00    -0.255 C  
HETATM    4  C   UNL     1      -9.099  16.609  66.185  1.00  0.00    -0.283 C  
HETATM    5  N   UNL     1      -8.212  17.466  67.093  1.00  0.00    -0.204 N  
HETATM    6  C   UNL     1      -8.990  15.143  66.584  1.00  0.00    -0.319 C  
HETATM    7  C   UNL     1      -8.805  14.885  68.085  1.00  0.00    -0.174 C  
HETATM    8  C   UNL     1      -6.757  17.000  67.291  1.00  0.00    -0.164 C  
HETATM    9  C   UNL     1      -6.051  18.259  67.731  1.00  0.00    -0.180 C  
HETATM   10  C   UNL     1      -6.533  19.233  66.689  1.00  0.00    -0.195 C  
HETATM   11  C   UNL     1      -8.992  16.070  69.046  1.00  0.00    -0.244 C  
HETATM   12  C   UNL     1      -8.016  18.908  66.514  1.00  0.00    -0.277 C  
ENDROOT
BRANCH   7  13
HETATM   13  O   UNL     1      -9.643  13.796  68.493  1.00  0.00    -0.216 OA 
BRANCH  13  14
HETATM   14  C   UNL     1      -9.237  12.572  67.996  1.00  0.00    -0.204 C  
HETATM   15  C   UNL     1     -10.466  11.769  67.437  1.00  0.00    -0.211 C  
HETATM   16  O   UNL     1      -8.069  12.202  68.022  1.00  0.00    -0.136 OA 
HETATM   17  O   UNL     1     -11.674  12.527  67.650  1.00  0.00    -0.340 OA 
HETATM   18  C   UNL     1     -10.261  11.564  65.925  1.00  0.00    -0.286 A  
HETATM   19  C   UNL     1     -10.623  10.500  68.290  1.00  0.00    -0.240 A  
HETATM   20  C   UNL     1     -10.791  10.627  69.687  1.00  0.00    -0.318 A  
HETATM   21  C   UNL     1      -9.086  10.954  65.439  1.00  0.00    -0.218 A  
HETATM   22  H   UNL     1     -12.417  12.041  67.312  1.00  0.00     0.000 HD 
HETATM   23  C   UNL     1      -8.884  10.745  64.073  1.00  0.00    -0.120 A  
HETATM   24  C   UNL     1     -10.784   9.510  70.525  1.00  0.00    -0.359 A  
HETATM   25  C   UNL     1      -9.850  11.158  63.162  1.00  0.00    -0.403 A  
HETATM   26  C   UNL     1     -10.630   8.239  69.982  1.00  0.00    -0.235 A  
HETATM   27  C   UNL     1     -11.012  11.774  63.615  1.00  0.00    -0.513 A  
HETATM   28  C   UNL     1     -10.529   8.083  68.603  1.00  0.00    -0.196 A  
HETATM   29  C   UNL     1     -10.544   9.201  67.763  1.00  0.00    -0.289 A  
HETATM   30  C   UNL     1     -11.221  11.971  64.983  1.00  0.00    -0.374 A  
ENDBRANCH  13  14
ENDBRANCH   7  13
TORSDOF 2
ENDMDL
MODEL       19
REMARK 921   NORMALIZED FREE ENERGY PREDICTED BY IDOCK:   -7.02 KCAL/MOL
REMARK 922        TOTAL FREE ENERGY PREDICTED BY IDOCK:   -8.37 KCAL/MOL
REMARK 923 INTER-LIGAND FREE ENERGY PREDICTED BY IDOCK:   -7.69 KCAL/MOL
REMARK 924 INTRA-LIGAND FREE ENERGY PREDICTED BY IDOCK:   -0.67 KCAL/MOL
REMARK 927      BINDING AFFINITY PREDICTED BY RF-SCORE:    0.00 PKD
ROOT
HETATM    1  C   UNL     1     -11.412  14.828  67.203  1.00  0.00    -0.364 C  
HETATM    2  C   UNL     1     -11.489  14.756  65.676  1.00  0.00    -0.327 C  
HETATM    3  C   UNL     1     -10.058  14.927  65.192  1.00  0.00    -0.354 C  
HETATM    4  C   UNL     1      -9.204  15.114  66.456  1.00  0.00    -0.287 C  
HETATM    5  N   UNL     1     -10.179  15.719  67.470  1.00  0.00    -0.260 N  
HETATM    6  C   UNL     1      -8.700  13.767  66.959  1.00  0.00    -0.212 C  
HETATM    7  C   UNL     1      -9.719  12.943  67.758  1.00  0.00    -0.214 C  
HETATM    8  C   UNL     1      -9.726  15.753  68.943  1.00  0.00    -0.225 C  
HETATM    9  C   UNL     1     -10.590  16.836  69.541  1.00  0.00    -0.283 C  
HETATM   10  C   UNL     1     -10.402  17.938  68.533  1.00  0.00    -0.365 C  
HETATM   11  C   UNL     1     -11.180  13.420  67.766  1.00  0.00    -0.306 C  
HETATM   12  C   UNL     1     -10.450  17.233  67.178  1.00  0.00    -0.297 C  
ENDROOT
BRANCH   7  13
HETATM   13  O   UNL     1      -9.661  11.573  67.343  1.00  0.00    -0.177 OA 
BRANCH  13  14
HETATM   14  C   UNL     1      -9.527  10.684  68.394  1.00  0.00    -0.165 C  
HETATM   15  C   UNL     1     -10.676   9.615  68.363  1.00  0.00    -0.209 C  
HETATM   16  O   UNL     1      -8.626  10.769  69.221  1.00  0.00    -0.129 OA 
HETATM   17  O   UNL     1     -11.571   9.900  67.268  1.00  0.00    -0.194 OA 
HETATM   18  C   UNL     1     -10.041   8.230  68.145  1.00  0.00    -0.238 A  
HETATM   19  C   UNL     1     -11.518   9.794  69.636  1.00  0.00    -0.103 A  
HETATM   20  C   UNL     1     -12.107  11.052  69.900  1.00  0.00    -0.435 A  
HETATM   21  C   UNL     1      -9.034   7.760  69.015  1.00  0.00    -0.145 A  
HETATM   22  H   UNL     1     -12.266   9.253  67.249  1.00  0.00     0.000 HD 
HETATM   23  C   UNL     1      -8.453   6.502  68.845  1.00  0.00    -0.122 A  
HETATM   24  C   UNL     1     -12.750  11.314  71.111  1.00  0.00    -0.492 A  
HETATM   25  C   UNL     1      -8.857   5.692  67.789  1.00  0.00    -0.105 A  
HETATM   26  C   UNL     1     -12.838  10.319  72.078  1.00  0.00    -0.457 A  
HETATM   27  C   UNL     1      -9.839   6.138  66.910  1.00  0.00    -0.194 A  
HETATM   28  C   UNL     1     -12.323   9.052  71.816  1.00  0.00    -0.438 A  
HETATM   29  C   UNL     1     -11.686   8.787  70.600  1.00  0.00    -0.194 A  
HETATM   30  C   UNL     1     -10.431   7.391  67.087  1.00  0.00    -0.403 A  
ENDBRANCH  13  14
ENDBRANCH   7  13
TORSDOF 2
ENDMDL
MODEL       20
REMARK 921   NORMALIZED FREE ENERGY PREDICTED BY IDOCK:   -6.94 KCAL/MOL
REMARK 922        TOTAL FREE ENERGY PREDICTED BY IDOCK:   -8.28 KCAL/MOL
REMARK 923 INTER-LIGAND FREE ENERGY PREDICTED BY IDOCK:   -7.57 KCAL/MOL
REMARK 924 INTRA-LIGAND FREE ENERGY PREDICTED BY IDOCK:   -0.72 KCAL/MOL
REMARK 927      BINDING AFFINITY PREDICTED BY RF-SCORE:    0.00 PKD
ROOT
HETATM    1  C   UNL     1     -10.532   7.068  70.828  1.00  0.00    -0.212 C  
HETATM    2  C   UNL     1     -11.870   6.384  70.538  1.00  0.00    -0.316 C  
HETATM    3  C   UNL     1     -12.896   7.141  71.365  1.00  0.00    -0.431 C  
HETATM    4  C   UNL     1     -12.112   8.224  72.124  1.00  0.00    -0.367 C  
HETATM    5  N   UNL     1     -10.706   7.632  72.255  1.00  0.00    -0.242 N  
HETATM    6  C   UNL     1     -12.062   9.510  71.309  1.00  0.00    -0.443 C  
HETATM    7  C   UNL     1     -11.020   9.532  70.183  1.00  0.00    -0.262 C  
HETATM    8  C   UNL     1      -9.583   8.588  72.702  1.00  0.00    -0.223 C  
HETATM    9  C   UNL     1      -8.531   7.651  73.244  1.00  0.00    -0.208 C  
HETATM   10  C   UNL     1      -9.364   6.782  74.147  1.00  0.00    -0.251 C  
HETATM   11  C   UNL     1     -10.318   8.211  69.828  1.00  0.00    -0.216 C  
HETATM   12  C   UNL     1     -10.647   6.522  73.358  1.00  0.00    -0.285 C  
ENDROOT
BRANCH   7  13
HETATM   13  O   UNL     1     -11.598  10.103  69.003  1.00  0.00    -0.143 OA 
BRANCH  13  14
HETATM   14  C   UNL     1     -11.159  11.387  68.740  1.00  0.00    -0.235 C  
HETATM   15  C   UNL     1     -10.314  11.420  67.416  1.00  0.00    -0.202 C  
HETATM   16  O   UNL     1     -11.407  12.335  69.476  1.00  0.00    -0.246 OA 
HETATM   17  O   UNL     1     -10.201  10.086  66.883  1.00  0.00    -0.216 OA 
HETATM   18  C   UNL     1     -11.049  12.310  66.397  1.00  0.00    -0.345 A  
HETATM   19  C   UNL     1      -8.881  11.835  67.786  1.00  0.00    -0.163 A  
HETATM   20  C   UNL     1      -8.166  11.069  68.734  1.00  0.00    -0.146 A  
HETATM   21  C   UNL     1     -11.396  13.637  66.725  1.00  0.00    -0.346 A  
HETATM   22  H   UNL     1      -9.691  10.106  66.082  1.00  0.00     0.000 HD 
HETATM   23  C   UNL     1     -12.050  14.467  65.813  1.00  0.00    -0.362 A  
HETATM   24  C   UNL     1      -6.924  11.486  69.218  1.00  0.00    -0.098 A  
HETATM   25  C   UNL     1     -12.386  13.978  64.555  1.00  0.00    -0.409 A  
HETATM   26  C   UNL     1      -6.360  12.667  68.751  1.00  0.00    -0.080 A  
HETATM   27  C   UNL     1     -12.068  12.668  64.212  1.00  0.00    -0.502 A  
HETATM   28  C   UNL     1      -7.015  13.406  67.769  1.00  0.00    -0.159 A  
HETATM   29  C   UNL     1      -8.254  12.984  67.278  1.00  0.00    -0.174 A  
HETATM   30  C   UNL     1     -11.400  11.842  65.120  1.00  0.00    -0.281 A  
ENDBRANCH  13  14
ENDBRANCH   7  13
TORSDOF 2
ENDMDL
MODEL       21
REMARK 921   NORMALIZED FREE ENERGY PREDICTED BY IDOCK:   -6.93 KCAL/MOL
REMARK 922        TOTAL FREE ENERGY PREDICTED BY IDOCK:   -8.28 KCAL/MOL
REMARK 923 INTER-LIGAND FREE ENERGY PREDICTED BY IDOCK:   -8.41 KCAL/MOL
REMARK 924 INTRA-LIGAND FREE ENERGY PREDICTED BY IDOCK:    0.13 KCAL/MOL
REMARK 927      BINDING AFFINITY PREDICTED BY RF-SCORE:    0.00 PKD
ROOT
HETATM    1  C   UNL     1      -8.624  17.368  66.207  1.00  0.00    -0.211 C  
HETATM    2  C   UNL     1      -7.128  17.101  66.394  1.00  0.00    -0.310 C  
HETATM    3  C   UNL     1      -6.950  16.830  67.879  1.00  0.00    -0.156 C  
HETATM    4  C   UNL     1      -8.347  16.973  68.505  1.00  0.00    -0.260 C  
HETATM    5  N   UNL     1      -9.070  17.945  67.568  1.00  0.00    -0.244 N  
HETATM    6  C   UNL     1      -9.063  15.628  68.513  1.00  0.00    -0.196 C  
HETATM    7  C   UNL     1      -9.694  15.214  67.177  1.00  0.00    -0.228 C  
HETATM    8  C   UNL     1     -10.597  18.073  67.735  1.00  0.00    -0.394 C  
HETATM    9  C   UNL     1     -10.897  19.414  67.113  1.00  0.00    -0.561 C  
HETATM   10  C   UNL     1      -9.860  20.276  67.781  1.00  0.00    -0.534 C  
HETATM   11  C   UNL     1      -9.345  16.043  65.931  1.00  0.00    -0.335 C  
HETATM   12  C   UNL     1      -8.594  19.420  67.789  1.00  0.00    -0.311 C  
ENDROOT
BRANCH   7  13
HETATM   13  O   UNL     1      -9.424  13.829  66.926  1.00  0.00    -0.244 OA 
BRANCH  13  14
HETATM   14  C   UNL     1      -9.475  13.043  68.062  1.00  0.00    -0.217 C  
HETATM   15  C   UNL     1     -10.757  12.137  68.049  1.00  0.00    -0.213 C  
HETATM   16  O   UNL     1      -8.620  13.093  68.940  1.00  0.00     0.079 OA 
HETATM   17  O   UNL     1     -11.538  12.424  66.872  1.00  0.00    -0.340 OA 
HETATM   18  C   UNL     1     -10.307  10.665  68.008  1.00  0.00    -0.208 A  
HETATM   19  C   UNL     1     -11.639  12.555  69.237  1.00  0.00    -0.378 A  
HETATM   20  C   UNL     1     -12.062  13.899  69.339  1.00  0.00    -0.384 A  
HETATM   21  C   UNL     1      -9.427  10.158  68.987  1.00  0.00    -0.195 A  
HETATM   22  H   UNL     1     -12.314  11.875  66.864  1.00  0.00     0.000 HD 
HETATM   23  C   UNL     1      -9.016   8.824  68.978  1.00  0.00    -0.137 A  
HETATM   24  C   UNL     1     -12.733  14.366  70.472  1.00  0.00    -0.401 A  
HETATM   25  C   UNL     1      -9.466   7.971  67.976  1.00  0.00    -0.157 A  
HETATM   26  C   UNL     1     -13.013  13.495  71.519  1.00  0.00    -0.440 A  
HETATM   27  C   UNL     1     -10.325   8.449  66.991  1.00  0.00    -0.385 A  
HETATM   28  C   UNL     1     -12.663  12.152  71.413  1.00  0.00    -0.368 A  
HETATM   29  C   UNL     1     -11.999  11.682  70.276  1.00  0.00    -0.445 A  
HETATM   30  C   UNL     1     -10.747   9.781  67.008  1.00  0.00    -0.236 A  
ENDBRANCH  13  14
ENDBRANCH   7  13
TORSDOF 2
ENDMDL
MODEL       22
REMARK 921   NORMALIZED FREE ENERGY PREDICTED BY IDOCK:   -6.88 KCAL/MOL
REMARK 922        TOTAL FREE ENERGY PREDICTED BY IDOCK:   -8.22 KCAL/MOL
REMARK 923 INTER-LIGAND FREE ENERGY PREDICTED BY IDOCK:   -7.44 KCAL/MOL
REMARK 924 INTRA-LIGAND FREE ENERGY PREDICTED BY IDOCK:   -0.78 KCAL/MOL
REMARK 927      BINDING AFFINITY PREDICTED BY RF-SCORE:    0.00 PKD
ROOT
HETATM    1  C   UNL     1      -9.447  14.951  67.855  1.00  0.00    -0.200 C  
HETATM    2  C   UNL     1      -9.262  15.770  69.135  1.00  0.00    -0.256 C  
HETATM    3  C   UNL     1     -10.667  16.126  69.591  1.00  0.00    -0.325 C  
HETATM    4  C   UNL     1     -11.618  15.519  68.546  1.00  0.00    -0.368 C  
HETATM    5  N   UNL     1     -10.775  15.475  67.268  1.00  0.00    -0.304 N  
HETATM    6  C   UNL     1     -12.020  14.108  68.954  1.00  0.00    -0.376 C  
HETATM    7  C   UNL     1     -10.982  13.019  68.655  1.00  0.00    -0.265 C  
HETATM    8  C   UNL     1     -11.326  14.641  66.096  1.00  0.00    -0.350 C  
HETATM    9  C   UNL     1     -10.614  15.221  64.898  1.00  0.00    -0.379 C  
HETATM   10  C   UNL     1     -10.841  16.692  65.119  1.00  0.00    -0.199 C  
HETATM   11  C   UNL     1      -9.577  13.466  68.217  1.00  0.00    -0.220 C  
HETATM   12  C   UNL     1     -10.635  16.894  66.620  1.00  0.00    -0.189 C  
ENDROOT
BRANCH   7  13
HETATM   13  O   UNL     1     -10.878  12.132  69.776  1.00  0.00     0.100 OA 
BRANCH  13  14
HETATM   14  C   UNL     1     -11.309  10.847  69.503  1.00  0.00    -0.283 C  
HETATM   15  C   UNL     1     -10.146   9.816  69.732  1.00  0.00    -0.239 C  
HETATM   16  O   UNL     1     -12.447  10.597  69.123  1.00  0.00    -0.317 OA 
HETATM   17  O   UNL     1      -8.947  10.518  70.116  1.00  0.00    -0.264 OA 
HETATM   18  C   UNL     1     -10.561   8.866  70.871  1.00  0.00    -0.295 A  
HETATM   19  C   UNL     1      -9.823   9.165  68.377  1.00  0.00    -0.181 A  
HETATM   20  C   UNL     1      -9.460   9.990  67.288  1.00  0.00    -0.179 A  
HETATM   21  C   UNL     1     -11.772   8.147  70.798  1.00  0.00    -0.211 A  
HETATM   22  H   UNL     1      -8.244   9.894  70.254  1.00  0.00     0.000 HD 
HETATM   23  C   UNL     1     -12.162   7.271  71.813  1.00  0.00    -0.368 A  
HETATM   24  C   UNL     1      -9.307   9.469  66.001  1.00  0.00    -0.273 A  
HETATM   25  C   UNL     1     -11.352   7.108  72.932  1.00  0.00    -0.257 A  
HETATM   26  C   UNL     1      -9.493   8.110  65.778  1.00  0.00     0.020 A  
HETATM   27  C   UNL     1     -10.159   7.816  73.034  1.00  0.00    -0.382 A  
HETATM   28  C   UNL     1      -9.787   7.267  66.846  1.00  0.00    -0.279 A  
HETATM   29  C   UNL     1      -9.933   7.787  68.136  1.00  0.00    -0.207 A  
HETATM   30  C   UNL     1      -9.762   8.683  72.012  1.00  0.00    -0.391 A  
ENDBRANCH  13  14
ENDBRANCH   7  13
TORSDOF 2
ENDMDL
MODEL       23
REMARK 921   NORMALIZED FREE ENERGY PREDICTED BY IDOCK:   -6.88 KCAL/MOL
REMARK 922        TOTAL FREE ENERGY PREDICTED BY IDOCK:   -8.22 KCAL/MOL
REMARK 923 INTER-LIGAND FREE ENERGY PREDICTED BY IDOCK:   -7.48 KCAL/MOL
REMARK 924 INTRA-LIGAND FREE ENERGY PREDICTED BY IDOCK:   -0.73 KCAL/MOL
REMARK 927      BINDING AFFINITY PREDICTED BY RF-SCORE:    0.00 PKD
ROOT
HETATM    1  C   UNL     1      -8.847   8.590  65.555  1.00  0.00    -0.154 C  
HETATM    2  C   UNL     1      -7.863   8.331  66.698  1.00  0.00    -0.094 C  
HETATM    3  C   UNL     1      -7.026   9.596  66.802  1.00  0.00    -0.085 C  
HETATM    4  C   UNL     1      -7.540  10.536  65.700  1.00  0.00    -0.134 C  
HETATM    5  N   UNL     1      -8.099   9.583  64.639  1.00  0.00    -0.127 N  
HETATM    6  C   UNL     1      -8.654  11.425  66.239  1.00  0.00    -0.156 C  
HETATM    7  C   UNL     1     -10.034  10.762  66.331  1.00  0.00    -0.216 C  
HETATM    8  C   UNL     1      -8.969  10.204  63.529  1.00  0.00    -0.245 C  
HETATM    9  C   UNL     1      -8.890   9.183  62.421  1.00  0.00    -0.212 C  
HETATM   10  C   UNL     1      -7.404   8.952  62.354  1.00  0.00    -0.099 C  
HETATM   11  C   UNL     1     -10.117   9.242  66.117  1.00  0.00    -0.304 C  
HETATM   12  C   UNL     1      -6.955   8.903  63.814  1.00  0.00    -0.088 C  
ENDROOT
BRANCH   7  13
HETATM   13  O   UNL     1     -10.652  11.107  67.578  1.00  0.00    -0.197 OA 
BRANCH  13  14
HETATM   14  C   UNL     1     -11.288  12.334  67.556  1.00  0.00    -0.325 C  
HETATM   15  C   UNL     1     -10.568  13.346  68.518  1.00  0.00    -0.253 C  
HETATM   16  O   UNL     1     -12.283  12.552  66.874  1.00  0.00    -0.511 OA 
HETATM   17  O   UNL     1      -9.476  12.682  69.185  1.00  0.00    -0.258 OA 
HETATM   18  C   UNL     1     -10.012  14.505  67.671  1.00  0.00    -0.224 A  
HETATM   19  C   UNL     1     -11.560  13.720  69.631  1.00  0.00    -0.343 A  
HETATM   20  C   UNL     1     -12.121  12.695  70.425  1.00  0.00    -0.381 A  
HETATM   21  C   UNL     1     -10.862  15.243  66.822  1.00  0.00    -0.312 A  
HETATM   22  H   UNL     1      -9.040  13.294  69.767  1.00  0.00     0.000 HD 
HETATM   23  C   UNL     1     -10.383  16.307  66.055  1.00  0.00    -0.363 A  
HETATM   24  C   UNL     1     -13.139  12.962  71.344  1.00  0.00    -0.331 A  
HETATM   25  C   UNL     1      -9.034  16.644  66.110  1.00  0.00    -0.321 A  
HETATM   26  C   UNL     1     -13.603  14.262  71.504  1.00  0.00    -0.431 A  
HETATM   27  C   UNL     1      -8.172  15.923  66.930  1.00  0.00    -0.283 A  
HETATM   28  C   UNL     1     -13.021  15.298  70.780  1.00  0.00    -0.492 A  
HETATM   29  C   UNL     1     -11.997  15.033  69.866  1.00  0.00    -0.374 A  
HETATM   30  C   UNL     1      -8.654  14.867  67.708  1.00  0.00    -0.171 A  
ENDBRANCH  13  14
ENDBRANCH   7  13
TORSDOF 2
ENDMDL
MODEL       24
REMARK 921   NORMALIZED FREE ENERGY PREDICTED BY IDOCK:   -6.86 KCAL/MOL
REMARK 922        TOTAL FREE ENERGY PREDICTED BY IDOCK:   -8.19 KCAL/MOL
REMARK 923 INTER-LIGAND FREE ENERGY PREDICTED BY IDOCK:   -8.14 KCAL/MOL
REMARK 924 INTRA-LIGAND FREE ENERGY PREDICTED BY IDOCK:   -0.05 KCAL/MOL
REMARK 927      BINDING AFFINITY PREDICTED BY RF-SCORE:    0.00 PKD
ROOT
HETATM    1  C   UNL     1     -11.879  14.340  66.735  1.00  0.00    -0.426 C  
HETATM    2  C   UNL     1     -12.878  14.025  65.620  1.00  0.00    -0.442 C  
HETATM    3  C   UNL     1     -12.094  13.230  64.590  1.00  0.00    -0.458 C  
HETATM    4  C   UNL     1     -10.659  13.131  65.135  1.00  0.00    -0.319 C  
HETATM    5  N   UNL     1     -10.516  14.378  66.012  1.00  0.00    -0.291 N  
HETATM    6  C   UNL     1     -10.500  11.876  65.984  1.00  0.00    -0.282 C  
HETATM    7  C   UNL     1     -11.046  11.980  67.414  1.00  0.00    -0.281 C  
HETATM    8  C   UNL     1      -9.297  14.435  66.953  1.00  0.00    -0.256 C  
HETATM    9  C   UNL     1      -9.146  15.911  67.230  1.00  0.00    -0.218 C  
HETATM   10  C   UNL     1      -9.211  16.469  65.833  1.00  0.00    -0.209 C  
HETATM   11  C   UNL     1     -11.899  13.209  67.770  1.00  0.00    -0.392 C  
HETATM   12  C   UNL     1     -10.321  15.671  65.150  1.00  0.00    -0.334 C  
ENDROOT
BRANCH   7  13
HETATM   13  O   UNL     1     -11.764  10.784  67.743  1.00  0.00    -0.547 OA 
BRANCH  13  14
HETATM   14  C   UNL     1     -10.945   9.742  68.137  1.00  0.00    -0.175 C  
HETATM   15  C   UNL     1     -10.577   9.875  69.658  1.00  0.00    -0.250 C  
HETATM   16  O   UNL     1     -10.572   8.865  67.366  1.00  0.00    -0.277 OA 
HETATM   17  O   UNL     1     -11.163  11.079  70.193  1.00  0.00    -0.404 OA 
HETATM   18  C   UNL     1     -11.155   8.659  70.403  1.00  0.00    -0.250 A  
HETATM   19  C   UNL     1      -9.057  10.083  69.755  1.00  0.00    -0.219 A  
HETATM   20  C   UNL     1      -8.467  11.170  69.072  1.00  0.00    -0.044 A  
HETATM   21  C   UNL     1     -10.834   7.348  69.992  1.00  0.00    -0.266 A  
HETATM   22  H   UNL     1     -10.940  11.159  71.113  1.00  0.00     0.000 HD 
HETATM   23  C   UNL     1     -11.337   6.230  70.660  1.00  0.00    -0.409 A  
HETATM   24  C   UNL     1      -7.079  11.317  69.000  1.00  0.00    -0.116 A  
HETATM   25  C   UNL     1     -12.186   6.401  71.748  1.00  0.00    -0.312 A  
HETATM   26  C   UNL     1      -6.252  10.392  69.627  1.00  0.00    -0.058 A  
HETATM   27  C   UNL     1     -12.528   7.683  72.166  1.00  0.00    -0.249 A  
HETATM   28  C   UNL     1      -6.811   9.350  70.360  1.00  0.00    -0.089 A  
HETATM   29  C   UNL     1      -8.199   9.207  70.440  1.00  0.00    -0.188 A  
HETATM   30  C   UNL     1     -12.015   8.803  71.506  1.00  0.00    -0.386 A  
ENDBRANCH  13  14
ENDBRANCH   7  13
TORSDOF 2
ENDMDL
MODEL       25
REMARK 921   NORMALIZED FREE ENERGY PREDICTED BY IDOCK:   -6.86 KCAL/MOL
REMARK 922        TOTAL FREE ENERGY PREDICTED BY IDOCK:   -8.19 KCAL/MOL
REMARK 923 INTER-LIGAND FREE ENERGY PREDICTED BY IDOCK:   -7.63 KCAL/MOL
REMARK 924 INTRA-LIGAND FREE ENERGY PREDICTED BY IDOCK:   -0.55 KCAL/MOL
REMARK 927      BINDING AFFINITY PREDICTED BY RF-SCORE:    0.00 PKD
ROOT
HETATM    1  C   UNL     1     -11.609  12.785  66.521  1.00  0.00    -0.376 C  
HETATM    2  C   UNL     1     -12.380  12.356  65.270  1.00  0.00    -0.357 C  
HETATM    3  C   UNL     1     -11.327  11.835  64.307  1.00  0.00    -0.400 C  
HETATM    4  C   UNL     1      -9.978  12.001  65.025  1.00  0.00    -0.233 C  
HETATM    5  N   UNL     1     -10.215  13.173  65.981  1.00  0.00    -0.281 N  
HETATM    6  C   UNL     1      -9.641  10.744  65.816  1.00  0.00    -0.254 C  
HETATM    7  C   UNL     1     -10.354  10.610  67.168  1.00  0.00    -0.228 C  
HETATM    8  C   UNL     1      -9.154  13.411  67.073  1.00  0.00    -0.243 C  
HETATM    9  C   UNL     1      -9.368  14.857  67.449  1.00  0.00    -0.202 C  
HETATM   10  C   UNL     1      -9.397  15.502  66.088  1.00  0.00    -0.380 C  
HETATM   11  C   UNL     1     -11.494  11.594  67.480  1.00  0.00    -0.360 C  
HETATM   12  C   UNL     1     -10.217  14.544  65.225  1.00  0.00    -0.402 C  
ENDROOT
BRANCH   7  13
HETATM   13  O   UNL     1     -10.820   9.265  67.336  1.00  0.00    -0.255 OA 
BRANCH  13  14
HETATM   14  C   UNL     1      -9.955   8.469  68.064  1.00  0.00    -0.183 C  
HETATM   15  C   UNL     1     -10.339   6.954  67.911  1.00  0.00    -0.195 C  
HETATM   16  O   UNL     1      -9.037   8.930  68.733  1.00  0.00    -0.134 OA 
HETATM   17  O   UNL     1     -11.518   6.836  67.091  1.00  0.00    -0.756 OA 
HETATM   18  C   UNL     1      -9.170   6.227  67.222  1.00  0.00    -0.119 A  
HETATM   19  C   UNL     1     -10.752   6.434  69.298  1.00  0.00    -0.349 A  
HETATM   20  C   UNL     1     -11.803   7.078  69.988  1.00  0.00    -0.123 A  
HETATM   21  C   UNL     1      -7.868   6.293  67.761  1.00  0.00    -0.106 A  
HETATM   22  H   UNL     1     -11.750   5.919  66.999  1.00  0.00     0.000 HD 
HETATM   23  C   UNL     1      -6.796   5.631  67.161  1.00  0.00    -0.064 A  
HETATM   24  C   UNL     1     -12.116   6.747  71.309  1.00  0.00    -0.421 A  
HETATM   25  C   UNL     1      -7.002   4.899  65.996  1.00  0.00    -0.066 A  
HETATM   26  C   UNL     1     -11.399   5.751  71.961  1.00  0.00    -0.289 A  
HETATM   27  C   UNL     1      -8.274   4.829  65.437  1.00  0.00    -0.118 A  
HETATM   28  C   UNL     1     -10.402   5.057  71.281  1.00  0.00    -0.255 A  
HETATM   29  C   UNL     1     -10.094   5.383  69.956  1.00  0.00    -0.324 A  
HETATM   30  C   UNL     1      -9.350   5.480  66.045  1.00  0.00    -0.161 A  
ENDBRANCH  13  14
ENDBRANCH   7  13
TORSDOF 2
ENDMDL
MODEL       26
REMARK 921   NORMALIZED FREE ENERGY PREDICTED BY IDOCK:   -6.82 KCAL/MOL
REMARK 922        TOTAL FREE ENERGY PREDICTED BY IDOCK:   -8.15 KCAL/MOL
REMARK 923 INTER-LIGAND FREE ENERGY PREDICTED BY IDOCK:   -7.40 KCAL/MOL
REMARK 924 INTRA-LIGAND FREE ENERGY PREDICTED BY IDOCK:   -0.74 KCAL/MOL
REMARK 927      BINDING AFFINITY PREDICTED BY RF-SCORE:    0.00 PKD
ROOT
HETATM    1  C   UNL     1     -11.359   6.516  70.711  1.00  0.00    -0.342 C  
HETATM    2  C   UNL     1     -12.508   6.951  71.623  1.00  0.00    -0.418 C  
HETATM    3  C   UNL     1     -11.845   7.626  72.812  1.00  0.00    -0.205 C  
HETATM    4  C   UNL     1     -10.331   7.538  72.559  1.00  0.00    -0.240 C  
HETATM    5  N   UNL     1     -10.180   6.291  71.683  1.00  0.00    -0.192 N  
HETATM    6  C   UNL     1      -9.849   8.768  71.801  1.00  0.00    -0.391 C  
HETATM    7  C   UNL     1     -10.113   8.751  70.289  1.00  0.00    -0.191 C  
HETATM    8  C   UNL     1      -8.818   6.081  70.993  1.00  0.00    -0.139 C  
HETATM    9  C   UNL     1      -8.807   4.601  70.699  1.00  0.00    -0.141 C  
HETATM   10  C   UNL     1      -9.216   4.044  72.037  1.00  0.00    -0.174 C  
HETATM   11  C   UNL     1     -11.030   7.650  69.732  1.00  0.00    -0.178 C  
HETATM   12  C   UNL     1     -10.326   4.975  72.520  1.00  0.00    -0.202 C  
ENDROOT
BRANCH   7  13
HETATM   13  O   UNL     1     -10.591  10.035  69.870  1.00  0.00    -0.244 OA 
BRANCH  13  14
HETATM   14  C   UNL     1      -9.768  10.655  68.948  1.00  0.00    -0.202 C  
HETATM   15  C   UNL     1     -10.544  10.926  67.610  1.00  0.00    -0.224 C  
HETATM   16  O   UNL     1      -8.596  10.925  69.185  1.00  0.00    -0.138 OA 
HETATM   17  O   UNL     1     -11.883  10.402  67.714  1.00  0.00    -0.635 OA 
HETATM   18  C   UNL     1     -10.614  12.448  67.392  1.00  0.00    -0.237 A  
HETATM   19  C   UNL     1      -9.868  10.102  66.502  1.00  0.00    -0.268 A  
HETATM   20  C   UNL     1      -9.753   8.702  66.659  1.00  0.00    -0.315 A  
HETATM   21  C   UNL     1      -9.436  13.224  67.376  1.00  0.00    -0.218 A  
HETATM   22  H   UNL     1     -12.352  10.566  66.905  1.00  0.00     0.000 HD 
HETATM   23  C   UNL     1      -9.475  14.604  67.167  1.00  0.00    -0.234 A  
HETATM   24  C   UNL     1      -9.016   7.928  65.761  1.00  0.00    -0.125 A  
HETATM   25  C   UNL     1     -10.698  15.240  66.985  1.00  0.00    -0.313 A  
HETATM   26  C   UNL     1      -8.394   8.532  64.674  1.00  0.00    -0.156 A  
HETATM   27  C   UNL     1     -11.875  14.499  67.010  1.00  0.00    -0.408 A  
HETATM   28  C   UNL     1      -8.546   9.899  64.463  1.00  0.00    -0.198 A  
HETATM   29  C   UNL     1      -9.291  10.674  65.357  1.00  0.00    -0.250 A  
HETATM   30  C   UNL     1     -11.837  13.116  67.205  1.00  0.00    -0.424 A  
ENDBRANCH  13  14
ENDBRANCH   7  13
TORSDOF 2
ENDMDL
MODEL       27
REMARK 921   NORMALIZED FREE ENERGY PREDICTED BY IDOCK:   -6.76 KCAL/MOL
REMARK 922        TOTAL FREE ENERGY PREDICTED BY IDOCK:   -8.09 KCAL/MOL
REMARK 923 INTER-LIGAND FREE ENERGY PREDICTED BY IDOCK:   -7.54 KCAL/MOL
REMARK 924 INTRA-LIGAND FREE ENERGY PREDICTED BY IDOCK:   -0.55 KCAL/MOL
REMARK 927      BINDING AFFINITY PREDICTED BY RF-SCORE:    0.00 PKD
ROOT
HETATM    1  C   UNL     1     -11.999  13.971  66.529  1.00  0.00    -0.444 C  
HETATM    2  C   UNL     1     -12.727  13.309  65.357  1.00  0.00    -0.460 C  
HETATM    3  C   UNL     1     -11.631  12.847  64.412  1.00  0.00    -0.415 C  
HETATM    4  C   UNL     1     -10.305  13.278  65.059  1.00  0.00    -0.340 C  
HETATM    5  N   UNL     1     -10.690  14.497  65.903  1.00  0.00    -0.295 N  
HETATM    6  C   UNL     1      -9.770  12.171  65.958  1.00  0.00    -0.258 C  
HETATM    7  C   UNL     1     -10.426  12.077  67.342  1.00  0.00    -0.216 C  
HETATM    8  C   UNL     1      -9.651  14.997  66.925  1.00  0.00    -0.239 C  
HETATM    9  C   UNL     1     -10.065  16.428  67.163  1.00  0.00    -0.271 C  
HETATM   10  C   UNL     1     -10.219  16.917  65.747  1.00  0.00    -0.287 C  
HETATM   11  C   UNL     1     -11.689  12.915  67.597  1.00  0.00    -0.422 C  
HETATM   12  C   UNL     1     -10.909  15.768  65.014  1.00  0.00    -0.443 C  
ENDROOT
BRANCH   7  13
HETATM   13  O   UNL     1     -10.686  10.704  67.660  1.00  0.00    -0.226 OA 
BRANCH  13  14
HETATM   14  C   UNL     1      -9.750  10.149  68.513  1.00  0.00    -0.154 C  
HETATM   15  C   UNL     1      -9.953   8.595  68.620  1.00  0.00    -0.183 C  
HETATM   16  O   UNL     1      -8.905  10.820  69.095  1.00  0.00    -0.156 OA 
HETATM   17  O   UNL     1     -11.094   8.203  67.830  1.00  0.00    -0.484 OA 
HETATM   18  C   UNL     1      -8.695   7.904  68.065  1.00  0.00    -0.125 A  
HETATM   19  C   UNL     1     -10.332   8.272  70.074  1.00  0.00    -0.212 A  
HETATM   20  C   UNL     1     -11.465   8.895  70.644  1.00  0.00    -0.280 A  
HETATM   21  C   UNL     1      -7.420   8.213  68.585  1.00  0.00    -0.098 A  
HETATM   22  H   UNL     1     -11.217   7.263  67.895  1.00  0.00     0.000 HD 
HETATM   23  C   UNL     1      -6.267   7.589  68.107  1.00  0.00    -0.040 A  
HETATM   24  C   UNL     1     -11.764   8.756  72.001  1.00  0.00    -0.442 A  
HETATM   25  C   UNL     1      -6.363   6.653  67.082  1.00  0.00    -0.041 A  
HETATM   26  C   UNL     1     -10.951   7.975  72.814  1.00  0.00    -0.449 A  
HETATM   27  C   UNL     1      -7.607   6.341  66.543  1.00  0.00    -0.094 A  
HETATM   28  C   UNL     1      -9.867   7.299  72.261  1.00  0.00    -0.182 A  
HETATM   29  C   UNL     1      -9.571   7.431  70.901  1.00  0.00    -0.166 A  
HETATM   30  C   UNL     1      -8.763   6.955  67.031  1.00  0.00    -0.119 A  
ENDBRANCH  13  14
ENDBRANCH   7  13
TORSDOF 2
ENDMDL
MODEL       28
REMARK 921   NORMALIZED FREE ENERGY PREDICTED BY IDOCK:   -6.69 KCAL/MOL
REMARK 922        TOTAL FREE ENERGY PREDICTED BY IDOCK:   -8.01 KCAL/MOL
REMARK 923 INTER-LIGAND FREE ENERGY PREDICTED BY IDOCK:   -7.38 KCAL/MOL
REMARK 924 INTRA-LIGAND FREE ENERGY PREDICTED BY IDOCK:   -0.63 KCAL/MOL
REMARK 927      BINDING AFFINITY PREDICTED BY RF-SCORE:    0.00 PKD
ROOT
HETATM    1  C   UNL     1      -8.908  10.711  65.637  1.00  0.00    -0.186 C  
HETATM    2  C   UNL     1     -10.156   9.844  65.456  1.00  0.00    -0.297 C  
HETATM    3  C   UNL     1     -10.312   9.086  66.763  1.00  0.00    -0.310 C  
HETATM    4  C   UNL     1      -9.134   9.523  67.649  1.00  0.00    -0.120 C  
HETATM    5  N   UNL     1      -8.048   9.918  66.644  1.00  0.00    -0.116 N  
HETATM    6  C   UNL     1      -9.526  10.730  68.493  1.00  0.00    -0.181 C  
HETATM    7  C   UNL     1      -9.489  12.079  67.762  1.00  0.00    -0.190 C  
HETATM    8  C   UNL     1      -6.834  10.692  67.193  1.00  0.00    -0.083 C  
HETATM    9  C   UNL     1      -5.771  10.444  66.151  1.00  0.00    -0.081 C  
HETATM   10  C   UNL     1      -5.870   8.950  65.995  1.00  0.00    -0.051 C  
HETATM   11  C   UNL     1      -9.312  12.064  66.235  1.00  0.00    -0.228 C  
HETATM   12  C   UNL     1      -7.370   8.659  66.005  1.00  0.00    -0.085 C  
ENDROOT
BRANCH   7  13
HETATM   13  O   UNL     1     -10.652  12.843  68.105  1.00  0.00    -0.223 OA 
BRANCH  13  14
HETATM   14  C   UNL     1     -10.361  14.020  68.771  1.00  0.00    -0.222 C  
HETATM   15  C   UNL     1     -11.577  15.011  68.695  1.00  0.00    -0.325 C  
HETATM   16  O   UNL     1      -9.283  14.221  69.318  1.00  0.00     0.061 OA 
HETATM   17  O   UNL     1     -12.631  14.422  67.908  1.00  0.00    -0.512 OA 
HETATM   18  C   UNL     1     -12.092  15.253  70.126  1.00  0.00    -0.394 A  
HETATM   19  C   UNL     1     -11.123  16.250  67.908  1.00  0.00    -0.270 A  
HETATM   20  C   UNL     1     -10.618  16.086  66.598  1.00  0.00    -0.297 A  
HETATM   21  C   UNL     1     -11.218  15.713  71.133  1.00  0.00    -0.409 A  
HETATM   22  H   UNL     1     -13.367  15.022  67.862  1.00  0.00     0.000 HD 
HETATM   23  C   UNL     1     -11.665  15.953  72.433  1.00  0.00    -0.582 A  
HETATM   24  C   UNL     1     -10.051  17.153  65.898  1.00  0.00    -0.257 A  
HETATM   25  C   UNL     1     -12.998  15.720  72.758  1.00  0.00    -0.585 A  
HETATM   26  C   UNL     1      -9.993  18.412  66.483  1.00  0.00    -0.392 A  
HETATM   27  C   UNL     1     -13.877  15.253  71.786  1.00  0.00    -0.622 A  
HETATM   28  C   UNL     1     -10.542  18.614  67.746  1.00  0.00    -0.433 A  
HETATM   29  C   UNL     1     -11.118  17.548  68.444  1.00  0.00     0.103 A  
HETATM   30  C   UNL     1     -13.433  15.027  70.481  1.00  0.00    -0.088 A  
ENDBRANCH  13  14
ENDBRANCH   7  13
TORSDOF 2
ENDMDL
MODEL       29
REMARK 921   NORMALIZED FREE ENERGY PREDICTED BY IDOCK:   -6.68 KCAL/MOL
REMARK 922        TOTAL FREE ENERGY PREDICTED BY IDOCK:   -8.00 KCAL/MOL
REMARK 923 INTER-LIGAND FREE ENERGY PREDICTED BY IDOCK:   -7.43 KCAL/MOL
REMARK 924 INTRA-LIGAND FREE ENERGY PREDICTED BY IDOCK:   -0.56 KCAL/MOL
REMARK 927      BINDING AFFINITY PREDICTED BY RF-SCORE:    0.00 PKD
ROOT
HETATM    1  C   UNL     1     -11.309   7.715  71.169  1.00  0.00    -0.266 C  
HETATM    2  C   UNL     1     -10.978   8.187  72.587  1.00  0.00    -0.440 C  
HETATM    3  C   UNL     1      -9.479   8.441  72.587  1.00  0.00    -0.335 C  
HETATM    4  C   UNL     1      -8.990   8.086  71.173  1.00  0.00    -0.141 C  
HETATM    5  N   UNL     1     -10.004   7.046  70.687  1.00  0.00    -0.187 N  
HETATM    6  C   UNL     1      -9.033   9.315  70.274  1.00  0.00    -0.261 C  
HETATM    7  C   UNL     1     -10.417   9.670  69.716  1.00  0.00    -0.238 C  
HETATM    8  C   UNL     1      -9.984   6.698  69.185  1.00  0.00    -0.157 C  
HETATM    9  C   UNL     1     -10.649   5.345  69.138  1.00  0.00    -0.241 C  
HETATM   10  C   UNL     1      -9.896   4.621  70.223  1.00  0.00    -0.314 C  
HETATM   11  C   UNL     1     -11.636   8.931  70.293  1.00  0.00    -0.049 C  
HETATM   12  C   UNL     1      -9.758   5.647  71.347  1.00  0.00    -0.162 C  
ENDROOT
BRANCH   7  13
HETATM   13  O   UNL     1     -10.624  11.085  69.806  1.00  0.00    -0.156 OA 
BRANCH  13  14
HETATM   14  C   UNL     1     -10.964  11.670  68.600  1.00  0.00    -0.220 C  
HETATM   15  C   UNL     1      -9.699  12.308  67.921  1.00  0.00    -0.202 C  
HETATM   16  O   UNL     1     -12.111  11.677  68.169  1.00  0.00    -0.577 OA 
HETATM   17  O   UNL     1      -8.554  12.139  68.780  1.00  0.00    -0.351 OA 
HETATM   18  C   UNL     1      -9.444  11.575  66.592  1.00  0.00    -0.208 A  
HETATM   19  C   UNL     1      -9.928  13.825  67.838  1.00  0.00    -0.240 A  
HETATM   20  C   UNL     1     -10.190  14.547  69.024  1.00  0.00    -0.210 A  
HETATM   21  C   UNL     1     -10.461  11.484  65.618  1.00  0.00    -0.317 A  
HETATM   22  H   UNL     1      -7.789  12.525  68.369  1.00  0.00     0.000 HD 
HETATM   23  C   UNL     1     -10.248  10.835  64.400  1.00  0.00    -0.432 A  
HETATM   24  C   UNL     1     -10.555  15.895  68.990  1.00  0.00    -0.247 A  
HETATM   25  C   UNL     1      -9.015  10.249  64.137  1.00  0.00    -0.263 A  
HETATM   26  C   UNL     1     -10.646  16.556  67.771  1.00  0.00    -0.332 A  
HETATM   27  C   UNL     1      -8.000  10.314  65.086  1.00  0.00    -0.147 A  
HETATM   28  C   UNL     1     -10.330  15.884  66.594  1.00  0.00    -0.302 A  
HETATM   29  C   UNL     1      -9.956  14.537  66.628  1.00  0.00    -0.276 A  
HETATM   30  C   UNL     1      -8.207  10.974  66.300  1.00  0.00    -0.164 A  
ENDBRANCH  13  14
ENDBRANCH   7  13
TORSDOF 2
ENDMDL
MODEL       30
REMARK 921   NORMALIZED FREE ENERGY PREDICTED BY IDOCK:   -6.64 KCAL/MOL
REMARK 922        TOTAL FREE ENERGY PREDICTED BY IDOCK:   -7.94 KCAL/MOL
REMARK 923 INTER-LIGAND FREE ENERGY PREDICTED BY IDOCK:   -7.21 KCAL/MOL
REMARK 924 INTRA-LIGAND FREE ENERGY PREDICTED BY IDOCK:   -0.73 KCAL/MOL
REMARK 927      BINDING AFFINITY PREDICTED BY RF-SCORE:    0.00 PKD
ROOT
HETATM    1  C   UNL     1      -8.986  10.576  68.050  1.00  0.00    -0.135 C  
HETATM    2  C   UNL     1      -8.965  10.317  66.542  1.00  0.00    -0.161 C  
HETATM    3  C   UNL     1     -10.420  10.356  66.106  1.00  0.00    -0.224 C  
HETATM    4  C   UNL     1     -11.237  10.614  67.383  1.00  0.00    -0.205 C  
HETATM    5  N   UNL     1     -10.361  10.037  68.499  1.00  0.00    -0.184 N  
HETATM    6  C   UNL     1     -11.430  12.110  67.595  1.00  0.00    -0.399 C  
HETATM    7  C   UNL     1     -10.229  12.846  68.203  1.00  0.00    -0.239 C  
HETATM    8  C   UNL     1     -10.744  10.399  69.947  1.00  0.00    -0.279 C  
HETATM    9  C   UNL     1     -10.095   9.304  70.757  1.00  0.00    -0.358 C  
HETATM   10  C   UNL     1     -10.550   8.084  70.001  1.00  0.00    -0.242 C  
HETATM   11  C   UNL     1      -8.898  12.085  68.307  1.00  0.00    -0.182 C  
HETATM   12  C   UNL     1     -10.421   8.472  68.529  1.00  0.00    -0.167 C  
ENDROOT
BRANCH   7  13
HETATM   13  O   UNL     1     -10.024  14.085  67.511  1.00  0.00    -0.232 OA 
BRANCH  13  14
HETATM   14  C   UNL     1      -9.689  15.133  68.347  1.00  0.00    -0.212 C  
HETATM   15  C   UNL     1      -8.643  16.079  67.655  1.00  0.00    -0.166 C  
HETATM   16  O   UNL     1     -10.159  15.259  69.472  1.00  0.00    -0.242 OA 
HETATM   17  O   UNL     1      -8.298  15.549  66.359  1.00  0.00    -0.345 OA 
HETATM   18  C   UNL     1      -9.290  17.464  67.476  1.00  0.00    -0.233 A  
HETATM   19  C   UNL     1      -7.346  16.025  68.478  1.00  0.00    -0.146 A  
HETATM   20  C   UNL     1      -6.721  14.776  68.695  1.00  0.00    -0.088 A  
HETATM   21  C   UNL     1      -9.829  18.151  68.584  1.00  0.00    -0.389 A  
HETATM   22  H   UNL     1      -7.665  16.121  65.941  1.00  0.00     0.000 HD 
HETATM   23  C   UNL     1     -10.408  19.414  68.448  1.00  0.00    -0.461 A  
HETATM   24  C   UNL     1      -5.631  14.649  69.559  1.00  0.00    -0.092 A  
HETATM   25  C   UNL     1     -10.474  20.011  67.193  1.00  0.00    -0.513 A  
HETATM   26  C   UNL     1      -5.129  15.770  70.210  1.00  0.00    -0.135 A  
HETATM   27  C   UNL     1      -9.961  19.349  66.083  1.00  0.00    -0.501 A  
HETATM   28  C   UNL     1      -5.687  17.021  69.962  1.00  0.00    -0.227 A  
HETATM   29  C   UNL     1      -6.773  17.150  69.090  1.00  0.00    -0.238 A  
HETATM   30  C   UNL     1      -9.368  18.091  66.220  1.00  0.00    -0.220 A  
ENDBRANCH  13  14
ENDBRANCH   7  13
TORSDOF 2
ENDMDL
MODEL       31
REMARK 921   NORMALIZED FREE ENERGY PREDICTED BY IDOCK:   -6.61 KCAL/MOL
REMARK 922        TOTAL FREE ENERGY PREDICTED BY IDOCK:   -7.91 KCAL/MOL
REMARK 923 INTER-LIGAND FREE ENERGY PREDICTED BY IDOCK:   -7.05 KCAL/MOL
REMARK 924 INTRA-LIGAND FREE ENERGY PREDICTED BY IDOCK:   -0.86 KCAL/MOL
REMARK 927      BINDING AFFINITY PREDICTED BY RF-SCORE:    0.00 PKD
ROOT
HETATM    1  C   UNL     1     -12.100  13.834  66.375  1.00  0.00    -0.444 C  
HETATM    2  C   UNL     1     -12.776  13.196  65.160  1.00  0.00    -0.468 C  
HETATM    3  C   UNL     1     -11.640  12.752  64.254  1.00  0.00    -0.433 C  
HETATM    4  C   UNL     1     -10.343  13.168  64.967  1.00  0.00    -0.330 C  
HETATM    5  N   UNL     1     -10.764  14.371  65.817  1.00  0.00    -0.296 N  
HETATM    6  C   UNL     1      -9.848  12.043  65.866  1.00  0.00    -0.259 C  
HETATM    7  C   UNL     1     -10.563  11.922  67.218  1.00  0.00    -0.228 C  
HETATM    8  C   UNL     1      -9.771  14.849  66.894  1.00  0.00    -0.240 C  
HETATM    9  C   UNL     1     -10.195  16.276  67.141  1.00  0.00    -0.276 C  
HETATM   10  C   UNL     1     -10.286  16.793  65.731  1.00  0.00    -0.322 C  
HETATM   11  C   UNL     1     -11.837  12.756  67.434  1.00  0.00    -0.404 C  
HETATM   12  C   UNL     1     -10.944  15.659  64.945  1.00  0.00    -0.431 C  
ENDROOT
BRANCH   7  13
HETATM   13  O   UNL     1     -10.837  10.543  67.496  1.00  0.00    -0.262 OA 
BRANCH  13  14
HETATM   14  C   UNL     1      -9.776   9.879  68.084  1.00  0.00    -0.144 C  
HETATM   15  C   UNL     1      -9.357   8.636  67.220  1.00  0.00    -0.152 C  
HETATM   16  O   UNL     1      -9.274  10.240  69.142  1.00  0.00    -0.174 OA 
HETATM   17  O   UNL     1     -10.237   8.521  66.083  1.00  0.00    -0.446 OA 
HETATM   18  C   UNL     1      -7.918   8.858  66.722  1.00  0.00    -0.107 A  
HETATM   19  C   UNL     1      -9.609   7.375  68.061  1.00  0.00    -0.152 A  
HETATM   20  C   UNL     1     -10.906   7.131  68.565  1.00  0.00    -0.141 A  
HETATM   21  C   UNL     1      -6.877   9.122  67.637  1.00  0.00    -0.077 A  
HETATM   22  H   UNL     1      -9.983   7.769  65.560  1.00  0.00     0.000 HD 
HETATM   23  C   UNL     1      -5.561   9.313  67.210  1.00  0.00    -0.041 A  
HETATM   24  C   UNL     1     -11.156   6.087  69.458  1.00  0.00    -0.468 A  
HETATM   25  C   UNL     1      -5.263   9.260  65.852  1.00  0.00    -0.036 A  
HETATM   26  C   UNL     1     -10.118   5.251  69.852  1.00  0.00    -0.333 A  
HETATM   27  C   UNL     1      -6.273   9.014  64.929  1.00  0.00    -0.065 A  
HETATM   28  C   UNL     1      -8.845   5.430  69.319  1.00  0.00    -0.112 A  
HETATM   29  C   UNL     1      -8.596   6.470  68.418  1.00  0.00    -0.119 A  
HETATM   30  C   UNL     1      -7.588   8.809  65.357  1.00  0.00    -0.087 A  
ENDBRANCH  13  14
ENDBRANCH   7  13
TORSDOF 2
ENDMDL
MODEL       32
REMARK 921   NORMALIZED FREE ENERGY PREDICTED BY IDOCK:   -6.60 KCAL/MOL
REMARK 922        TOTAL FREE ENERGY PREDICTED BY IDOCK:   -7.90 KCAL/MOL
REMARK 923 INTER-LIGAND FREE ENERGY PREDICTED BY IDOCK:   -7.53 KCAL/MOL
REMARK 924 INTRA-LIGAND FREE ENERGY PREDICTED BY IDOCK:   -0.37 KCAL/MOL
REMARK 927      BINDING AFFINITY PREDICTED BY RF-SCORE:    0.00 PKD
ROOT
HETATM    1  C   UNL     1     -10.055   6.640  70.378  1.00  0.00    -0.183 C  
HETATM    2  C   UNL     1     -11.553   6.365  70.234  1.00  0.00    -0.451 C  
HETATM    3  C   UNL     1     -12.193   6.958  71.478  1.00  0.00    -0.415 C  
HETATM    4  C   UNL     1     -11.038   7.538  72.312  1.00  0.00    -0.273 C  
HETATM    5  N   UNL     1      -9.831   6.688  71.905  1.00  0.00    -0.167 N  
HETATM    6  C   UNL     1     -10.797   8.996  71.940  1.00  0.00    -0.413 C  
HETATM    7  C   UNL     1      -9.992   9.218  70.653  1.00  0.00    -0.273 C  
HETATM    8  C   UNL     1      -8.441   7.198  72.330  1.00  0.00    -0.116 C  
HETATM    9  C   UNL     1      -7.590   5.952  72.284  1.00  0.00    -0.101 C  
HETATM   10  C   UNL     1      -8.453   4.991  73.057  1.00  0.00    -0.111 C  
HETATM   11  C   UNL     1      -9.726   8.001  69.752  1.00  0.00    -0.176 C  
HETATM   12  C   UNL     1      -9.874   5.270  72.569  1.00  0.00    -0.162 C  
ENDROOT
BRANCH   7  13
HETATM   13  O   UNL     1     -10.595  10.266  69.883  1.00  0.00    -0.258 OA 
BRANCH  13  14
HETATM   14  C   UNL     1      -9.766  10.777  68.903  1.00  0.00    -0.198 C  
HETATM   15  C   UNL     1     -10.549  10.951  67.553  1.00  0.00    -0.230 C  
HETATM   16  O   UNL     1      -8.583  11.030  69.103  1.00  0.00    -0.111 OA 
HETATM   17  O   UNL     1     -11.902  10.479  67.717  1.00  0.00    -0.679 OA 
HETATM   18  C   UNL     1     -10.577  12.449  67.201  1.00  0.00    -0.247 A  
HETATM   19  C   UNL     1      -9.911  10.012  66.517  1.00  0.00    -0.286 A  
HETATM   20  C   UNL     1      -9.837   8.628  66.797  1.00  0.00    -0.322 A  
HETATM   21  C   UNL     1      -9.377  13.184  67.104  1.00  0.00    -0.235 A  
HETATM   22  H   UNL     1     -12.376  10.584  66.900  1.00  0.00     0.000 HD 
HETATM   23  C   UNL     1      -9.378  14.540  66.773  1.00  0.00    -0.278 A  
HETATM   24  C   UNL     1      -9.133   7.755  65.964  1.00  0.00    -0.169 A  
HETATM   25  C   UNL     1     -10.584  15.195  66.547  1.00  0.00    -0.304 A  
HETATM   26  C   UNL     1      -8.507   8.241  64.822  1.00  0.00    -0.089 A  
HETATM   27  C   UNL     1     -11.782  14.495  66.649  1.00  0.00    -0.384 A  
HETATM   28  C   UNL     1      -8.621   9.588  64.491  1.00  0.00    -0.206 A  
HETATM   29  C   UNL     1      -9.332  10.461  65.320  1.00  0.00    -0.263 A  
HETATM   30  C   UNL     1     -11.782  13.134  66.967  1.00  0.00    -0.431 A  
ENDBRANCH  13  14
ENDBRANCH   7  13
TORSDOF 2
ENDMDL
MODEL       33
REMARK 921   NORMALIZED FREE ENERGY PREDICTED BY IDOCK:   -6.54 KCAL/MOL
REMARK 922        TOTAL FREE ENERGY PREDICTED BY IDOCK:   -7.83 KCAL/MOL
REMARK 923 INTER-LIGAND FREE ENERGY PREDICTED BY IDOCK:   -7.18 KCAL/MOL
REMARK 924 INTRA-LIGAND FREE ENERGY PREDICTED BY IDOCK:   -0.66 KCAL/MOL
REMARK 927      BINDING AFFINITY PREDICTED BY RF-SCORE:    0.00 PKD
ROOT
HETATM    1  C   UNL     1      -9.808  13.559  66.486  1.00  0.00    -0.291 C  
HETATM    2  C   UNL     1      -9.286  14.584  67.496  1.00  0.00    -0.193 C  
HETATM    3  C   UNL     1     -10.482  14.938  68.364  1.00  0.00    -0.243 C  
HETATM    4  C   UNL     1     -11.662  14.122  67.812  1.00  0.00    -0.373 C  
HETATM    5  N   UNL     1     -11.304  13.913  66.338  1.00  0.00    -0.319 N  
HETATM    6  C   UNL     1     -11.753  12.776  68.521  1.00  0.00    -0.371 C  
HETATM    7  C   UNL     1     -10.770  11.708  68.026  1.00  0.00    -0.208 C  
HETATM    8  C   UNL     1     -12.129  12.872  65.557  1.00  0.00    -0.458 C  
HETATM    9  C   UNL     1     -11.930  13.285  64.120  1.00  0.00    -0.505 C  
HETATM   10  C   UNL     1     -12.220  14.760  64.206  1.00  0.00    -0.402 C  
HETATM   11  C   UNL     1      -9.652  12.149  67.068  1.00  0.00    -0.207 C  
HETATM   12  C   UNL     1     -11.540  15.212  65.497  1.00  0.00    -0.142 C  
ENDROOT
BRANCH   7  13
HETATM   13  O   UNL     1     -10.200  11.021  69.148  1.00  0.00    -0.210 OA 
BRANCH  13  14
HETATM   14  C   UNL     1     -10.191   9.646  69.006  1.00  0.00    -0.199 C  
HETATM   15  C   UNL     1      -9.168   8.995  70.004  1.00  0.00    -0.180 C  
HETATM   16  O   UNL     1     -10.893   9.061  68.189  1.00  0.00    -0.151 OA 
HETATM   17  O   UNL     1      -8.496  10.031  70.749  1.00  0.00    -0.340 OA 
HETATM   18  C   UNL     1      -9.949   8.098  70.980  1.00  0.00    -0.220 A  
HETATM   19  C   UNL     1      -8.070   8.314  69.171  1.00  0.00    -0.120 A  
HETATM   20  C   UNL     1      -7.335   9.084  68.240  1.00  0.00    -0.082 A  
HETATM   21  C   UNL     1     -10.793   7.077  70.495  1.00  0.00    -0.279 A  
HETATM   22  H   UNL     1      -7.877   9.637  71.353  1.00  0.00     0.000 HD 
HETATM   23  C   UNL     1     -11.501   6.242  71.361  1.00  0.00    -0.352 A  
HETATM   24  C   UNL     1      -6.437   8.488  67.352  1.00  0.00    -0.058 A  
HETATM   25  C   UNL     1     -11.392   6.424  72.736  1.00  0.00    -0.226 A  
HETATM   26  C   UNL     1      -6.238   7.113  67.388  1.00  0.00    -0.045 A  
HETATM   27  C   UNL     1     -10.578   7.433  73.240  1.00  0.00    -0.442 A  
HETATM   28  C   UNL     1      -6.901   6.342  68.339  1.00  0.00    -0.071 A  
HETATM   29  C   UNL     1      -7.794   6.939  69.233  1.00  0.00    -0.114 A  
HETATM   30  C   UNL     1      -9.857   8.259  72.373  1.00  0.00    -0.375 A  
ENDBRANCH  13  14
ENDBRANCH   7  13
TORSDOF 2
ENDMDL
MODEL       34
REMARK 921   NORMALIZED FREE ENERGY PREDICTED BY IDOCK:   -6.52 KCAL/MOL
REMARK 922        TOTAL FREE ENERGY PREDICTED BY IDOCK:   -7.82 KCAL/MOL
REMARK 923 INTER-LIGAND FREE ENERGY PREDICTED BY IDOCK:   -7.04 KCAL/MOL
REMARK 924 INTRA-LIGAND FREE ENERGY PREDICTED BY IDOCK:   -0.78 KCAL/MOL
REMARK 927      BINDING AFFINITY PREDICTED BY RF-SCORE:    0.00 PKD
ROOT
HETATM    1  C   UNL     1      -9.203   8.258  70.745  1.00  0.00    -0.153 C  
HETATM    2  C   UNL     1      -7.983   7.846  69.917  1.00  0.00    -0.109 C  
HETATM    3  C   UNL     1      -8.547   7.163  68.682  1.00  0.00    -0.124 C  
HETATM    4  C   UNL     1     -10.075   7.184  68.848  1.00  0.00    -0.177 C  
HETATM    5  N   UNL     1     -10.277   7.216  70.365  1.00  0.00    -0.192 N  
HETATM    6  C   UNL     1     -10.659   8.442  68.218  1.00  0.00    -0.163 C  
HETATM    7  C   UNL     1     -10.541   9.714  69.067  1.00  0.00    -0.218 C  
HETATM    8  C   UNL     1     -11.693   7.547  70.876  1.00  0.00    -0.283 C  
HETATM    9  C   UNL     1     -11.694   6.980  72.274  1.00  0.00    -0.294 C  
HETATM   10  C   UNL     1     -11.145   5.601  72.022  1.00  0.00    -0.291 C  
HETATM   11  C   UNL     1      -9.653   9.661  70.321  1.00  0.00    -0.307 C  
HETATM   12  C   UNL     1     -10.018   5.813  71.012  1.00  0.00    -0.190 C  
ENDROOT
BRANCH   7  13
HETATM   13  O   UNL     1     -10.138  10.811  68.237  1.00  0.00    -0.161 OA 
BRANCH  13  14
HETATM   14  C   UNL     1     -11.147  11.726  68.005  1.00  0.00    -0.242 C  
HETATM   15  C   UNL     1     -10.732  13.149  68.525  1.00  0.00    -0.259 C  
HETATM   16  O   UNL     1     -12.209  11.420  67.475  1.00  0.00    -0.412 OA 
HETATM   17  O   UNL     1      -9.431  13.076  69.141  1.00  0.00    -0.257 OA 
HETATM   18  C   UNL     1     -10.666  14.104  67.320  1.00  0.00    -0.279 A  
HETATM   19  C   UNL     1     -11.699  13.534  69.657  1.00  0.00    -0.378 A  
HETATM   20  C   UNL     1     -11.818  12.683  70.778  1.00  0.00     0.128 A  
HETATM   21  C   UNL     1     -11.781  14.260  66.469  1.00  0.00    -0.409 A  
HETATM   22  H   UNL     1      -9.180  13.937  69.456  1.00  0.00     0.000 HD 
HETATM   23  C   UNL     1     -11.749  15.130  65.377  1.00  0.00    -0.092 A  
HETATM   24  C   UNL     1     -12.789  12.903  71.758  1.00  0.00    -0.339 A  
HETATM   25  C   UNL     1     -10.591  15.852  65.105  1.00  0.00    -0.421 A  
HETATM   26  C   UNL     1     -13.647  13.991  71.650  1.00  0.00    -0.430 A  
HETATM   27  C   UNL     1      -9.474  15.705  65.921  1.00  0.00    -0.376 A  
HETATM   28  C   UNL     1     -13.506  14.880  70.589  1.00  0.00    -0.178 A  
HETATM   29  C   UNL     1     -12.530  14.665  69.612  1.00  0.00    -0.197 A  
HETATM   30  C   UNL     1      -9.510  14.845  67.021  1.00  0.00    -0.239 A  
ENDBRANCH  13  14
ENDBRANCH   7  13
TORSDOF 2
ENDMDL
MODEL       35
REMARK 921   NORMALIZED FREE ENERGY PREDICTED BY IDOCK:   -6.52 KCAL/MOL
REMARK 922        TOTAL FREE ENERGY PREDICTED BY IDOCK:   -7.82 KCAL/MOL
REMARK 923 INTER-LIGAND FREE ENERGY PREDICTED BY IDOCK:   -7.33 KCAL/MOL
REMARK 924 INTRA-LIGAND FREE ENERGY PREDICTED BY IDOCK:   -0.48 KCAL/MOL
REMARK 927      BINDING AFFINITY PREDICTED BY RF-SCORE:    0.00 PKD
ROOT
HETATM    1  C   UNL     1      -9.535  12.747  67.669  1.00  0.00    -0.190 C  
HETATM    2  C   UNL     1      -9.918  13.837  68.673  1.00  0.00    -0.175 C  
HETATM    3  C   UNL     1     -11.427  13.730  68.828  1.00  0.00    -0.338 C  
HETATM    4  C   UNL     1     -11.868  12.594  67.890  1.00  0.00    -0.332 C  
HETATM    5  N   UNL     1     -10.798  12.588  66.795  1.00  0.00    -0.243 N  
HETATM    6  C   UNL     1     -11.862  11.263  68.631  1.00  0.00    -0.369 C  
HETATM    7  C   UNL     1     -10.483  10.608  68.790  1.00  0.00    -0.194 C  
HETATM    8  C   UNL     1     -10.769  11.370  65.851  1.00  0.00    -0.255 C  
HETATM    9  C   UNL     1     -10.042  11.894  64.637  1.00  0.00    -0.301 C  
HETATM   10  C   UNL     1     -10.784  13.182  64.396  1.00  0.00    -0.426 C  
HETATM   11  C   UNL     1      -9.245  11.443  68.423  1.00  0.00    -0.183 C  
HETATM   12  C   UNL     1     -10.994  13.773  65.790  1.00  0.00    -0.280 C  
ENDROOT
BRANCH   7  13
HETATM   13  O   UNL     1     -10.343  10.098  70.122  1.00  0.00    -0.270 OA 
BRANCH  13  14
HETATM   14  C   UNL     1      -9.569   8.955  70.195  1.00  0.00    -0.180 C  
HETATM   15  C   UNL     1     -10.474   7.672  70.137  1.00  0.00    -0.227 C  
HETATM   16  O   UNL     1      -8.349   8.987  70.304  1.00  0.00    -0.123 OA 
HETATM   17  O   UNL     1     -11.861   8.063  70.073  1.00  0.00    -0.436 OA 
HETATM   18  C   UNL     1     -10.114   6.884  68.865  1.00  0.00    -0.174 A  
HETATM   19  C   UNL     1     -10.321   6.930  71.474  1.00  0.00    -0.220 A  
HETATM   20  C   UNL     1     -10.615   7.612  72.677  1.00  0.00    -0.354 A  
HETATM   21  C   UNL     1      -8.782   6.487  68.623  1.00  0.00    -0.123 A  
HETATM   22  H   UNL     1     -12.408   7.287  70.038  1.00  0.00     0.000 HD 
HETATM   23  C   UNL     1      -8.433   5.760  67.483  1.00  0.00    -0.103 A  
HETATM   24  C   UNL     1     -10.347   7.038  73.922  1.00  0.00    -0.386 A  
HETATM   25  C   UNL     1      -9.411   5.428  66.551  1.00  0.00    -0.158 A  
HETATM   26  C   UNL     1      -9.799   5.763  73.993  1.00  0.00    -0.194 A  
HETATM   27  C   UNL     1     -10.730   5.819  66.760  1.00  0.00    -0.369 A  
HETATM   28  C   UNL     1      -9.561   5.046  72.824  1.00  0.00    -0.164 A  
HETATM   29  C   UNL     1      -9.836   5.616  71.578  1.00  0.00    -0.213 A  
HETATM   30  C   UNL     1     -11.082   6.535  67.908  1.00  0.00    -0.352 A  
ENDBRANCH  13  14
ENDBRANCH   7  13
TORSDOF 2
ENDMDL
MODEL       36
REMARK 921   NORMALIZED FREE ENERGY PREDICTED BY IDOCK:   -6.49 KCAL/MOL
REMARK 922        TOTAL FREE ENERGY PREDICTED BY IDOCK:   -7.78 KCAL/MOL
REMARK 923 INTER-LIGAND FREE ENERGY PREDICTED BY IDOCK:   -7.38 KCAL/MOL
REMARK 924 INTRA-LIGAND FREE ENERGY PREDICTED BY IDOCK:   -0.40 KCAL/MOL
REMARK 927      BINDING AFFINITY PREDICTED BY RF-SCORE:    0.00 PKD
ROOT
HETATM    1  C   UNL     1     -10.636   8.785  71.794  1.00  0.00    -0.347 C  
HETATM    2  C   UNL     1      -9.121   8.677  71.975  1.00  0.00    -0.311 C  
HETATM    3  C   UNL     1      -8.659   7.688  70.917  1.00  0.00    -0.129 C  
HETATM    4  C   UNL     1      -9.929   7.240  70.175  1.00  0.00    -0.184 C  
HETATM    5  N   UNL     1     -11.040   7.413  71.214  1.00  0.00    -0.243 N  
HETATM    6  C   UNL     1     -10.190   8.146  68.978  1.00  0.00    -0.228 C  
HETATM    7  C   UNL     1     -10.847   9.493  69.308  1.00  0.00    -0.191 C  
HETATM    8  C   UNL     1     -12.492   7.339  70.705  1.00  0.00    -0.055 C  
HETATM    9  C   UNL     1     -13.275   6.998  71.950  1.00  0.00    -0.252 C  
HETATM   10  C   UNL     1     -12.466   5.847  72.486  1.00  0.00     0.155 C  
HETATM   11  C   UNL     1     -10.950   9.899  70.787  1.00  0.00    -0.407 C  
HETATM   12  C   UNL     1     -11.012   6.269  72.284  1.00  0.00    -0.259 C  
ENDROOT
BRANCH   7  13
HETATM   13  O   UNL     1     -10.205  10.537  68.565  1.00  0.00    -0.160 OA 
BRANCH  13  14
HETATM   14  C   UNL     1     -11.085  11.479  68.066  1.00  0.00    -0.254 C  
HETATM   15  C   UNL     1     -10.325  12.526  67.176  1.00  0.00    -0.220 C  
HETATM   16  O   UNL     1     -12.284  11.466  68.322  1.00  0.00    -0.588 OA 
HETATM   17  O   UNL     1      -8.914  12.227  67.178  1.00  0.00    -0.178 OA 
HETATM   18  C   UNL     1     -10.861  12.417  65.738  1.00  0.00    -0.312 A  
HETATM   19  C   UNL     1     -10.452  13.899  67.857  1.00  0.00    -0.242 A  
HETATM   20  C   UNL     1      -9.998  14.052  69.186  1.00  0.00     0.063 A  
HETATM   21  C   UNL     1     -12.241  12.546  65.477  1.00  0.00    -0.442 A  
HETATM   22  H   UNL     1      -8.455  12.861  66.640  1.00  0.00     0.000 HD 
HETATM   23  C   UNL     1     -12.749  12.464  64.179  1.00  0.00    -0.446 A  
HETATM   24  C   UNL     1     -10.228  15.229  69.902  1.00  0.00    -0.233 A  
HETATM   25  C   UNL     1     -11.884  12.235  63.114  1.00  0.00    -0.328 A  
HETATM   26  C   UNL     1     -10.899  16.286  69.299  1.00  0.00    -0.318 A  
HETATM   27  C   UNL     1     -10.520  12.091  63.346  1.00  0.00    -0.474 A  
HETATM   28  C   UNL     1     -11.298  16.184  67.969  1.00  0.00    -0.234 A  
HETATM   29  C   UNL     1     -11.061  15.009  67.249  1.00  0.00    -0.334 A  
HETATM   30  C   UNL     1     -10.010  12.187  64.643  1.00  0.00    -0.227 A  
ENDBRANCH  13  14
ENDBRANCH   7  13
TORSDOF 2
ENDMDL
MODEL       37
REMARK 921   NORMALIZED FREE ENERGY PREDICTED BY IDOCK:   -6.49 KCAL/MOL
REMARK 922        TOTAL FREE ENERGY PREDICTED BY IDOCK:   -7.78 KCAL/MOL
REMARK 923 INTER-LIGAND FREE ENERGY PREDICTED BY IDOCK:   -6.98 KCAL/MOL
REMARK 924 INTRA-LIGAND FREE ENERGY PREDICTED BY IDOCK:   -0.80 KCAL/MOL
REMARK 927      BINDING AFFINITY PREDICTED BY RF-SCORE:    0.00 PKD
ROOT
HETATM    1  C   UNL     1     -11.776  12.658  66.822  1.00  0.00    -0.392 C  
HETATM    2  C   UNL     1     -12.234  12.435  65.378  1.00  0.00    -0.386 C  
HETATM    3  C   UNL     1     -10.977  12.563  64.533  1.00  0.00    -0.359 C  
HETATM    4  C   UNL     1      -9.837  12.878  65.516  1.00  0.00    -0.146 C  
HETATM    5  N   UNL     1     -10.543  13.576  66.682  1.00  0.00    -0.278 N  
HETATM    6  C   UNL     1      -9.184  11.589  65.999  1.00  0.00    -0.229 C  
HETATM    7  C   UNL     1      -9.943  10.845  67.105  1.00  0.00    -0.189 C  
HETATM    8  C   UNL     1      -9.734  13.758  67.981  1.00  0.00    -0.232 C  
HETATM    9  C   UNL     1     -10.450  14.891  68.674  1.00  0.00    -0.242 C  
HETATM   10  C   UNL     1     -10.556  15.889  67.551  1.00  0.00    -0.315 C  
HETATM   11  C   UNL     1     -11.369  11.314  67.438  1.00  0.00    -0.349 C  
HETATM   12  C   UNL     1     -10.923  15.053  66.325  1.00  0.00    -0.338 C  
ENDROOT
BRANCH   7  13
HETATM   13  O   UNL     1      -9.952   9.440  66.821  1.00  0.00    -0.203 OA 
BRANCH  13  14
HETATM   14  C   UNL     1      -9.255   8.687  67.748  1.00  0.00    -0.134 C  
HETATM   15  C   UNL     1     -10.096   7.434  68.184  1.00  0.00    -0.179 C  
HETATM   16  O   UNL     1      -8.142   9.001  68.153  1.00  0.00    -0.104 OA 
HETATM   17  O   UNL     1     -11.378   7.460  67.525  1.00  0.00    -0.489 OA 
HETATM   18  C   UNL     1      -9.334   6.168  67.755  1.00  0.00    -0.109 A  
HETATM   19  C   UNL     1     -10.405   7.577  69.683  1.00  0.00    -0.225 A  
HETATM   20  C   UNL     1     -11.081   8.732  70.139  1.00  0.00    -0.214 A  
HETATM   21  C   UNL     1      -8.001   5.960  68.166  1.00  0.00    -0.109 A  
HETATM   22  H   UNL     1     -11.886   6.703  67.789  1.00  0.00     0.000 HD 
HETATM   23  C   UNL     1      -7.295   4.813  67.800  1.00  0.00    -0.070 A  
HETATM   24  C   UNL     1     -11.250   8.985  71.502  1.00  0.00    -0.418 A  
HETATM   25  C   UNL     1      -7.905   3.854  66.999  1.00  0.00    -0.084 A  
HETATM   26  C   UNL     1     -10.766   8.080  72.440  1.00  0.00    -0.386 A  
HETATM   27  C   UNL     1      -9.215   4.041  66.569  1.00  0.00    -0.171 A  
HETATM   28  C   UNL     1     -10.153   6.905  72.014  1.00  0.00    -0.201 A  
HETATM   29  C   UNL     1      -9.991   6.647  70.650  1.00  0.00    -0.201 A  
HETATM   30  C   UNL     1      -9.927   5.182  66.947  1.00  0.00    -0.227 A  
ENDBRANCH  13  14
ENDBRANCH   7  13
TORSDOF 2
ENDMDL
MODEL       38
REMARK 921   NORMALIZED FREE ENERGY PREDICTED BY IDOCK:   -6.48 KCAL/MOL
REMARK 922        TOTAL FREE ENERGY PREDICTED BY IDOCK:   -7.77 KCAL/MOL
REMARK 923 INTER-LIGAND FREE ENERGY PREDICTED BY IDOCK:   -8.21 KCAL/MOL
REMARK 924 INTRA-LIGAND FREE ENERGY PREDICTED BY IDOCK:    0.44 KCAL/MOL
REMARK 927      BINDING AFFINITY PREDICTED BY RF-SCORE:    0.00 PKD
ROOT
HETATM    1  C   UNL     1      -8.988   8.891  70.850  1.00  0.00    -0.222 C  
HETATM    2  C   UNL     1      -7.775   8.062  70.423  1.00  0.00    -0.085 C  
HETATM    3  C   UNL     1      -8.327   6.985  69.503  1.00  0.00    -0.133 C  
HETATM    4  C   UNL     1      -9.846   7.215  69.447  1.00  0.00    -0.161 C  
HETATM    5  N   UNL     1     -10.163   7.891  70.784  1.00  0.00    -0.194 N  
HETATM    6  C   UNL     1     -10.199   8.148  68.296  1.00  0.00    -0.245 C  
HETATM    7  C   UNL     1      -9.974   9.641  68.571  1.00  0.00    -0.165 C  
HETATM    8  C   UNL     1     -11.556   8.534  70.931  1.00  0.00    -0.263 C  
HETATM    9  C   UNL     1     -11.746   8.599  72.427  1.00  0.00    -0.393 C  
HETATM   10  C   UNL     1     -11.375   7.194  72.821  1.00  0.00    -0.285 C  
HETATM   11  C   UNL     1      -9.205  10.029  69.845  1.00  0.00    -0.195 C  
HETATM   12  C   UNL     1     -10.152   6.864  71.967  1.00  0.00    -0.185 C  
ENDROOT
BRANCH   7  13
HETATM   13  O   UNL     1      -9.358  10.253  67.431  1.00  0.00    -0.144 OA 
BRANCH  13  14
HETATM   14  C   UNL     1      -9.623  11.606  67.321  1.00  0.00    -0.174 C  
HETATM   15  C   UNL     1     -11.170  11.870  67.375  1.00  0.00    -0.305 C  
HETATM   16  O   UNL     1      -8.740  12.445  67.188  1.00  0.00    -0.182 OA 
HETATM   17  O   UNL     1     -11.871  10.614  67.475  1.00  0.00    -0.548 OA 
HETATM   18  C   UNL     1     -11.472  12.716  68.625  1.00  0.00    -0.347 A  
HETATM   19  C   UNL     1     -11.591  12.466  66.022  1.00  0.00    -0.455 A  
HETATM   20  C   UNL     1     -11.318  11.744  64.838  1.00  0.00    -0.299 A  
HETATM   21  C   UNL     1     -10.814  13.946  68.833  1.00  0.00    -0.278 A  
HETATM   22  H   UNL     1     -12.807  10.774  67.508  1.00  0.00     0.000 HD 
HETATM   23  C   UNL     1     -11.081  14.736  69.953  1.00  0.00    -0.266 A  
HETATM   24  C   UNL     1     -11.538  12.305  63.578  1.00  0.00    -0.570 A  
HETATM   25  C   UNL     1     -12.005  14.303  70.898  1.00  0.00    -0.389 A  
HETATM   26  C   UNL     1     -12.055  13.591  63.473  1.00  0.00    -0.425 A  
HETATM   27  C   UNL     1     -12.658  13.087  70.723  1.00  0.00    -0.321 A  
HETATM   28  C   UNL     1     -12.393  14.296  64.624  1.00  0.00    -0.433 A  
HETATM   29  C   UNL     1     -12.180  13.733  65.886  1.00  0.00    -0.501 A  
HETATM   30  C   UNL     1     -12.401  12.302  69.596  1.00  0.00    -0.050 A  
ENDBRANCH  13  14
ENDBRANCH   7  13
TORSDOF 2
ENDMDL
MODEL       39
REMARK 921   NORMALIZED FREE ENERGY PREDICTED BY IDOCK:   -6.46 KCAL/MOL
REMARK 922        TOTAL FREE ENERGY PREDICTED BY IDOCK:   -7.75 KCAL/MOL
REMARK 923 INTER-LIGAND FREE ENERGY PREDICTED BY IDOCK:   -6.90 KCAL/MOL
REMARK 924 INTRA-LIGAND FREE ENERGY PREDICTED BY IDOCK:   -0.86 KCAL/MOL
REMARK 927      BINDING AFFINITY PREDICTED BY RF-SCORE:    0.00 PKD
ROOT
HETATM    1  C   UNL     1      -9.659  12.335  66.793  1.00  0.00    -0.218 C  
HETATM    2  C   UNL     1      -9.604  13.253  68.016  1.00  0.00    -0.220 C  
HETATM    3  C   UNL     1     -10.908  13.015  68.759  1.00  0.00    -0.277 C  
HETATM    4  C   UNL     1     -11.685  11.981  67.927  1.00  0.00    -0.323 C  
HETATM    5  N   UNL     1     -11.170  12.197  66.501  1.00  0.00    -0.311 N  
HETATM    6  C   UNL     1     -11.352  10.569  68.392  1.00  0.00    -0.328 C  
HETATM    7  C   UNL     1     -10.024  10.004  67.870  1.00  0.00    -0.154 C  
HETATM    8  C   UNL     1     -11.521  11.118  65.459  1.00  0.00     0.342 C  
HETATM    9  C   UNL     1     -11.374  11.849  64.147  1.00  0.00    -0.455 C  
HETATM   10  C   UNL     1     -12.166  13.098  64.428  1.00  0.00    -0.462 C  
HETATM   11  C   UNL     1      -9.064  10.969  67.156  1.00  0.00    -0.151 C  
HETATM   12  C   UNL     1     -11.783  13.485  65.855  1.00  0.00    -0.352 C  
ENDROOT
BRANCH   7  13
HETATM   13  O   UNL     1      -9.334   9.337  68.935  1.00  0.00    -0.147 OA 
BRANCH  13  14
HETATM   14  C   UNL     1      -9.984   8.204  69.388  1.00  0.00    -0.188 C  
HETATM   15  C   UNL     1     -10.144   8.248  70.950  1.00  0.00    -0.190 C  
HETATM   16  O   UNL     1     -10.354   7.308  68.638  1.00  0.00    -0.184 OA 
HETATM   17  O   UNL     1      -9.520   9.441  71.465  1.00  0.00    -0.259 OA 
HETATM   18  C   UNL     1     -11.647   8.284  71.280  1.00  0.00    -0.318 A  
HETATM   19  C   UNL     1      -9.338   7.079  71.536  1.00  0.00    -0.154 A  
HETATM   20  C   UNL     1      -7.958   6.982  71.247  1.00  0.00    -0.103 A  
HETATM   21  C   UNL     1     -12.513   7.288  70.783  1.00  0.00    -0.189 A  
HETATM   22  H   UNL     1      -9.617   9.468  72.410  1.00  0.00     0.000 HD 
HETATM   23  C   UNL     1     -13.877   7.292  71.080  1.00  0.00    -0.229 A  
HETATM   24  C   UNL     1      -7.213   5.862  71.625  1.00  0.00    -0.087 A  
HETATM   25  C   UNL     1     -14.407   8.306  71.871  1.00  0.00    -0.564 A  
HETATM   26  C   UNL     1      -7.825   4.825  72.318  1.00  0.00    -0.098 A  
HETATM   27  C   UNL     1     -13.577   9.308  72.363  1.00  0.00    -0.527 A  
HETATM   28  C   UNL     1      -9.167   4.927  72.671  1.00  0.00    -0.145 A  
HETATM   29  C   UNL     1      -9.912   6.050  72.301  1.00  0.00    -0.189 A  
HETATM   30  C   UNL     1     -12.209   9.296  72.077  1.00  0.00    -0.418 A  
ENDBRANCH  13  14
ENDBRANCH   7  13
TORSDOF 2
ENDMDL
MODEL       40
REMARK 921   NORMALIZED FREE ENERGY PREDICTED BY IDOCK:   -6.44 KCAL/MOL
REMARK 922        TOTAL FREE ENERGY PREDICTED BY IDOCK:   -7.73 KCAL/MOL
REMARK 923 INTER-LIGAND FREE ENERGY PREDICTED BY IDOCK:   -6.98 KCAL/MOL
REMARK 924 INTRA-LIGAND FREE ENERGY PREDICTED BY IDOCK:   -0.75 KCAL/MOL
REMARK 927      BINDING AFFINITY PREDICTED BY RF-SCORE:    0.00 PKD
ROOT
HETATM    1  C   UNL     1     -12.168  13.868  66.267  1.00  0.00    -0.461 C  
HETATM    2  C   UNL     1     -12.879  13.183  65.098  1.00  0.00    -0.367 C  
HETATM    3  C   UNL     1     -11.770  12.722  64.167  1.00  0.00    -0.465 C  
HETATM    4  C   UNL     1     -10.454  13.176  64.819  1.00  0.00    -0.372 C  
HETATM    5  N   UNL     1     -10.859  14.401  65.644  1.00  0.00    -0.304 N  
HETATM    6  C   UNL     1      -9.913  12.087  65.736  1.00  0.00    -0.266 C  
HETATM    7  C   UNL     1     -10.579  12.002  67.116  1.00  0.00    -0.224 C  
HETATM    8  C   UNL     1      -9.835  14.925  66.669  1.00  0.00    -0.260 C  
HETATM    9  C   UNL     1     -10.267  16.355  66.885  1.00  0.00    -0.290 C  
HETATM   10  C   UNL     1     -10.415  16.824  65.463  1.00  0.00    -0.254 C  
HETATM   11  C   UNL     1     -11.854  12.828  67.350  1.00  0.00    -0.404 C  
HETATM   12  C   UNL     1     -11.086  15.658  64.738  1.00  0.00    -0.412 C  
ENDROOT
BRANCH   7  13
HETATM   13  O   UNL     1     -10.826  10.630  67.448  1.00  0.00    -0.262 OA 
BRANCH  13  14
HETATM   14  C   UNL     1     -10.152  10.208  68.579  1.00  0.00    -0.169 C  
HETATM   15  C   UNL     1      -9.051   9.152  68.203  1.00  0.00    -0.132 C  
HETATM   16  O   UNL     1     -10.421  10.618  69.702  1.00  0.00    -0.228 OA 
HETATM   17  O   UNL     1      -9.096   8.893  66.785  1.00  0.00    -0.134 OA 
HETATM   18  C   UNL     1      -7.675   9.741  68.564  1.00  0.00    -0.081 A  
HETATM   19  C   UNL     1      -9.429   7.822  68.874  1.00  0.00    -0.150 A  
HETATM   20  C   UNL     1     -10.690   7.247  68.598  1.00  0.00    -0.172 A  
HETATM   21  C   UNL     1      -7.412  10.195  69.874  1.00  0.00    -0.176 A  
HETATM   22  H   UNL     1      -8.430   8.255  66.558  1.00  0.00     0.000 HD 
HETATM   23  C   UNL     1      -6.168  10.720  70.228  1.00  0.00    -0.146 A  
HETATM   24  C   UNL     1     -11.145   6.125  69.294  1.00  0.00    -0.463 A  
HETATM   25  C   UNL     1      -5.163  10.816  69.271  1.00  0.00    -0.041 A  
HETATM   26  C   UNL     1     -10.342   5.541  70.266  1.00  0.00    -0.349 A  
HETATM   27  C   UNL     1      -5.401  10.387  67.969  1.00  0.00    -0.033 A  
HETATM   28  C   UNL     1      -9.070   6.050  70.510  1.00  0.00    -0.157 A  
HETATM   29  C   UNL     1      -8.610   7.168  69.808  1.00  0.00    -0.141 A  
HETATM   30  C   UNL     1      -6.642   9.849  67.618  1.00  0.00    -0.068 A  
ENDBRANCH  13  14
ENDBRANCH   7  13
TORSDOF 2
ENDMDL
MODEL       41
REMARK 921   NORMALIZED FREE ENERGY PREDICTED BY IDOCK:   -6.43 KCAL/MOL
REMARK 922        TOTAL FREE ENERGY PREDICTED BY IDOCK:   -7.72 KCAL/MOL
REMARK 923 INTER-LIGAND FREE ENERGY PREDICTED BY IDOCK:   -7.20 KCAL/MOL
REMARK 924 INTRA-LIGAND FREE ENERGY PREDICTED BY IDOCK:   -0.52 KCAL/MOL
REMARK 927      BINDING AFFINITY PREDICTED BY RF-SCORE:    0.00 PKD
ROOT
HETATM    1  C   UNL     1      -8.036   6.909  68.451  1.00  0.00    -0.120 C  
HETATM    2  C   UNL     1      -7.035   6.979  67.295  1.00  0.00    -0.078 C  
HETATM    3  C   UNL     1      -7.846   6.689  66.043  1.00  0.00    -0.104 C  
HETATM    4  C   UNL     1      -9.286   6.438  66.520  1.00  0.00    -0.155 C  
HETATM    5  N   UNL     1      -9.112   5.921  67.950  1.00  0.00    -0.111 N  
HETATM    6  C   UNL     1     -10.074   7.742  66.530  1.00  0.00    -0.224 C  
HETATM    7  C   UNL     1      -9.822   8.650  67.740  1.00  0.00    -0.175 C  
HETATM    8  C   UNL     1     -10.376   5.857  68.830  1.00  0.00    -0.228 C  
HETATM    9  C   UNL     1     -10.003   4.851  69.892  1.00  0.00    -0.317 C  
HETATM   10  C   UNL     1      -9.458   3.733  69.044  1.00  0.00    -0.233 C  
HETATM   11  C   UNL     1      -8.653   8.295  68.674  1.00  0.00    -0.133 C  
HETATM   12  C   UNL     1      -8.626   4.432  67.971  1.00  0.00    -0.102 C  
ENDROOT
BRANCH   7  13
HETATM   13  O   UNL     1      -9.695  10.009  67.304  1.00  0.00    -0.158 OA 
BRANCH  13  14
HETATM   14  C   UNL     1     -10.776  10.801  67.645  1.00  0.00    -0.258 C  
HETATM   15  C   UNL     1     -10.417  11.730  68.859  1.00  0.00    -0.154 C  
HETATM   16  O   UNL     1     -11.851  10.740  67.060  1.00  0.00    -0.112 OA 
HETATM   17  O   UNL     1      -9.072  11.452  69.299  1.00  0.00    -0.389 OA 
HETATM   18  C   UNL     1     -10.500  13.193  68.388  1.00  0.00    -0.261 A  
HETATM   19  C   UNL     1     -11.322  11.333  70.036  1.00  0.00    -0.292 A  
HETATM   20  C   UNL     1     -11.304   9.997  70.497  1.00  0.00    -0.409 A  
HETATM   21  C   UNL     1     -11.681  13.688  67.796  1.00  0.00    -0.397 A  
HETATM   22  H   UNL     1      -8.855  12.014  70.033  1.00  0.00     0.000 HD 
HETATM   23  C   UNL     1     -11.784  15.015  67.373  1.00  0.00    -0.255 A  
HETATM   24  C   UNL     1     -12.214   9.547  71.457  1.00  0.00    -0.468 A  
HETATM   25  C   UNL     1     -10.699  15.872  67.521  1.00  0.00    -0.318 A  
HETATM   26  C   UNL     1     -13.146  10.427  71.993  1.00  0.00    -0.521 A  
HETATM   27  C   UNL     1      -9.518  15.405  68.089  1.00  0.00    -0.202 A  
HETATM   28  C   UNL     1     -13.140  11.763  71.604  1.00  0.00    -0.443 A  
HETATM   29  C   UNL     1     -12.225  12.216  70.649  1.00  0.00    -0.392 A  
HETATM   30  C   UNL     1      -9.419  14.081  68.525  1.00  0.00    -0.191 A  
ENDBRANCH  13  14
ENDBRANCH   7  13
TORSDOF 2
ENDMDL
MODEL       42
REMARK 921   NORMALIZED FREE ENERGY PREDICTED BY IDOCK:   -6.43 KCAL/MOL
REMARK 922        TOTAL FREE ENERGY PREDICTED BY IDOCK:   -7.71 KCAL/MOL
REMARK 923 INTER-LIGAND FREE ENERGY PREDICTED BY IDOCK:   -7.26 KCAL/MOL
REMARK 924 INTRA-LIGAND FREE ENERGY PREDICTED BY IDOCK:   -0.45 KCAL/MOL
REMARK 927      BINDING AFFINITY PREDICTED BY RF-SCORE:    0.00 PKD
ROOT
HETATM    1  C   UNL     1     -11.937  13.443  66.079  1.00  0.00    -0.415 C  
HETATM    2  C   UNL     1     -12.867  13.132  64.905  1.00  0.00    -0.349 C  
HETATM    3  C   UNL     1     -11.956  12.991  63.696  1.00  0.00    -0.608 C  
HETATM    4  C   UNL     1     -10.530  13.248  64.209  1.00  0.00    -0.352 C  
HETATM    5  N   UNL     1     -10.737  14.160  65.422  1.00  0.00    -0.322 N  
HETATM    6  C   UNL     1      -9.880  11.941  64.646  1.00  0.00    -0.207 C  
HETATM    7  C   UNL     1     -10.298  11.434  66.032  1.00  0.00    -0.249 C  
HETATM    8  C   UNL     1      -9.529  14.367  66.357  1.00  0.00    -0.285 C  
HETATM    9  C   UNL     1      -9.862  15.657  67.065  1.00  0.00    -0.237 C  
HETATM   10  C   UNL     1     -10.237  16.532  65.899  1.00  0.00    -0.368 C  
HETATM   11  C   UNL     1     -11.479  12.130  66.727  1.00  0.00    -0.418 C  
HETATM   12  C   UNL     1     -11.069  15.628  64.990  1.00  0.00    -0.389 C  
ENDROOT
BRANCH   7  13
HETATM   13  O   UNL     1     -10.536  10.021  65.976  1.00  0.00    -0.186 OA 
BRANCH  13  14
HETATM   14  C   UNL     1      -9.400   9.263  66.188  1.00  0.00    -0.212 C  
HETATM   15  C   UNL     1      -9.659   8.179  67.295  1.00  0.00    -0.163 C  
HETATM   16  O   UNL     1      -8.352   9.456  65.581  1.00  0.00    -0.116 OA 
HETATM   17  O   UNL     1     -10.999   8.323  67.806  1.00  0.00    -0.494 OA 
HETATM   18  C   UNL     1      -9.511   6.788  66.653  1.00  0.00    -0.205 A  
HETATM   19  C   UNL     1      -8.733   8.492  68.482  1.00  0.00    -0.139 A  
HETATM   20  C   UNL     1      -8.808   9.763  69.096  1.00  0.00    -0.160 A  
HETATM   21  C   UNL     1      -8.328   6.437  65.970  1.00  0.00    -0.132 A  
HETATM   22  H   UNL     1     -11.156   7.668  68.476  1.00  0.00     0.000 HD 
HETATM   23  C   UNL     1      -8.166   5.177  65.392  1.00  0.00    -0.124 A  
HETATM   24  C   UNL     1      -7.890  10.153  70.073  1.00  0.00    -0.131 A  
HETATM   25  C   UNL     1      -9.195   4.245  65.471  1.00  0.00    -0.150 A  
HETATM   26  C   UNL     1      -6.889   9.275  70.473  1.00  0.00    -0.087 A  
HETATM   27  C   UNL     1     -10.377   4.571  66.128  1.00  0.00    -0.258 A  
HETATM   28  C   UNL     1      -6.834   7.995  69.930  1.00  0.00    -0.041 A  
HETATM   29  C   UNL     1      -7.758   7.600  68.957  1.00  0.00    -0.117 A  
HETATM   30  C   UNL     1     -10.534   5.827  66.719  1.00  0.00    -0.350 A  
ENDBRANCH  13  14
ENDBRANCH   7  13
TORSDOF 2
ENDMDL
MODEL       43
REMARK 921   NORMALIZED FREE ENERGY PREDICTED BY IDOCK:   -6.42 KCAL/MOL
REMARK 922        TOTAL FREE ENERGY PREDICTED BY IDOCK:   -7.70 KCAL/MOL
REMARK 923 INTER-LIGAND FREE ENERGY PREDICTED BY IDOCK:   -6.83 KCAL/MOL
REMARK 924 INTRA-LIGAND FREE ENERGY PREDICTED BY IDOCK:   -0.87 KCAL/MOL
REMARK 927      BINDING AFFINITY PREDICTED BY RF-SCORE:    0.00 PKD
ROOT
HETATM    1  C   UNL     1      -7.805   9.490  67.306  1.00  0.00    -0.098 C  
HETATM    2  C   UNL     1      -7.299  10.353  68.464  1.00  0.00    -0.086 C  
HETATM    3  C   UNL     1      -8.550  10.876  69.153  1.00  0.00    -0.060 C  
HETATM    4  C   UNL     1      -9.738  10.314  68.355  1.00  0.00    -0.156 C  
HETATM    5  N   UNL     1      -9.170  10.115  66.946  1.00  0.00    -0.145 N  
HETATM    6  C   UNL     1     -10.177   8.974  68.932  1.00  0.00    -0.223 C  
HETATM    7  C   UNL     1      -9.320   7.771  68.521  1.00  0.00    -0.147 C  
HETATM    8  C   UNL     1     -10.013   9.280  65.963  1.00  0.00    -0.255 C  
HETATM    9  C   UNL     1      -9.501   9.719  64.614  1.00  0.00    -0.295 C  
HETATM   10  C   UNL     1      -9.547  11.216  64.767  1.00  0.00    -0.279 C  
HETATM   11  C   UNL     1      -7.994   8.048  67.793  1.00  0.00    -0.127 C  
HETATM   12  C   UNL     1      -9.033  11.475  66.182  1.00  0.00    -0.197 C  
ENDROOT
BRANCH   7  13
HETATM   13  O   UNL     1      -9.078   6.939  69.663  1.00  0.00    -0.143 OA 
BRANCH  13  14
HETATM   14  C   UNL     1     -10.205   6.275  70.110  1.00  0.00    -0.189 C  
HETATM   15  C   UNL     1     -10.446   6.562  71.635  1.00  0.00    -0.213 C  
HETATM   16  O   UNL     1     -10.884   5.561  69.381  1.00  0.00    -0.298 OA 
HETATM   17  O   UNL     1      -9.388   7.400  72.141  1.00  0.00    -0.135 OA 
HETATM   18  C   UNL     1     -11.788   7.302  71.781  1.00  0.00    -0.330 A  
HETATM   19  C   UNL     1     -10.308   5.230  72.389  1.00  0.00    -0.259 A  
HETATM   20  C   UNL     1      -9.107   4.495  72.273  1.00  0.00    -0.149 A  
HETATM   21  C   UNL     1     -12.972   6.748  71.251  1.00  0.00    -0.216 A  
HETATM   22  H   UNL     1      -9.534   7.574  73.063  1.00  0.00     0.000 HD 
HETATM   23  C   UNL     1     -14.203   7.394  71.383  1.00  0.00    -0.508 A  
HETATM   24  C   UNL     1      -8.985   3.212  72.810  1.00  0.00    -0.107 A  
HETATM   25  C   UNL     1     -14.271   8.620  72.036  1.00  0.00    -0.524 A  
HETATM   26  C   UNL     1     -10.054   2.642  73.492  1.00  0.00    -0.181 A  
HETATM   27  C   UNL     1     -13.115   9.194  72.556  1.00  0.00    -0.445 A  
HETATM   28  C   UNL     1     -11.225   3.372  73.676  1.00  0.00    -0.278 A  
HETATM   29  C   UNL     1     -11.345   4.660  73.146  1.00  0.00    -0.355 A  
HETATM   30  C   UNL     1     -11.886   8.541  72.437  1.00  0.00    -0.437 A  
ENDBRANCH  13  14
ENDBRANCH   7  13
TORSDOF 2
ENDMDL
MODEL       44
REMARK 921   NORMALIZED FREE ENERGY PREDICTED BY IDOCK:   -6.37 KCAL/MOL
REMARK 922        TOTAL FREE ENERGY PREDICTED BY IDOCK:   -7.65 KCAL/MOL
REMARK 923 INTER-LIGAND FREE ENERGY PREDICTED BY IDOCK:   -6.98 KCAL/MOL
REMARK 924 INTRA-LIGAND FREE ENERGY PREDICTED BY IDOCK:   -0.67 KCAL/MOL
REMARK 927      BINDING AFFINITY PREDICTED BY RF-SCORE:    0.00 PKD
ROOT
HETATM    1  C   UNL     1     -11.201   6.734  70.587  1.00  0.00    -0.312 C  
HETATM    2  C   UNL     1     -12.511   7.130  71.271  1.00  0.00    -0.425 C  
HETATM    3  C   UNL     1     -12.148   8.270  72.208  1.00  0.00    -0.439 C  
HETATM    4  C   UNL     1     -10.633   8.481  72.050  1.00  0.00    -0.338 C  
HETATM    5  N   UNL     1     -10.116   7.105  71.621  1.00  0.00    -0.185 N  
HETATM    6  C   UNL     1     -10.353   9.506  70.958  1.00  0.00    -0.353 C  
HETATM    7  C   UNL     1     -10.438   8.973  69.522  1.00  0.00    -0.219 C  
HETATM    8  C   UNL     1      -8.674   7.036  71.082  1.00  0.00    -0.137 C  
HETATM    9  C   UNL     1      -8.305   5.586  71.274  1.00  0.00    -0.126 C  
HETATM   10  C   UNL     1      -8.726   5.373  72.704  1.00  0.00    -0.123 C  
HETATM   11  C   UNL     1     -11.024   7.567  69.311  1.00  0.00    -0.057 C  
HETATM   12  C   UNL     1     -10.061   6.108  72.827  1.00  0.00    -0.180 C  
ENDROOT
BRANCH   7  13
HETATM   13  O   UNL     1     -11.138   9.915  68.699  1.00  0.00    -0.209 OA 
BRANCH  13  14
HETATM   14  C   UNL     1     -10.434  10.292  67.571  1.00  0.00    -0.244 C  
HETATM   15  C   UNL     1      -9.897  11.760  67.721  1.00  0.00    -0.181 C  
HETATM   16  O   UNL     1     -10.286   9.552  66.605  1.00  0.00    -0.243 OA 
HETATM   17  O   UNL     1     -10.339  12.309  68.979  1.00  0.00    -0.405 OA 
HETATM   18  C   UNL     1      -8.359  11.716  67.704  1.00  0.00    -0.142 A  
HETATM   19  C   UNL     1     -10.574  12.618  66.640  1.00  0.00    -0.267 A  
HETATM   20  C   UNL     1     -11.985  12.678  66.593  1.00  0.00    -0.382 A  
HETATM   21  C   UNL     1      -7.672  11.110  66.631  1.00  0.00    -0.155 A  
HETATM   22  H   UNL     1     -10.015  13.197  69.070  1.00  0.00     0.000 HD 
HETATM   23  C   UNL     1      -6.277  11.070  66.587  1.00  0.00    -0.124 A  
HETATM   24  C   UNL     1     -12.651  13.315  65.544  1.00  0.00    -0.505 A  
HETATM   25  C   UNL     1      -5.539  11.623  67.628  1.00  0.00    -0.060 A  
HETATM   26  C   UNL     1     -11.922  13.925  64.530  1.00  0.00    -0.464 A  
HETATM   27  C   UNL     1      -6.192  12.215  68.704  1.00  0.00    -0.059 A  
HETATM   28  C   UNL     1     -10.531  13.936  64.588  1.00  0.00    -0.419 A  
HETATM   29  C   UNL     1      -9.864  13.305  65.643  1.00  0.00    -0.177 A  
HETATM   30  C   UNL     1      -7.588  12.268  68.742  1.00  0.00    -0.044 A  
ENDBRANCH  13  14
ENDBRANCH   7  13
TORSDOF 2
ENDMDL
MODEL       45
REMARK 921   NORMALIZED FREE ENERGY PREDICTED BY IDOCK:   -6.37 KCAL/MOL
REMARK 922        TOTAL FREE ENERGY PREDICTED BY IDOCK:   -7.65 KCAL/MOL
REMARK 923 INTER-LIGAND FREE ENERGY PREDICTED BY IDOCK:   -6.80 KCAL/MOL
REMARK 924 INTRA-LIGAND FREE ENERGY PREDICTED BY IDOCK:   -0.84 KCAL/MOL
REMARK 927      BINDING AFFINITY PREDICTED BY RF-SCORE:    0.00 PKD
ROOT
HETATM    1  C   UNL     1      -9.427  11.937  66.015  1.00  0.00    -0.229 C  
HETATM    2  C   UNL     1      -8.209  12.162  66.914  1.00  0.00    -0.134 C  
HETATM    3  C   UNL     1      -8.720  11.991  68.335  1.00  0.00    -0.147 C  
HETATM    4  C   UNL     1     -10.223  11.694  68.211  1.00  0.00    -0.199 C  
HETATM    5  N   UNL     1     -10.621  12.367  66.894  1.00  0.00    -0.227 N  
HETATM    6  C   UNL     1     -10.460  10.192  68.119  1.00  0.00    -0.243 C  
HETATM    7  C   UNL     1     -10.215   9.573  66.737  1.00  0.00    -0.243 C  
HETATM    8  C   UNL     1     -12.002  12.007  66.313  1.00  0.00    -0.015 C  
HETATM    9  C   UNL     1     -12.304  13.171  65.402  1.00  0.00    -0.532 C  
HETATM   10  C   UNL     1     -12.004  14.331  66.314  1.00  0.00    -0.428 C  
HETATM   11  C   UNL     1      -9.534  10.446  65.670  1.00  0.00    -0.262 C  
HETATM   12  C   UNL     1     -10.730  13.922  67.052  1.00  0.00    -0.283 C  
ENDROOT
BRANCH   7  13
HETATM   13  O   UNL     1      -9.497   8.341  66.881  1.00  0.00    -0.161 OA 
BRANCH  13  14
HETATM   14  C   UNL     1     -10.220   7.355  67.526  1.00  0.00    -0.224 C  
HETATM   15  C   UNL     1      -9.449   6.850  68.798  1.00  0.00    -0.135 C  
HETATM   16  O   UNL     1     -11.303   6.953  67.116  1.00  0.00    -0.290 OA 
HETATM   17  O   UNL     1      -8.183   7.531  68.897  1.00  0.00    -0.125 OA 
HETATM   18  C   UNL     1     -10.298   7.181  70.039  1.00  0.00    -0.219 A  
HETATM   19  C   UNL     1      -9.101   5.369  68.577  1.00  0.00    -0.121 A  
HETATM   20  C   UNL     1      -8.344   5.003  67.441  1.00  0.00    -0.106 A  
HETATM   21  C   UNL     1     -11.633   6.735  70.134  1.00  0.00    -0.397 A  
HETATM   22  H   UNL     1      -7.717   7.225  69.667  1.00  0.00     0.000 HD 
HETATM   23  C   UNL     1     -12.417   7.012  71.255  1.00  0.00    -0.430 A  
HETATM   24  C   UNL     1      -8.131   3.663  67.111  1.00  0.00    -0.091 A  
HETATM   25  C   UNL     1     -11.884   7.757  72.302  1.00  0.00    -0.378 A  
HETATM   26  C   UNL     1      -8.652   2.659  67.919  1.00  0.00    -0.117 A  
HETATM   27  C   UNL     1     -10.574   8.220  72.227  1.00  0.00    -0.393 A  
HETATM   28  C   UNL     1      -9.345   2.995  69.079  1.00  0.00    -0.226 A  
HETATM   29  C   UNL     1      -9.552   4.336  69.414  1.00  0.00    -0.267 A  
HETATM   30  C   UNL     1      -9.785   7.931  71.111  1.00  0.00    -0.182 A  
ENDBRANCH  13  14
ENDBRANCH   7  13
TORSDOF 2
ENDMDL
MODEL       46
REMARK 921   NORMALIZED FREE ENERGY PREDICTED BY IDOCK:   -6.35 KCAL/MOL
REMARK 922        TOTAL FREE ENERGY PREDICTED BY IDOCK:   -7.63 KCAL/MOL
REMARK 923 INTER-LIGAND FREE ENERGY PREDICTED BY IDOCK:   -7.18 KCAL/MOL
REMARK 924 INTRA-LIGAND FREE ENERGY PREDICTED BY IDOCK:   -0.45 KCAL/MOL
REMARK 927      BINDING AFFINITY PREDICTED BY RF-SCORE:    0.00 PKD
ROOT
HETATM    1  C   UNL     1      -9.752  12.141  68.230  1.00  0.00    -0.216 C  
HETATM    2  C   UNL     1      -9.022  12.368  66.905  1.00  0.00    -0.212 C  
HETATM    3  C   UNL     1     -10.080  12.192  65.828  1.00  0.00    -0.272 C  
HETATM    4  C   UNL     1     -11.383  11.846  66.567  1.00  0.00    -0.341 C  
HETATM    5  N   UNL     1     -10.903  11.181  67.860  1.00  0.00    -0.217 N  
HETATM    6  C   UNL     1     -12.160  13.115  66.891  1.00  0.00    -0.377 C  
HETATM    7  C   UNL     1     -11.661  13.894  68.116  1.00  0.00    -0.353 C  
HETATM    8  C   UNL     1     -11.950  10.982  68.974  1.00  0.00    -0.293 C  
HETATM    9  C   UNL     1     -11.351   9.879  69.812  1.00  0.00    -0.241 C  
HETATM   10  C   UNL     1     -10.992   8.877  68.747  1.00  0.00     0.057 C  
HETATM   11  C   UNL     1     -10.317  13.476  68.734  1.00  0.00    -0.169 C  
HETATM   12  C   UNL     1     -10.414   9.715  67.608  1.00  0.00    -0.261 C  
ENDROOT
BRANCH   7  13
HETATM   13  O   UNL     1     -11.640  15.296  67.819  1.00  0.00    -0.335 OA 
BRANCH  13  14
HETATM   14  C   UNL     1     -10.492  15.703  67.167  1.00  0.00    -0.303 C  
HETATM   15  C   UNL     1      -9.622  16.619  68.101  1.00  0.00    -0.228 C  
HETATM   16  O   UNL     1     -10.237  15.381  66.012  1.00  0.00    -0.284 OA 
HETATM   17  O   UNL     1     -10.301  16.808  69.358  1.00  0.00    -0.302 OA 
HETATM   18  C   UNL     1      -8.279  15.911  68.355  1.00  0.00    -0.161 A  
HETATM   19  C   UNL     1      -9.554  18.013  67.458  1.00  0.00    -0.273 A  
HETATM   20  C   UNL     1     -10.757  18.701  67.179  1.00  0.00    -0.433 A  
HETATM   21  C   UNL     1      -7.470  15.499  67.275  1.00  0.00    -0.258 A  
HETATM   22  H   UNL     1      -9.775  17.362  69.923  1.00  0.00     0.000 HD 
HETATM   23  C   UNL     1      -6.243  14.867  67.482  1.00  0.00    -0.036 A  
HETATM   24  C   UNL     1     -10.760  19.898  66.460  1.00  0.00    -0.447 A  
HETATM   25  C   UNL     1      -5.805  14.619  68.779  1.00  0.00    -0.085 A  
HETATM   26  C   UNL     1      -9.560  20.445  66.021  1.00  0.00    -0.226 A  
HETATM   27  C   UNL     1      -6.590  15.003  69.861  1.00  0.00    -0.170 A  
HETATM   28  C   UNL     1      -8.357  19.820  66.339  1.00  0.00    -0.378 A  
HETATM   29  C   UNL     1      -8.353  18.626  67.067  1.00  0.00    -0.274 A  
HETATM   30  C   UNL     1      -7.812  15.648  69.655  1.00  0.00    -0.089 A  
ENDBRANCH  13  14
ENDBRANCH   7  13
TORSDOF 2
ENDMDL
MODEL       47
REMARK 921   NORMALIZED FREE ENERGY PREDICTED BY IDOCK:   -6.30 KCAL/MOL
REMARK 922        TOTAL FREE ENERGY PREDICTED BY IDOCK:   -7.57 KCAL/MOL
REMARK 923 INTER-LIGAND FREE ENERGY PREDICTED BY IDOCK:   -7.18 KCAL/MOL
REMARK 924 INTRA-LIGAND FREE ENERGY PREDICTED BY IDOCK:   -0.39 KCAL/MOL
REMARK 927      BINDING AFFINITY PREDICTED BY RF-SCORE:    0.00 PKD
ROOT
HETATM    1  C   UNL     1     -11.016   8.302  70.285  1.00  0.00    -0.232 C  
HETATM    2  C   UNL     1     -10.717   8.659  71.743  1.00  0.00    -0.392 C  
HETATM    3  C   UNL     1      -9.203   8.766  71.828  1.00  0.00    -0.332 C  
HETATM    4  C   UNL     1      -8.677   8.445  70.420  1.00  0.00    -0.141 C  
HETATM    5  N   UNL     1      -9.756   7.538  69.824  1.00  0.00    -0.170 N  
HETATM    6  C   UNL     1      -8.556   9.721  69.597  1.00  0.00    -0.201 C  
HETATM    7  C   UNL     1      -9.870  10.240  68.997  1.00  0.00    -0.207 C  
HETATM    8  C   UNL     1      -9.691   7.275  68.307  1.00  0.00    -0.147 C  
HETATM    9  C   UNL     1     -10.477   5.997  68.146  1.00  0.00    -0.292 C  
HETATM   10  C   UNL     1      -9.854   5.144  69.219  1.00  0.00    -0.260 C  
HETATM   11  C   UNL     1     -11.181   9.592  69.471  1.00  0.00    -0.105 C  
HETATM   12  C   UNL     1      -9.679   6.087  70.409  1.00  0.00    -0.169 C  
ENDROOT
BRANCH   7  13
HETATM   13  O   UNL     1      -9.947  11.661  69.164  1.00  0.00    -0.052 OA 
BRANCH  13  14
HETATM   14  C   UNL     1      -9.416  12.370  68.103  1.00  0.00    -0.214 C  
HETATM   15  C   UNL     1      -9.818  13.886  68.196  1.00  0.00    -0.240 C  
HETATM   16  O   UNL     1      -8.742  11.842  67.225  1.00  0.00    -0.158 OA 
HETATM   17  O   UNL     1     -10.669  14.089  69.342  1.00  0.00    -0.404 OA 
HETATM   18  C   UNL     1      -8.533  14.716  68.368  1.00  0.00    -0.160 A  
HETATM   19  C   UNL     1     -10.691  14.214  66.974  1.00  0.00    -0.285 A  
HETATM   20  C   UNL     1     -11.871  13.469  66.752  1.00  0.00    -0.450 A  
HETATM   21  C   UNL     1      -7.477  14.602  67.440  1.00  0.00    -0.212 A  
HETATM   22  H   UNL     1     -10.911  15.006  69.398  1.00  0.00     0.000 HD 
HETATM   23  C   UNL     1      -6.308  15.355  67.569  1.00  0.00    -0.148 A  
HETATM   24  C   UNL     1     -12.617  13.621  65.581  1.00  0.00    -0.531 A  
HETATM   25  C   UNL     1      -6.165  16.227  68.642  1.00  0.00    -0.122 A  
HETATM   26  C   UNL     1     -12.213  14.536  64.616  1.00  0.00    -0.474 A  
HETATM   27  C   UNL     1      -7.186  16.348  69.579  1.00  0.00    -0.082 A  
HETATM   28  C   UNL     1     -11.091  15.328  64.842  1.00  0.00    -0.435 A  
HETATM   29  C   UNL     1     -10.348  15.182  66.017  1.00  0.00    -0.326 A  
HETATM   30  C   UNL     1      -8.362  15.605  69.443  1.00  0.00    -0.238 A  
ENDBRANCH  13  14
ENDBRANCH   7  13
TORSDOF 2
ENDMDL
MODEL       48
REMARK 921   NORMALIZED FREE ENERGY PREDICTED BY IDOCK:   -6.23 KCAL/MOL
REMARK 922        TOTAL FREE ENERGY PREDICTED BY IDOCK:   -7.49 KCAL/MOL
REMARK 923 INTER-LIGAND FREE ENERGY PREDICTED BY IDOCK:   -7.24 KCAL/MOL
REMARK 924 INTRA-LIGAND FREE ENERGY PREDICTED BY IDOCK:   -0.25 KCAL/MOL
REMARK 927      BINDING AFFINITY PREDICTED BY RF-SCORE:    0.00 PKD
ROOT
HETATM    1  C   UNL     1      -8.145  18.140  68.615  1.00  0.00    -0.288 C  
HETATM    2  C   UNL     1      -9.082  18.722  67.553  1.00  0.00    -0.296 C  
HETATM    3  C   UNL     1      -8.207  18.968  66.335  1.00  0.00    -0.314 C  
HETATM    4  C   UNL     1      -6.787  18.541  66.742  1.00  0.00    -0.191 C  
HETATM    5  N   UNL     1      -6.767  18.739  68.260  1.00  0.00    -0.227 N  
HETATM    6  C   UNL     1      -6.559  17.073  66.405  1.00  0.00    -0.201 C  
HETATM    7  C   UNL     1      -7.156  16.072  67.403  1.00  0.00    -0.189 C  
HETATM    8  C   UNL     1      -5.586  18.118  69.031  1.00  0.00    -0.194 C  
HETATM    9  C   UNL     1      -5.558  18.913  70.313  1.00  0.00    -0.249 C  
HETATM   10  C   UNL     1      -5.622  20.318  69.776  1.00  0.00    -0.345 C  
HETATM   11  C   UNL     1      -8.111  16.613  68.480  1.00  0.00    -0.226 C  
HETATM   12  C   UNL     1      -6.645  20.252  68.643  1.00  0.00    -0.280 C  
ENDROOT
BRANCH   7  13
HETATM   13  O   UNL     1      -7.789  15.001  66.691  1.00  0.00    -0.012 OA 
BRANCH  13  14
HETATM   14  C   UNL     1      -9.155  15.164  66.553  1.00  0.00    -0.294 C  
HETATM   15  C   UNL     1      -9.920  13.928  67.148  1.00  0.00    -0.239 C  
HETATM   16  O   UNL     1      -9.653  16.148  66.020  1.00  0.00    -0.305 OA 
HETATM   17  O   UNL     1      -8.968  12.955  67.624  1.00  0.00    -0.172 OA 
HETATM   18  C   UNL     1     -10.778  14.414  68.330  1.00  0.00    -0.246 A  
HETATM   19  C   UNL     1     -10.665  13.239  65.993  1.00  0.00    -0.286 A  
HETATM   20  C   UNL     1      -9.932  12.793  64.871  1.00  0.00    -0.159 A  
HETATM   21  C   UNL     1     -11.709  15.459  68.156  1.00  0.00    -0.276 A  
HETATM   22  H   UNL     1      -9.431  12.208  67.984  1.00  0.00     0.000 HD 
HETATM   23  C   UNL     1     -12.507  15.908  69.210  1.00  0.00     0.263 A  
HETATM   24  C   UNL     1     -10.574  12.302  63.732  1.00  0.00    -0.488 A  
HETATM   25  C   UNL     1     -12.377  15.329  70.468  1.00  0.00    -0.434 A  
HETATM   26  C   UNL     1     -11.961  12.226  63.697  1.00  0.00    -0.633 A  
HETATM   27  C   UNL     1     -11.457  14.305  70.669  1.00  0.00    -0.125 A  
HETATM   28  C   UNL     1     -12.702  12.598  64.815  1.00  0.00    -0.460 A  
HETATM   29  C   UNL     1     -12.060  13.083  65.958  1.00  0.00    -0.493 A  
HETATM   30  C   UNL     1     -10.668  13.846  69.611  1.00  0.00     0.123 A  
ENDBRANCH  13  14
ENDBRANCH   7  13
TORSDOF 2
ENDMDL
MODEL       49
REMARK 921   NORMALIZED FREE ENERGY PREDICTED BY IDOCK:   -6.22 KCAL/MOL
REMARK 922        TOTAL FREE ENERGY PREDICTED BY IDOCK:   -7.48 KCAL/MOL
REMARK 923 INTER-LIGAND FREE ENERGY PREDICTED BY IDOCK:   -6.93 KCAL/MOL
REMARK 924 INTRA-LIGAND FREE ENERGY PREDICTED BY IDOCK:   -0.54 KCAL/MOL
REMARK 927      BINDING AFFINITY PREDICTED BY RF-SCORE:    0.00 PKD
ROOT
HETATM    1  C   UNL     1      -9.959   6.319  71.212  1.00  0.00    -0.180 C  
HETATM    2  C   UNL     1     -11.178   6.210  70.294  1.00  0.00    -0.439 C  
HETATM    3  C   UNL     1     -12.271   7.015  70.978  1.00  0.00    -0.419 C  
HETATM    4  C   UNL     1     -11.652   7.544  72.283  1.00  0.00    -0.310 C  
HETATM    5  N   UNL     1     -10.569   6.514  72.617  1.00  0.00    -0.212 N  
HETATM    6  C   UNL     1     -11.017   8.909  72.052  1.00  0.00    -0.412 C  
HETATM    7  C   UNL     1      -9.632   8.885  71.394  1.00  0.00    -0.289 C  
HETATM    8  C   UNL     1      -9.550   6.898  73.706  1.00  0.00    -0.225 C  
HETATM    9  C   UNL     1      -9.019   5.563  74.166  1.00  0.00    -0.118 C  
HETATM   10  C   UNL     1     -10.303   4.807  74.384  1.00  0.00    -0.324 C  
HETATM   11  C   UNL     1      -9.133   7.550  70.818  1.00  0.00    -0.154 C  
HETATM   12  C   UNL     1     -11.186   5.197  73.199  1.00  0.00    -0.330 C  
ENDROOT
BRANCH   7  13
HETATM   13  O   UNL     1      -9.559   9.902  70.387  1.00  0.00    -0.218 OA 
BRANCH  13  14
HETATM   14  C   UNL     1     -10.305   9.615  69.259  1.00  0.00    -0.209 C  
HETATM   15  C   UNL     1      -9.371   9.444  68.009  1.00  0.00    -0.129 C  
HETATM   16  O   UNL     1     -11.528   9.528  69.279  1.00  0.00     0.008 OA 
HETATM   17  O   UNL     1      -8.002   9.687  68.393  1.00  0.00    -0.095 OA 
HETATM   18  C   UNL     1      -9.503   7.997  67.501  1.00  0.00    -0.177 A  
HETATM   19  C   UNL     1      -9.718  10.559  67.009  1.00  0.00    -0.212 A  
HETATM   20  C   UNL     1      -9.638  11.907  67.428  1.00  0.00    -0.176 A  
HETATM   21  C   UNL     1     -10.768   7.466  67.173  1.00  0.00    -0.400 A  
HETATM   22  H   UNL     1      -7.437   9.584  67.636  1.00  0.00     0.000 HD 
HETATM   23  C   UNL     1     -10.911   6.161  66.698  1.00  0.00    -0.279 A  
HETATM   24  C   UNL     1     -10.088  12.949  66.613  1.00  0.00    -0.247 A  
HETATM   25  C   UNL     1      -9.788   5.353  66.556  1.00  0.00    -0.195 A  
HETATM   26  C   UNL     1     -10.609  12.669  65.355  1.00  0.00    -0.307 A  
HETATM   27  C   UNL     1      -8.530   5.848  66.885  1.00  0.00    -0.108 A  
HETATM   28  C   UNL     1     -10.638  11.356  64.895  1.00  0.00    -0.368 A  
HETATM   29  C   UNL     1     -10.180  10.313  65.707  1.00  0.00    -0.289 A  
HETATM   30  C   UNL     1      -8.385   7.159  67.347  1.00  0.00    -0.119 A  
ENDBRANCH  13  14
ENDBRANCH   7  13
TORSDOF 2
ENDMDL
MODEL       50
REMARK 921   NORMALIZED FREE ENERGY PREDICTED BY IDOCK:   -6.20 KCAL/MOL
REMARK 922        TOTAL FREE ENERGY PREDICTED BY IDOCK:   -7.46 KCAL/MOL
REMARK 923 INTER-LIGAND FREE ENERGY PREDICTED BY IDOCK:   -7.22 KCAL/MOL
REMARK 924 INTRA-LIGAND FREE ENERGY PREDICTED BY IDOCK:   -0.24 KCAL/MOL
REMARK 927      BINDING AFFINITY PREDICTED BY RF-SCORE:    0.00 PKD
ROOT
HETATM    1  C   UNL     1     -12.085  13.408  66.006  1.00  0.00    -0.438 C  
HETATM    2  C   UNL     1     -12.876  12.934  64.785  1.00  0.00    -0.359 C  
HETATM    3  C   UNL     1     -11.831  12.603  63.732  1.00  0.00    -0.574 C  
HETATM    4  C   UNL     1     -10.470  12.919  64.373  1.00  0.00    -0.396 C  
HETATM    5  N   UNL     1     -10.795  14.005  65.403  1.00  0.00    -0.313 N  
HETATM    6  C   UNL     1      -9.916  11.686  65.075  1.00  0.00    -0.297 C  
HETATM    7  C   UNL     1     -10.511  11.397  66.459  1.00  0.00    -0.249 C  
HETATM    8  C   UNL     1      -9.703  14.337  66.438  1.00  0.00    -0.299 C  
HETATM    9  C   UNL     1     -10.080  15.723  66.901  1.00  0.00    -0.267 C  
HETATM   10  C   UNL     1     -10.287  16.417  65.581  1.00  0.00    -0.371 C  
HETATM   11  C   UNL     1     -11.747  12.203  66.892  1.00  0.00    -0.374 C  
HETATM   12  C   UNL     1     -11.030  15.395  64.721  1.00  0.00    -0.393 C  
ENDROOT
BRANCH   7  13
HETATM   13  O   UNL     1     -10.781   9.995  66.584  1.00  0.00    -0.157 OA 
BRANCH  13  14
HETATM   14  C   UNL     1      -9.702   9.265  67.045  1.00  0.00    -0.185 C  
HETATM   15  C   UNL     1      -9.725   9.178  68.613  1.00  0.00    -0.155 C  
HETATM   16  O   UNL     1      -8.860   8.784  66.295  1.00  0.00    -0.139 OA 
HETATM   17  O   UNL     1     -10.845   9.929  69.121  1.00  0.00    -0.218 OA 
HETATM   18  C   UNL     1      -9.887   7.700  69.011  1.00  0.00    -0.168 A  
HETATM   19  C   UNL     1      -8.475   9.899  69.140  1.00  0.00    -0.148 A  
HETATM   20  C   UNL     1      -8.261  11.251  68.787  1.00  0.00    -0.122 A  
HETATM   21  C   UNL     1      -8.984   6.726  68.535  1.00  0.00    -0.121 A  
HETATM   22  H   UNL     1     -10.859   9.876  70.070  1.00  0.00     0.000 HD 
HETATM   23  C   UNL     1      -9.104   5.382  68.893  1.00  0.00    -0.138 A  
HETATM   24  C   UNL     1      -7.071  11.907  69.110  1.00  0.00    -0.053 A  
HETATM   25  C   UNL     1     -10.144   4.981  69.726  1.00  0.00    -0.337 A  
HETATM   26  C   UNL     1      -6.077  11.234  69.810  1.00  0.00    -0.112 A  
HETATM   27  C   UNL     1     -11.055   5.919  70.199  1.00  0.00    -0.395 A  
HETATM   28  C   UNL     1      -6.291   9.923  70.226  1.00  0.00    -0.094 A  
HETATM   29  C   UNL     1      -7.485   9.268  69.910  1.00  0.00    -0.085 A  
HETATM   30  C   UNL     1     -10.928   7.267  69.851  1.00  0.00    -0.262 A  
ENDBRANCH  13  14
ENDBRANCH   7  13
TORSDOF 2
ENDMDL
MODEL       51
REMARK 921   NORMALIZED FREE ENERGY PREDICTED BY IDOCK:   -6.17 KCAL/MOL
REMARK 922        TOTAL FREE ENERGY PREDICTED BY IDOCK:   -7.42 KCAL/MOL
REMARK 923 INTER-LIGAND FREE ENERGY PREDICTED BY IDOCK:   -6.92 KCAL/MOL
REMARK 924 INTRA-LIGAND FREE ENERGY PREDICTED BY IDOCK:   -0.50 KCAL/MOL
REMARK 927      BINDING AFFINITY PREDICTED BY RF-SCORE:    0.00 PKD
ROOT
HETATM    1  C   UNL     1      -7.568  10.606  65.479  1.00  0.00    -0.072 C  
HETATM    2  C   UNL     1      -8.918  11.320  65.385  1.00  0.00    -0.106 C  
HETATM    3  C   UNL     1      -9.903  10.260  64.920  1.00  0.00    -0.404 C  
HETATM    4  C   UNL     1      -9.083   8.972  64.739  1.00  0.00    -0.028 C  
HETATM    5  N   UNL     1      -7.672   9.478  64.430  1.00  0.00    -0.117 N  
HETATM    6  C   UNL     1      -9.075   8.164  66.031  1.00  0.00    -0.218 C  
HETATM    7  C   UNL     1      -8.091   8.651  67.102  1.00  0.00    -0.100 C  
HETATM    8  C   UNL     1      -6.529   8.445  64.491  1.00  0.00    -0.066 C  
HETATM    9  C   UNL     1      -5.450   9.078  63.646  1.00  0.00    -0.063 C  
HETATM   10  C   UNL     1      -6.236   9.456  62.419  1.00  0.00    -0.093 C  
HETATM   11  C   UNL     1      -7.406  10.010  66.883  1.00  0.00    -0.092 C  
HETATM   12  C   UNL     1      -7.556  10.004  62.960  1.00  0.00    -0.137 C  
ENDROOT
BRANCH   7  13
HETATM   13  O   UNL     1      -8.728   8.633  68.385  1.00  0.00    -0.140 OA 
BRANCH  13  14
HETATM   14  C   UNL     1     -10.000   9.175  68.376  1.00  0.00    -0.181 C  
HETATM   15  C   UNL     1     -10.084  10.402  69.353  1.00  0.00    -0.229 C  
HETATM   16  O   UNL     1     -10.909   8.717  67.693  1.00  0.00    -0.190 OA 
HETATM   17  O   UNL     1      -8.816  10.578  70.016  1.00  0.00    -0.336 OA 
HETATM   18  C   UNL     1     -10.397  11.660  68.523  1.00  0.00    -0.224 A  
HETATM   19  C   UNL     1     -11.081  10.046  70.467  1.00  0.00    -0.400 A  
HETATM   20  C   UNL     1     -10.858   8.888  71.247  1.00  0.00    -0.360 A  
HETATM   21  C   UNL     1     -11.527  11.698  67.680  1.00  0.00    -0.373 A  
HETATM   22  H   UNL     1      -8.867  11.320  70.607  1.00  0.00     0.000 HD 
HETATM   23  C   UNL     1     -11.838  12.832  66.928  1.00  0.00    -0.440 A  
HETATM   24  C   UNL     1     -11.808   8.435  72.165  1.00  0.00    -0.441 A  
HETATM   25  C   UNL     1     -11.013  13.949  66.992  1.00  0.00    -0.301 A  
HETATM   26  C   UNL     1     -12.993   9.140  72.339  1.00  0.00    -0.468 A  
HETATM   27  C   UNL     1      -9.885  13.933  67.806  1.00  0.00    -0.237 A  
HETATM   28  C   UNL     1     -13.208  10.319  71.631  1.00  0.00    -0.509 A  
HETATM   29  C   UNL     1     -12.253  10.777  70.717  1.00  0.00    -0.480 A  
HETATM   30  C   UNL     1      -9.581  12.803  68.569  1.00  0.00    -0.113 A  
ENDBRANCH  13  14
ENDBRANCH   7  13
TORSDOF 2
ENDMDL
MODEL       52
REMARK 921   NORMALIZED FREE ENERGY PREDICTED BY IDOCK:   -6.16 KCAL/MOL
REMARK 922        TOTAL FREE ENERGY PREDICTED BY IDOCK:   -7.41 KCAL/MOL
REMARK 923 INTER-LIGAND FREE ENERGY PREDICTED BY IDOCK:   -6.82 KCAL/MOL
REMARK 924 INTRA-LIGAND FREE ENERGY PREDICTED BY IDOCK:   -0.59 KCAL/MOL
REMARK 927      BINDING AFFINITY PREDICTED BY RF-SCORE:    0.00 PKD
ROOT
HETATM    1  C   UNL     1      -9.439   7.368  69.237  1.00  0.00    -0.154 C  
HETATM    2  C   UNL     1      -8.073   7.574  69.895  1.00  0.00    -0.129 C  
HETATM    3  C   UNL     1      -7.159   8.059  68.782  1.00  0.00    -0.071 C  
HETATM    4  C   UNL     1      -8.024   8.096  67.511  1.00  0.00    -0.122 C  
HETATM    5  N   UNL     1      -9.097   7.035  67.769  1.00  0.00    -0.127 N  
HETATM    6  C   UNL     1      -8.673   9.465  67.352  1.00  0.00    -0.128 C  
HETATM    7  C   UNL     1      -9.918   9.704  68.217  1.00  0.00    -0.155 C  
HETATM    8  C   UNL     1     -10.311   7.022  66.820  1.00  0.00    -0.221 C  
HETATM    9  C   UNL     1     -10.849   5.621  66.971  1.00  0.00    -0.265 C  
HETATM   10  C   UNL     1      -9.589   4.814  66.806  1.00  0.00    -0.184 C  
HETATM   11  C   UNL     1     -10.240   8.674  69.311  1.00  0.00    -0.215 C  
HETATM   12  C   UNL     1      -8.530   5.586  67.592  1.00  0.00    -0.102 C  
ENDROOT
BRANCH   7  13
HETATM   13  O   UNL     1      -9.860  11.016  68.791  1.00  0.00    -0.191 OA 
BRANCH  13  14
HETATM   14  C   UNL     1     -10.783  11.893  68.254  1.00  0.00    -0.223 C  
HETATM   15  C   UNL     1     -10.088  12.878  67.247  1.00  0.00    -0.231 C  
HETATM   16  O   UNL     1     -11.970  11.876  68.562  1.00  0.00    -0.367 OA 
HETATM   17  O   UNL     1      -8.672  12.610  67.212  1.00  0.00    -0.182 OA 
HETATM   18  C   UNL     1     -10.681  12.636  65.847  1.00  0.00    -0.293 A  
HETATM   19  C   UNL     1     -10.221  14.300  67.815  1.00  0.00    -0.235 A  
HETATM   20  C   UNL     1      -9.716  14.575  69.105  1.00  0.00    -0.062 A  
HETATM   21  C   UNL     1     -12.074  12.712  65.637  1.00  0.00    -0.502 A  
HETATM   22  H   UNL     1      -8.251  13.206  66.602  1.00  0.00     0.000 HD 
HETATM   23  C   UNL     1     -12.633  12.509  64.374  1.00  0.00    -0.497 A  
HETATM   24  C   UNL     1      -9.945  15.803  69.730  1.00  0.00    -0.250 A  
HETATM   25  C   UNL     1     -11.809  12.209  63.295  1.00  0.00    -0.466 A  
HETATM   26  C   UNL     1     -10.667  16.791  69.070  1.00  0.00    -0.331 A  
HETATM   27  C   UNL     1     -10.433  12.115  63.478  1.00  0.00    -0.490 A  
HETATM   28  C   UNL     1     -11.119  16.567  67.772  1.00  0.00    -0.179 A  
HETATM   29  C   UNL     1     -10.883  15.341  67.144  1.00  0.00    -0.322 A  
HETATM   30  C   UNL     1      -9.871  12.332  64.739  1.00  0.00    -0.129 A  
ENDBRANCH  13  14
ENDBRANCH   7  13
TORSDOF 2
ENDMDL
MODEL       53
REMARK 921   NORMALIZED FREE ENERGY PREDICTED BY IDOCK:   -6.15 KCAL/MOL
REMARK 922        TOTAL FREE ENERGY PREDICTED BY IDOCK:   -7.40 KCAL/MOL
REMARK 923 INTER-LIGAND FREE ENERGY PREDICTED BY IDOCK:   -6.90 KCAL/MOL
REMARK 924 INTRA-LIGAND FREE ENERGY PREDICTED BY IDOCK:   -0.50 KCAL/MOL
REMARK 927      BINDING AFFINITY PREDICTED BY RF-SCORE:    0.00 PKD
ROOT
HETATM    1  C   UNL     1     -10.474  11.063  66.509  1.00  0.00    -0.257 C  
HETATM    2  C   UNL     1     -11.766  11.540  67.176  1.00  0.00    -0.140 C  
HETATM    3  C   UNL     1     -11.365  11.949  68.584  1.00  0.00    -0.331 C  
HETATM    4  C   UNL     1      -9.856  11.673  68.690  1.00  0.00    -0.165 C  
HETATM    5  N   UNL     1      -9.620  10.543  67.685  1.00  0.00    -0.156 N  
HETATM    6  C   UNL     1      -9.062  12.907  68.282  1.00  0.00    -0.180 C  
HETATM    7  C   UNL     1      -8.924  13.126  66.770  1.00  0.00    -0.176 C  
HETATM    8  C   UNL     1      -8.157  10.227  67.318  1.00  0.00    -0.120 C  
HETATM    9  C   UNL     1      -8.232   8.812  66.798  1.00  0.00    -0.108 C  
HETATM   10  C   UNL     1      -9.033   8.151  67.889  1.00  0.00    -0.133 C  
HETATM   11  C   UNL     1      -9.780  12.254  65.836  1.00  0.00    -0.247 C  
HETATM   12  C   UNL     1     -10.122   9.165  68.237  1.00  0.00    -0.191 C  
ENDROOT
BRANCH   7  13
HETATM   13  O   UNL     1      -9.134  14.511  66.463  1.00  0.00    -0.258 OA 
BRANCH  13  14
HETATM   14  C   UNL     1      -9.091  15.333  67.573  1.00  0.00    -0.185 C  
HETATM   15  C   UNL     1     -10.446  16.112  67.735  1.00  0.00    -0.295 C  
HETATM   16  O   UNL     1      -8.104  15.421  68.294  1.00  0.00    -0.132 OA 
HETATM   17  O   UNL     1     -11.328  15.776  66.645  1.00  0.00    -0.093 OA 
HETATM   18  C   UNL     1     -11.096  15.678  69.061  1.00  0.00    -0.279 A  
HETATM   19  C   UNL     1     -10.147  17.610  67.573  1.00  0.00    -0.337 A  
HETATM   20  C   UNL     1      -9.529  18.064  66.385  1.00  0.00    -0.280 A  
HETATM   21  C   UNL     1     -10.386  15.784  70.275  1.00  0.00    -0.159 A  
HETATM   22  H   UNL     1     -12.147  16.247  66.743  1.00  0.00     0.000 HD 
HETATM   23  C   UNL     1     -10.960  15.410  71.491  1.00  0.00    -0.156 A  
HETATM   24  C   UNL     1      -9.097  19.385  66.249  1.00  0.00    -0.380 A  
HETATM   25  C   UNL     1     -12.255  14.904  71.516  1.00  0.00    -0.402 A  
HETATM   26  C   UNL     1      -9.291  20.287  67.288  1.00  0.00    -0.538 A  
HETATM   27  C   UNL     1     -12.972  14.776  70.330  1.00  0.00    -0.269 A  
HETATM   28  C   UNL     1      -9.956  19.882  68.441  1.00  0.00    -0.531 A  
HETATM   29  C   UNL     1     -10.396  18.561  68.575  1.00  0.00    -0.315 A  
HETATM   30  C   UNL     1     -12.403  15.164  69.115  1.00  0.00    -0.087 A  
ENDBRANCH  13  14
ENDBRANCH   7  13
TORSDOF 2
ENDMDL
MODEL       54
REMARK 921   NORMALIZED FREE ENERGY PREDICTED BY IDOCK:   -6.08 KCAL/MOL
REMARK 922        TOTAL FREE ENERGY PREDICTED BY IDOCK:   -7.32 KCAL/MOL
REMARK 923 INTER-LIGAND FREE ENERGY PREDICTED BY IDOCK:   -6.98 KCAL/MOL
REMARK 924 INTRA-LIGAND FREE ENERGY PREDICTED BY IDOCK:   -0.34 KCAL/MOL
REMARK 927      BINDING AFFINITY PREDICTED BY RF-SCORE:    0.00 PKD
ROOT
HETATM    1  C   UNL     1     -10.055   8.495  71.763  1.00  0.00    -0.281 C  
HETATM    2  C   UNL     1      -8.564   8.651  72.070  1.00  0.00    -0.216 C  
HETATM    3  C   UNL     1      -7.863   7.621  71.201  1.00  0.00    -0.090 C  
HETATM    4  C   UNL     1      -8.975   6.886  70.436  1.00  0.00    -0.152 C  
HETATM    5  N   UNL     1     -10.195   7.012  71.353  1.00  0.00    -0.197 N  
HETATM    6  C   UNL     1      -9.250   7.579  69.107  1.00  0.00    -0.144 C  
HETATM    7  C   UNL     1     -10.126   8.835  69.193  1.00  0.00    -0.198 C  
HETATM    8  C   UNL     1     -11.565   6.645  70.751  1.00  0.00    -0.376 C  
HETATM    9  C   UNL     1     -12.405   6.347  71.969  1.00  0.00    -0.268 C  
HETATM   10  C   UNL     1     -11.493   5.417  72.722  1.00  0.00    -0.333 C  
HETATM   11  C   UNL     1     -10.429   9.406  70.588  1.00  0.00    -0.354 C  
HETATM   12  C   UNL     1     -10.103   6.034  72.573  1.00  0.00    -0.178 C  
ENDROOT
BRANCH   7  13
HETATM   13  O   UNL     1      -9.575   9.864  68.360  1.00  0.00    -0.145 OA 
BRANCH  13  14
HETATM   14  C   UNL     1      -9.842   9.686  67.016  1.00  0.00    -0.195 C  
HETATM   15  C   UNL     1      -9.061  10.742  66.154  1.00  0.00    -0.174 C  
HETATM   16  O   UNL     1     -10.602   8.818  66.601  1.00  0.00    -0.226 OA 
HETATM   17  O   UNL     1      -8.327  11.627  67.025  1.00  0.00    -0.156 OA 
HETATM   18  C   UNL     1      -8.071   9.990  65.248  1.00  0.00    -0.145 A  
HETATM   19  C   UNL     1     -10.099  11.631  65.450  1.00  0.00    -0.299 A  
HETATM   20  C   UNL     1     -11.050  12.328  66.230  1.00  0.00    -0.342 A  
HETATM   21  C   UNL     1      -8.523   8.972  64.383  1.00  0.00    -0.190 A  
HETATM   22  H   UNL     1      -7.855  12.265  66.503  1.00  0.00     0.000 HD 
HETATM   23  C   UNL     1      -7.645   8.285  63.543  1.00  0.00    -0.134 A  
HETATM   24  C   UNL     1     -12.106  13.024  65.638  1.00  0.00    -0.507 A  
HETATM   25  C   UNL     1      -6.289   8.592  63.564  1.00  0.00    -0.081 A  
HETATM   26  C   UNL     1     -12.224  13.057  64.254  1.00  0.00    -0.464 A  
HETATM   27  C   UNL     1      -5.815   9.582  64.418  1.00  0.00    -0.079 A  
HETATM   28  C   UNL     1     -11.264  12.432  63.463  1.00  0.00    -0.540 A  
HETATM   29  C   UNL     1     -10.202  11.742  64.054  1.00  0.00    -0.387 A  
HETATM   30  C   UNL     1      -6.695  10.280  65.249  1.00  0.00    -0.126 A  
ENDBRANCH  13  14
ENDBRANCH   7  13
TORSDOF 2
ENDMDL
MODEL       55
REMARK 921   NORMALIZED FREE ENERGY PREDICTED BY IDOCK:   -6.06 KCAL/MOL
REMARK 922        TOTAL FREE ENERGY PREDICTED BY IDOCK:   -7.30 KCAL/MOL
REMARK 923 INTER-LIGAND FREE ENERGY PREDICTED BY IDOCK:   -6.52 KCAL/MOL
REMARK 924 INTRA-LIGAND FREE ENERGY PREDICTED BY IDOCK:   -0.78 KCAL/MOL
REMARK 927      BINDING AFFINITY PREDICTED BY RF-SCORE:    0.00 PKD
ROOT
HETATM    1  C   UNL     1     -11.377  11.634  66.263  1.00  0.00    -0.227 C  
HETATM    2  C   UNL     1     -11.857  11.625  67.716  1.00  0.00    -0.247 C  
HETATM    3  C   UNL     1     -10.599  11.763  68.557  1.00  0.00    -0.242 C  
HETATM    4  C   UNL     1      -9.429  11.824  67.561  1.00  0.00    -0.174 C  
HETATM    5  N   UNL     1      -9.947  11.056  66.342  1.00  0.00    -0.214 N  
HETATM    6  C   UNL     1      -9.134  13.269  67.178  1.00  0.00    -0.231 C  
HETATM    7  C   UNL     1     -10.074  13.872  66.126  1.00  0.00    -0.308 C  
HETATM    8  C   UNL     1      -9.137  11.183  65.037  1.00  0.00    -0.121 C  
HETATM    9  C   UNL     1      -9.547   9.958  64.258  1.00  0.00    -0.220 C  
HETATM   10  C   UNL     1      -9.378   8.887  65.303  1.00  0.00    -0.095 C  
HETATM   11  C   UNL     1     -11.336  13.079  65.750  1.00  0.00    -0.331 C  
HETATM   12  C   UNL     1      -9.931   9.509  66.585  1.00  0.00    -0.247 C  
ENDROOT
BRANCH   7  13
HETATM   13  O   UNL     1     -10.439  15.203  66.514  1.00  0.00    -0.278 OA 
BRANCH  13  14
HETATM   14  C   UNL     1      -9.380  16.092  66.497  1.00  0.00    -0.268 C  
HETATM   15  C   UNL     1      -9.131  16.680  67.932  1.00  0.00    -0.218 C  
HETATM   16  O   UNL     1      -8.759  16.362  65.475  1.00  0.00    -0.244 OA 
HETATM   17  O   UNL     1     -10.116  16.156  68.845  1.00  0.00    -0.216 OA 
HETATM   18  C   UNL     1      -7.730  16.242  68.397  1.00  0.00    -0.169 A  
HETATM   19  C   UNL     1      -9.394  18.193  67.870  1.00  0.00    -0.276 A  
HETATM   20  C   UNL     1     -10.655  18.653  67.428  1.00  0.00    -0.490 A  
HETATM   21  C   UNL     1      -6.594  16.523  67.609  1.00  0.00    -0.171 A  
HETATM   22  H   UNL     1      -9.965  16.512  69.713  1.00  0.00     0.000 HD 
HETATM   23  C   UNL     1      -5.313  16.148  68.016  1.00  0.00    -0.124 A  
HETATM   24  C   UNL     1     -10.896  20.011  67.207  1.00  0.00    -0.254 A  
HETATM   25  C   UNL     1      -5.143  15.467  69.217  1.00  0.00    -0.096 A  
HETATM   26  C   UNL     1      -9.890  20.940  67.442  1.00  0.00    -0.309 A  
HETATM   27  C   UNL     1      -6.248  15.166  70.006  1.00  0.00    -0.152 A  
HETATM   28  C   UNL     1      -8.661  20.518  67.940  1.00  0.00    -0.085 A  
HETATM   29  C   UNL     1      -8.421  19.159  68.169  1.00  0.00    -0.355 A  
HETATM   30  C   UNL     1      -7.530  15.554  69.606  1.00  0.00    -0.156 A  
ENDBRANCH  13  14
ENDBRANCH   7  13
TORSDOF 2
ENDMDL
MODEL       56
REMARK 921   NORMALIZED FREE ENERGY PREDICTED BY IDOCK:   -6.06 KCAL/MOL
REMARK 922        TOTAL FREE ENERGY PREDICTED BY IDOCK:   -7.30 KCAL/MOL
REMARK 923 INTER-LIGAND FREE ENERGY PREDICTED BY IDOCK:   -7.33 KCAL/MOL
REMARK 924 INTRA-LIGAND FREE ENERGY PREDICTED BY IDOCK:    0.04 KCAL/MOL
REMARK 927      BINDING AFFINITY PREDICTED BY RF-SCORE:    0.00 PKD
ROOT
HETATM    1  C   UNL     1      -9.261  19.572  68.332  1.00  0.00    -0.353 C  
HETATM    2  C   UNL     1     -10.252  20.165  67.327  1.00  0.00    -0.540 C  
HETATM    3  C   UNL     1      -9.713  19.786  65.958  1.00  0.00    -0.455 C  
HETATM    4  C   UNL     1      -8.415  19.003  66.217  1.00  0.00    -0.280 C  
HETATM    5  N   UNL     1      -7.923  19.546  67.562  1.00  0.00    -0.267 N  
HETATM    6  C   UNL     1      -8.708  17.513  66.333  1.00  0.00    -0.273 C  
HETATM    7  C   UNL     1      -9.263  17.059  67.690  1.00  0.00    -0.233 C  
HETATM    8  C   UNL     1      -6.799  18.761  68.265  1.00  0.00    -0.242 C  
HETATM    9  C   UNL     1      -6.198  19.784  69.197  1.00  0.00    -0.339 C  
HETATM   10  C   UNL     1      -6.011  20.947  68.259  1.00  0.00    -0.388 C  
HETATM   11  C   UNL     1      -9.694  18.145  68.690  1.00  0.00    -0.367 C  
HETATM   12  C   UNL     1      -7.282  20.967  67.411  1.00  0.00    -0.295 C  
ENDROOT
BRANCH   7  13
HETATM   13  O   UNL     1     -10.341  16.137  67.485  1.00  0.00    -0.273 OA 
BRANCH  13  14
HETATM   14  C   UNL     1      -9.920  14.859  67.171  1.00  0.00    -0.231 C  
HETATM   15  C   UNL     1      -9.495  14.084  68.469  1.00  0.00    -0.191 C  
HETATM   16  O   UNL     1      -9.887  14.437  66.020  1.00  0.00    -0.299 OA 
HETATM   17  O   UNL     1      -9.622  14.952  69.612  1.00  0.00    -0.422 OA 
HETATM   18  C   UNL     1     -10.438  12.880  68.643  1.00  0.00    -0.231 A  
HETATM   19  C   UNL     1      -7.994  13.772  68.357  1.00  0.00    -0.144 A  
HETATM   20  C   UNL     1      -7.082  14.836  68.173  1.00  0.00    -0.126 A  
HETATM   21  C   UNL     1     -10.594  11.937  67.606  1.00  0.00    -0.241 A  
HETATM   22  H   UNL     1      -9.365  14.483  70.398  1.00  0.00     0.000 HD 
HETATM   23  C   UNL     1     -11.433  10.830  67.746  1.00  0.00    -0.283 A  
HETATM   24  C   UNL     1      -5.731  14.599  67.912  1.00  0.00    -0.129 A  
HETATM   25  C   UNL     1     -12.149  10.653  68.926  1.00  0.00    -0.014 A  
HETATM   26  C   UNL     1      -5.256  13.294  67.852  1.00  0.00    -0.103 A  
HETATM   27  C   UNL     1     -12.022  11.575  69.959  1.00  0.00    -0.435 A  
HETATM   28  C   UNL     1      -6.121  12.231  68.095  1.00  0.00    -0.058 A  
HETATM   29  C   UNL     1      -7.472  12.468  68.363  1.00  0.00    -0.127 A  
HETATM   30  C   UNL     1     -11.171  12.676  69.824  1.00  0.00     0.005 A  
ENDBRANCH  13  14
ENDBRANCH   7  13
TORSDOF 2
ENDMDL
MODEL       57
REMARK 921   NORMALIZED FREE ENERGY PREDICTED BY IDOCK:   -6.05 KCAL/MOL
REMARK 922        TOTAL FREE ENERGY PREDICTED BY IDOCK:   -7.29 KCAL/MOL
REMARK 923 INTER-LIGAND FREE ENERGY PREDICTED BY IDOCK:   -6.55 KCAL/MOL
REMARK 924 INTRA-LIGAND FREE ENERGY PREDICTED BY IDOCK:   -0.74 KCAL/MOL
REMARK 927      BINDING AFFINITY PREDICTED BY RF-SCORE:    0.00 PKD
ROOT
HETATM    1  C   UNL     1      -8.300   5.356  67.484  1.00  0.00    -0.103 C  
HETATM    2  C   UNL     1      -8.268   4.749  66.080  1.00  0.00    -0.111 C  
HETATM    3  C   UNL     1      -9.716   4.433  65.744  1.00  0.00    -0.213 C  
HETATM    4  C   UNL     1     -10.536   4.849  66.977  1.00  0.00    -0.102 C  
HETATM    5  N   UNL     1      -9.545   4.716  68.137  1.00  0.00    -0.146 N  
HETATM    6  C   UNL     1     -10.992   6.296  66.846  1.00  0.00    -0.404 C  
HETATM    7  C   UNL     1      -9.931   7.351  67.185  1.00  0.00    -0.215 C  
HETATM    8  C   UNL     1      -9.953   5.346  69.482  1.00  0.00    -0.219 C  
HETATM    9  C   UNL     1      -9.097   4.605  70.481  1.00  0.00    -0.174 C  
HETATM   10  C   UNL     1      -9.341   3.180  70.061  1.00  0.00    -0.226 C  
HETATM   11  C   UNL     1      -8.481   6.875  67.376  1.00  0.00    -0.121 C  
HETATM   12  C   UNL     1      -9.319   3.218  68.534  1.00  0.00    -0.174 C  
ENDROOT
BRANCH   7  13
HETATM   13  O   UNL     1      -9.969   8.402  66.212  1.00  0.00    -0.245 OA 
BRANCH  13  14
HETATM   14  C   UNL     1     -10.172   9.654  66.762  1.00  0.00    -0.239 C  
HETATM   15  C   UNL     1      -9.423  10.752  65.925  1.00  0.00    -0.197 C  
HETATM   16  O   UNL     1     -10.841   9.832  67.773  1.00  0.00    -0.275 OA 
HETATM   17  O   UNL     1      -8.697  10.126  64.848  1.00  0.00    -0.159 OA 
HETATM   18  C   UNL     1     -10.474  11.709  65.334  1.00  0.00    -0.324 A  
HETATM   19  C   UNL     1      -8.351  11.380  66.829  1.00  0.00    -0.163 A  
HETATM   20  C   UNL     1      -7.373  10.546  67.419  1.00  0.00    -0.093 A  
HETATM   21  C   UNL     1     -11.401  12.361  66.175  1.00  0.00    -0.398 A  
HETATM   22  H   UNL     1      -8.244  10.790  64.342  1.00  0.00     0.000 HD 
HETATM   23  C   UNL     1     -12.354  13.243  65.663  1.00  0.00    -0.521 A  
HETATM   24  C   UNL     1      -6.473  11.038  68.366  1.00  0.00    -0.057 A  
HETATM   25  C   UNL     1     -12.410  13.480  64.294  1.00  0.00    -0.392 A  
HETATM   26  C   UNL     1      -6.516  12.379  68.731  1.00  0.00    -0.084 A  
HETATM   27  C   UNL     1     -11.515  12.840  63.442  1.00  0.00    -0.454 A  
HETATM   28  C   UNL     1      -7.426  13.234  68.117  1.00  0.00    -0.128 A  
HETATM   29  C   UNL     1      -8.322  12.744  67.162  1.00  0.00    -0.164 A  
HETATM   30  C   UNL     1     -10.552  11.967  63.955  1.00  0.00    -0.447 A  
ENDBRANCH  13  14
ENDBRANCH   7  13
TORSDOF 2
ENDMDL
MODEL       58
REMARK 921   NORMALIZED FREE ENERGY PREDICTED BY IDOCK:   -6.03 KCAL/MOL
REMARK 922        TOTAL FREE ENERGY PREDICTED BY IDOCK:   -7.26 KCAL/MOL
REMARK 923 INTER-LIGAND FREE ENERGY PREDICTED BY IDOCK:   -6.58 KCAL/MOL
REMARK 924 INTRA-LIGAND FREE ENERGY PREDICTED BY IDOCK:   -0.68 KCAL/MOL
REMARK 927      BINDING AFFINITY PREDICTED BY RF-SCORE:    0.00 PKD
ROOT
HETATM    1  C   UNL     1      -7.876   5.736  68.979  1.00  0.00    -0.094 C  
HETATM    2  C   UNL     1      -6.519   6.184  69.526  1.00  0.00    -0.042 C  
HETATM    3  C   UNL     1      -5.675   6.496  68.302  1.00  0.00    -0.012 C  
HETATM    4  C   UNL     1      -6.566   6.196  67.086  1.00  0.00    -0.055 C  
HETATM    5  N   UNL     1      -7.538   5.130  67.600  1.00  0.00    -0.086 N  
HETATM    6  C   UNL     1      -7.335   7.444  66.671  1.00  0.00    -0.084 C  
HETATM    7  C   UNL     1      -8.576   7.759  67.515  1.00  0.00    -0.122 C  
HETATM    8  C   UNL     1      -8.767   4.821  66.722  1.00  0.00    -0.107 C  
HETATM    9  C   UNL     1      -9.179   3.444  67.182  1.00  0.00    -0.218 C  
HETATM   10  C   UNL     1      -7.858   2.724  67.139  1.00  0.00    -0.074 C  
HETATM   11  C   UNL     1      -8.786   6.960  68.812  1.00  0.00    -0.129 C  
HETATM   12  C   UNL     1      -6.853   3.726  67.705  1.00  0.00    -0.050 C  
ENDROOT
BRANCH   7  13
HETATM   13  O   UNL     1      -8.620   9.163  67.802  1.00  0.00    -0.120 OA 
BRANCH  13  14
HETATM   14  C   UNL     1      -9.904   9.668  67.886  1.00  0.00    -0.154 C  
HETATM   15  C   UNL     1      -9.957  10.875  68.889  1.00  0.00    -0.196 C  
HETATM   16  O   UNL     1     -10.843   9.197  67.255  1.00  0.00    -0.233 OA 
HETATM   17  O   UNL     1      -8.654  11.075  69.472  1.00  0.00    -0.377 OA 
HETATM   18  C   UNL     1     -10.358  12.138  68.105  1.00  0.00    -0.214 A  
HETATM   19  C   UNL     1     -10.870  10.472  70.059  1.00  0.00    -0.320 A  
HETATM   20  C   UNL     1     -10.564   9.308  70.800  1.00  0.00    -0.351 A  
HETATM   21  C   UNL     1     -11.542  12.158  67.338  1.00  0.00    -0.410 A  
HETATM   22  H   UNL     1      -8.686  11.806  70.079  1.00  0.00     0.000 HD 
HETATM   23  C   UNL     1     -11.932  13.296  66.630  1.00  0.00    -0.446 A  
HETATM   24  C   UNL     1     -11.439   8.812  71.769  1.00  0.00    -0.413 A  
HETATM   25  C   UNL     1     -11.135  14.435  66.662  1.00  0.00    -0.326 A  
HETATM   26  C   UNL     1     -12.629   9.480  72.033  1.00  0.00    -0.456 A  
HETATM   27  C   UNL     1      -9.956  14.436  67.400  1.00  0.00    -0.242 A  
HETATM   28  C   UNL     1     -12.922  10.664  71.363  1.00  0.00    -0.545 A  
HETATM   29  C   UNL     1     -12.042  11.165  70.398  1.00  0.00    -0.475 A  
HETATM   30  C   UNL     1      -9.572  13.302  68.121  1.00  0.00    -0.227 A  
ENDBRANCH  13  14
ENDBRANCH   7  13
TORSDOF 2
ENDMDL
MODEL       59
REMARK 921   NORMALIZED FREE ENERGY PREDICTED BY IDOCK:   -6.02 KCAL/MOL
REMARK 922        TOTAL FREE ENERGY PREDICTED BY IDOCK:   -7.26 KCAL/MOL
REMARK 923 INTER-LIGAND FREE ENERGY PREDICTED BY IDOCK:   -6.79 KCAL/MOL
REMARK 924 INTRA-LIGAND FREE ENERGY PREDICTED BY IDOCK:   -0.47 KCAL/MOL
REMARK 927      BINDING AFFINITY PREDICTED BY RF-SCORE:    0.00 PKD
ROOT
HETATM    1  C   UNL     1      -8.898   8.003  70.189  1.00  0.00    -0.143 C  
HETATM    2  C   UNL     1      -9.420   7.163  69.022  1.00  0.00    -0.143 C  
HETATM    3  C   UNL     1     -10.878   6.882  69.349  1.00  0.00    -0.283 C  
HETATM    4  C   UNL     1     -11.143   7.551  70.707  1.00  0.00    -0.265 C  
HETATM    5  N   UNL     1      -9.769   7.560  71.384  1.00  0.00    -0.167 N  
HETATM    6  C   UNL     1     -11.633   8.980  70.508  1.00  0.00    -0.209 C  
HETATM    7  C   UNL     1     -10.539  10.011  70.203  1.00  0.00    -0.296 C  
HETATM    8  C   UNL     1      -9.615   8.434  72.644  1.00  0.00    -0.267 C  
HETATM    9  C   UNL     1      -8.422   7.825  73.339  1.00  0.00    -0.248 C  
HETATM   10  C   UNL     1      -8.794   6.367  73.316  1.00  0.00    -0.129 C  
HETATM   11  C   UNL     1      -9.127   9.489  69.889  1.00  0.00    -0.237 C  
HETATM   12  C   UNL     1      -9.383   6.141  71.924  1.00  0.00    -0.150 C  
ENDROOT
BRANCH   7  13
HETATM   13  O   UNL     1     -10.977  10.881  69.151  1.00  0.00    -0.206 OA 
BRANCH  13  14
HETATM   14  C   UNL     1     -10.689  10.403  67.886  1.00  0.00    -0.261 C  
HETATM   15  C   UNL     1      -9.739  11.395  67.125  1.00  0.00    -0.182 C  
HETATM   16  O   UNL     1     -11.148   9.351  67.456  1.00  0.00    -0.137 OA 
HETATM   17  O   UNL     1      -9.480  12.546  67.954  1.00  0.00    -0.183 OA 
HETATM   18  C   UNL     1      -8.411  10.670  66.841  1.00  0.00    -0.127 A  
HETATM   19  C   UNL     1     -10.504  11.933  65.905  1.00  0.00    -0.296 A  
HETATM   20  C   UNL     1     -11.741  12.588  66.104  1.00  0.00    -0.466 A  
HETATM   21  C   UNL     1      -8.401   9.441  66.149  1.00  0.00    -0.118 A  
HETATM   22  H   UNL     1      -8.905  13.146  67.493  1.00  0.00     0.000 HD 
HETATM   23  C   UNL     1      -7.208   8.772  65.869  1.00  0.00    -0.084 A  
HETATM   24  C   UNL     1     -12.548  12.958  65.026  1.00  0.00    -0.538 A  
HETATM   25  C   UNL     1      -5.998   9.313  66.291  1.00  0.00    -0.059 A  
HETATM   26  C   UNL     1     -12.128  12.702  63.726  1.00  0.00    -0.604 A  
HETATM   27  C   UNL     1      -5.982  10.517  66.987  1.00  0.00    -0.053 A  
HETATM   28  C   UNL     1     -10.884  12.118  63.503  1.00  0.00    -0.518 A  
HETATM   29  C   UNL     1     -10.072  11.754  64.582  1.00  0.00    -0.310 A  
HETATM   30  C   UNL     1      -7.175  11.194  67.256  1.00  0.00    -0.113 A  
ENDBRANCH  13  14
ENDBRANCH   7  13
TORSDOF 2
ENDMDL
MODEL       60
REMARK 921   NORMALIZED FREE ENERGY PREDICTED BY IDOCK:   -5.99 KCAL/MOL
REMARK 922        TOTAL FREE ENERGY PREDICTED BY IDOCK:   -7.22 KCAL/MOL
REMARK 923 INTER-LIGAND FREE ENERGY PREDICTED BY IDOCK:   -6.92 KCAL/MOL
REMARK 924 INTRA-LIGAND FREE ENERGY PREDICTED BY IDOCK:   -0.30 KCAL/MOL
REMARK 927      BINDING AFFINITY PREDICTED BY RF-SCORE:    0.00 PKD
ROOT
HETATM    1  C   UNL     1      -9.593   7.306  70.987  1.00  0.00    -0.158 C  
HETATM    2  C   UNL     1      -9.912   6.563  69.688  1.00  0.00    -0.186 C  
HETATM    3  C   UNL     1     -11.410   6.315  69.724  1.00  0.00    -0.506 C  
HETATM    4  C   UNL     1     -11.905   6.904  71.055  1.00  0.00    -0.364 C  
HETATM    5  N   UNL     1     -10.680   6.818  71.970  1.00  0.00    -0.214 N  
HETATM    6  C   UNL     1     -12.316   8.359  70.870  1.00  0.00    -0.051 C  
HETATM    7  C   UNL     1     -11.159   9.367  70.843  1.00  0.00    -0.319 C  
HETATM    8  C   UNL     1     -10.739   7.603  73.294  1.00  0.00    -0.350 C  
HETATM    9  C   UNL     1      -9.709   6.908  74.151  1.00  0.00    -0.331 C  
HETATM   10  C   UNL     1     -10.105   5.468  73.958  1.00  0.00    -0.241 C  
HETATM   11  C   UNL     1      -9.727   8.816  70.755  1.00  0.00    -0.257 C  
HETATM   12  C   UNL     1     -10.434   5.354  72.470  1.00  0.00    -0.214 C  
ENDROOT
BRANCH   7  13
HETATM   13  O   UNL     1     -11.375  10.318  69.793  1.00  0.00    -0.247 OA 
BRANCH  13  14
HETATM   14  C   UNL     1     -10.775   9.965  68.598  1.00  0.00    -0.226 C  
HETATM   15  C   UNL     1      -9.788  11.090  68.123  1.00  0.00    -0.176 C  
HETATM   16  O   UNL     1     -11.023   8.914  68.019  1.00  0.00    -0.073 OA 
HETATM   17  O   UNL     1      -9.830  12.192  69.052  1.00  0.00    -0.415 OA 
HETATM   18  C   UNL     1      -8.364  10.505  68.101  1.00  0.00    -0.119 A  
HETATM   19  C   UNL     1     -10.322  11.653  66.796  1.00  0.00    -0.257 A  
HETATM   20  C   UNL     1     -11.632  12.182  66.752  1.00  0.00    -0.412 A  
HETATM   21  C   UNL     1      -8.082   9.338  67.360  1.00  0.00    -0.110 A  
HETATM   22  H   UNL     1      -9.232  12.873  68.764  1.00  0.00     0.000 HD 
HETATM   23  C   UNL     1      -6.796   8.796  67.314  1.00  0.00    -0.067 A  
HETATM   24  C   UNL     1     -12.221  12.563  65.544  1.00  0.00    -0.442 A  
HETATM   25  C   UNL     1      -5.766   9.405  68.024  1.00  0.00    -0.037 A  
HETATM   26  C   UNL     1     -11.507  12.444  64.357  1.00  0.00    -0.408 A  
HETATM   27  C   UNL     1      -6.021  10.549  68.773  1.00  0.00    -0.040 A  
HETATM   28  C   UNL     1     -10.193  11.987  64.384  1.00  0.00    -0.332 A  
HETATM   29  C   UNL     1      -9.599  11.613  65.593  1.00  0.00    -0.252 A  
HETATM   30  C   UNL     1      -7.305  11.099  68.808  1.00  0.00    -0.114 A  
ENDBRANCH  13  14
ENDBRANCH   7  13
TORSDOF 2
ENDMDL
MODEL       61
REMARK 921   NORMALIZED FREE ENERGY PREDICTED BY IDOCK:   -5.87 KCAL/MOL
REMARK 922        TOTAL FREE ENERGY PREDICTED BY IDOCK:   -7.09 KCAL/MOL
REMARK 923 INTER-LIGAND FREE ENERGY PREDICTED BY IDOCK:   -7.88 KCAL/MOL
REMARK 924 INTRA-LIGAND FREE ENERGY PREDICTED BY IDOCK:    0.79 KCAL/MOL
REMARK 927      BINDING AFFINITY PREDICTED BY RF-SCORE:    0.00 PKD
ROOT
HETATM    1  C   UNL     1      -9.384  18.873  68.928  1.00  0.00    -0.290 C  
HETATM    2  C   UNL     1     -10.325  19.948  68.379  1.00  0.00    -0.507 C  
HETATM    3  C   UNL     1      -9.930  20.122  66.922  1.00  0.00    -0.600 C  
HETATM    4  C   UNL     1      -8.758  19.157  66.683  1.00  0.00    -0.320 C  
HETATM    5  N   UNL     1      -8.112  19.018  68.065  1.00  0.00    -0.285 N  
HETATM    6  C   UNL     1      -9.273  17.804  66.211  1.00  0.00    -0.203 C  
HETATM    7  C   UNL     1      -9.814  16.887  67.316  1.00  0.00    -0.265 C  
HETATM    8  C   UNL     1      -7.086  17.882  68.247  1.00  0.00    -0.232 C  
HETATM    9  C   UNL     1      -6.281  18.337  69.439  1.00  0.00    -0.261 C  
HETATM   10  C   UNL     1      -5.968  19.756  69.046  1.00  0.00    -0.288 C  
HETATM   11  C   UNL     1     -10.013  17.491  68.716  1.00  0.00    -0.342 C  
HETATM   12  C   UNL     1      -7.266  20.283  68.436  1.00  0.00    -0.175 C  
ENDROOT
BRANCH   7  13
HETATM   13  O   UNL     1     -11.033  16.273  66.879  1.00  0.00    -0.213 OA 
BRANCH  13  14
HETATM   14  C   UNL     1     -11.044  14.899  67.034  1.00  0.00    -0.338 C  
HETATM   15  C   UNL     1      -9.916  14.238  66.164  1.00  0.00    -0.314 C  
HETATM   16  O   UNL     1     -11.852  14.321  67.752  1.00  0.00    -0.359 OA 
HETATM   17  O   UNL     1      -9.224  15.257  65.415  1.00  0.00    -0.305 OA 
HETATM   18  C   UNL     1      -8.920  13.545  67.112  1.00  0.00    -0.230 A  
HETATM   19  C   UNL     1     -10.597  13.348  65.112  1.00  0.00    -0.353 A  
HETATM   20  C   UNL     1     -11.539  13.925  64.230  1.00  0.00    -0.377 A  
HETATM   21  C   UNL     1      -9.367  12.587  68.045  1.00  0.00    -0.205 A  
HETATM   22  H   UNL     1      -8.542  14.856  64.889  1.00  0.00     0.000 HD 
HETATM   23  C   UNL     1      -8.481  11.937  68.905  1.00  0.00     0.133 A  
HETATM   24  C   UNL     1     -12.297  13.138  63.360  1.00  0.00    -0.443 A  
HETATM   25  C   UNL     1      -7.125  12.245  68.860  1.00  0.00    -0.088 A  
HETATM   26  C   UNL     1     -12.117  11.760  63.338  1.00  0.00    -0.449 A  
HETATM   27  C   UNL     1      -6.660  13.196  67.957  1.00  0.00    -0.124 A  
HETATM   28  C   UNL     1     -11.150  11.176  64.151  1.00  0.00    -0.171 A  
HETATM   29  C   UNL     1     -10.384  11.964  65.015  1.00  0.00    -0.330 A  
HETATM   30  C   UNL     1      -7.545  13.837  67.087  1.00  0.00     0.051 A  
ENDBRANCH  13  14
ENDBRANCH   7  13
TORSDOF 2
ENDMDL
MODEL       62
REMARK 921   NORMALIZED FREE ENERGY PREDICTED BY IDOCK:   -5.84 KCAL/MOL
REMARK 922        TOTAL FREE ENERGY PREDICTED BY IDOCK:   -7.05 KCAL/MOL
REMARK 923 INTER-LIGAND FREE ENERGY PREDICTED BY IDOCK:   -6.68 KCAL/MOL
REMARK 924 INTRA-LIGAND FREE ENERGY PREDICTED BY IDOCK:   -0.38 KCAL/MOL
REMARK 927      BINDING AFFINITY PREDICTED BY RF-SCORE:    0.00 PKD
ROOT
HETATM    1  C   UNL     1      -8.808  11.109  67.057  1.00  0.00    -0.149 C  
HETATM    2  C   UNL     1      -8.874  12.243  68.083  1.00  0.00    -0.187 C  
HETATM    3  C   UNL     1     -10.355  12.511  68.292  1.00  0.00    -0.241 C  
HETATM    4  C   UNL     1     -11.096  11.536  67.362  1.00  0.00    -0.282 C  
HETATM    5  N   UNL     1     -10.099  11.284  66.228  1.00  0.00    -0.222 N  
HETATM    6  C   UNL     1     -11.396  10.233  68.091  1.00  0.00    -0.233 C  
HETATM    7  C   UNL     1     -10.219   9.254  68.193  1.00  0.00    -0.205 C  
HETATM    8  C   UNL     1     -10.405  10.113  65.273  1.00  0.00    -0.084 C  
HETATM    9  C   UNL     1      -9.612  10.462  64.038  1.00  0.00    -0.376 C  
HETATM   10  C   UNL     1     -10.018  11.897  63.836  1.00  0.00    -0.354 C  
HETATM   11  C   UNL     1      -8.826   9.761  67.788  1.00  0.00    -0.129 C  
HETATM   12  C   UNL     1     -10.027  12.498  65.241  1.00  0.00    -0.207 C  
ENDROOT
BRANCH   7  13
HETATM   13  O   UNL     1     -10.166   8.702  69.515  1.00  0.00    -0.198 OA 
BRANCH  13  14
HETATM   14  C   UNL     1      -9.411   7.547  69.599  1.00  0.00    -0.153 C  
HETATM   15  C   UNL     1     -10.300   6.285  69.309  1.00  0.00    -0.218 C  
HETATM   16  O   UNL     1      -8.217   7.556  69.879  1.00  0.00    -0.126 OA 
HETATM   17  O   UNL     1     -11.663   6.697  69.086  1.00  0.00    -0.629 OA 
HETATM   18  C   UNL     1      -9.765   5.600  68.038  1.00  0.00    -0.149 A  
HETATM   19  C   UNL     1     -10.334   5.433  70.588  1.00  0.00    -0.333 A  
HETATM   20  C   UNL     1     -10.793   6.016  71.791  1.00  0.00    -0.312 A  
HETATM   21  C   UNL     1      -8.413   5.209  67.951  1.00  0.00    -0.104 A  
HETATM   22  H   UNL     1     -12.200   5.933  68.910  1.00  0.00     0.000 HD 
HETATM   23  C   UNL     1      -7.909   4.574  66.814  1.00  0.00    -0.098 A  
HETATM   24  C   UNL     1     -10.702   5.339  73.008  1.00  0.00    -0.305 A  
HETATM   25  C   UNL     1      -8.747   4.332  65.731  1.00  0.00    -0.119 A  
HETATM   26  C   UNL     1     -10.169   4.055  73.049  1.00  0.00    -0.225 A  
HETATM   27  C   UNL     1     -10.082   4.720  65.787  1.00  0.00    -0.236 A  
HETATM   28  C   UNL     1      -9.771   3.435  71.868  1.00  0.00    -0.235 A  
HETATM   29  C   UNL     1      -9.869   4.110  70.648  1.00  0.00    -0.249 A  
HETATM   30  C   UNL     1     -10.590   5.343  66.930  1.00  0.00    -0.320 A  
ENDBRANCH  13  14
ENDBRANCH   7  13
TORSDOF 2
ENDMDL
MODEL       63
REMARK 921   NORMALIZED FREE ENERGY PREDICTED BY IDOCK:   -5.83 KCAL/MOL
REMARK 922        TOTAL FREE ENERGY PREDICTED BY IDOCK:   -7.04 KCAL/MOL
REMARK 923 INTER-LIGAND FREE ENERGY PREDICTED BY IDOCK:   -6.79 KCAL/MOL
REMARK 924 INTRA-LIGAND FREE ENERGY PREDICTED BY IDOCK:   -0.25 KCAL/MOL
REMARK 927      BINDING AFFINITY PREDICTED BY RF-SCORE:    0.00 PKD
ROOT
HETATM    1  C   UNL     1      -7.752  17.166  66.231  1.00  0.00    -0.315 C  
HETATM    2  C   UNL     1      -6.251  17.338  66.474  1.00  0.00    -0.256 C  
HETATM    3  C   UNL     1      -6.133  17.898  67.882  1.00  0.00    -0.156 C  
HETATM    4  C   UNL     1      -7.573  18.051  68.398  1.00  0.00    -0.284 C  
HETATM    5  N   UNL     1      -8.399  18.247  67.124  1.00  0.00    -0.241 N  
HETATM    6  C   UNL     1      -8.016  16.783  69.116  1.00  0.00    -0.126 C  
HETATM    7  C   UNL     1      -8.457  15.633  68.201  1.00  0.00    -0.147 C  
HETATM    8  C   UNL     1      -9.929  18.130  67.256  1.00  0.00    -0.330 C  
HETATM    9  C   UNL     1     -10.436  18.880  66.049  1.00  0.00    -0.507 C  
HETATM   10  C   UNL     1      -9.634  20.150  66.147  1.00  0.00    -0.440 C  
HETATM   11  C   UNL     1      -8.184  15.769  66.694  1.00  0.00    -0.305 C  
HETATM   12  C   UNL     1      -8.231  19.692  66.544  1.00  0.00    -0.328 C  
ENDROOT
BRANCH   7  13
HETATM   13  O   UNL     1      -7.909  14.399  68.681  1.00  0.00    -0.131 OA 
BRANCH  13  14
HETATM   14  C   UNL     1      -7.919  13.388  67.738  1.00  0.00    -0.167 C  
HETATM   15  C   UNL     1      -9.184  12.475  67.922  1.00  0.00    -0.200 C  
HETATM   16  O   UNL     1      -7.033  13.253  66.901  1.00  0.00     0.101 OA 
HETATM   17  O   UNL     1      -9.946  12.931  69.058  1.00  0.00    -0.417 OA 
HETATM   18  C   UNL     1     -10.051  12.590  66.655  1.00  0.00    -0.241 A  
HETATM   19  C   UNL     1      -8.695  11.067  68.296  1.00  0.00    -0.144 A  
HETATM   20  C   UNL     1      -7.877  10.904  69.436  1.00  0.00    -0.048 A  
HETATM   21  C   UNL     1      -9.501  12.320  65.384  1.00  0.00     0.014 A  
HETATM   22  H   UNL     1     -10.712  12.379  69.169  1.00  0.00     0.000 HD 
HETATM   23  C   UNL     1     -10.271  12.405  64.223  1.00  0.00    -0.358 A  
HETATM   24  C   UNL     1      -7.281   9.676  69.734  1.00  0.00    -0.094 A  
HETATM   25  C   UNL     1     -11.608  12.780  64.308  1.00  0.00    -0.433 A  
HETATM   26  C   UNL     1      -7.506   8.579  68.910  1.00  0.00    -0.091 A  
HETATM   27  C   UNL     1     -12.171  13.065  65.548  1.00  0.00    -0.521 A  
HETATM   28  C   UNL     1      -8.361   8.699  67.818  1.00  0.00    -0.118 A  
HETATM   29  C   UNL     1      -8.964   9.925  67.524  1.00  0.00    -0.141 A  
HETATM   30  C   UNL     1     -11.404  12.966  66.712  1.00  0.00    -0.367 A  
ENDBRANCH  13  14
ENDBRANCH   7  13
TORSDOF 2
ENDMDL
MODEL       64
REMARK 921   NORMALIZED FREE ENERGY PREDICTED BY IDOCK:   -5.79 KCAL/MOL
REMARK 922        TOTAL FREE ENERGY PREDICTED BY IDOCK:   -7.00 KCAL/MOL
REMARK 923 INTER-LIGAND FREE ENERGY PREDICTED BY IDOCK:   -6.75 KCAL/MOL
REMARK 924 INTRA-LIGAND FREE ENERGY PREDICTED BY IDOCK:   -0.24 KCAL/MOL
REMARK 927      BINDING AFFINITY PREDICTED BY RF-SCORE:    0.00 PKD
ROOT
HETATM    1  C   UNL     1     -12.003  14.109  66.437  1.00  0.00    -0.436 C  
HETATM    2  C   UNL     1     -12.904  13.658  65.285  1.00  0.00    -0.421 C  
HETATM    3  C   UNL     1     -11.957  13.265  64.163  1.00  0.00    -0.505 C  
HETATM    4  C   UNL     1     -10.539  13.524  64.697  1.00  0.00    -0.427 C  
HETATM    5  N   UNL     1     -10.735  14.636  65.731  1.00  0.00    -0.301 N  
HETATM    6  C   UNL     1      -9.993  12.274  65.376  1.00  0.00    -0.264 C  
HETATM    7  C   UNL     1     -10.496  12.031  66.804  1.00  0.00    -0.214 C  
HETATM    8  C   UNL     1      -9.554  14.928  66.678  1.00  0.00    -0.266 C  
HETATM    9  C   UNL     1      -9.831  16.336  67.146  1.00  0.00    -0.243 C  
HETATM   10  C   UNL     1     -10.103  17.022  65.834  1.00  0.00    -0.281 C  
HETATM   11  C   UNL     1     -11.657  12.900  67.314  1.00  0.00    -0.416 C  
HETATM   12  C   UNL     1     -10.955  16.028  65.047  1.00  0.00    -0.380 C  
ENDROOT
BRANCH   7  13
HETATM   13  O   UNL     1     -10.822  10.645  66.971  1.00  0.00    -0.267 OA 
BRANCH  13  14
HETATM   14  C   UNL     1      -9.737   9.862  67.316  1.00  0.00    -0.171 C  
HETATM   15  C   UNL     1      -9.218   9.057  66.071  1.00  0.00    -0.226 C  
HETATM   16  O   UNL     1      -9.285   9.822  68.455  1.00  0.00    -0.132 OA 
HETATM   17  O   UNL     1     -10.060   9.334  64.934  1.00  0.00    -0.176 OA 
HETATM   18  C   UNL     1      -7.783   9.520  65.761  1.00  0.00    -0.100 A  
HETATM   19  C   UNL     1      -9.410   7.561  66.367  1.00  0.00    -0.211 A  
HETATM   20  C   UNL     1     -10.702   7.083  66.682  1.00  0.00    -0.133 A  
HETATM   21  C   UNL     1      -6.785   9.472  66.756  1.00  0.00    -0.072 A  
HETATM   22  H   UNL     1      -9.746   8.847  64.181  1.00  0.00     0.000 HD 
HETATM   23  C   UNL     1      -5.474   9.874  66.494  1.00  0.00    -0.045 A  
HETATM   24  C   UNL     1     -10.907   5.768  67.107  1.00  0.00    -0.308 A  
HETATM   25  C   UNL     1      -5.138  10.349  65.230  1.00  0.00    -0.094 A  
HETATM   26  C   UNL     1      -9.829   4.897  67.208  1.00  0.00    -0.214 A  
HETATM   27  C   UNL     1      -6.108  10.420  64.235  1.00  0.00    -0.081 A  
HETATM   28  C   UNL     1      -8.557   5.326  66.842  1.00  0.00    -0.105 A  
HETATM   29  C   UNL     1      -8.352   6.639  66.408  1.00  0.00    -0.121 A  
HETATM   30  C   UNL     1      -7.417  10.004  64.493  1.00  0.00    -0.142 A  
ENDBRANCH  13  14
ENDBRANCH   7  13
TORSDOF 2
ENDMDL
MODEL       65
REMARK 921   NORMALIZED FREE ENERGY PREDICTED BY IDOCK:   -5.78 KCAL/MOL
REMARK 922        TOTAL FREE ENERGY PREDICTED BY IDOCK:   -6.99 KCAL/MOL
REMARK 923 INTER-LIGAND FREE ENERGY PREDICTED BY IDOCK:   -6.48 KCAL/MOL
REMARK 924 INTRA-LIGAND FREE ENERGY PREDICTED BY IDOCK:   -0.51 KCAL/MOL
REMARK 927      BINDING AFFINITY PREDICTED BY RF-SCORE:    0.00 PKD
ROOT
HETATM    1  C   UNL     1      -9.128  15.849  67.814  1.00  0.00    -0.196 C  
HETATM    2  C   UNL     1      -9.204  15.207  69.201  1.00  0.00    -0.215 C  
HETATM    3  C   UNL     1     -10.688  15.092  69.511  1.00  0.00    -0.266 C  
HETATM    4  C   UNL     1     -11.420  15.692  68.299  1.00  0.00    -0.350 C  
HETATM    5  N   UNL     1     -10.416  16.697  67.727  1.00  0.00    -0.307 N  
HETATM    6  C   UNL     1     -11.718  14.609  67.270  1.00  0.00    -0.406 C  
HETATM    7  C   UNL     1     -10.536  14.217  66.373  1.00  0.00    -0.280 C  
HETATM    8  C   UNL     1     -10.712  17.261  66.324  1.00  0.00    -0.077 C  
HETATM    9  C   UNL     1      -9.915  18.541  66.294  1.00  0.00    -0.384 C  
HETATM   10  C   UNL     1     -10.327  19.163  67.602  1.00  0.00    -0.521 C  
HETATM   11  C   UNL     1      -9.143  14.750  66.745  1.00  0.00    -0.291 C  
HETATM   12  C   UNL     1     -10.345  18.000  68.593  1.00  0.00    -0.319 C  
ENDROOT
BRANCH   7  13
HETATM   13  O   UNL     1     -10.487  12.791  66.239  1.00  0.00    -0.251 OA 
BRANCH  13  14
HETATM   14  C   UNL     1      -9.954  12.152  67.344  1.00  0.00    -0.199 C  
HETATM   15  C   UNL     1      -8.697  11.303  66.936  1.00  0.00    -0.157 C  
HETATM   16  O   UNL     1     -10.438  12.254  68.465  1.00  0.00    -0.227 OA 
HETATM   17  O   UNL     1      -8.492  11.397  65.512  1.00  0.00    -0.383 OA 
HETATM   18  C   UNL     1      -7.468  11.880  67.661  1.00  0.00    -0.127 A  
HETATM   19  C   UNL     1      -9.024   9.825  67.205  1.00  0.00    -0.148 A  
HETATM   20  C   UNL     1     -10.154   9.247  66.585  1.00  0.00    -0.341 A  
HETATM   21  C   UNL     1      -7.464  12.017  69.065  1.00  0.00     0.017 A  
HETATM   22  H   UNL     1      -7.732  10.884  65.266  1.00  0.00     0.000 HD 
HETATM   23  C   UNL     1      -6.356  12.525  69.745  1.00  0.00    -0.076 A  
HETATM   24  C   UNL     1     -10.584   7.959  66.912  1.00  0.00    -0.333 A  
HETATM   25  C   UNL     1      -5.232  12.925  69.030  1.00  0.00    -0.068 A  
HETATM   26  C   UNL     1      -9.882   7.213  67.851  1.00  0.00    -0.170 A  
HETATM   27  C   UNL     1      -5.216  12.813  67.644  1.00  0.00    -0.101 A  
HETATM   28  C   UNL     1      -8.727   7.735  68.427  1.00  0.00    -0.127 A  
HETATM   29  C   UNL     1      -8.292   9.021  68.094  1.00  0.00    -0.121 A  
HETATM   30  C   UNL     1      -6.319  12.291  66.964  1.00  0.00    -0.054 A  
ENDBRANCH  13  14
ENDBRANCH   7  13
TORSDOF 2
ENDMDL
MODEL       66
REMARK 921   NORMALIZED FREE ENERGY PREDICTED BY IDOCK:   -5.77 KCAL/MOL
REMARK 922        TOTAL FREE ENERGY PREDICTED BY IDOCK:   -6.98 KCAL/MOL
REMARK 923 INTER-LIGAND FREE ENERGY PREDICTED BY IDOCK:   -6.23 KCAL/MOL
REMARK 924 INTRA-LIGAND FREE ENERGY PREDICTED BY IDOCK:   -0.74 KCAL/MOL
REMARK 927      BINDING AFFINITY PREDICTED BY RF-SCORE:    0.00 PKD
ROOT
HETATM    1  C   UNL     1      -8.087   7.269  65.747  1.00  0.00    -0.129 C  
HETATM    2  C   UNL     1      -7.104   7.108  66.909  1.00  0.00    -0.082 C  
HETATM    3  C   UNL     1      -6.394   8.447  67.024  1.00  0.00    -0.057 C  
HETATM    4  C   UNL     1      -6.975   9.331  65.908  1.00  0.00    -0.089 C  
HETATM    5  N   UNL     1      -7.421   8.327  64.841  1.00  0.00    -0.087 N  
HETATM    6  C   UNL     1      -8.179  10.110  66.424  1.00  0.00    -0.122 C  
HETATM    7  C   UNL     1      -9.491   9.318  66.493  1.00  0.00    -0.202 C  
HETATM    8  C   UNL     1      -8.325   8.860  63.713  1.00  0.00    -0.161 C  
HETATM    9  C   UNL     1      -8.128   7.849  62.610  1.00  0.00    -0.138 C  
HETATM   10  C   UNL     1      -6.626   7.760  62.571  1.00  0.00    -0.080 C  
HETATM   11  C   UNL     1      -9.424   7.797  66.283  1.00  0.00    -0.201 C  
HETATM   12  C   UNL     1      -6.201   7.759  64.039  1.00  0.00    -0.057 C  
ENDROOT
BRANCH   7  13
HETATM   13  O   UNL     1     -10.162   9.606  67.727  1.00  0.00    -0.179 OA 
BRANCH  13  14
HETATM   14  C   UNL     1     -10.862  10.797  67.708  1.00  0.00    -0.269 C  
HETATM   15  C   UNL     1     -10.242  11.818  68.728  1.00  0.00    -0.160 C  
HETATM   16  O   UNL     1     -11.837  10.981  66.987  1.00  0.00    -0.322 OA 
HETATM   17  O   UNL     1      -9.145  11.195  69.426  1.00  0.00    -0.391 OA 
HETATM   18  C   UNL     1      -9.713  13.029  67.938  1.00  0.00    -0.218 A  
HETATM   19  C   UNL     1     -11.300  12.107  69.804  1.00  0.00    -0.173 A  
HETATM   20  C   UNL     1     -11.839  11.030  70.545  1.00  0.00    -0.464 A  
HETATM   21  C   UNL     1     -10.565  13.744  67.070  1.00  0.00    -0.278 A  
HETATM   22  H   UNL     1      -8.769  11.812  70.043  1.00  0.00     0.000 HD 
HETATM   23  C   UNL     1     -10.111  14.854  66.354  1.00  0.00    -0.296 A  
HETATM   24  C   UNL     1     -12.909  11.216  71.423  1.00  0.00    -0.544 A  
HETATM   25  C   UNL     1      -8.787  15.261  66.479  1.00  0.00    -0.335 A  
HETATM   26  C   UNL     1     -13.451  12.484  71.596  1.00  0.00    -0.155 A  
HETATM   27  C   UNL     1      -7.923  14.563  67.317  1.00  0.00    -0.216 A  
HETATM   28  C   UNL     1     -12.895  13.571  70.927  1.00  0.00    -0.298 A  
HETATM   29  C   UNL     1     -11.819  13.387  70.054  1.00  0.00    -0.364 A  
HETATM   30  C   UNL     1      -8.381  13.462  68.045  1.00  0.00    -0.165 A  
ENDBRANCH  13  14
ENDBRANCH   7  13
TORSDOF 2
ENDMDL
MODEL       67
REMARK 921   NORMALIZED FREE ENERGY PREDICTED BY IDOCK:   -5.75 KCAL/MOL
REMARK 922        TOTAL FREE ENERGY PREDICTED BY IDOCK:   -6.96 KCAL/MOL
REMARK 923 INTER-LIGAND FREE ENERGY PREDICTED BY IDOCK:   -6.18 KCAL/MOL
REMARK 924 INTRA-LIGAND FREE ENERGY PREDICTED BY IDOCK:   -0.78 KCAL/MOL
REMARK 927      BINDING AFFINITY PREDICTED BY RF-SCORE:    0.00 PKD
ROOT
HETATM    1  C   UNL     1      -9.801  13.008  66.137  1.00  0.00    -0.273 C  
HETATM    2  C   UNL     1      -9.398  13.690  67.446  1.00  0.00    -0.227 C  
HETATM    3  C   UNL     1     -10.613  13.574  68.351  1.00  0.00    -0.258 C  
HETATM    4  C   UNL     1     -11.687  12.847  67.525  1.00  0.00    -0.367 C  
HETATM    5  N   UNL     1     -11.332  13.195  66.077  1.00  0.00    -0.300 N  
HETATM    6  C   UNL     1     -11.590  11.342  67.737  1.00  0.00    -0.307 C  
HETATM    7  C   UNL     1     -10.486  10.638  66.937  1.00  0.00    -0.249 C  
HETATM    8  C   UNL     1     -12.031  12.382  64.970  1.00  0.00    -0.402 C  
HETATM    9  C   UNL     1     -11.914  13.278  63.761  1.00  0.00    -0.551 C  
HETATM   10  C   UNL     1     -12.391  14.587  64.331  1.00  0.00    -0.437 C  
HETATM   11  C   UNL     1      -9.453  11.516  66.213  1.00  0.00    -0.235 C  
HETATM   12  C   UNL     1     -11.751  14.661  65.717  1.00  0.00    -0.302 C  
ENDROOT
BRANCH   7  13
HETATM   13  O   UNL     1      -9.811   9.693  67.777  1.00  0.00    -0.149 OA 
BRANCH  13  14
HETATM   14  C   UNL     1      -9.963   8.382  67.364  1.00  0.00    -0.212 C  
HETATM   15  C   UNL     1      -8.590   7.622  67.425  1.00  0.00    -0.125 C  
HETATM   16  O   UNL     1     -11.039   7.925  66.995  1.00  0.00    -0.078 OA 
HETATM   17  O   UNL     1      -7.555   8.530  67.850  1.00  0.00    -0.096 OA 
HETATM   18  C   UNL     1      -8.715   6.482  68.452  1.00  0.00    -0.121 A  
HETATM   19  C   UNL     1      -8.215   7.217  65.990  1.00  0.00    -0.138 A  
HETATM   20  C   UNL     1      -8.109   8.219  64.999  1.00  0.00    -0.148 A  
HETATM   21  C   UNL     1      -9.739   5.520  68.334  1.00  0.00    -0.168 A  
HETATM   22  H   UNL     1      -6.724   8.070  67.887  1.00  0.00     0.000 HD 
HETATM   23  C   UNL     1      -9.864   4.471  69.246  1.00  0.00    -0.241 A  
HETATM   24  C   UNL     1      -7.923   7.893  63.653  1.00  0.00    -0.118 A  
HETATM   25  C   UNL     1      -8.972   4.372  70.308  1.00  0.00    -0.142 A  
HETATM   26  C   UNL     1      -7.818   6.561  63.272  1.00  0.00    -0.104 A  
HETATM   27  C   UNL     1      -7.961   5.316  70.456  1.00  0.00    -0.099 A  
HETATM   28  C   UNL     1      -7.853   5.560  64.238  1.00  0.00    -0.110 A  
HETATM   29  C   UNL     1      -8.031   5.885  65.586  1.00  0.00    -0.118 A  
HETATM   30  C   UNL     1      -7.827   6.358  69.535  1.00  0.00    -0.101 A  
ENDBRANCH  13  14
ENDBRANCH   7  13
TORSDOF 2
ENDMDL
MODEL       68
REMARK 921   NORMALIZED FREE ENERGY PREDICTED BY IDOCK:   -5.75 KCAL/MOL
REMARK 922        TOTAL FREE ENERGY PREDICTED BY IDOCK:   -6.95 KCAL/MOL
REMARK 923 INTER-LIGAND FREE ENERGY PREDICTED BY IDOCK:   -6.26 KCAL/MOL
REMARK 924 INTRA-LIGAND FREE ENERGY PREDICTED BY IDOCK:   -0.69 KCAL/MOL
REMARK 927      BINDING AFFINITY PREDICTED BY RF-SCORE:    0.00 PKD
ROOT
HETATM    1  C   UNL     1      -7.917   8.430  67.906  1.00  0.00    -0.115 C  
HETATM    2  C   UNL     1      -6.874   9.498  67.570  1.00  0.00    -0.083 C  
HETATM    3  C   UNL     1      -7.454  10.271  66.396  1.00  0.00    -0.114 C  
HETATM    4  C   UNL     1      -8.804   9.608  66.079  1.00  0.00    -0.152 C  
HETATM    5  N   UNL     1      -8.625   8.165  66.559  1.00  0.00    -0.132 N  
HETATM    6  C   UNL     1      -9.922  10.283  66.864  1.00  0.00    -0.259 C  
HETATM    7  C   UNL     1     -10.045   9.851  68.331  1.00  0.00    -0.167 C  
HETATM    8  C   UNL     1      -9.895   7.300  66.667  1.00  0.00    -0.187 C  
HETATM    9  C   UNL     1      -9.356   5.892  66.616  1.00  0.00    -0.156 C  
HETATM   10  C   UNL     1      -8.446   5.981  65.420  1.00  0.00    -0.145 C  
HETATM   11  C   UNL     1      -8.913   8.996  68.926  1.00  0.00    -0.140 C  
HETATM   12  C   UNL     1      -7.747   7.332  65.566  1.00  0.00    -0.108 C  
ENDROOT
BRANCH   7  13
HETATM   13  O   UNL     1     -10.262  11.003  69.156  1.00  0.00    -0.210 OA 
BRANCH  13  14
HETATM   14  C   UNL     1     -11.370  11.743  68.786  1.00  0.00    -0.267 C  
HETATM   15  C   UNL     1     -11.034  13.278  68.792  1.00  0.00    -0.260 C  
HETATM   16  O   UNL     1     -12.449  11.229  68.514  1.00  0.00    -0.434 OA 
HETATM   17  O   UNL     1      -9.675  13.472  69.230  1.00  0.00    -0.316 OA 
HETATM   18  C   UNL     1     -11.181  13.809  67.355  1.00  0.00    -0.330 A  
HETATM   19  C   UNL     1     -11.909  13.944  69.865  1.00  0.00    -0.394 A  
HETATM   20  C   UNL     1     -11.834  13.482  71.198  1.00  0.00     0.238 A  
HETATM   21  C   UNL     1     -12.387  13.631  66.645  1.00  0.00    -0.381 A  
HETATM   22  H   UNL     1      -9.472  14.401  69.234  1.00  0.00     0.000 HD 
HETATM   23  C   UNL     1     -12.548  14.116  65.346  1.00  0.00    -0.485 A  
HETATM   24  C   UNL     1     -12.714  13.944  72.180  1.00  0.00    -0.324 A  
HETATM   25  C   UNL     1     -11.495  14.778  64.722  1.00  0.00    -0.410 A  
HETATM   26  C   UNL     1     -13.674  14.895  71.855  1.00  0.00    -0.527 A  
HETATM   27  C   UNL     1     -10.291  14.955  65.395  1.00  0.00    -0.413 A  
HETATM   28  C   UNL     1     -13.726  15.414  70.565  1.00  0.00     0.134 A  
HETATM   29  C   UNL     1     -12.840  14.957  69.584  1.00  0.00     0.153 A  
HETATM   30  C   UNL     1     -10.134  14.482  66.701  1.00  0.00    -0.275 A  
ENDBRANCH  13  14
ENDBRANCH   7  13
TORSDOF 2
ENDMDL
MODEL       69
REMARK 921   NORMALIZED FREE ENERGY PREDICTED BY IDOCK:   -5.71 KCAL/MOL
REMARK 922        TOTAL FREE ENERGY PREDICTED BY IDOCK:   -6.91 KCAL/MOL
REMARK 923 INTER-LIGAND FREE ENERGY PREDICTED BY IDOCK:   -6.65 KCAL/MOL
REMARK 924 INTRA-LIGAND FREE ENERGY PREDICTED BY IDOCK:   -0.26 KCAL/MOL
REMARK 927      BINDING AFFINITY PREDICTED BY RF-SCORE:    0.00 PKD
ROOT
HETATM    1  C   UNL     1      -9.886  13.233  66.204  1.00  0.00    -0.280 C  
HETATM    2  C   UNL     1     -10.018  14.530  67.007  1.00  0.00    -0.255 C  
HETATM    3  C   UNL     1     -11.444  14.534  67.533  1.00  0.00    -0.375 C  
HETATM    4  C   UNL     1     -12.096  13.249  66.998  1.00  0.00    -0.320 C  
HETATM    5  N   UNL     1     -11.323  12.956  65.709  1.00  0.00    -0.304 N  
HETATM    6  C   UNL     1     -11.908  12.107  67.989  1.00  0.00    -0.351 C  
HETATM    7  C   UNL     1     -10.530  11.432  67.956  1.00  0.00    -0.188 C  
HETATM    8  C   UNL     1     -11.520  11.565  65.075  1.00  0.00    -0.031 C  
HETATM    9  C   UNL     1     -11.109  11.783  63.639  1.00  0.00    -0.518 C  
HETATM   10  C   UNL     1     -11.891  13.025  63.306  1.00  0.00    -0.432 C  
HETATM   11  C   UNL     1      -9.420  12.106  67.134  1.00  0.00    -0.190 C  
HETATM   12  C   UNL     1     -11.758  13.909  64.545  1.00  0.00    -0.410 C  
ENDROOT
BRANCH   7  13
HETATM   13  O   UNL     1     -10.071  11.210  69.295  1.00  0.00    -0.159 OA 
BRANCH  13  14
HETATM   14  C   UNL     1      -9.098  10.233  69.389  1.00  0.00    -0.187 C  
HETATM   15  C   UNL     1      -9.729   8.807  69.203  1.00  0.00    -0.175 C  
HETATM   16  O   UNL     1      -7.919  10.491  69.604  1.00  0.00    -0.143 OA 
HETATM   17  O   UNL     1     -11.156   8.929  69.035  1.00  0.00    -0.432 OA 
HETATM   18  C   UNL     1      -9.126   8.174  67.936  1.00  0.00    -0.136 A  
HETATM   19  C   UNL     1      -9.537   8.034  70.517  1.00  0.00    -0.170 A  
HETATM   20  C   UNL     1     -10.050   8.579  71.717  1.00  0.00    -0.351 A  
HETATM   21  C   UNL     1      -7.728   8.052  67.793  1.00  0.00    -0.110 A  
HETATM   22  H   UNL     1     -11.538   8.067  68.922  1.00  0.00     0.000 HD 
HETATM   23  C   UNL     1      -7.159   7.469  66.659  1.00  0.00    -0.078 A  
HETATM   24  C   UNL     1      -9.771   7.999  72.956  1.00  0.00    -0.348 A  
HETATM   25  C   UNL     1      -7.979   7.009  65.635  1.00  0.00    -0.123 A  
HETATM   26  C   UNL     1      -8.993   6.849  73.023  1.00  0.00    -0.146 A  
HETATM   27  C   UNL     1      -9.361   7.130  65.745  1.00  0.00     0.164 A  
HETATM   28  C   UNL     1      -8.531   6.257  71.851  1.00  0.00    -0.124 A  
HETATM   29  C   UNL     1      -8.816   6.833  70.610  1.00  0.00    -0.151 A  
HETATM   30  C   UNL     1      -9.932   7.700  66.886  1.00  0.00    -0.325 A  
ENDBRANCH  13  14
ENDBRANCH   7  13
TORSDOF 2
ENDMDL
MODEL       70
REMARK 921   NORMALIZED FREE ENERGY PREDICTED BY IDOCK:   -5.65 KCAL/MOL
REMARK 922        TOTAL FREE ENERGY PREDICTED BY IDOCK:   -6.85 KCAL/MOL
REMARK 923 INTER-LIGAND FREE ENERGY PREDICTED BY IDOCK:   -6.30 KCAL/MOL
REMARK 924 INTRA-LIGAND FREE ENERGY PREDICTED BY IDOCK:   -0.55 KCAL/MOL
REMARK 927      BINDING AFFINITY PREDICTED BY RF-SCORE:    0.00 PKD
ROOT
HETATM    1  C   UNL     1      -7.904  16.326  66.645  1.00  0.00    -0.275 C  
HETATM    2  C   UNL     1      -6.420  16.407  67.009  1.00  0.00    -0.202 C  
HETATM    3  C   UNL     1      -6.387  16.771  68.485  1.00  0.00    -0.149 C  
HETATM    4  C   UNL     1      -7.856  16.910  68.918  1.00  0.00    -0.233 C  
HETATM    5  N   UNL     1      -8.582  17.304  67.629  1.00  0.00    -0.215 N  
HETATM    6  C   UNL     1      -8.386  15.576  69.428  1.00  0.00    -0.249 C  
HETATM    7  C   UNL     1      -8.794  14.575  68.339  1.00  0.00    -0.180 C  
HETATM    8  C   UNL     1     -10.121  17.230  67.641  1.00  0.00    -0.313 C  
HETATM    9  C   UNL     1     -10.517  18.151  66.513  1.00  0.00    -0.356 C  
HETATM   10  C   UNL     1      -9.688  19.366  66.835  1.00  0.00    -0.431 C  
HETATM   11  C   UNL     1      -8.409  14.898  66.886  1.00  0.00    -0.212 C  
HETATM   12  C   UNL     1      -8.331  18.806  67.261  1.00  0.00    -0.268 C  
ENDROOT
BRANCH   7  13
HETATM   13  O   UNL     1      -8.317  13.268  68.685  1.00  0.00    -0.109 OA 
BRANCH  13  14
HETATM   14  C   UNL     1      -9.221  12.260  68.403  1.00  0.00    -0.145 C  
HETATM   15  C   UNL     1      -8.546  10.852  68.569  1.00  0.00    -0.152 C  
HETATM   16  O   UNL     1     -10.377  12.484  68.061  1.00  0.00    -0.210 OA 
HETATM   17  O   UNL     1      -7.158  11.021  68.921  1.00  0.00    -0.081 OA 
HETATM   18  C   UNL     1      -9.266  10.102  69.704  1.00  0.00    -0.206 A  
HETATM   19  C   UNL     1      -8.537  10.172  67.190  1.00  0.00    -0.125 A  
HETATM   20  C   UNL     1      -7.911  10.825  66.105  1.00  0.00    -0.155 A  
HETATM   21  C   UNL     1     -10.663   9.912  69.662  1.00  0.00    -0.277 A  
HETATM   22  H   UNL     1      -6.750  10.169  69.022  1.00  0.00     0.000 HD 
HETATM   23  C   UNL     1     -11.336   9.223  70.673  1.00  0.00    -0.330 A  
HETATM   24  C   UNL     1      -8.007  10.328  64.804  1.00  0.00    -0.141 A  
HETATM   25  C   UNL     1     -10.624   8.723  71.758  1.00  0.00    -0.417 A  
HETATM   26  C   UNL     1      -8.712   9.155  64.561  1.00  0.00    -0.192 A  
HETATM   27  C   UNL     1      -9.247   8.909  71.830  1.00  0.00    -0.279 A  
HETATM   28  C   UNL     1      -9.283   8.459  65.623  1.00  0.00    -0.118 A  
HETATM   29  C   UNL     1      -9.180   8.952  66.927  1.00  0.00    -0.185 A  
HETATM   30  C   UNL     1      -8.571   9.586  70.811  1.00  0.00    -0.096 A  
ENDBRANCH  13  14
ENDBRANCH   7  13
TORSDOF 2
ENDMDL
MODEL       71
REMARK 921   NORMALIZED FREE ENERGY PREDICTED BY IDOCK:   -5.62 KCAL/MOL
REMARK 922        TOTAL FREE ENERGY PREDICTED BY IDOCK:   -6.81 KCAL/MOL
REMARK 923 INTER-LIGAND FREE ENERGY PREDICTED BY IDOCK:   -6.47 KCAL/MOL
REMARK 924 INTRA-LIGAND FREE ENERGY PREDICTED BY IDOCK:   -0.34 KCAL/MOL
REMARK 927      BINDING AFFINITY PREDICTED BY RF-SCORE:    0.00 PKD
ROOT
HETATM    1  C   UNL     1      -8.122  11.003  68.375  1.00  0.00    -0.134 C  
HETATM    2  C   UNL     1      -6.773  10.823  67.676  1.00  0.00    -0.069 C  
HETATM    3  C   UNL     1      -7.096  10.726  66.194  1.00  0.00    -0.122 C  
HETATM    4  C   UNL     1      -8.627  10.831  66.088  1.00  0.00    -0.168 C  
HETATM    5  N   UNL     1      -9.124  10.297  67.435  1.00  0.00    -0.138 N  
HETATM    6  C   UNL     1      -9.047  12.285  65.917  1.00  0.00     0.044 C  
HETATM    7  C   UNL     1      -9.070  13.115  67.207  1.00  0.00    -0.217 C  
HETATM    8  C   UNL     1     -10.605  10.543  67.782  1.00  0.00    -0.243 C  
HETATM    9  C   UNL     1     -10.894   9.486  68.819  1.00  0.00    -0.173 C  
HETATM   10  C   UNL     1     -10.337   8.263  68.140  1.00  0.00    -0.253 C  
HETATM   11  C   UNL     1      -8.449  12.498  68.471  1.00  0.00    -0.061 C  
HETATM   12  C   UNL     1      -9.028   8.735  67.507  1.00  0.00    -0.134 C  
ENDROOT
BRANCH   7  13
HETATM   13  O   UNL     1      -8.487  14.401  66.962  1.00  0.00    -0.213 OA 
BRANCH  13  14
HETATM   14  C   UNL     1      -8.689  15.303  67.991  1.00  0.00    -0.160 C  
HETATM   15  C   UNL     1     -10.118  15.946  67.888  1.00  0.00    -0.235 C  
HETATM   16  O   UNL     1      -7.834  15.544  68.836  1.00  0.00    -0.152 OA 
HETATM   17  O   UNL     1     -10.790  15.443  66.716  1.00  0.00    -0.310 OA 
HETATM   18  C   UNL     1     -10.919  15.545  69.140  1.00  0.00    -0.259 A  
HETATM   19  C   UNL     1      -9.936  17.452  67.640  1.00  0.00    -0.300 A  
HETATM   20  C   UNL     1      -9.189  17.880  66.519  1.00  0.00    -0.286 A  
HETATM   21  C   UNL     1     -10.414  15.812  70.429  1.00  0.00    -0.169 A  
HETATM   22  H   UNL     1     -11.654  15.833  66.654  1.00  0.00     0.000 HD 
HETATM   23  C   UNL     1     -11.129  15.469  71.578  1.00  0.00    -0.294 A  
HETATM   24  C   UNL     1      -8.864  19.225  66.332  1.00  0.00    -0.365 A  
HETATM   25  C   UNL     1     -12.361  14.835  71.460  1.00  0.00    -0.404 A  
HETATM   26  C   UNL     1      -9.296  20.176  67.250  1.00  0.00    -0.519 A  
HETATM   27  C   UNL     1     -12.875  14.548  70.199  1.00  0.00    -0.166 A  
HETATM   28  C   UNL     1     -10.088  19.788  68.327  1.00  0.00    -0.575 A  
HETATM   29  C   UNL     1     -10.421  18.442  68.510  1.00  0.00    -0.219 A  
HETATM   30  C   UNL     1     -12.167  14.904  69.049  1.00  0.00    -0.171 A  
ENDBRANCH  13  14
ENDBRANCH   7  13
TORSDOF 2
ENDMDL
MODEL       72
REMARK 921   NORMALIZED FREE ENERGY PREDICTED BY IDOCK:   -5.58 KCAL/MOL
REMARK 922        TOTAL FREE ENERGY PREDICTED BY IDOCK:   -6.77 KCAL/MOL
REMARK 923 INTER-LIGAND FREE ENERGY PREDICTED BY IDOCK:   -6.76 KCAL/MOL
REMARK 924 INTRA-LIGAND FREE ENERGY PREDICTED BY IDOCK:   -0.01 KCAL/MOL
REMARK 927      BINDING AFFINITY PREDICTED BY RF-SCORE:    0.00 PKD
ROOT
HETATM    1  C   UNL     1      -9.978   9.012  71.523  1.00  0.00    -0.321 C  
HETATM    2  C   UNL     1      -9.301   7.729  72.011  1.00  0.00    -0.199 C  
HETATM    3  C   UNL     1     -10.059   6.594  71.341  1.00  0.00    -0.209 C  
HETATM    4  C   UNL     1     -11.164   7.259  70.505  1.00  0.00    -0.279 C  
HETATM    5  N   UNL     1     -11.432   8.578  71.236  1.00  0.00    -0.266 N  
HETATM    6  C   UNL     1     -10.664   7.539  69.094  1.00  0.00    -0.163 C  
HETATM    7  C   UNL     1      -9.787   8.790  68.946  1.00  0.00    -0.178 C  
HETATM    8  C   UNL     1     -12.276   9.632  70.493  1.00  0.00    -0.083 C  
HETATM    9  C   UNL     1     -12.798  10.502  71.610  1.00  0.00    -0.581 C  
HETATM   10  C   UNL     1     -13.322   9.460  72.561  1.00  0.00    -0.420 C  
HETATM   11  C   UNL     1      -9.301   9.482  70.229  1.00  0.00    -0.305 C  
HETATM   12  C   UNL     1     -12.267   8.354  72.542  1.00  0.00    -0.316 C  
ENDROOT
BRANCH   7  13
HETATM   13  O   UNL     1      -8.666   8.494  68.103  1.00  0.00    -0.140 OA 
BRANCH  13  14
HETATM   14  C   UNL     1      -8.282   9.556  67.305  1.00  0.00    -0.114 C  
HETATM   15  C   UNL     1      -9.346   9.811  66.178  1.00  0.00    -0.191 C  
HETATM   16  O   UNL     1      -7.239  10.173  67.482  1.00  0.00    -0.087 OA 
HETATM   17  O   UNL     1     -10.396   8.827  66.275  1.00  0.00    -0.352 OA 
HETATM   18  C   UNL     1      -9.947  11.212  66.390  1.00  0.00    -0.257 A  
HETATM   19  C   UNL     1      -8.666   9.551  64.824  1.00  0.00    -0.225 A  
HETATM   20  C   UNL     1      -8.076   8.289  64.583  1.00  0.00    -0.150 A  
HETATM   21  C   UNL     1      -9.111  12.346  66.463  1.00  0.00    -0.181 A  
HETATM   22  H   UNL     1     -11.040   8.982  65.593  1.00  0.00     0.000 HD 
HETATM   23  C   UNL     1      -9.635  13.628  66.641  1.00  0.00    -0.289 A  
HETATM   24  C   UNL     1      -7.314   8.051  63.436  1.00  0.00    -0.107 A  
HETATM   25  C   UNL     1     -11.009  13.800  66.767  1.00  0.00    -0.307 A  
HETATM   26  C   UNL     1      -7.143   9.060  62.496  1.00  0.00    -0.094 A  
HETATM   27  C   UNL     1     -11.854  12.696  66.712  1.00  0.00    -0.440 A  
HETATM   28  C   UNL     1      -7.769  10.290  62.681  1.00  0.00    -0.155 A  
HETATM   29  C   UNL     1      -8.537  10.527  63.824  1.00  0.00    -0.151 A  
HETATM   30  C   UNL     1     -11.332  11.414  66.519  1.00  0.00    -0.195 A  
ENDBRANCH  13  14
ENDBRANCH   7  13
TORSDOF 2
ENDMDL
MODEL       73
REMARK 921   NORMALIZED FREE ENERGY PREDICTED BY IDOCK:   -5.58 KCAL/MOL
REMARK 922        TOTAL FREE ENERGY PREDICTED BY IDOCK:   -6.77 KCAL/MOL
REMARK 923 INTER-LIGAND FREE ENERGY PREDICTED BY IDOCK:   -7.17 KCAL/MOL
REMARK 924 INTRA-LIGAND FREE ENERGY PREDICTED BY IDOCK:    0.40 KCAL/MOL
REMARK 927      BINDING AFFINITY PREDICTED BY RF-SCORE:    0.00 PKD
ROOT
HETATM    1  C   UNL     1      -8.882  15.408  68.864  1.00  0.00    -0.211 C  
HETATM    2  C   UNL     1     -10.387  15.571  69.094  1.00  0.00    -0.237 C  
HETATM    3  C   UNL     1     -10.960  15.967  67.744  1.00  0.00    -0.307 C  
HETATM    4  C   UNL     1      -9.762  16.042  66.782  1.00  0.00    -0.239 C  
HETATM    5  N   UNL     1      -8.579  16.371  67.697  1.00  0.00    -0.173 N  
HETATM    6  C   UNL     1      -9.540  14.694  66.108  1.00  0.00    -0.336 C  
HETATM    7  C   UNL     1      -8.803  13.651  66.958  1.00  0.00    -0.223 C  
HETATM    8  C   UNL     1      -7.168  16.220  67.097  1.00  0.00    -0.208 C  
HETATM    9  C   UNL     1      -6.322  17.096  67.988  1.00  0.00    -0.146 C  
HETATM   10  C   UNL     1      -7.143  18.358  68.008  1.00  0.00    -0.237 C  
HETATM   11  C   UNL     1      -8.586  13.961  68.448  1.00  0.00    -0.169 C  
HETATM   12  C   UNL     1      -8.588  17.875  68.133  1.00  0.00    -0.264 C  
ENDROOT
BRANCH   7  13
HETATM   13  O   UNL     1      -9.446  12.377  66.820  1.00  0.00    -0.215 OA 
BRANCH  13  14
HETATM   14  C   UNL     1      -9.398  11.608  67.968  1.00  0.00    -0.178 C  
HETATM   15  C   UNL     1     -10.621  10.626  68.025  1.00  0.00    -0.211 C  
HETATM   16  O   UNL     1      -8.510  11.724  68.805  1.00  0.00    -0.105 OA 
HETATM   17  O   UNL     1     -11.470  10.845  66.881  1.00  0.00    -0.342 OA 
HETATM   18  C   UNL     1     -10.085   9.183  67.985  1.00  0.00    -0.238 A  
HETATM   19  C   UNL     1     -11.474  11.009  69.246  1.00  0.00    -0.370 A  
HETATM   20  C   UNL     1     -11.974  12.327  69.348  1.00  0.00    -0.318 A  
HETATM   21  C   UNL     1      -9.132   8.747  68.930  1.00  0.00    -0.141 A  
HETATM   22  H   UNL     1     -12.210  10.250  66.916  1.00  0.00     0.000 HD 
HETATM   23  C   UNL     1      -8.641   7.441  68.921  1.00  0.00    -0.129 A  
HETATM   24  C   UNL     1     -12.621  12.771  70.504  1.00  0.00    -0.191 A  
HETATM   25  C   UNL     1      -9.082   6.545  67.952  1.00  0.00    -0.113 A  
HETATM   26  C   UNL     1     -12.801  11.902  71.574  1.00  0.00    -0.421 A  
HETATM   27  C   UNL     1     -10.011   6.954  67.001  1.00  0.00    -0.257 A  
HETATM   28  C   UNL     1     -12.375  10.581  71.472  1.00  0.00    -0.443 A  
HETATM   29  C   UNL     1     -11.734  10.134  70.312  1.00  0.00    -0.361 A  
HETATM   30  C   UNL     1     -10.513   8.258  67.018  1.00  0.00    -0.384 A  
ENDBRANCH  13  14
ENDBRANCH   7  13
TORSDOF 2
ENDMDL
MODEL       74
REMARK 921   NORMALIZED FREE ENERGY PREDICTED BY IDOCK:   -5.57 KCAL/MOL
REMARK 922        TOTAL FREE ENERGY PREDICTED BY IDOCK:   -6.75 KCAL/MOL
REMARK 923 INTER-LIGAND FREE ENERGY PREDICTED BY IDOCK:   -7.02 KCAL/MOL
REMARK 924 INTRA-LIGAND FREE ENERGY PREDICTED BY IDOCK:    0.27 KCAL/MOL
REMARK 927      BINDING AFFINITY PREDICTED BY RF-SCORE:    0.00 PKD
ROOT
HETATM    1  C   UNL     1      -9.008  19.711  68.373  1.00  0.00    -0.319 C  
HETATM    2  C   UNL     1      -9.654  20.373  67.154  1.00  0.00    -0.587 C  
HETATM    3  C   UNL     1      -8.791  19.967  65.971  1.00  0.00    -0.287 C  
HETATM    4  C   UNL     1      -7.660  19.101  66.550  1.00  0.00    -0.251 C  
HETATM    5  N   UNL     1      -7.517  19.603  67.990  1.00  0.00    -0.288 N  
HETATM    6  C   UNL     1      -8.065  17.632  66.550  1.00  0.00    -0.306 C  
HETATM    7  C   UNL     1      -8.991  17.207  67.697  1.00  0.00    -0.226 C  
HETATM    8  C   UNL     1      -6.673  18.743  68.950  1.00  0.00    -0.280 C  
HETATM    9  C   UNL     1      -6.284  19.720  70.032  1.00  0.00    -0.361 C  
HETATM   10  C   UNL     1      -5.781  20.873  69.206  1.00  0.00    -0.352 C  
HETATM   11  C   UNL     1      -9.608  18.313  68.569  1.00  0.00    -0.358 C  
HETATM   12  C   UNL     1      -6.773  20.980  68.049  1.00  0.00    -0.176 C  
ENDROOT
BRANCH   7  13
HETATM   13  O   UNL     1     -10.028  16.358  67.190  1.00  0.00    -0.248 OA 
BRANCH  13  14
HETATM   14  C   UNL     1      -9.551  15.263  66.494  1.00  0.00    -0.271 C  
HETATM   15  C   UNL     1     -10.240  13.946  67.001  1.00  0.00    -0.254 C  
HETATM   16  O   UNL     1      -8.698  15.355  65.619  1.00  0.00     0.238 OA 
HETATM   17  O   UNL     1     -11.139  14.257  68.084  1.00  0.00    -0.244 OA 
HETATM   18  C   UNL     1     -11.046  13.343  65.836  1.00  0.00    -0.293 A  
HETATM   19  C   UNL     1      -9.150  13.055  67.617  1.00  0.00    -0.198 A  
HETATM   20  C   UNL     1      -8.362  13.564  68.675  1.00  0.00    -0.024 A  
HETATM   21  C   UNL     1     -10.420  13.060  64.603  1.00  0.00    -0.400 A  
HETATM   22  H   UNL     1     -11.555  13.460  68.391  1.00  0.00     0.000 HD 
HETATM   23  C   UNL     1     -11.127  12.501  63.537  1.00  0.00    -0.497 A  
HETATM   24  C   UNL     1      -7.262  12.859  69.167  1.00  0.00     0.087 A  
HETATM   25  C   UNL     1     -12.484  12.228  63.678  1.00  0.00    -0.647 A  
HETATM   26  C   UNL     1      -6.936  11.620  68.627  1.00  0.00    -0.088 A  
HETATM   27  C   UNL     1     -13.128  12.510  64.878  1.00  0.00     0.218 A  
HETATM   28  C   UNL     1      -7.735  11.068  67.630  1.00  0.00    -0.112 A  
HETATM   29  C   UNL     1      -8.842  11.770  67.143  1.00  0.00    -0.173 A  
HETATM   30  C   UNL     1     -12.417  13.057  65.950  1.00  0.00    -0.323 A  
ENDBRANCH  13  14
ENDBRANCH   7  13
TORSDOF 2
ENDMDL
MODEL       75
REMARK 921   NORMALIZED FREE ENERGY PREDICTED BY IDOCK:   -5.56 KCAL/MOL
REMARK 922        TOTAL FREE ENERGY PREDICTED BY IDOCK:   -6.74 KCAL/MOL
REMARK 923 INTER-LIGAND FREE ENERGY PREDICTED BY IDOCK:   -7.92 KCAL/MOL
REMARK 924 INTRA-LIGAND FREE ENERGY PREDICTED BY IDOCK:    1.18 KCAL/MOL
REMARK 927      BINDING AFFINITY PREDICTED BY RF-SCORE:    0.00 PKD
ROOT
HETATM    1  C   UNL     1      -8.725  17.391  66.566  1.00  0.00    -0.260 C  
HETATM    2  C   UNL     1      -7.403  16.624  66.642  1.00  0.00    -0.290 C  
HETATM    3  C   UNL     1      -7.427  15.913  67.985  1.00  0.00    -0.135 C  
HETATM    4  C   UNL     1      -8.755  16.312  68.651  1.00  0.00    -0.226 C  
HETATM    5  N   UNL     1      -9.071  17.681  68.042  1.00  0.00    -0.261 N  
HETATM    6  C   UNL     1      -9.849  15.316  68.289  1.00  0.00    -0.218 C  
HETATM    7  C   UNL     1     -10.476  15.508  66.902  1.00  0.00    -0.301 C  
HETATM    8  C   UNL     1     -10.492  18.235  68.266  1.00  0.00    -0.301 C  
HETATM    9  C   UNL     1     -10.317  19.719  68.057  1.00  0.00    -0.567 C  
HETATM   10  C   UNL     1      -9.117  19.989  68.924  1.00  0.00     0.034 C  
HETATM   11  C   UNL     1      -9.798  16.494  65.936  1.00  0.00    -0.324 C  
HETATM   12  C   UNL     1      -8.180  18.809  68.665  1.00  0.00    -0.329 C  
ENDROOT
BRANCH   7  13
HETATM   13  O   UNL     1     -10.629  14.235  66.262  1.00  0.00    -0.283 OA 
BRANCH  13  14
HETATM   14  C   UNL     1      -9.867  13.235  66.837  1.00  0.00    -0.247 C  
HETATM   15  C   UNL     1     -10.538  11.833  66.614  1.00  0.00    -0.240 C  
HETATM   16  O   UNL     1      -8.825  13.461  67.442  1.00  0.00    -0.193 OA 
HETATM   17  O   UNL     1     -11.786  12.002  65.911  1.00  0.00    -0.432 OA 
HETATM   18  C   UNL     1      -9.590  10.975  65.757  1.00  0.00    -0.260 A  
HETATM   19  C   UNL     1     -10.919  11.270  67.992  1.00  0.00    -0.302 A  
HETATM   20  C   UNL     1     -11.768  12.025  68.833  1.00  0.00    -0.383 A  
HETATM   21  C   UNL     1      -8.257  10.758  66.163  1.00  0.00    -0.163 A  
HETATM   22  H   UNL     1     -12.192  11.153  65.776  1.00  0.00     0.000 HD 
HETATM   23  C   UNL     1      -7.383   9.973  65.409  1.00  0.00    -0.139 A  
HETATM   24  C   UNL     1     -12.021  11.636  70.150  1.00  0.00    -0.441 A  
HETATM   25  C   UNL     1      -7.822   9.400  64.220  1.00  0.00    -0.124 A  
HETATM   26  C   UNL     1     -11.448  10.473  70.650  1.00  0.00    -0.418 A  
HETATM   27  C   UNL     1      -9.128   9.609  63.791  1.00  0.00    -0.220 A  
HETATM   28  C   UNL     1     -10.661   9.678  69.822  1.00  0.00    -0.267 A  
HETATM   29  C   UNL     1     -10.414  10.063  68.501  1.00  0.00    -0.229 A  
HETATM   30  C   UNL     1     -10.008  10.383  64.552  1.00  0.00    -0.401 A  
ENDBRANCH  13  14
ENDBRANCH   7  13
TORSDOF 2
ENDMDL
MODEL       76
REMARK 921   NORMALIZED FREE ENERGY PREDICTED BY IDOCK:   -5.54 KCAL/MOL
REMARK 922        TOTAL FREE ENERGY PREDICTED BY IDOCK:   -6.72 KCAL/MOL
REMARK 923 INTER-LIGAND FREE ENERGY PREDICTED BY IDOCK:   -6.14 KCAL/MOL
REMARK 924 INTRA-LIGAND FREE ENERGY PREDICTED BY IDOCK:   -0.58 KCAL/MOL
REMARK 927      BINDING AFFINITY PREDICTED BY RF-SCORE:    0.00 PKD
ROOT
HETATM    1  C   UNL     1      -6.219   7.657  66.349  1.00  0.00    -0.045 C  
HETATM    2  C   UNL     1      -6.514   8.191  64.946  1.00  0.00    -0.049 C  
HETATM    3  C   UNL     1      -7.867   7.612  64.570  1.00  0.00    -0.134 C  
HETATM    4  C   UNL     1      -8.300   6.743  65.762  1.00  0.00    -0.143 C  
HETATM    5  N   UNL     1      -6.977   6.313  66.401  1.00  0.00    -0.065 N  
HETATM    6  C   UNL     1      -9.112   7.568  66.752  1.00  0.00    -0.176 C  
HETATM    7  C   UNL     1      -8.288   8.461  67.690  1.00  0.00    -0.130 C  
HETATM    8  C   UNL     1      -7.050   5.677  67.803  1.00  0.00    -0.071 C  
HETATM    9  C   UNL     1      -5.756   4.906  67.897  1.00  0.00    -0.017 C  
HETATM   10  C   UNL     1      -5.772   4.164  66.587  1.00  0.00    -0.022 C  
HETATM   11  C   UNL     1      -6.790   8.627  67.391  1.00  0.00    -0.071 C  
HETATM   12  C   UNL     1      -6.273   5.187  65.569  1.00  0.00    -0.034 C  
ENDROOT
BRANCH   7  13
HETATM   13  O   UNL     1      -8.906   9.750  67.793  1.00  0.00    -0.128 OA 
BRANCH  13  14
HETATM   14  C   UNL     1      -9.249  10.096  69.086  1.00  0.00    -0.197 C  
HETATM   15  C   UNL     1     -10.775   9.829  69.342  1.00  0.00    -0.228 C  
HETATM   16  O   UNL     1      -8.441  10.556  69.885  1.00  0.00    -0.009 OA 
HETATM   17  O   UNL     1     -11.389   9.345  68.131  1.00  0.00    -0.497 OA 
HETATM   18  C   UNL     1     -10.902   8.754  70.436  1.00  0.00    -0.256 A  
HETATM   19  C   UNL     1     -11.446  11.183  69.626  1.00  0.00    -0.383 A  
HETATM   20  C   UNL     1     -11.343  12.216  68.668  1.00  0.00    -0.330 A  
HETATM   21  C   UNL     1     -10.276   8.929  71.688  1.00  0.00    -0.415 A  
HETATM   22  H   UNL     1     -12.313   9.183  68.285  1.00  0.00     0.000 HD 
HETATM   23  C   UNL     1     -10.387   7.974  72.699  1.00  0.00    -0.398 A  
HETATM   24  C   UNL     1     -11.799  13.508  68.940  1.00  0.00    -0.384 A  
HETATM   25  C   UNL     1     -11.116   6.811  72.472  1.00  0.00    -0.299 A  
HETATM   26  C   UNL     1     -12.386  13.791  70.167  1.00  0.00    -0.390 A  
HETATM   27  C   UNL     1     -11.732   6.608  71.241  1.00  0.00    -0.386 A  
HETATM   28  C   UNL     1     -12.557  12.774  71.103  1.00  0.00    -0.365 A  
HETATM   29  C   UNL     1     -12.109  11.479  70.828  1.00  0.00    -0.410 A  
HETATM   30  C   UNL     1     -11.632   7.570  70.233  1.00  0.00    -0.114 A  
ENDBRANCH  13  14
ENDBRANCH   7  13
TORSDOF 2
ENDMDL
MODEL       77
REMARK 921   NORMALIZED FREE ENERGY PREDICTED BY IDOCK:   -5.44 KCAL/MOL
REMARK 922        TOTAL FREE ENERGY PREDICTED BY IDOCK:   -6.61 KCAL/MOL
REMARK 923 INTER-LIGAND FREE ENERGY PREDICTED BY IDOCK:   -6.40 KCAL/MOL
REMARK 924 INTRA-LIGAND FREE ENERGY PREDICTED BY IDOCK:   -0.21 KCAL/MOL
REMARK 927      BINDING AFFINITY PREDICTED BY RF-SCORE:    0.00 PKD
ROOT
HETATM    1  C   UNL     1     -11.995  14.029  67.320  1.00  0.00    -0.413 C  
HETATM    2  C   UNL     1     -12.420  14.283  65.872  1.00  0.00    -0.404 C  
HETATM    3  C   UNL     1     -11.125  14.471  65.099  1.00  0.00    -0.374 C  
HETATM    4  C   UNL     1      -9.994  14.341  66.132  1.00  0.00    -0.314 C  
HETATM    5  N   UNL     1     -10.649  14.774  67.447  1.00  0.00    -0.264 N  
HETATM    6  C   UNL     1      -9.533  12.893  66.233  1.00  0.00    -0.205 C  
HETATM    7  C   UNL     1     -10.426  11.978  67.082  1.00  0.00    -0.220 C  
HETATM    8  C   UNL     1      -9.876  14.474  68.746  1.00  0.00    -0.220 C  
HETATM    9  C   UNL     1     -10.466  15.454  69.730  1.00  0.00    -0.303 C  
HETATM   10  C   UNL     1     -10.396  16.730  68.935  1.00  0.00    -0.317 C  
HETATM   11  C   UNL     1     -11.791  12.524  67.532  1.00  0.00    -0.389 C  
HETATM   12  C   UNL     1     -10.820  16.329  67.522  1.00  0.00    -0.268 C  
ENDROOT
BRANCH   7  13
HETATM   13  O   UNL     1     -10.605  10.724  66.412  1.00  0.00    -0.246 OA 
BRANCH  13  14
HETATM   14  C   UNL     1      -9.450   9.967  66.342  1.00  0.00    -0.186 C  
HETATM   15  C   UNL     1      -9.506   8.779  67.367  1.00  0.00    -0.146 C  
HETATM   16  O   UNL     1      -8.529  10.235  65.578  1.00  0.00    -0.149 OA 
HETATM   17  O   UNL     1     -10.732   8.851  68.122  1.00  0.00    -0.391 OA 
HETATM   18  C   UNL     1      -9.478   7.458  66.577  1.00  0.00    -0.229 A  
HETATM   19  C   UNL     1      -8.381   8.992  68.392  1.00  0.00    -0.124 A  
HETATM   20  C   UNL     1      -8.342  10.197  69.130  1.00  0.00    -0.154 A  
HETATM   21  C   UNL     1      -8.438   7.194  65.661  1.00  0.00    -0.141 A  
HETATM   22  H   UNL     1     -10.766   8.132  68.742  1.00  0.00     0.000 HD 
HETATM   23  C   UNL     1      -8.385   5.997  64.944  1.00  0.00    -0.104 A  
HETATM   24  C   UNL     1      -7.262  10.507  69.960  1.00  0.00    -0.105 A  
HETATM   25  C   UNL     1      -9.383   5.045  65.116  1.00  0.00    -0.062 A  
HETATM   26  C   UNL     1      -6.207   9.611  70.086  1.00  0.00    -0.064 A  
HETATM   27  C   UNL     1     -10.427   5.287  66.003  1.00  0.00    -0.187 A  
HETATM   28  C   UNL     1      -6.253   8.390  69.420  1.00  0.00    -0.037 A  
HETATM   29  C   UNL     1      -7.337   8.075  68.596  1.00  0.00    -0.089 A  
HETATM   30  C   UNL     1     -10.474   6.478  66.732  1.00  0.00    -0.300 A  
ENDBRANCH  13  14
ENDBRANCH   7  13
TORSDOF 2
ENDMDL
MODEL       78
REMARK 921   NORMALIZED FREE ENERGY PREDICTED BY IDOCK:   -5.41 KCAL/MOL
REMARK 922        TOTAL FREE ENERGY PREDICTED BY IDOCK:   -6.58 KCAL/MOL
REMARK 923 INTER-LIGAND FREE ENERGY PREDICTED BY IDOCK:   -6.14 KCAL/MOL
REMARK 924 INTRA-LIGAND FREE ENERGY PREDICTED BY IDOCK:   -0.44 KCAL/MOL
REMARK 927      BINDING AFFINITY PREDICTED BY RF-SCORE:    0.00 PKD
ROOT
HETATM    1  C   UNL     1     -10.242  15.036  69.871  1.00  0.00    -0.079 C  
HETATM    2  C   UNL     1      -9.491  14.232  68.808  1.00  0.00    -0.131 C  
HETATM    3  C   UNL     1     -10.453  14.116  67.637  1.00  0.00    -0.245 C  
HETATM    4  C   UNL     1     -11.738  14.839  68.072  1.00  0.00    -0.333 C  
HETATM    5  N   UNL     1     -11.728  14.714  69.598  1.00  0.00    -0.295 N  
HETATM    6  C   UNL     1     -11.682  16.307  67.669  1.00  0.00     0.362 C  
HETATM    7  C   UNL     1     -10.852  17.208  68.593  1.00  0.00    -0.250 C  
HETATM    8  C   UNL     1     -12.723  15.594  70.379  1.00  0.00    -0.282 C  
HETATM    9  C   UNL     1     -12.852  14.877  71.700  1.00  0.00    -0.402 C  
HETATM   10  C   UNL     1     -13.096  13.466  71.234  1.00  0.00    -0.317 C  
HETATM   11  C   UNL     1      -9.976  16.531  69.660  1.00  0.00    -0.044 C  
HETATM   12  C   UNL     1     -12.133  13.275  70.063  1.00  0.00    -0.315 C  
ENDROOT
BRANCH   7  13
HETATM   13  O   UNL     1     -10.050  18.097  67.804  1.00  0.00    -0.327 OA 
BRANCH  13  14
HETATM   14  C   UNL     1      -9.063  17.453  67.082  1.00  0.00    -0.237 C  
HETATM   15  C   UNL     1      -7.640  17.875  67.595  1.00  0.00    -0.212 C  
HETATM   16  O   UNL     1      -9.312  16.678  66.165  1.00  0.00    -0.292 OA 
HETATM   17  O   UNL     1      -7.777  18.854  68.645  1.00  0.00    -0.320 OA 
HETATM   18  C   UNL     1      -6.940  16.625  68.159  1.00  0.00    -0.156 A  
HETATM   19  C   UNL     1      -6.925  18.605  66.447  1.00  0.00    -0.254 A  
HETATM   20  C   UNL     1      -7.532  19.745  65.873  1.00  0.00    -0.335 A  
HETATM   21  C   UNL     1      -6.790  15.469  67.366  1.00  0.00    -0.224 A  
HETATM   22  H   UNL     1      -6.916  19.109  68.955  1.00  0.00     0.000 HD 
HETATM   23  C   UNL     1      -6.148  14.329  67.852  1.00  0.00    -0.157 A  
HETATM   24  C   UNL     1      -7.004  20.352  64.731  1.00  0.00    -0.066 A  
HETATM   25  C   UNL     1      -5.654  14.317  69.152  1.00  0.00    -0.087 A  
HETATM   26  C   UNL     1      -5.847  19.847  64.150  1.00  0.00    -0.316 A  
HETATM   27  C   UNL     1      -5.801  15.440  69.960  1.00  0.00    -0.142 A  
HETATM   28  C   UNL     1      -5.195  18.765  64.734  1.00  0.00    -0.229 A  
HETATM   29  C   UNL     1      -5.718  18.161  65.882  1.00  0.00    -0.234 A  
HETATM   30  C   UNL     1      -6.432  16.586  69.469  1.00  0.00    -0.223 A  
ENDBRANCH  13  14
ENDBRANCH   7  13
TORSDOF 2
ENDMDL
MODEL       79
REMARK 921   NORMALIZED FREE ENERGY PREDICTED BY IDOCK:   -5.41 KCAL/MOL
REMARK 922        TOTAL FREE ENERGY PREDICTED BY IDOCK:   -6.57 KCAL/MOL
REMARK 923 INTER-LIGAND FREE ENERGY PREDICTED BY IDOCK:   -6.01 KCAL/MOL
REMARK 924 INTRA-LIGAND FREE ENERGY PREDICTED BY IDOCK:   -0.56 KCAL/MOL
REMARK 927      BINDING AFFINITY PREDICTED BY RF-SCORE:    0.00 PKD
ROOT
HETATM    1  C   UNL     1      -9.480  12.334  68.277  1.00  0.00    -0.209 C  
HETATM    2  C   UNL     1     -10.487  11.456  69.023  1.00  0.00    -0.196 C  
HETATM    3  C   UNL     1     -11.577  11.144  68.011  1.00  0.00    -0.337 C  
HETATM    4  C   UNL     1     -11.175  11.873  66.718  1.00  0.00    -0.327 C  
HETATM    5  N   UNL     1     -10.335  13.055  67.212  1.00  0.00    -0.238 N  
HETATM    6  C   UNL     1     -10.326  10.963  65.839  1.00  0.00    -0.310 C  
HETATM    7  C   UNL     1      -8.851  10.850  66.246  1.00  0.00    -0.179 C  
HETATM    8  C   UNL     1      -9.519  13.824  66.155  1.00  0.00    -0.159 C  
HETATM    9  C   UNL     1      -9.281  15.161  66.812  1.00  0.00    -0.277 C  
HETATM   10  C   UNL     1     -10.673  15.501  67.273  1.00  0.00    -0.308 C  
HETATM   11  C   UNL     1      -8.431  11.443  67.601  1.00  0.00    -0.130 C  
HETATM   12  C   UNL     1     -11.232  14.187  67.817  1.00  0.00    -0.287 C  
ENDROOT
BRANCH   7  13
HETATM   13  O   UNL     1      -8.434   9.480  66.170  1.00  0.00    -0.117 OA 
BRANCH  13  14
HETATM   14  C   UNL     1      -9.310   8.603  66.782  1.00  0.00    -0.179 C  
HETATM   15  C   UNL     1      -8.574   7.777  67.896  1.00  0.00    -0.122 C  
HETATM   16  O   UNL     1     -10.488   8.509  66.456  1.00  0.00    -0.256 OA 
HETATM   17  O   UNL     1      -7.179   8.140  67.923  1.00  0.00    -0.087 OA 
HETATM   18  C   UNL     1      -9.211   8.122  69.254  1.00  0.00    -0.151 A  
HETATM   19  C   UNL     1      -8.602   6.298  67.477  1.00  0.00    -0.107 A  
HETATM   20  C   UNL     1      -8.052   5.926  66.230  1.00  0.00    -0.104 A  
HETATM   21  C   UNL     1     -10.600   7.975  69.450  1.00  0.00    -0.210 A  
HETATM   22  H   UNL     1      -6.734   7.640  68.597  1.00  0.00     0.000 HD 
HETATM   23  C   UNL     1     -11.199   8.269  70.677  1.00  0.00    -0.270 A  
HETATM   24  C   UNL     1      -8.188   4.627  65.734  1.00  0.00    -0.111 A  
HETATM   25  C   UNL     1     -10.418   8.733  71.731  1.00  0.00    -0.417 A  
HETATM   26  C   UNL     1      -8.858   3.667  66.483  1.00  0.00    -0.131 A  
HETATM   27  C   UNL     1      -9.048   8.899  71.559  1.00  0.00    -0.299 A  
HETATM   28  C   UNL     1      -9.352   3.992  67.743  1.00  0.00    -0.221 A  
HETATM   29  C   UNL     1      -9.209   5.290  68.243  1.00  0.00    -0.132 A  
HETATM   30  C   UNL     1      -8.447   8.592  70.335  1.00  0.00    -0.138 A  
ENDBRANCH  13  14
ENDBRANCH   7  13
TORSDOF 2
ENDMDL
MODEL       80
REMARK 921   NORMALIZED FREE ENERGY PREDICTED BY IDOCK:   -5.40 KCAL/MOL
REMARK 922        TOTAL FREE ENERGY PREDICTED BY IDOCK:   -6.56 KCAL/MOL
REMARK 923 INTER-LIGAND FREE ENERGY PREDICTED BY IDOCK:   -5.98 KCAL/MOL
REMARK 924 INTRA-LIGAND FREE ENERGY PREDICTED BY IDOCK:   -0.58 KCAL/MOL
REMARK 927      BINDING AFFINITY PREDICTED BY RF-SCORE:    0.00 PKD
ROOT
HETATM    1  C   UNL     1      -7.863   7.745  69.699  1.00  0.00    -0.107 C  
HETATM    2  C   UNL     1      -8.243   6.997  68.419  1.00  0.00    -0.124 C  
HETATM    3  C   UNL     1      -9.667   6.514  68.643  1.00  0.00    -0.128 C  
HETATM    4  C   UNL     1     -10.054   6.979  70.056  1.00  0.00    -0.187 C  
HETATM    5  N   UNL     1      -8.714   7.064  70.793  1.00  0.00    -0.147 N  
HETATM    6  C   UNL     1     -10.705   8.356  70.000  1.00  0.00    -0.236 C  
HETATM    7  C   UNL     1      -9.732   9.535  69.868  1.00  0.00    -0.224 C  
HETATM    8  C   UNL     1      -8.707   7.793  72.151  1.00  0.00    -0.130 C  
HETATM    9  C   UNL     1      -7.473   7.246  72.826  1.00  0.00    -0.082 C  
HETATM   10  C   UNL     1      -7.667   5.768  72.617  1.00  0.00    -0.101 C  
HETATM   11  C   UNL     1      -8.259   9.220  69.562  1.00  0.00    -0.121 C  
HETATM   12  C   UNL     1      -8.179   5.644  71.182  1.00  0.00    -0.121 C  
ENDROOT
BRANCH   7  13
HETATM   13  O   UNL     1     -10.236  10.469  68.904  1.00  0.00    -0.187 OA 
BRANCH  13  14
HETATM   14  C   UNL     1     -10.254   9.973  67.614  1.00  0.00    -0.204 C  
HETATM   15  C   UNL     1      -9.394  10.881  66.663  1.00  0.00    -0.171 C  
HETATM   16  O   UNL     1     -10.880   8.967  67.300  1.00  0.00    -0.223 OA 
HETATM   17  O   UNL     1      -8.873  12.001  67.406  1.00  0.00    -0.165 OA 
HETATM   18  C   UNL     1      -8.220  10.042  66.126  1.00  0.00    -0.121 A  
HETATM   19  C   UNL     1     -10.341  11.490  65.616  1.00  0.00    -0.308 A  
HETATM   20  C   UNL     1     -11.450  12.250  66.051  1.00  0.00    -0.434 A  
HETATM   21  C   UNL     1      -8.458   8.820  65.463  1.00  0.00    -0.181 A  
HETATM   22  H   UNL     1      -8.353  12.550  66.831  1.00  0.00     0.000 HD 
HETATM   23  C   UNL     1      -7.409   8.049  64.957  1.00  0.00    -0.079 A  
HETATM   24  C   UNL     1     -12.423  12.695  65.154  1.00  0.00    -0.531 A  
HETATM   25  C   UNL     1      -6.097   8.480  65.118  1.00  0.00    -0.052 A  
HETATM   26  C   UNL     1     -12.299  12.408  63.799  1.00  0.00    -0.625 A  
HETATM   27  C   UNL     1      -5.835   9.675  65.780  1.00  0.00    -0.055 A  
HETATM   28  C   UNL     1     -11.182  11.717  63.338  1.00  0.00    -0.440 A  
HETATM   29  C   UNL     1     -10.203  11.278  64.235  1.00  0.00    -0.383 A  
HETATM   30  C   UNL     1      -6.884  10.453  66.275  1.00  0.00    -0.117 A  
ENDBRANCH  13  14
ENDBRANCH   7  13
TORSDOF 2
ENDMDL
MODEL       81
REMARK 921   NORMALIZED FREE ENERGY PREDICTED BY IDOCK:   -5.39 KCAL/MOL
REMARK 922        TOTAL FREE ENERGY PREDICTED BY IDOCK:   -6.55 KCAL/MOL
REMARK 923 INTER-LIGAND FREE ENERGY PREDICTED BY IDOCK:   -6.40 KCAL/MOL
REMARK 924 INTRA-LIGAND FREE ENERGY PREDICTED BY IDOCK:   -0.16 KCAL/MOL
REMARK 927      BINDING AFFINITY PREDICTED BY RF-SCORE:    0.00 PKD
ROOT
HETATM    1  C   UNL     1     -10.665  16.253  65.936  1.00  0.00    -0.229 C  
HETATM    2  C   UNL     1      -9.668  15.171  65.514  1.00  0.00    -0.303 C  
HETATM    3  C   UNL     1      -8.681  15.062  66.665  1.00  0.00    -0.289 C  
HETATM    4  C   UNL     1      -9.128  16.103  67.705  1.00  0.00    -0.196 C  
HETATM    5  N   UNL     1      -9.845  17.168  66.871  1.00  0.00    -0.273 N  
HETATM    6  C   UNL     1     -10.101  15.476  68.696  1.00  0.00    -0.210 C  
HETATM    7  C   UNL     1     -11.546  15.340  68.198  1.00  0.00    -0.330 C  
HETATM    8  C   UNL     1     -10.683  18.210  67.637  1.00  0.00    -0.343 C  
HETATM    9  C   UNL     1     -10.778  19.357  66.661  1.00  0.00    -0.529 C  
HETATM   10  C   UNL     1      -9.336  19.507  66.258  1.00  0.00    -0.431 C  
HETATM   11  C   UNL     1     -11.821  15.605  66.709  1.00  0.00     0.509 C  
HETATM   12  C   UNL     1      -8.830  18.074  66.096  1.00  0.00    -0.085 C  
ENDROOT
BRANCH   7  13
HETATM   13  O   UNL     1     -12.060  14.052  68.562  1.00  0.00    -0.357 OA 
BRANCH  13  14
HETATM   14  C   UNL     1     -11.129  13.244  69.188  1.00  0.00    -0.209 C  
HETATM   15  C   UNL     1     -11.135  11.806  68.557  1.00  0.00    -0.239 C  
HETATM   16  O   UNL     1     -10.428  13.636  70.114  1.00  0.00     0.805 OA 
HETATM   17  O   UNL     1     -12.149  11.731  67.535  1.00  0.00    -0.599 OA 
HETATM   18  C   UNL     1      -9.757  11.552  67.919  1.00  0.00    -0.187 A  
HETATM   19  C   UNL     1     -11.581  10.818  69.648  1.00  0.00    -0.388 A  
HETATM   20  C   UNL     1     -12.827  11.014  70.285  1.00  0.00    -0.178 A  
HETATM   21  C   UNL     1      -8.579  11.687  68.683  1.00  0.00    -0.086 A  
HETATM   22  H   UNL     1     -12.152  10.861  67.154  1.00  0.00     0.000 HD 
HETATM   23  C   UNL     1      -7.320  11.450  68.130  1.00  0.00    -0.092 A  
HETATM   24  C   UNL     1     -13.211  10.242  71.383  1.00  0.00    -0.464 A  
HETATM   25  C   UNL     1      -7.212  11.088  66.791  1.00  0.00    -0.139 A  
HETATM   26  C   UNL     1     -12.369   9.243  71.856  1.00  0.00    -0.454 A  
HETATM   27  C   UNL     1      -8.358  10.961  66.013  1.00  0.00    -0.165 A  
HETATM   28  C   UNL     1     -11.166   8.987  71.204  1.00  0.00    -0.375 A  
HETATM   29  C   UNL     1     -10.784   9.755  70.100  1.00  0.00    -0.339 A  
HETATM   30  C   UNL     1      -9.620  11.185  66.570  1.00  0.00    -0.222 A  
ENDBRANCH  13  14
ENDBRANCH   7  13
TORSDOF 2
ENDMDL
MODEL       82
REMARK 921   NORMALIZED FREE ENERGY PREDICTED BY IDOCK:   -5.39 KCAL/MOL
REMARK 922        TOTAL FREE ENERGY PREDICTED BY IDOCK:   -6.55 KCAL/MOL
REMARK 923 INTER-LIGAND FREE ENERGY PREDICTED BY IDOCK:   -5.90 KCAL/MOL
REMARK 924 INTRA-LIGAND FREE ENERGY PREDICTED BY IDOCK:   -0.65 KCAL/MOL
REMARK 927      BINDING AFFINITY PREDICTED BY RF-SCORE:    0.00 PKD
ROOT
HETATM    1  C   UNL     1      -8.318   8.474  69.976  1.00  0.00    -0.123 C  
HETATM    2  C   UNL     1      -8.428   7.653  68.689  1.00  0.00    -0.129 C  
HETATM    3  C   UNL     1      -9.916   7.425  68.483  1.00  0.00    -0.172 C  
HETATM    4  C   UNL     1     -10.616   8.104  69.671  1.00  0.00    -0.223 C  
HETATM    5  N   UNL     1      -9.567   8.063  70.786  1.00  0.00    -0.161 N  
HETATM    6  C   UNL     1     -10.957   9.549  69.330  1.00  0.00    -0.167 C  
HETATM    7  C   UNL     1      -9.790  10.540  69.439  1.00  0.00    -0.182 C  
HETATM    8  C   UNL     1      -9.833   8.933  72.030  1.00  0.00    -0.255 C  
HETATM    9  C   UNL     1      -8.980   8.282  73.091  1.00  0.00    -0.301 C  
HETATM   10  C   UNL     1      -9.369   6.838  72.922  1.00  0.00    -0.151 C  
HETATM   11  C   UNL     1      -8.377   9.967  69.632  1.00  0.00    -0.188 C  
HETATM   12  C   UNL     1      -9.443   6.632  71.410  1.00  0.00    -0.158 C  
ENDROOT
BRANCH   7  13
HETATM   13  O   UNL     1      -9.803  11.424  68.311  1.00  0.00    -0.186 OA 
BRANCH  13  14
HETATM   14  C   UNL     1      -9.713  12.760  68.657  1.00  0.00    -0.043 C  
HETATM   15  C   UNL     1     -11.100  13.472  68.471  1.00  0.00    -0.272 C  
HETATM   16  O   UNL     1      -8.668  13.276  69.038  1.00  0.00     0.199 OA 
HETATM   17  O   UNL     1     -12.058  12.531  67.945  1.00  0.00    -0.384 OA 
HETATM   18  C   UNL     1     -11.580  13.961  69.850  1.00  0.00    -0.310 A  
HETATM   19  C   UNL     1     -10.935  14.541  67.380  1.00  0.00    -0.306 A  
HETATM   20  C   UNL     1     -10.475  14.154  66.101  1.00  0.00    -0.297 A  
HETATM   21  C   UNL     1     -10.763  14.800  70.636  1.00  0.00     0.149 A  
HETATM   22  H   UNL     1     -12.897  12.962  67.833  1.00  0.00     0.000 HD 
HETATM   23  C   UNL     1     -11.182  15.267  71.883  1.00  0.00    -0.350 A  
HETATM   24  C   UNL     1     -10.162  15.100  65.123  1.00  0.00    -0.386 A  
HETATM   25  C   UNL     1     -12.426  14.889  72.378  1.00  0.00    -0.426 A  
HETATM   26  C   UNL     1     -10.321  16.454  65.394  1.00  0.00    -0.287 A  
HETATM   27  C   UNL     1     -13.245  14.052  71.628  1.00  0.00    -0.442 A  
HETATM   28  C   UNL     1     -10.834  16.858  66.624  1.00  0.00     0.023 A  
HETATM   29  C   UNL     1     -11.156  15.910  67.600  1.00  0.00    -0.266 A  
HETATM   30  C   UNL     1     -12.832  13.595  70.374  1.00  0.00    -0.108 A  
ENDBRANCH  13  14
ENDBRANCH   7  13
TORSDOF 2
ENDMDL
MODEL       83
REMARK 921   NORMALIZED FREE ENERGY PREDICTED BY IDOCK:   -5.35 KCAL/MOL
REMARK 922        TOTAL FREE ENERGY PREDICTED BY IDOCK:   -6.51 KCAL/MOL
REMARK 923 INTER-LIGAND FREE ENERGY PREDICTED BY IDOCK:   -5.88 KCAL/MOL
REMARK 924 INTRA-LIGAND FREE ENERGY PREDICTED BY IDOCK:   -0.63 KCAL/MOL
REMARK 927      BINDING AFFINITY PREDICTED BY RF-SCORE:    0.00 PKD
ROOT
HETATM    1  C   UNL     1     -10.205   7.643  67.811  1.00  0.00    -0.201 C  
HETATM    2  C   UNL     1     -11.349   7.374  68.792  1.00  0.00     0.371 C  
HETATM    3  C   UNL     1     -10.765   7.628  70.172  1.00  0.00    -0.245 C  
HETATM    4  C   UNL     1      -9.295   8.016  69.943  1.00  0.00    -0.156 C  
HETATM    5  N   UNL     1      -8.934   7.321  68.627  1.00  0.00    -0.129 N  
HETATM    6  C   UNL     1      -9.163   9.525  69.789  1.00  0.00    -0.224 C  
HETATM    7  C   UNL     1      -9.532  10.076  68.405  1.00  0.00    -0.141 C  
HETATM    8  C   UNL     1      -7.618   7.747  67.949  1.00  0.00    -0.116 C  
HETATM    9  C   UNL     1      -7.296   6.572  67.058  1.00  0.00    -0.079 C  
HETATM   10  C   UNL     1      -7.463   5.430  68.024  1.00  0.00    -0.077 C  
HETATM   11  C   UNL     1     -10.217   9.124  67.412  1.00  0.00    -0.310 C  
HETATM   12  C   UNL     1      -8.714   5.784  68.827  1.00  0.00    -0.108 C  
ENDROOT
BRANCH   7  13
HETATM   13  O   UNL     1     -10.319  11.265  68.555  1.00  0.00    -0.187 OA 
BRANCH  13  14
HETATM   14  C   UNL     1      -9.947  12.284  67.698  1.00  0.00    -0.198 C  
HETATM   15  C   UNL     1     -11.070  13.379  67.622  1.00  0.00    -0.265 C  
HETATM   16  O   UNL     1      -8.882  12.282  67.090  1.00  0.00    -0.180 OA 
HETATM   17  O   UNL     1     -12.190  12.977  68.436  1.00  0.00    -0.223 OA 
HETATM   18  C   UNL     1     -10.496  14.698  68.170  1.00  0.00    -0.237 A  
HETATM   19  C   UNL     1     -11.602  13.406  66.180  1.00  0.00    -0.378 A  
HETATM   20  C   UNL     1     -12.119  12.218  65.616  1.00  0.00    -0.306 A  
HETATM   21  C   UNL     1      -9.317  15.246  67.625  1.00  0.00    -0.199 A  
HETATM   22  H   UNL     1     -12.869  13.640  68.391  1.00  0.00     0.000 HD 
HETATM   23  C   UNL     1      -8.785  16.448  68.097  1.00  0.00    -0.191 A  
HETATM   24  C   UNL     1     -12.472  12.148  64.266  1.00  0.00    -0.461 A  
HETATM   25  C   UNL     1      -9.415  17.119  69.139  1.00  0.00    -0.085 A  
HETATM   26  C   UNL     1     -12.335  13.269  63.456  1.00  0.00    -0.442 A  
HETATM   27  C   UNL     1     -10.572  16.592  69.704  1.00  0.00    -0.302 A  
HETATM   28  C   UNL     1     -11.889  14.468  64.004  1.00  0.00    -0.178 A  
HETATM   29  C   UNL     1     -11.544  14.541  65.356  1.00  0.00    -0.355 A  
HETATM   30  C   UNL     1     -11.113  15.396  69.222  1.00  0.00    -0.280 A  
ENDBRANCH  13  14
ENDBRANCH   7  13
TORSDOF 2
ENDMDL
MODEL       84
REMARK 921   NORMALIZED FREE ENERGY PREDICTED BY IDOCK:   -5.28 KCAL/MOL
REMARK 922        TOTAL FREE ENERGY PREDICTED BY IDOCK:   -6.43 KCAL/MOL
REMARK 923 INTER-LIGAND FREE ENERGY PREDICTED BY IDOCK:   -6.68 KCAL/MOL
REMARK 924 INTRA-LIGAND FREE ENERGY PREDICTED BY IDOCK:    0.25 KCAL/MOL
REMARK 927      BINDING AFFINITY PREDICTED BY RF-SCORE:    0.00 PKD
ROOT
HETATM    1  C   UNL     1     -11.277   6.512  71.104  1.00  0.00    -0.302 C  
HETATM    2  C   UNL     1     -12.706   7.051  71.194  1.00  0.00    -0.361 C  
HETATM    3  C   UNL     1     -12.560   8.526  71.529  1.00  0.00    -0.348 C  
HETATM    4  C   UNL     1     -11.049   8.785  71.644  1.00  0.00    -0.327 C  
HETATM    5  N   UNL     1     -10.475   7.426  72.055  1.00  0.00    -0.196 N  
HETATM    6  C   UNL     1     -10.479   9.203  70.294  1.00  0.00    -0.257 C  
HETATM    7  C   UNL     1     -10.217   8.056  69.311  1.00  0.00    -0.213 C  
HETATM    8  C   UNL     1      -8.946   7.255  71.965  1.00  0.00    -0.128 C  
HETATM    9  C   UNL     1      -8.674   6.106  72.904  1.00  0.00    -0.122 C  
HETATM   10  C   UNL     1      -9.443   6.546  74.121  1.00  0.00    -0.232 C  
HETATM   11  C   UNL     1     -10.766   6.665  69.666  1.00  0.00    -0.306 C  
HETATM   12  C   UNL     1     -10.747   7.119  73.567  1.00  0.00    -0.333 C  
ENDROOT
BRANCH   7  13
HETATM   13  O   UNL     1     -10.666   8.431  68.002  1.00  0.00    -0.168 OA 
BRANCH  13  14
HETATM   14  C   UNL     1     -10.433   9.760  67.701  1.00  0.00    -0.251 C  
HETATM   15  C   UNL     1      -9.148   9.907  66.810  1.00  0.00    -0.143 C  
HETATM   16  O   UNL     1     -11.152  10.666  68.107  1.00  0.00    -0.244 OA 
HETATM   17  O   UNL     1      -8.553   8.610  66.604  1.00  0.00    -0.113 OA 
HETATM   18  C   UNL     1      -9.569  10.490  65.448  1.00  0.00    -0.291 A  
HETATM   19  C   UNL     1      -8.112  10.710  67.612  1.00  0.00    -0.107 A  
HETATM   20  C   UNL     1      -7.705  10.235  68.879  1.00  0.00    -0.098 A  
HETATM   21  C   UNL     1     -10.286  11.702  65.379  1.00  0.00    -0.313 A  
HETATM   22  H   UNL     1      -7.776   8.699  66.065  1.00  0.00     0.000 HD 
HETATM   23  C   UNL     1     -10.667  12.256  64.156  1.00  0.00    -0.412 A  
HETATM   24  C   UNL     1      -6.887  10.999  69.713  1.00  0.00    -0.116 A  
HETATM   25  C   UNL     1     -10.350  11.598  62.973  1.00  0.00    -0.284 A  
HETATM   26  C   UNL     1      -6.439  12.246  69.291  1.00  0.00    -0.109 A  
HETATM   27  C   UNL     1      -9.655  10.394  63.014  1.00  0.00    -0.341 A  
HETATM   28  C   UNL     1      -6.772  12.707  68.021  1.00  0.00    -0.095 A  
HETATM   29  C   UNL     1      -7.585  11.938  67.182  1.00  0.00    -0.154 A  
HETATM   30  C   UNL     1      -9.262   9.846  64.237  1.00  0.00    -0.317 A  
ENDBRANCH  13  14
ENDBRANCH   7  13
TORSDOF 2
ENDMDL
MODEL       85
REMARK 921   NORMALIZED FREE ENERGY PREDICTED BY IDOCK:   -5.28 KCAL/MOL
REMARK 922        TOTAL FREE ENERGY PREDICTED BY IDOCK:   -6.43 KCAL/MOL
REMARK 923 INTER-LIGAND FREE ENERGY PREDICTED BY IDOCK:   -5.58 KCAL/MOL
REMARK 924 INTRA-LIGAND FREE ENERGY PREDICTED BY IDOCK:   -0.85 KCAL/MOL
REMARK 927      BINDING AFFINITY PREDICTED BY RF-SCORE:    0.00 PKD
ROOT
HETATM    1  C   UNL     1      -9.221  16.638  68.288  1.00  0.00    -0.217 C  
HETATM    2  C   UNL     1     -10.749  16.546  68.299  1.00  0.00    -0.345 C  
HETATM    3  C   UNL     1     -11.125  15.957  66.949  1.00  0.00    -0.082 C  
HETATM    4  C   UNL     1      -9.802  15.749  66.194  1.00  0.00    -0.315 C  
HETATM    5  N   UNL     1      -8.870  16.806  66.794  1.00  0.00    -0.215 N  
HETATM    6  C   UNL     1      -9.251  14.355  66.465  1.00  0.00    -0.269 C  
HETATM    7  C   UNL     1      -8.523  14.188  67.805  1.00  0.00    -0.178 C  
HETATM    8  C   UNL     1      -7.368  16.676  66.475  1.00  0.00    -0.238 C  
HETATM    9  C   UNL     1      -6.846  18.072  66.714  1.00  0.00    -0.228 C  
HETATM   10  C   UNL     1      -7.847  18.886  65.938  1.00  0.00    -0.114 C  
HETATM   11  C   UNL     1      -8.630  15.330  68.828  1.00  0.00    -0.190 C  
HETATM   12  C   UNL     1      -9.196  18.238  66.251  1.00  0.00    -0.203 C  
ENDROOT
BRANCH   7  13
HETATM   13  O   UNL     1      -8.920  12.954  68.418  1.00  0.00    -0.187 OA 
BRANCH  13  14
HETATM   14  C   UNL     1      -8.158  11.872  68.020  1.00  0.00    -0.151 C  
HETATM   15  C   UNL     1      -9.076  10.724  67.466  1.00  0.00    -0.139 C  
HETATM   16  O   UNL     1      -6.936  11.851  68.120  1.00  0.00    -0.069 OA 
HETATM   17  O   UNL     1     -10.458  11.117  67.578  1.00  0.00    -0.188 OA 
HETATM   18  C   UNL     1      -8.732  10.507  65.981  1.00  0.00    -0.174 A  
HETATM   19  C   UNL     1      -8.919   9.509  68.394  1.00  0.00    -0.127 A  
HETATM   20  C   UNL     1      -9.197   9.656  69.772  1.00  0.00    -0.237 A  
HETATM   21  C   UNL     1      -7.406  10.232  65.585  1.00  0.00    -0.149 A  
HETATM   22  H   UNL     1     -11.013  10.422  67.242  1.00  0.00     0.000 HD 
HETATM   23  C   UNL     1      -7.074  10.018  64.246  1.00  0.00    -0.130 A  
HETATM   24  C   UNL     1      -8.925   8.632  70.681  1.00  0.00    -0.199 A  
HETATM   25  C   UNL     1      -8.062  10.091  63.271  1.00  0.00    -0.159 A  
HETATM   26  C   UNL     1      -8.389   7.431  70.232  1.00  0.00    -0.134 A  
HETATM   27  C   UNL     1      -9.375  10.374  63.633  1.00  0.00    -0.329 A  
HETATM   28  C   UNL     1      -8.167   7.239  68.871  1.00  0.00    -0.125 A  
HETATM   29  C   UNL     1      -8.446   8.261  67.959  1.00  0.00    -0.132 A  
HETATM   30  C   UNL     1      -9.711  10.574  64.974  1.00  0.00    -0.351 A  
ENDBRANCH  13  14
ENDBRANCH   7  13
TORSDOF 2
ENDMDL
MODEL       86
REMARK 921   NORMALIZED FREE ENERGY PREDICTED BY IDOCK:   -5.27 KCAL/MOL
REMARK 922        TOTAL FREE ENERGY PREDICTED BY IDOCK:   -6.42 KCAL/MOL
REMARK 923 INTER-LIGAND FREE ENERGY PREDICTED BY IDOCK:   -5.65 KCAL/MOL
REMARK 924 INTRA-LIGAND FREE ENERGY PREDICTED BY IDOCK:   -0.77 KCAL/MOL
REMARK 927      BINDING AFFINITY PREDICTED BY RF-SCORE:    0.00 PKD
ROOT
HETATM    1  C   UNL     1      -9.130   5.884  71.080  1.00  0.00    -0.143 C  
HETATM    2  C   UNL     1     -10.475   5.408  70.526  1.00  0.00    -0.335 C  
HETATM    3  C   UNL     1     -11.324   6.662  70.395  1.00  0.00    -0.421 C  
HETATM    4  C   UNL     1     -10.447   7.820  70.899  1.00  0.00    -0.206 C  
HETATM    5  N   UNL     1      -9.490   7.150  71.889  1.00  0.00    -0.146 N  
HETATM    6  C   UNL     1      -9.660   8.429  69.745  1.00  0.00    -0.170 C  
HETATM    7  C   UNL     1      -8.406   7.651  69.325  1.00  0.00    -0.134 C  
HETATM    8  C   UNL     1      -8.274   7.974  72.354  1.00  0.00    -0.145 C  
HETATM    9  C   UNL     1      -7.883   7.305  73.649  1.00  0.00    -0.129 C  
HETATM   10  C   UNL     1      -9.217   7.229  74.343  1.00  0.00    -0.169 C  
HETATM   11  C   UNL     1      -8.201   6.246  69.915  1.00  0.00    -0.121 C  
HETATM   12  C   UNL     1     -10.199   6.822  73.246  1.00  0.00    -0.247 C  
ENDROOT
BRANCH   7  13
HETATM   13  O   UNL     1      -8.336   7.588  67.895  1.00  0.00    -0.122 OA 
BRANCH  13  14
HETATM   14  C   UNL     1      -7.995   8.792  67.307  1.00  0.00    -0.097 C  
HETATM   15  C   UNL     1      -9.158   9.303  66.383  1.00  0.00    -0.160 C  
HETATM   16  O   UNL     1      -6.916   9.341  67.500  1.00  0.00    -0.076 OA 
HETATM   17  O   UNL     1     -10.229   8.338  66.378  1.00  0.00    -0.432 OA 
HETATM   18  C   UNL     1      -9.681  10.633  66.955  1.00  0.00    -0.213 A  
HETATM   19  C   UNL     1      -8.630   9.334  64.940  1.00  0.00    -0.204 A  
HETATM   20  C   UNL     1      -8.116   8.147  64.370  1.00  0.00    -0.138 A  
HETATM   21  C   UNL     1      -8.799  11.711  67.180  1.00  0.00    -0.172 A  
HETATM   22  H   UNL     1     -10.933   8.647  65.819  1.00  0.00     0.000 HD 
HETATM   23  C   UNL     1      -9.252  12.931  67.685  1.00  0.00    -0.193 A  
HETATM   24  C   UNL     1      -7.485   8.153  63.124  1.00  0.00    -0.117 A  
HETATM   25  C   UNL     1     -10.599  13.092  67.992  1.00  0.00    -0.246 A  
HETATM   26  C   UNL     1      -7.372   9.341  62.411  1.00  0.00    -0.104 A  
HETATM   27  C   UNL     1     -11.487  12.040  67.792  1.00  0.00    -0.394 A  
HETATM   28  C   UNL     1      -7.928  10.510  62.921  1.00  0.00    -0.125 A  
HETATM   29  C   UNL     1      -8.567  10.503  64.165  1.00  0.00    -0.153 A  
HETATM   30  C   UNL     1     -11.036  10.823  67.273  1.00  0.00    -0.339 A  
ENDBRANCH  13  14
ENDBRANCH   7  13
TORSDOF 2
ENDMDL
MODEL       87
REMARK 921   NORMALIZED FREE ENERGY PREDICTED BY IDOCK:   -5.26 KCAL/MOL
REMARK 922        TOTAL FREE ENERGY PREDICTED BY IDOCK:   -6.40 KCAL/MOL
REMARK 923 INTER-LIGAND FREE ENERGY PREDICTED BY IDOCK:   -5.81 KCAL/MOL
REMARK 924 INTRA-LIGAND FREE ENERGY PREDICTED BY IDOCK:   -0.59 KCAL/MOL
REMARK 927      BINDING AFFINITY PREDICTED BY RF-SCORE:    0.00 PKD
ROOT
HETATM    1  C   UNL     1      -9.928  13.039  68.317  1.00  0.00    -0.235 C  
HETATM    2  C   UNL     1     -10.394  11.651  68.763  1.00  0.00    -0.213 C  
HETATM    3  C   UNL     1     -11.736  11.438  68.082  1.00  0.00    -0.355 C  
HETATM    4  C   UNL     1     -12.012  12.722  67.282  1.00  0.00    -0.280 C  
HETATM    5  N   UNL     1     -11.243  13.802  68.048  1.00  0.00    -0.256 N  
HETATM    6  C   UNL     1     -11.459  12.594  65.868  1.00  0.00    -0.407 C  
HETATM    7  C   UNL     1      -9.948  12.824  65.732  1.00  0.00    -0.251 C  
HETATM    8  C   UNL     1     -11.058  15.161  67.345  1.00  0.00    -0.325 C  
HETATM    9  C   UNL     1     -10.790  16.106  68.491  1.00  0.00    -0.313 C  
HETATM   10  C   UNL     1     -11.911  15.740  69.428  1.00  0.00    -0.361 C  
HETATM   11  C   UNL     1      -9.116  12.911  67.022  1.00  0.00    -0.228 C  
HETATM   12  C   UNL     1     -11.986  14.215  69.364  1.00  0.00    -0.337 C  
ENDROOT
BRANCH   7  13
HETATM   13  O   UNL     1      -9.387  11.832  64.862  1.00  0.00    -0.104 OA 
BRANCH  13  14
HETATM   14  C   UNL     1      -9.415  10.555  65.392  1.00  0.00    -0.223 C  
HETATM   15  C   UNL     1      -7.959   9.987  65.539  1.00  0.00    -0.139 C  
HETATM   16  O   UNL     1     -10.460   9.981  65.678  1.00  0.00    -0.168 OA 
HETATM   17  O   UNL     1      -7.012  10.949  65.031  1.00  0.00    -0.360 OA 
HETATM   18  C   UNL     1      -7.682   9.749  67.034  1.00  0.00    -0.095 A  
HETATM   19  C   UNL     1      -7.837   8.766  64.613  1.00  0.00    -0.127 A  
HETATM   20  C   UNL     1      -8.102   8.920  63.234  1.00  0.00    -0.174 A  
HETATM   21  C   UNL     1      -8.545   8.938  67.802  1.00  0.00    -0.125 A  
HETATM   22  H   UNL     1      -6.131  10.605  65.121  1.00  0.00     0.000 HD 
HETATM   23  C   UNL     1      -8.307   8.698  69.156  1.00  0.00    -0.119 A  
HETATM   24  C   UNL     1      -8.157   7.818  62.377  1.00  0.00    -0.154 A  
HETATM   25  C   UNL     1      -7.206   9.278  69.776  1.00  0.00    -0.066 A  
HETATM   26  C   UNL     1      -7.926   6.541  62.875  1.00  0.00    -0.092 A  
HETATM   27  C   UNL     1      -6.347  10.093  69.045  1.00  0.00    -0.044 A  
HETATM   28  C   UNL     1      -7.599   6.371  64.217  1.00  0.00    -0.099 A  
HETATM   29  C   UNL     1      -7.536   7.474  65.074  1.00  0.00    -0.098 A  
HETATM   30  C   UNL     1      -6.577  10.323  67.686  1.00  0.00    -0.066 A  
ENDBRANCH  13  14
ENDBRANCH   7  13
TORSDOF 2
ENDMDL
MODEL       88
REMARK 921   NORMALIZED FREE ENERGY PREDICTED BY IDOCK:   -5.18 KCAL/MOL
REMARK 922        TOTAL FREE ENERGY PREDICTED BY IDOCK:   -6.31 KCAL/MOL
REMARK 923 INTER-LIGAND FREE ENERGY PREDICTED BY IDOCK:   -5.99 KCAL/MOL
REMARK 924 INTRA-LIGAND FREE ENERGY PREDICTED BY IDOCK:   -0.32 KCAL/MOL
REMARK 927      BINDING AFFINITY PREDICTED BY RF-SCORE:    0.00 PKD
ROOT
HETATM    1  C   UNL     1      -6.575   4.973  68.344  1.00  0.00    -0.045 C  
HETATM    2  C   UNL     1      -5.622   5.266  67.183  1.00  0.00    -0.013 C  
HETATM    3  C   UNL     1      -6.426   4.991  65.923  1.00  0.00    -0.040 C  
HETATM    4  C   UNL     1      -7.812   4.526  66.399  1.00  0.00    -0.099 C  
HETATM    5  N   UNL     1      -7.538   3.910  67.774  1.00  0.00    -0.067 N  
HETATM    6  C   UNL     1      -8.750   5.718  66.541  1.00  0.00    -0.123 C  
HETATM    7  C   UNL     1      -8.575   6.540  67.825  1.00  0.00    -0.117 C  
HETATM    8  C   UNL     1      -8.760   3.615  68.665  1.00  0.00    -0.102 C  
HETATM    9  C   UNL     1      -8.240   2.572  69.624  1.00  0.00    -0.067 C  
HETATM   10  C   UNL     1      -7.589   1.608  68.670  1.00  0.00    -0.046 C  
HETATM   11  C   UNL     1      -7.346   6.249  68.702  1.00  0.00    -0.086 C  
HETATM   12  C   UNL     1      -6.877   2.495  67.650  1.00  0.00    -0.040 C  
ENDROOT
BRANCH   7  13
HETATM   13  O   UNL     1      -8.624   7.938  67.512  1.00  0.00    -0.122 OA 
BRANCH  13  14
HETATM   14  C   UNL     1      -8.952   8.733  68.593  1.00  0.00    -0.138 C  
HETATM   15  C   UNL     1     -10.500   8.693  68.858  1.00  0.00    -0.192 C  
HETATM   16  O   UNL     1      -8.117   9.375  69.221  1.00  0.00    -0.096 OA 
HETATM   17  O   UNL     1     -11.138   7.871  67.860  1.00  0.00    -0.471 OA 
HETATM   18  C   UNL     1     -10.736   8.073  70.247  1.00  0.00    -0.239 A  
HETATM   19  C   UNL     1     -11.051  10.110  68.633  1.00  0.00    -0.254 A  
HETATM   20  C   UNL     1     -10.843  10.739  67.385  1.00  0.00    -0.345 A  
HETATM   21  C   UNL     1     -10.114   8.619  71.389  1.00  0.00    -0.325 A  
HETATM   22  H   UNL     1     -12.074   7.846  68.020  1.00  0.00     0.000 HD 
HETATM   23  C   UNL     1     -10.324   8.082  72.661  1.00  0.00    -0.398 A  
HETATM   24  C   UNL     1     -11.185  12.077  67.179  1.00  0.00    -0.374 A  
HETATM   25  C   UNL     1     -11.151   6.974  72.813  1.00  0.00    -0.320 A  
HETATM   26  C   UNL     1     -11.761  12.811  68.209  1.00  0.00    -0.388 A  
HETATM   27  C   UNL     1     -11.765   6.409  71.701  1.00  0.00    -0.367 A  
HETATM   28  C   UNL     1     -12.036  12.195  69.427  1.00  0.00    -0.329 A  
HETATM   29  C   UNL     1     -11.701  10.853  69.631  1.00  0.00    -0.403 A  
HETATM   30  C   UNL     1     -11.567   6.954  70.430  1.00  0.00    -0.385 A  
ENDBRANCH  13  14
ENDBRANCH   7  13
TORSDOF 2
ENDMDL
MODEL       89
REMARK 921   NORMALIZED FREE ENERGY PREDICTED BY IDOCK:   -5.17 KCAL/MOL
REMARK 922        TOTAL FREE ENERGY PREDICTED BY IDOCK:   -6.31 KCAL/MOL
REMARK 923 INTER-LIGAND FREE ENERGY PREDICTED BY IDOCK:   -5.48 KCAL/MOL
REMARK 924 INTRA-LIGAND FREE ENERGY PREDICTED BY IDOCK:   -0.83 KCAL/MOL
REMARK 927      BINDING AFFINITY PREDICTED BY RF-SCORE:    0.00 PKD
ROOT
HETATM    1  C   UNL     1     -10.712   5.804  73.112  1.00  0.00    -0.262 C  
HETATM    2  C   UNL     1     -10.321   6.833  74.175  1.00  0.00    -0.322 C  
HETATM    3  C   UNL     1      -8.845   7.111  73.941  1.00  0.00    -0.222 C  
HETATM    4  C   UNL     1      -8.427   6.214  72.764  1.00  0.00    -0.123 C  
HETATM    5  N   UNL     1      -9.401   5.035  72.839  1.00  0.00    -0.134 N  
HETATM    6  C   UNL     1      -8.607   6.955  71.445  1.00  0.00    -0.119 C  
HETATM    7  C   UNL     1     -10.044   7.002  70.911  1.00  0.00    -0.193 C  
HETATM    8  C   UNL     1      -9.457   4.095  71.620  1.00  0.00    -0.150 C  
HETATM    9  C   UNL     1     -10.035   2.824  72.193  1.00  0.00    -0.238 C  
HETATM   10  C   UNL     1      -9.169   2.643  73.411  1.00  0.00    -0.095 C  
HETATM   11  C   UNL     1     -11.173   6.533  71.844  1.00  0.00    -0.314 C  
HETATM   12  C   UNL     1      -9.024   4.048  73.994  1.00  0.00    -0.091 C  
ENDROOT
BRANCH   7  13
HETATM   13  O   UNL     1     -10.335   8.319  70.426  1.00  0.00    -0.199 OA 
BRANCH  13  14
HETATM   14  C   UNL     1     -10.180   8.449  69.059  1.00  0.00    -0.207 C  
HETATM   15  C   UNL     1      -9.164   9.600  68.727  1.00  0.00    -0.141 C  
HETATM   16  O   UNL     1     -10.784   7.749  68.254  1.00  0.00    -0.148 OA 
HETATM   17  O   UNL     1      -8.723  10.222  69.951  1.00  0.00    -0.365 OA 
HETATM   18  C   UNL     1      -7.950   8.981  68.011  1.00  0.00    -0.101 A  
HETATM   19  C   UNL     1      -9.929  10.694  67.965  1.00  0.00    -0.180 A  
HETATM   20  C   UNL     1     -11.066  11.282  68.564  1.00  0.00    -0.288 A  
HETATM   21  C   UNL     1      -8.125   8.206  66.845  1.00  0.00    -0.104 A  
HETATM   22  H   UNL     1      -8.108  10.918  69.750  1.00  0.00     0.000 HD 
HETATM   23  C   UNL     1      -7.038   7.646  66.171  1.00  0.00    -0.070 A  
HETATM   24  C   UNL     1     -11.884  12.166  67.857  1.00  0.00    -0.338 A  
HETATM   25  C   UNL     1      -5.751   7.837  66.662  1.00  0.00    -0.039 A  
HETATM   26  C   UNL     1     -11.573  12.499  66.544  1.00  0.00    -0.447 A  
HETATM   27  C   UNL     1      -5.552   8.585  67.817  1.00  0.00    -0.035 A  
HETATM   28  C   UNL     1     -10.422  11.983  65.954  1.00  0.00    -0.290 A  
HETATM   29  C   UNL     1      -9.598  11.104  66.664  1.00  0.00    -0.215 A  
HETATM   30  C   UNL     1      -6.639   9.158  68.484  1.00  0.00    -0.055 A  
ENDBRANCH  13  14
ENDBRANCH   7  13
TORSDOF 2
ENDMDL
MODEL       90
REMARK 921   NORMALIZED FREE ENERGY PREDICTED BY IDOCK:   -5.16 KCAL/MOL
REMARK 922        TOTAL FREE ENERGY PREDICTED BY IDOCK:   -6.29 KCAL/MOL
REMARK 923 INTER-LIGAND FREE ENERGY PREDICTED BY IDOCK:   -5.62 KCAL/MOL
REMARK 924 INTRA-LIGAND FREE ENERGY PREDICTED BY IDOCK:   -0.67 KCAL/MOL
REMARK 927      BINDING AFFINITY PREDICTED BY RF-SCORE:    0.00 PKD
ROOT
HETATM    1  C   UNL     1      -9.543  12.643  66.285  1.00  0.00    -0.244 C  
HETATM    2  C   UNL     1      -9.919  13.442  67.534  1.00  0.00    -0.230 C  
HETATM    3  C   UNL     1     -11.180  12.784  68.070  1.00  0.00    -0.310 C  
HETATM    4  C   UNL     1     -11.504  11.638  67.097  1.00  0.00    -0.271 C  
HETATM    5  N   UNL     1     -10.895  12.102  65.771  1.00  0.00    -0.271 N  
HETATM    6  C   UNL     1     -10.833  10.349  67.555  1.00  0.00    -0.358 C  
HETATM    7  C   UNL     1      -9.342  10.230  67.213  1.00  0.00    -0.149 C  
HETATM    8  C   UNL     1     -10.775  11.051  64.650  1.00  0.00    -0.248 C  
HETATM    9  C   UNL     1     -10.681  11.892  63.401  1.00  0.00    -0.476 C  
HETATM   10  C   UNL     1     -11.835  12.836  63.607  1.00  0.00    -0.603 C  
HETATM   11  C   UNL     1      -8.624  11.481  66.682  1.00  0.00    -0.176 C  
HETATM   12  C   UNL     1     -11.771  13.206  65.088  1.00  0.00    -0.336 C  
ENDROOT
BRANCH   7  13
HETATM   13  O   UNL     1      -8.630   9.708  68.342  1.00  0.00    -0.118 OA 
BRANCH  13  14
HETATM   14  C   UNL     1      -7.867   8.594  68.045  1.00  0.00    -0.103 C  
HETATM   15  C   UNL     1      -8.526   7.299  68.640  1.00  0.00    -0.129 C  
HETATM   16  O   UNL     1      -6.818   8.660  67.414  1.00  0.00    -0.069 OA 
HETATM   17  O   UNL     1      -9.718   7.656  69.369  1.00  0.00    -0.163 OA 
HETATM   18  C   UNL     1      -8.908   6.372  67.472  1.00  0.00    -0.111 A  
HETATM   19  C   UNL     1      -7.563   6.723  69.690  1.00  0.00    -0.101 A  
HETATM   20  C   UNL     1      -7.159   7.536  70.772  1.00  0.00    -0.059 A  
HETATM   21  C   UNL     1      -7.939   5.972  66.529  1.00  0.00    -0.105 A  
HETATM   22  H   UNL     1     -10.117   6.872  69.728  1.00  0.00     0.000 HD 
HETATM   23  C   UNL     1      -8.259   5.122  65.469  1.00  0.00    -0.121 A  
HETATM   24  C   UNL     1      -6.170   7.119  71.666  1.00  0.00    -0.037 A  
HETATM   25  C   UNL     1      -9.565   4.665  65.322  1.00  0.00    -0.161 A  
HETATM   26  C   UNL     1      -5.579   5.870  71.511  1.00  0.00    -0.022 A  
HETATM   27  C   UNL     1     -10.543   5.056  66.231  1.00  0.00    -0.332 A  
HETATM   28  C   UNL     1      -6.006   5.025  70.492  1.00  0.00    -0.018 A  
HETATM   29  C   UNL     1      -7.001   5.439  69.601  1.00  0.00    -0.062 A  
HETATM   30  C   UNL     1     -10.219   5.896  67.300  1.00  0.00    -0.242 A  
ENDBRANCH  13  14
ENDBRANCH   7  13
TORSDOF 2
ENDMDL
MODEL       91
REMARK 921   NORMALIZED FREE ENERGY PREDICTED BY IDOCK:   -5.12 KCAL/MOL
REMARK 922        TOTAL FREE ENERGY PREDICTED BY IDOCK:   -6.25 KCAL/MOL
REMARK 923 INTER-LIGAND FREE ENERGY PREDICTED BY IDOCK:   -5.49 KCAL/MOL
REMARK 924 INTRA-LIGAND FREE ENERGY PREDICTED BY IDOCK:   -0.76 KCAL/MOL
REMARK 927      BINDING AFFINITY PREDICTED BY RF-SCORE:    0.00 PKD
ROOT
HETATM    1  C   UNL     1     -10.681   5.848  72.724  1.00  0.00    -0.239 C  
HETATM    2  C   UNL     1     -10.411   7.030  73.658  1.00  0.00    -0.412 C  
HETATM    3  C   UNL     1      -8.923   7.312  73.530  1.00  0.00    -0.215 C  
HETATM    4  C   UNL     1      -8.378   6.269  72.542  1.00  0.00    -0.113 C  
HETATM    5  N   UNL     1      -9.339   5.086  72.693  1.00  0.00    -0.133 N  
HETATM    6  C   UNL     1      -8.436   6.807  71.118  1.00  0.00    -0.125 C  
HETATM    7  C   UNL     1      -9.814   6.736  70.447  1.00  0.00    -0.175 C  
HETATM    8  C   UNL     1      -9.260   3.979  71.624  1.00  0.00    -0.126 C  
HETATM    9  C   UNL     1      -9.875   2.788  72.318  1.00  0.00    -0.234 C  
HETATM   10  C   UNL     1      -9.131   2.807  73.626  1.00  0.00    -0.085 C  
HETATM   11  C   UNL     1     -11.023   6.375  71.325  1.00  0.00    -0.321 C  
HETATM   12  C   UNL     1      -9.065   4.285  74.011  1.00  0.00    -0.096 C  
ENDROOT
BRANCH   7  13
HETATM   13  O   UNL     1     -10.073   7.962  69.750  1.00  0.00    -0.191 OA 
BRANCH  13  14
HETATM   14  C   UNL     1     -10.220   7.799  68.385  1.00  0.00    -0.200 C  
HETATM   15  C   UNL     1      -9.048   8.507  67.616  1.00  0.00    -0.135 C  
HETATM   16  O   UNL     1     -11.160   7.188  67.889  1.00  0.00    -0.118 OA 
HETATM   17  O   UNL     1      -8.182   9.167  68.560  1.00  0.00    -0.112 OA 
HETATM   18  C   UNL     1      -8.246   7.432  66.861  1.00  0.00    -0.121 A  
HETATM   19  C   UNL     1      -9.660   9.633  66.766  1.00  0.00    -0.225 A  
HETATM   20  C   UNL     1     -10.426  10.636  67.402  1.00  0.00    -0.280 A  
HETATM   21  C   UNL     1      -8.891   6.558  65.961  1.00  0.00    -0.154 A  
HETATM   22  H   UNL     1      -7.473   9.596  68.095  1.00  0.00     0.000 HD 
HETATM   23  C   UNL     1      -8.181   5.584  65.256  1.00  0.00    -0.136 A  
HETATM   24  C   UNL     1     -11.129  11.591  66.664  1.00  0.00    -0.355 A  
HETATM   25  C   UNL     1      -6.810   5.454  65.450  1.00  0.00    -0.060 A  
HETATM   26  C   UNL     1     -11.065  11.578  65.276  1.00  0.00    -0.257 A  
HETATM   27  C   UNL     1      -6.153   6.294  66.343  1.00  0.00    -0.033 A  
HETATM   28  C   UNL     1     -10.264  10.641  64.629  1.00  0.00    -0.404 A  
HETATM   29  C   UNL     1      -9.554   9.690  65.367  1.00  0.00    -0.361 A  
HETATM   30  C   UNL     1      -6.860   7.279  67.038  1.00  0.00    -0.076 A  
ENDBRANCH  13  14
ENDBRANCH   7  13
TORSDOF 2
ENDMDL
MODEL       92
REMARK 921   NORMALIZED FREE ENERGY PREDICTED BY IDOCK:   -5.10 KCAL/MOL
REMARK 922        TOTAL FREE ENERGY PREDICTED BY IDOCK:   -6.23 KCAL/MOL
REMARK 923 INTER-LIGAND FREE ENERGY PREDICTED BY IDOCK:   -5.45 KCAL/MOL
REMARK 924 INTRA-LIGAND FREE ENERGY PREDICTED BY IDOCK:   -0.77 KCAL/MOL
REMARK 927      BINDING AFFINITY PREDICTED BY RF-SCORE:    0.00 PKD
ROOT
HETATM    1  C   UNL     1     -10.974   6.347  71.503  1.00  0.00    -0.263 C  
HETATM    2  C   UNL     1     -12.015   7.463  71.607  1.00  0.00    -0.339 C  
HETATM    3  C   UNL     1     -11.255   8.679  72.110  1.00  0.00    -0.438 C  
HETATM    4  C   UNL     1      -9.800   8.217  72.302  1.00  0.00    -0.294 C  
HETATM    5  N   UNL     1      -9.927   6.716  72.576  1.00  0.00    -0.169 N  
HETATM    6  C   UNL     1      -8.999   8.448  71.027  1.00  0.00    -0.199 C  
HETATM    7  C   UNL     1      -9.198   7.395  69.929  1.00  0.00    -0.144 C  
HETATM    8  C   UNL     1      -8.632   5.882  72.516  1.00  0.00    -0.120 C  
HETATM    9  C   UNL     1      -8.975   4.658  73.328  1.00  0.00    -0.112 C  
HETATM   10  C   UNL     1      -9.562   5.291  74.561  1.00  0.00    -0.164 C  
HETATM   11  C   UNL     1     -10.336   6.376  70.108  1.00  0.00    -0.245 C  
HETATM   12  C   UNL     1     -10.426   6.435  74.034  1.00  0.00    -0.269 C  
ENDROOT
BRANCH   7  13
HETATM   13  O   UNL     1      -9.328   8.044  68.658  1.00  0.00    -0.146 OA 
BRANCH  13  14
HETATM   14  C   UNL     1      -8.429   7.586  67.712  1.00  0.00    -0.118 C  
HETATM   15  C   UNL     1      -9.126   7.444  66.312  1.00  0.00    -0.156 C  
HETATM   16  O   UNL     1      -7.261   7.328  67.980  1.00  0.00    -0.085 OA 
HETATM   17  O   UNL     1     -10.521   7.787  66.431  1.00  0.00    -0.480 OA 
HETATM   18  C   UNL     1      -8.448   8.421  65.334  1.00  0.00    -0.193 A  
HETATM   19  C   UNL     1      -9.102   5.956  65.927  1.00  0.00    -0.135 A  
HETATM   20  C   UNL     1      -9.688   5.011  66.798  1.00  0.00    -0.188 A  
HETATM   21  C   UNL     1      -7.053   8.378  65.131  1.00  0.00    -0.075 A  
HETATM   22  H   UNL     1     -10.943   7.701  65.584  1.00  0.00     0.000 HD 
HETATM   23  C   UNL     1      -6.419   9.245  64.239  1.00  0.00    -0.086 A  
HETATM   24  C   UNL     1      -9.561   3.638  66.574  1.00  0.00    -0.159 A  
HETATM   25  C   UNL     1      -7.168  10.186  63.542  1.00  0.00    -0.120 A  
HETATM   26  C   UNL     1      -8.863   3.180  65.462  1.00  0.00    -0.138 A  
HETATM   27  C   UNL     1      -8.544  10.258  63.734  1.00  0.00    -0.190 A  
HETATM   28  C   UNL     1      -8.333   4.092  64.555  1.00  0.00    -0.104 A  
HETATM   29  C   UNL     1      -8.467   5.466  64.774  1.00  0.00    -0.138 A  
HETATM   30  C   UNL     1      -9.182   9.381  64.616  1.00  0.00    -0.185 A  
ENDBRANCH  13  14
ENDBRANCH   7  13
TORSDOF 2
ENDMDL
MODEL       93
REMARK 921   NORMALIZED FREE ENERGY PREDICTED BY IDOCK:   -5.08 KCAL/MOL
REMARK 922        TOTAL FREE ENERGY PREDICTED BY IDOCK:   -6.21 KCAL/MOL
REMARK 923 INTER-LIGAND FREE ENERGY PREDICTED BY IDOCK:   -6.41 KCAL/MOL
REMARK 924 INTRA-LIGAND FREE ENERGY PREDICTED BY IDOCK:    0.20 KCAL/MOL
REMARK 927      BINDING AFFINITY PREDICTED BY RF-SCORE:    0.00 PKD
ROOT
HETATM    1  C   UNL     1      -9.818  12.896  64.519  1.00  0.00    -0.007 C  
HETATM    2  C   UNL     1     -10.979  12.796  63.528  1.00  0.00    -0.325 C  
HETATM    3  C   UNL     1     -11.773  11.575  63.960  1.00  0.00    -0.226 C  
HETATM    4  C   UNL     1     -11.031  10.997  65.176  1.00  0.00    -0.033 C  
HETATM    5  N   UNL     1      -9.580  11.436  64.961  1.00  0.00    -0.232 N  
HETATM    6  C   UNL     1     -11.573  11.603  66.465  1.00  0.00    -0.166 C  
HETATM    7  C   UNL     1     -11.049  13.005  66.800  1.00  0.00    -0.286 C  
HETATM    8  C   UNL     1      -8.618  11.281  66.155  1.00  0.00    -0.156 C  
HETATM    9  C   UNL     1      -7.259  11.262  65.499  1.00  0.00     0.503 C  
HETATM   10  C   UNL     1      -7.485  10.250  64.408  1.00  0.00    -0.084 C  
HETATM   11  C   UNL     1     -10.248  13.750  65.719  1.00  0.00    -0.322 C  
HETATM   12  C   UNL     1      -8.874  10.576  63.860  1.00  0.00    -0.194 C  
ENDROOT
BRANCH   7  13
HETATM   13  O   UNL     1     -12.131  13.829  67.251  1.00  0.00    -0.389 OA 
BRANCH  13  14
HETATM   14  C   UNL     1     -11.723  14.907  68.013  1.00  0.00    -0.320 C  
HETATM   15  C   UNL     1     -10.903  14.421  69.261  1.00  0.00    -0.239 C  
HETATM   16  O   UNL     1     -11.998  16.066  67.722  1.00  0.00     0.138 OA 
HETATM   17  O   UNL     1     -10.856  12.980  69.276  1.00  0.00    -0.421 OA 
HETATM   18  C   UNL     1      -9.470  14.971  69.141  1.00  0.00    -0.195 A  
HETATM   19  C   UNL     1     -11.689  14.817  70.521  1.00  0.00    -0.350 A  
HETATM   20  C   UNL     1     -13.018  14.361  70.674  1.00  0.00    -0.348 A  
HETATM   21  C   UNL     1      -9.245  16.354  68.986  1.00  0.00    -0.247 A  
HETATM   22  H   UNL     1     -10.360  12.686  70.031  1.00  0.00     0.000 HD 
HETATM   23  C   UNL     1      -7.954  16.877  68.888  1.00  0.00    -0.224 A  
HETATM   24  C   UNL     1     -13.827  14.814  71.718  1.00  0.00    -0.540 A  
HETATM   25  C   UNL     1      -6.858  16.021  68.929  1.00  0.00    -0.143 A  
HETATM   26  C   UNL     1     -13.319  15.717  72.646  1.00  0.00    -0.623 A  
HETATM   27  C   UNL     1      -7.054  14.650  69.068  1.00  0.00    -0.128 A  
HETATM   28  C   UNL     1     -11.993  16.130  72.554  1.00  0.00    -0.660 A  
HETATM   29  C   UNL     1     -11.181  15.671  71.513  1.00  0.00    -0.373 A  
HETATM   30  C   UNL     1      -8.345  14.128  69.180  1.00  0.00     0.184 A  
ENDBRANCH  13  14
ENDBRANCH   7  13
TORSDOF 2
ENDMDL
MODEL       94
REMARK 921   NORMALIZED FREE ENERGY PREDICTED BY IDOCK:   -5.08 KCAL/MOL
REMARK 922        TOTAL FREE ENERGY PREDICTED BY IDOCK:   -6.21 KCAL/MOL
REMARK 923 INTER-LIGAND FREE ENERGY PREDICTED BY IDOCK:   -5.85 KCAL/MOL
REMARK 924 INTRA-LIGAND FREE ENERGY PREDICTED BY IDOCK:   -0.35 KCAL/MOL
REMARK 927      BINDING AFFINITY PREDICTED BY RF-SCORE:    0.00 PKD
ROOT
HETATM    1  C   UNL     1     -10.624   8.235  72.168  1.00  0.00    -0.310 C  
HETATM    2  C   UNL     1     -10.861   6.961  72.981  1.00  0.00    -0.328 C  
HETATM    3  C   UNL     1     -11.905   6.176  72.204  1.00  0.00    -0.339 C  
HETATM    4  C   UNL     1     -12.254   7.035  70.978  1.00  0.00    -0.374 C  
HETATM    5  N   UNL     1     -11.967   8.466  71.441  1.00  0.00    -0.291 N  
HETATM    6  C   UNL     1     -11.350   6.677  69.806  1.00  0.00    -0.412 C  
HETATM    7  C   UNL     1      -9.945   7.293  69.849  1.00  0.00    -0.183 C  
HETATM    8  C   UNL     1     -11.923   9.558  70.355  1.00  0.00    -0.066 C  
HETATM    9  C   UNL     1     -12.172  10.826  71.134  1.00  0.00    -0.457 C  
HETATM   10  C   UNL     1     -13.380  10.430  71.942  1.00  0.00    -0.469 C  
HETATM   11  C   UNL     1      -9.506   7.987  71.149  1.00  0.00    -0.181 C  
HETATM   12  C   UNL     1     -13.089   9.000  72.394  1.00  0.00    -0.423 C  
ENDROOT
BRANCH   7  13
HETATM   13  O   UNL     1      -8.975   6.306  69.478  1.00  0.00    -0.133 OA 
BRANCH  13  14
HETATM   14  C   UNL     1      -8.002   6.786  68.621  1.00  0.00    -0.119 C  
HETATM   15  C   UNL     1      -8.485   6.689  67.129  1.00  0.00    -0.113 C  
HETATM   16  O   UNL     1      -6.920   7.206  69.016  1.00  0.00    -0.069 OA 
HETATM   17  O   UNL     1      -9.791   6.080  67.084  1.00  0.00    -0.125 OA 
HETATM   18  C   UNL     1      -8.574   8.115  66.557  1.00  0.00    -0.146 A  
HETATM   19  C   UNL     1      -7.552   5.711  66.397  1.00  0.00    -0.091 A  
HETATM   20  C   UNL     1      -7.412   4.394  66.892  1.00  0.00    -0.081 A  
HETATM   21  C   UNL     1      -7.456   8.974  66.597  1.00  0.00    -0.086 A  
HETATM   22  H   UNL     1     -10.083   6.021  66.182  1.00  0.00     0.000 HD 
HETATM   23  C   UNL     1      -7.510  10.267  66.073  1.00  0.00    -0.128 A  
HETATM   24  C   UNL     1      -6.466   3.515  66.360  1.00  0.00    -0.037 A  
HETATM   25  C   UNL     1      -8.693  10.734  65.510  1.00  0.00    -0.196 A  
HETATM   26  C   UNL     1      -5.653   3.925  65.309  1.00  0.00    -0.013 A  
HETATM   27  C   UNL     1      -9.815   9.912  65.471  1.00  0.00    -0.381 A  
HETATM   28  C   UNL     1      -5.817   5.194  64.763  1.00  0.00    -0.017 A  
HETATM   29  C   UNL     1      -6.770   6.072  65.289  1.00  0.00    -0.044 A  
HETATM   30  C   UNL     1      -9.757   8.613  65.983  1.00  0.00    -0.238 A  
ENDBRANCH  13  14
ENDBRANCH   7  13
TORSDOF 2
ENDMDL
MODEL       95
REMARK 921   NORMALIZED FREE ENERGY PREDICTED BY IDOCK:   -5.04 KCAL/MOL
REMARK 922        TOTAL FREE ENERGY PREDICTED BY IDOCK:   -6.17 KCAL/MOL
REMARK 923 INTER-LIGAND FREE ENERGY PREDICTED BY IDOCK:   -6.27 KCAL/MOL
REMARK 924 INTRA-LIGAND FREE ENERGY PREDICTED BY IDOCK:    0.10 KCAL/MOL
REMARK 927      BINDING AFFINITY PREDICTED BY RF-SCORE:    0.00 PKD
ROOT
HETATM    1  C   UNL     1     -10.735   8.507  70.167  1.00  0.00    -0.235 C  
HETATM    2  C   UNL     1     -10.027   8.903  71.465  1.00  0.00    -0.391 C  
HETATM    3  C   UNL     1      -8.542   8.841  71.148  1.00  0.00    -0.244 C  
HETATM    4  C   UNL     1      -8.441   8.388  69.682  1.00  0.00    -0.127 C  
HETATM    5  N   UNL     1      -9.722   7.580  69.460  1.00  0.00    -0.163 N  
HETATM    6  C   UNL     1      -8.421   9.597  68.755  1.00  0.00    -0.123 C  
HETATM    7  C   UNL     1      -9.790  10.230  68.475  1.00  0.00    -0.164 C  
HETATM    8  C   UNL     1     -10.087   7.232  68.004  1.00  0.00    -0.172 C  
HETATM    9  C   UNL     1     -11.007   6.045  68.156  1.00  0.00    -0.340 C  
HETATM   10  C   UNL     1     -10.207   5.185  69.097  1.00  0.00    -0.259 C  
HETATM   11  C   UNL     1     -10.985   9.762  69.322  1.00  0.00    -0.222 C  
HETATM   12  C   UNL     1      -9.633   6.163  70.121  1.00  0.00    -0.162 C  
ENDROOT
BRANCH   7  13
HETATM   13  O   UNL     1      -9.683  11.658  68.540  1.00  0.00    -0.195 OA 
BRANCH  13  14
HETATM   14  C   UNL     1     -10.859  12.313  68.228  1.00  0.00    -0.225 C  
HETATM   15  C   UNL     1     -10.740  13.845  68.553  1.00  0.00    -0.257 C  
HETATM   16  O   UNL     1     -11.839  11.734  67.774  1.00  0.00    -0.541 OA 
HETATM   17  O   UNL     1      -9.448  14.116  69.132  1.00  0.00    -0.402 OA 
HETATM   18  C   UNL     1     -10.876  14.630  67.236  1.00  0.00    -0.305 A  
HETATM   19  C   UNL     1     -11.759  14.170  69.657  1.00  0.00    -0.372 A  
HETATM   20  C   UNL     1     -11.696  13.463  70.880  1.00  0.00     0.274 A  
HETATM   21  C   UNL     1     -12.004  14.449  66.408  1.00  0.00    -0.402 A  
HETATM   22  H   UNL     1      -9.376  15.042  69.329  1.00  0.00     0.000 HD 
HETATM   23  C   UNL     1     -12.155  15.160  65.216  1.00  0.00     0.090 A  
HETATM   24  C   UNL     1     -12.686  13.608  71.854  1.00  0.00    -0.325 A  
HETATM   25  C   UNL     1     -11.171  16.058  64.819  1.00  0.00    -0.348 A  
HETATM   26  C   UNL     1     -13.749  14.477  71.638  1.00  0.00    -0.486 A  
HETATM   27  C   UNL     1     -10.043  16.246  65.612  1.00  0.00    -0.340 A  
HETATM   28  C   UNL     1     -13.798  15.232  70.470  1.00  0.00     0.183 A  
HETATM   29  C   UNL     1     -12.803  15.094  69.498  1.00  0.00     0.239 A  
HETATM   30  C   UNL     1      -9.897  15.545  66.812  1.00  0.00    -0.252 A  
ENDBRANCH  13  14
ENDBRANCH   7  13
TORSDOF 2
ENDMDL
MODEL       96
REMARK 921   NORMALIZED FREE ENERGY PREDICTED BY IDOCK:   -4.99 KCAL/MOL
REMARK 922        TOTAL FREE ENERGY PREDICTED BY IDOCK:   -6.11 KCAL/MOL
REMARK 923 INTER-LIGAND FREE ENERGY PREDICTED BY IDOCK:   -5.36 KCAL/MOL
REMARK 924 INTRA-LIGAND FREE ENERGY PREDICTED BY IDOCK:   -0.75 KCAL/MOL
REMARK 927      BINDING AFFINITY PREDICTED BY RF-SCORE:    0.00 PKD
ROOT
HETATM    1  C   UNL     1      -6.937   7.042  69.210  1.00  0.00    -0.074 C  
HETATM    2  C   UNL     1      -6.615   6.231  67.953  1.00  0.00    -0.062 C  
HETATM    3  C   UNL     1      -7.912   5.533  67.580  1.00  0.00    -0.101 C  
HETATM    4  C   UNL     1      -8.937   5.947  68.649  1.00  0.00    -0.116 C  
HETATM    5  N   UNL     1      -8.079   6.248  69.881  1.00  0.00    -0.118 N  
HETATM    6  C   UNL     1      -9.679   7.204  68.212  1.00  0.00    -0.148 C  
HETATM    7  C   UNL     1      -8.917   8.519  68.420  1.00  0.00    -0.139 C  
HETATM    8  C   UNL     1      -8.764   6.982  71.049  1.00  0.00    -0.139 C  
HETATM    9  C   UNL     1      -7.887   6.642  72.229  1.00  0.00    -0.096 C  
HETATM   10  C   UNL     1      -7.767   5.150  72.072  1.00  0.00    -0.099 C  
HETATM   11  C   UNL     1      -7.431   8.436  68.802  1.00  0.00    -0.092 C  
HETATM   12  C   UNL     1      -7.580   4.933  70.571  1.00  0.00    -0.062 C  
ENDROOT
BRANCH   7  13
HETATM   13  O   UNL     1      -9.072   9.353  67.264  1.00  0.00    -0.132 OA 
BRANCH  13  14
HETATM   14  C   UNL     1      -9.544  10.619  67.558  1.00  0.00    -0.161 C  
HETATM   15  C   UNL     1      -8.954  11.673  66.554  1.00  0.00    -0.191 C  
HETATM   16  O   UNL     1     -10.306  10.841  68.492  1.00  0.00    -0.169 OA 
HETATM   17  O   UNL     1      -8.049  11.018  65.643  1.00  0.00    -0.315 OA 
HETATM   18  C   UNL     1     -10.120  12.283  65.755  1.00  0.00    -0.274 A  
HETATM   19  C   UNL     1      -8.086  12.652  67.361  1.00  0.00    -0.182 A  
HETATM   20  C   UNL     1      -7.016  12.146  68.133  1.00  0.00    -0.082 A  
HETATM   21  C   UNL     1     -11.210  12.880  66.421  1.00  0.00    -0.337 A  
HETATM   22  H   UNL     1      -7.692  11.656  65.037  1.00  0.00     0.000 HD 
HETATM   23  C   UNL     1     -12.271  13.451  65.717  1.00  0.00    -0.507 A  
HETATM   24  C   UNL     1      -6.294  12.968  69.001  1.00  0.00    -0.099 A  
HETATM   25  C   UNL     1     -12.271  13.422  64.326  1.00  0.00    -0.450 A  
HETATM   26  C   UNL     1      -6.612  14.318  69.102  1.00  0.00    -0.114 A  
HETATM   27  C   UNL     1     -11.214  12.827  63.645  1.00  0.00    -0.482 A  
HETATM   28  C   UNL     1      -7.618  14.852  68.304  1.00  0.00    -0.113 A  
HETATM   29  C   UNL     1      -8.336  14.032  67.428  1.00  0.00    -0.207 A  
HETATM   30  C   UNL     1     -10.144  12.268  64.349  1.00  0.00    -0.296 A  
ENDBRANCH  13  14
ENDBRANCH   7  13
TORSDOF 2
ENDMDL
MODEL       97
REMARK 921   NORMALIZED FREE ENERGY PREDICTED BY IDOCK:   -4.98 KCAL/MOL
REMARK 922        TOTAL FREE ENERGY PREDICTED BY IDOCK:   -6.10 KCAL/MOL
REMARK 923 INTER-LIGAND FREE ENERGY PREDICTED BY IDOCK:   -5.45 KCAL/MOL
REMARK 924 INTRA-LIGAND FREE ENERGY PREDICTED BY IDOCK:   -0.65 KCAL/MOL
REMARK 927      BINDING AFFINITY PREDICTED BY RF-SCORE:    0.00 PKD
ROOT
HETATM    1  C   UNL     1      -7.305   5.318  67.134  1.00  0.00    -0.083 C  
HETATM    2  C   UNL     1      -6.488   6.463  66.531  1.00  0.00    -0.047 C  
HETATM    3  C   UNL     1      -7.362   7.045  65.432  1.00  0.00    -0.080 C  
HETATM    4  C   UNL     1      -8.647   6.202  65.423  1.00  0.00    -0.106 C  
HETATM    5  N   UNL     1      -8.197   4.843  65.967  1.00  0.00    -0.111 N  
HETATM    6  C   UNL     1      -9.689   6.814  66.350  1.00  0.00    -0.125 C  
HETATM    7  C   UNL     1      -9.493   6.515  67.843  1.00  0.00    -0.120 C  
HETATM    8  C   UNL     1      -9.303   3.850  66.374  1.00  0.00    -0.182 C  
HETATM    9  C   UNL     1      -8.599   2.516  66.327  1.00  0.00    -0.110 C  
HETATM   10  C   UNL     1      -7.933   2.594  64.979  1.00  0.00    -0.082 C  
HETATM   11  C   UNL     1      -8.172   5.860  68.277  1.00  0.00    -0.109 C  
HETATM   12  C   UNL     1      -7.405   4.025  64.892  1.00  0.00    -0.072 C  
ENDROOT
BRANCH   7  13
HETATM   13  O   UNL     1      -9.713   7.709  68.605  1.00  0.00    -0.151 OA 
BRANCH  13  14
HETATM   14  C   UNL     1     -10.275   7.474  69.846  1.00  0.00    -0.210 C  
HETATM   15  C   UNL     1      -9.974   8.667  70.822  1.00  0.00    -0.197 C  
HETATM   16  O   UNL     1     -10.903   6.453  70.106  1.00  0.00    -0.243 OA 
HETATM   17  O   UNL     1      -9.153   9.643  70.152  1.00  0.00    -0.222 OA 
HETATM   18  C   UNL     1     -11.312   9.318  71.216  1.00  0.00    -0.423 A  
HETATM   19  C   UNL     1      -9.108   8.124  71.971  1.00  0.00    -0.241 A  
HETATM   20  C   UNL     1      -7.880   7.494  71.668  1.00  0.00    -0.086 A  
HETATM   21  C   UNL     1     -12.346   8.544  71.782  1.00  0.00    -0.388 A  
HETATM   22  H   UNL     1      -8.971  10.365  70.742  1.00  0.00     0.000 HD 
HETATM   23  C   UNL     1     -13.563   9.115  72.158  1.00  0.00    -0.534 A  
HETATM   24  C   UNL     1      -7.131   6.850  72.654  1.00  0.00    -0.074 A  
HETATM   25  C   UNL     1     -13.776  10.476  71.961  1.00  0.00    -0.077 A  
HETATM   26  C   UNL     1      -7.581   6.839  73.969  1.00  0.00    -0.101 A  
HETATM   27  C   UNL     1     -12.777  11.259  71.392  1.00  0.00    -0.501 A  
HETATM   28  C   UNL     1      -8.755   7.508  74.304  1.00  0.00    -0.264 A  
HETATM   29  C   UNL     1      -9.502   8.160  73.318  1.00  0.00    -0.290 A  
HETATM   30  C   UNL     1     -11.554  10.690  71.028  1.00  0.00    -0.222 A  
ENDBRANCH  13  14
ENDBRANCH   7  13
TORSDOF 2
ENDMDL
MODEL       98
REMARK 921   NORMALIZED FREE ENERGY PREDICTED BY IDOCK:   -4.98 KCAL/MOL
REMARK 922        TOTAL FREE ENERGY PREDICTED BY IDOCK:   -6.10 KCAL/MOL
REMARK 923 INTER-LIGAND FREE ENERGY PREDICTED BY IDOCK:   -5.61 KCAL/MOL
REMARK 924 INTRA-LIGAND FREE ENERGY PREDICTED BY IDOCK:   -0.49 KCAL/MOL
REMARK 927      BINDING AFFINITY PREDICTED BY RF-SCORE:    0.00 PKD
ROOT
HETATM    1  C   UNL     1     -12.005  12.954  65.606  1.00  0.00    -0.440 C  
HETATM    2  C   UNL     1     -12.837  12.451  64.425  1.00  0.00    -0.344 C  
HETATM    3  C   UNL     1     -11.904  12.495  63.227  1.00  0.00    -0.498 C  
HETATM    4  C   UNL     1     -10.568  13.045  63.752  1.00  0.00    -0.143 C  
HETATM    5  N   UNL     1     -10.973  13.900  64.956  1.00  0.00    -0.347 N  
HETATM    6  C   UNL     1      -9.666  11.903  64.205  1.00  0.00    -0.153 C  
HETATM    7  C   UNL     1      -9.985  11.328  65.591  1.00  0.00    -0.247 C  
HETATM    8  C   UNL     1      -9.845  14.358  65.901  1.00  0.00    -0.310 C  
HETATM    9  C   UNL     1     -10.445  15.555  66.596  1.00  0.00    -0.299 C  
HETATM   10  C   UNL     1     -10.980  16.327  65.420  1.00  0.00    -0.204 C  
HETATM   11  C   UNL     1     -11.293  11.768  66.268  1.00  0.00    -0.350 C  
HETATM   12  C   UNL     1     -11.597  15.266  64.510  1.00  0.00    -0.312 C  
ENDROOT
BRANCH   7  13
HETATM   13  O   UNL     1      -9.925   9.896  65.544  1.00  0.00    -0.304 OA 
BRANCH  13  14
HETATM   14  C   UNL     1      -9.510   9.323  66.731  1.00  0.00    -0.175 C  
HETATM   15  C   UNL     1      -7.968   9.029  66.692  1.00  0.00    -0.100 C  
HETATM   16  O   UNL     1     -10.280   9.083  67.654  1.00  0.00    -0.211 OA 
HETATM   17  O   UNL     1      -7.439   9.400  65.404  1.00  0.00    -0.096 OA 
HETATM   18  C   UNL     1      -7.287   9.878  67.780  1.00  0.00    -0.089 A  
HETATM   19  C   UNL     1      -7.779   7.506  66.789  1.00  0.00    -0.102 A  
HETATM   20  C   UNL     1      -8.401   6.674  65.830  1.00  0.00    -0.137 A  
HETATM   21  C   UNL     1      -7.711   9.796  69.123  1.00  0.00    -0.092 A  
HETATM   22  H   UNL     1      -6.506   9.222  65.380  1.00  0.00     0.000 HD 
HETATM   23  C   UNL     1      -7.100  10.547  70.129  1.00  0.00    -0.078 A  
HETATM   24  C   UNL     1      -8.390   5.284  65.959  1.00  0.00    -0.118 A  
HETATM   25  C   UNL     1      -6.058  11.411  69.807  1.00  0.00    -0.124 A  
HETATM   26  C   UNL     1      -7.740   4.693  67.036  1.00  0.00    -0.091 A  
HETATM   27  C   UNL     1      -5.630  11.521  68.489  1.00  0.00    -0.042 A  
HETATM   28  C   UNL     1      -7.065   5.488  67.957  1.00  0.00    -0.067 A  
HETATM   29  C   UNL     1      -7.069   6.880  67.825  1.00  0.00    -0.085 A  
HETATM   30  C   UNL     1      -6.232  10.759  67.484  1.00  0.00    -0.053 A  
ENDBRANCH  13  14
ENDBRANCH   7  13
TORSDOF 2
ENDMDL
MODEL       99
REMARK 921   NORMALIZED FREE ENERGY PREDICTED BY IDOCK:   -4.92 KCAL/MOL
REMARK 922        TOTAL FREE ENERGY PREDICTED BY IDOCK:   -6.03 KCAL/MOL
REMARK 923 INTER-LIGAND FREE ENERGY PREDICTED BY IDOCK:   -5.34 KCAL/MOL
REMARK 924 INTRA-LIGAND FREE ENERGY PREDICTED BY IDOCK:   -0.69 KCAL/MOL
REMARK 927      BINDING AFFINITY PREDICTED BY RF-SCORE:    0.00 PKD
ROOT
HETATM    1  C   UNL     1     -10.211   8.566  71.354  1.00  0.00    -0.235 C  
HETATM    2  C   UNL     1      -9.749   7.427  72.266  1.00  0.00    -0.191 C  
HETATM    3  C   UNL     1     -10.760   6.312  72.061  1.00  0.00    -0.268 C  
HETATM    4  C   UNL     1     -11.787   6.852  71.053  1.00  0.00    -0.364 C  
HETATM    5  N   UNL     1     -11.739   8.369  71.260  1.00  0.00    -0.280 N  
HETATM    6  C   UNL     1     -11.364   6.508  69.630  1.00  0.00    -0.443 C  
HETATM    7  C   UNL     1     -10.284   7.417  69.031  1.00  0.00    -0.199 C  
HETATM    8  C   UNL     1     -12.430   9.243  70.195  1.00  0.00     0.613 C  
HETATM    9  C   UNL     1     -12.682  10.538  70.927  1.00  0.00    -0.495 C  
HETATM   10  C   UNL     1     -13.311  10.029  72.196  1.00  0.00    -0.469 C  
HETATM   11  C   UNL     1      -9.569   8.401  69.971  1.00  0.00    -0.168 C  
HETATM   12  C   UNL     1     -12.489   8.796  72.568  1.00  0.00    -0.298 C  
ENDROOT
BRANCH   7  13
HETATM   13  O   UNL     1      -9.313   6.619  68.340  1.00  0.00    -0.126 OA 
BRANCH  13  14
HETATM   14  C   UNL     1      -9.417   6.695  66.964  1.00  0.00    -0.144 C  
HETATM   15  C   UNL     1      -8.182   7.451  66.358  1.00  0.00    -0.122 C  
HETATM   16  O   UNL     1     -10.370   6.232  66.346  1.00  0.00    -0.120 OA 
HETATM   17  O   UNL     1      -7.316   7.892  67.423  1.00  0.00    -0.088 OA 
HETATM   18  C   UNL     1      -7.410   6.471  65.456  1.00  0.00    -0.076 A  
HETATM   19  C   UNL     1      -8.699   8.736  65.693  1.00  0.00    -0.215 A  
HETATM   20  C   UNL     1      -9.435   9.663  66.467  1.00  0.00    -0.233 A  
HETATM   21  C   UNL     1      -8.067   5.798  64.404  1.00  0.00    -0.133 A  
HETATM   22  H   UNL     1      -6.569   8.350  67.056  1.00  0.00     0.000 HD 
HETATM   23  C   UNL     1      -7.385   4.915  63.565  1.00  0.00    -0.050 A  
HETATM   24  C   UNL     1     -10.058  10.767  65.881  1.00  0.00    -0.314 A  
HETATM   25  C   UNL     1      -6.031   4.673  63.773  1.00  0.00    -0.018 A  
HETATM   26  C   UNL     1      -9.942  10.982  64.512  1.00  0.00    -0.366 A  
HETATM   27  C   UNL     1      -5.363   5.314  64.811  1.00  0.00    -0.013 A  
HETATM   28  C   UNL     1      -9.169  10.120  63.740  1.00  0.00    -0.321 A  
HETATM   29  C   UNL     1      -8.539   9.019  64.327  1.00  0.00    -0.171 A  
HETATM   30  C   UNL     1      -6.042   6.209  65.643  1.00  0.00    -0.033 A  
ENDBRANCH  13  14
ENDBRANCH   7  13
TORSDOF 2
ENDMDL
MODEL      100
REMARK 921   NORMALIZED FREE ENERGY PREDICTED BY IDOCK:   -4.90 KCAL/MOL
REMARK 922        TOTAL FREE ENERGY PREDICTED BY IDOCK:   -6.01 KCAL/MOL
REMARK 923 INTER-LIGAND FREE ENERGY PREDICTED BY IDOCK:   -5.83 KCAL/MOL
REMARK 924 INTRA-LIGAND FREE ENERGY PREDICTED BY IDOCK:   -0.18 KCAL/MOL
REMARK 927      BINDING AFFINITY PREDICTED BY RF-SCORE:    0.00 PKD
ROOT
HETATM    1  C   UNL     1      -7.778  17.705  66.145  1.00  0.00    -0.258 C  
HETATM    2  C   UNL     1      -6.852  16.498  66.311  1.00  0.00     0.332 C  
HETATM    3  C   UNL     1      -5.837  16.910  67.365  1.00  0.00    -0.181 C  
HETATM    4  C   UNL     1      -6.197  18.353  67.756  1.00  0.00    -0.185 C  
HETATM    5  N   UNL     1      -6.882  18.911  66.505  1.00  0.00    -0.197 N  
HETATM    6  C   UNL     1      -7.170  18.357  68.928  1.00  0.00    -0.286 C  
HETATM    7  C   UNL     1      -8.635  18.081  68.563  1.00  0.00    -0.297 C  
HETATM    8  C   UNL     1      -7.641  20.244  66.657  1.00  0.00    -0.265 C  
HETATM    9  C   UNL     1      -7.705  20.764  65.243  1.00  0.00     0.617 C  
HETATM   10  C   UNL     1      -6.270  20.608  64.817  1.00  0.00    -0.330 C  
HETATM   11  C   UNL     1      -8.941  17.594  67.138  1.00  0.00    -0.249 C  
HETATM   12  C   UNL     1      -5.845  19.253  65.383  1.00  0.00    -0.197 C  
ENDROOT
BRANCH   7  13
HETATM   13  O   UNL     1      -9.205  17.174  69.515  1.00  0.00     0.135 OA 
BRANCH  13  14
HETATM   14  C   UNL     1     -10.435  16.673  69.131  1.00  0.00    -0.333 C  
HETATM   15  C   UNL     1     -10.579  15.171  69.566  1.00  0.00    -0.270 C  
HETATM   16  O   UNL     1     -11.262  17.344  68.524  1.00  0.00    -0.076 OA 
HETATM   17  O   UNL     1      -9.361  14.734  70.200  1.00  0.00    -0.219 OA 
HETATM   18  C   UNL     1     -11.737  15.069  70.575  1.00  0.00    -0.344 A  
HETATM   19  C   UNL     1     -10.702  14.324  68.289  1.00  0.00    -0.253 A  
HETATM   20  C   UNL     1      -9.680  14.395  67.315  1.00  0.00    -0.233 A  
HETATM   21  C   UNL     1     -13.021  15.551  70.242  1.00  0.00    -0.141 A  
HETATM   22  H   UNL     1      -9.448  13.825  70.462  1.00  0.00     0.000 HD 
HETATM   23  C   UNL     1     -14.089  15.457  71.136  1.00  0.00    -0.363 A  
HETATM   24  C   UNL     1      -9.813  13.769  66.074  1.00  0.00    -0.298 A  
HETATM   25  C   UNL     1     -13.890  14.892  72.392  1.00  0.00    -0.587 A  
HETATM   26  C   UNL     1     -10.962  13.041  65.786  1.00  0.00    -0.299 A  
HETATM   27  C   UNL     1     -12.630  14.422  72.749  1.00  0.00    -0.358 A  
HETATM   28  C   UNL     1     -11.953  12.902  66.752  1.00  0.00    -0.418 A  
HETATM   29  C   UNL     1     -11.817  13.522  67.998  1.00  0.00    -0.400 A  
HETATM   30  C   UNL     1     -11.564  14.503  71.849  1.00  0.00     0.123 A  
ENDBRANCH  13  14
ENDBRANCH   7  13
TORSDOF 2
ENDMDL
MODEL      101
REMARK 921   NORMALIZED FREE ENERGY PREDICTED BY IDOCK:   -4.88 KCAL/MOL
REMARK 922        TOTAL FREE ENERGY PREDICTED BY IDOCK:   -5.98 KCAL/MOL
REMARK 923 INTER-LIGAND FREE ENERGY PREDICTED BY IDOCK:   -5.37 KCAL/MOL
REMARK 924 INTRA-LIGAND FREE ENERGY PREDICTED BY IDOCK:   -0.61 KCAL/MOL
REMARK 927      BINDING AFFINITY PREDICTED BY RF-SCORE:    0.00 PKD
ROOT
HETATM    1  C   UNL     1     -10.404  11.012  68.572  1.00  0.00    -0.190 C  
HETATM    2  C   UNL     1     -11.259  10.148  67.643  1.00  0.00    -0.169 C  
HETATM    3  C   UNL     1     -10.300   9.135  67.040  1.00  0.00    -0.333 C  
HETATM    4  C   UNL     1      -8.916   9.463  67.625  1.00  0.00    -0.118 C  
HETATM    5  N   UNL     1      -8.998  10.960  67.938  1.00  0.00    -0.138 N  
HETATM    6  C   UNL     1      -8.683   8.675  68.908  1.00  0.00    -0.131 C  
HETATM    7  C   UNL     1      -9.359   9.248  70.160  1.00  0.00    -0.228 C  
HETATM    8  C   UNL     1      -7.880  11.552  68.818  1.00  0.00    -0.117 C  
HETATM    9  C   UNL     1      -7.930  13.024  68.490  1.00  0.00    -0.090 C  
HETATM   10  C   UNL     1      -7.940  12.979  66.985  1.00  0.00    -0.015 C  
HETATM   11  C   UNL     1     -10.379  10.383  69.971  1.00  0.00    -0.181 C  
HETATM   12  C   UNL     1      -8.884  11.828  66.640  1.00  0.00    -0.189 C  
ENDROOT
BRANCH   7  13
HETATM   13  O   UNL     1      -9.955   8.185  70.915  1.00  0.00    -0.185 OA 
BRANCH  13  14
HETATM   14  C   UNL     1      -9.247   6.999  70.849  1.00  0.00    -0.156 C  
HETATM   15  C   UNL     1     -10.168   5.836  70.332  1.00  0.00    -0.224 C  
HETATM   16  O   UNL     1      -8.068   6.913  71.173  1.00  0.00    -0.108 OA 
HETATM   17  O   UNL     1     -11.504   6.336  70.121  1.00  0.00    -0.400 OA 
HETATM   18  C   UNL     1      -9.602   5.331  68.992  1.00  0.00    -0.199 A  
HETATM   19  C   UNL     1     -10.292   4.801  71.461  1.00  0.00    -0.203 A  
HETATM   20  C   UNL     1     -10.784   5.212  72.720  1.00  0.00    -0.294 A  
HETATM   21  C   UNL     1      -8.262   4.900  68.899  1.00  0.00    -0.083 A  
HETATM   22  H   UNL     1     -12.060   5.632  69.809  1.00  0.00     0.000 HD 
HETATM   23  C   UNL     1      -7.731   4.426  67.698  1.00  0.00    -0.084 A  
HETATM   24  C   UNL     1     -10.773   4.352  73.821  1.00  0.00    -0.344 A  
HETATM   25  C   UNL     1      -8.528   4.389  66.558  1.00  0.00    -0.112 A  
HETATM   26  C   UNL     1     -10.290   3.056  73.683  1.00  0.00    -0.225 A  
HETATM   27  C   UNL     1      -9.848   4.822  66.621  1.00  0.00    -0.233 A  
HETATM   28  C   UNL     1      -9.861   2.607  72.437  1.00  0.00    -0.224 A  
HETATM   29  C   UNL     1      -9.879   3.465  71.333  1.00  0.00    -0.204 A  
HETATM   30  C   UNL     1     -10.385   5.283  67.826  1.00  0.00    -0.196 A  
ENDBRANCH  13  14
ENDBRANCH   7  13
TORSDOF 2
ENDMDL
MODEL      102
REMARK 921   NORMALIZED FREE ENERGY PREDICTED BY IDOCK:   -4.84 KCAL/MOL
REMARK 922        TOTAL FREE ENERGY PREDICTED BY IDOCK:   -5.94 KCAL/MOL
REMARK 923 INTER-LIGAND FREE ENERGY PREDICTED BY IDOCK:   -6.45 KCAL/MOL
REMARK 924 INTRA-LIGAND FREE ENERGY PREDICTED BY IDOCK:    0.51 KCAL/MOL
REMARK 927      BINDING AFFINITY PREDICTED BY RF-SCORE:    0.00 PKD
ROOT
HETATM    1  C   UNL     1     -10.887   4.768  71.834  1.00  0.00     0.070 C  
HETATM    2  C   UNL     1     -11.338   5.773  72.896  1.00  0.00    -0.298 C  
HETATM    3  C   UNL     1     -10.163   5.905  73.850  1.00  0.00    -0.262 C  
HETATM    4  C   UNL     1      -9.078   4.953  73.319  1.00  0.00    -0.115 C  
HETATM    5  N   UNL     1      -9.871   3.874  72.577  1.00  0.00    -0.148 N  
HETATM    6  C   UNL     1      -8.161   5.685  72.347  1.00  0.00    -0.111 C  
HETATM    7  C   UNL     1      -8.717   5.860  70.928  1.00  0.00    -0.131 C  
HETATM    8  C   UNL     1      -9.074   2.922  71.663  1.00  0.00    -0.099 C  
HETATM    9  C   UNL     1      -9.981   1.723  71.542  1.00  0.00    -0.179 C  
HETATM   10  C   UNL     1     -10.324   1.480  72.988  1.00  0.00    -0.193 C  
HETATM   11  C   UNL     1     -10.196   5.517  70.688  1.00  0.00    -0.308 C  
HETATM   12  C   UNL     1     -10.555   2.874  73.570  1.00  0.00    -0.169 C  
ENDROOT
BRANCH   7  13
HETATM   13  O   UNL     1      -8.449   7.191  70.467  1.00  0.00    -0.135 OA 
BRANCH  13  14
HETATM   14  C   UNL     1      -9.494   7.745  69.750  1.00  0.00    -0.160 C  
HETATM   15  C   UNL     1      -9.566   9.295  69.992  1.00  0.00    -0.209 C  
HETATM   16  O   UNL     1     -10.242   7.076  69.047  1.00  0.00    -0.175 OA 
HETATM   17  O   UNL     1      -8.547   9.684  70.935  1.00  0.00    -0.335 OA 
HETATM   18  C   UNL     1      -9.310  10.006  68.651  1.00  0.00    -0.156 A  
HETATM   19  C   UNL     1     -10.903   9.598  70.687  1.00  0.00    -0.386 A  
HETATM   20  C   UNL     1     -11.203   8.956  71.910  1.00  0.00    -0.447 A  
HETATM   21  C   UNL     1     -10.097   9.705  67.519  1.00  0.00    -0.247 A  
HETATM   22  H   UNL     1      -8.592  10.622  71.081  1.00  0.00     0.000 HD 
HETATM   23  C   UNL     1      -9.892  10.346  66.297  1.00  0.00    -0.272 A  
HETATM   24  C   UNL     1     -12.462   9.076  72.504  1.00  0.00    -0.309 A  
HETATM   25  C   UNL     1      -8.880  11.293  66.176  1.00  0.00    -0.194 A  
HETATM   26  C   UNL     1     -13.441   9.856  71.901  1.00  0.00    -0.467 A  
HETATM   27  C   UNL     1      -8.081  11.598  67.273  1.00  0.00    -0.160 A  
HETATM   28  C   UNL     1     -13.149  10.550  70.730  1.00  0.00    -0.335 A  
HETATM   29  C   UNL     1     -11.887  10.437  70.139  1.00  0.00    -0.379 A  
HETATM   30  C   UNL     1      -8.295  10.967  68.501  1.00  0.00    -0.142 A  
ENDBRANCH  13  14
ENDBRANCH   7  13
TORSDOF 2
ENDMDL
MODEL      103
REMARK 921   NORMALIZED FREE ENERGY PREDICTED BY IDOCK:   -4.84 KCAL/MOL
REMARK 922        TOTAL FREE ENERGY PREDICTED BY IDOCK:   -5.93 KCAL/MOL
REMARK 923 INTER-LIGAND FREE ENERGY PREDICTED BY IDOCK:   -6.21 KCAL/MOL
REMARK 924 INTRA-LIGAND FREE ENERGY PREDICTED BY IDOCK:    0.28 KCAL/MOL
REMARK 927      BINDING AFFINITY PREDICTED BY RF-SCORE:    0.00 PKD
ROOT
HETATM    1  C   UNL     1     -10.498  11.070  66.510  1.00  0.00    -0.257 C  
HETATM    2  C   UNL     1     -11.782  11.462  67.244  1.00  0.00    -0.125 C  
HETATM    3  C   UNL     1     -11.341  11.851  68.646  1.00  0.00    -0.331 C  
HETATM    4  C   UNL     1      -9.817  11.650  68.681  1.00  0.00    -0.165 C  
HETATM    5  N   UNL     1      -9.568  10.562  67.633  1.00  0.00    -0.156 N  
HETATM    6  C   UNL     1      -9.105  12.935  68.277  1.00  0.00    -0.180 C  
HETATM    7  C   UNL     1      -9.044  13.203  66.768  1.00  0.00    -0.209 C  
HETATM    8  C   UNL     1      -8.108  10.332  67.196  1.00  0.00    -0.121 C  
HETATM    9  C   UNL     1      -8.135   8.931  66.638  1.00  0.00    -0.107 C  
HETATM   10  C   UNL     1      -8.853   8.199  67.740  1.00  0.00    -0.130 C  
HETATM   11  C   UNL     1      -9.894  12.314  65.845  1.00  0.00    -0.266 C  
HETATM   12  C   UNL     1      -9.976   9.146  68.164  1.00  0.00    -0.176 C  
ENDROOT
BRANCH   7  13
HETATM   13  O   UNL     1      -9.336  14.582  66.511  1.00  0.00    -0.269 OA 
BRANCH  13  14
HETATM   14  C   UNL     1      -9.237  15.384  67.634  1.00  0.00    -0.187 C  
HETATM   15  C   UNL     1      -8.140  16.489  67.427  1.00  0.00    -0.150 C  
HETATM   16  O   UNL     1      -9.922  15.208  68.635  1.00  0.00    -0.207 OA 
HETATM   17  O   UNL     1      -7.518  16.315  66.138  1.00  0.00    -0.031 OA 
HETATM   18  C   UNL     1      -8.827  17.865  67.473  1.00  0.00    -0.248 A  
HETATM   19  C   UNL     1      -7.025  16.240  68.456  1.00  0.00    -0.143 A  
HETATM   20  C   UNL     1      -6.375  14.986  68.475  1.00  0.00    -0.092 A  
HETATM   21  C   UNL     1      -9.613  18.236  68.584  1.00  0.00    -0.351 A  
HETATM   22  H   UNL     1      -6.854  16.984  66.013  1.00  0.00     0.000 HD 
HETATM   23  C   UNL     1     -10.235  19.484  68.654  1.00  0.00    -0.481 A  
HETATM   24  C   UNL     1      -5.467  14.654  69.483  1.00  0.00    -0.091 A  
HETATM   25  C   UNL     1     -10.095  20.384  67.603  1.00  0.00    -0.476 A  
HETATM   26  C   UNL     1      -5.172  15.575  70.481  1.00  0.00    -0.141 A  
HETATM   27  C   UNL     1      -9.336  20.037  66.490  1.00  0.00    -0.494 A  
HETATM   28  C   UNL     1      -5.751  16.841  70.446  1.00  0.00    -0.115 A  
HETATM   29  C   UNL     1      -6.654  17.177  69.434  1.00  0.00    -0.220 A  
HETATM   30  C   UNL     1      -8.702  18.794  66.425  1.00  0.00    -0.294 A  
ENDBRANCH  13  14
ENDBRANCH   7  13
TORSDOF 2
ENDMDL
MODEL      104
REMARK 921   NORMALIZED FREE ENERGY PREDICTED BY IDOCK:   -4.76 KCAL/MOL
REMARK 922        TOTAL FREE ENERGY PREDICTED BY IDOCK:   -5.85 KCAL/MOL
REMARK 923 INTER-LIGAND FREE ENERGY PREDICTED BY IDOCK:   -5.08 KCAL/MOL
REMARK 924 INTRA-LIGAND FREE ENERGY PREDICTED BY IDOCK:   -0.77 KCAL/MOL
REMARK 927      BINDING AFFINITY PREDICTED BY RF-SCORE:    0.00 PKD
ROOT
HETATM    1  C   UNL     1     -10.112  13.437  66.744  1.00  0.00    -0.260 C  
HETATM    2  C   UNL     1     -10.483  14.364  67.904  1.00  0.00    -0.239 C  
HETATM    3  C   UNL     1     -11.792  13.819  68.452  1.00  0.00    -0.411 C  
HETATM    4  C   UNL     1     -12.146  12.607  67.574  1.00  0.00    -0.104 C  
HETATM    5  N   UNL     1     -11.474  12.918  66.234  1.00  0.00    -0.330 N  
HETATM    6  C   UNL     1     -11.557  11.334  68.168  1.00  0.00    -0.359 C  
HETATM    7  C   UNL     1     -10.065  11.111  67.890  1.00  0.00    -0.176 C  
HETATM    8  C   UNL     1     -11.376  11.765  65.216  1.00  0.00    -0.222 C  
HETATM    9  C   UNL     1     -11.201  12.484  63.900  1.00  0.00    -0.496 C  
HETATM   10  C   UNL     1     -12.310  13.498  63.982  1.00  0.00    -0.391 C  
HETATM   11  C   UNL     1      -9.267  12.272  67.275  1.00  0.00    -0.185 C  
HETATM   12  C   UNL     1     -12.271  13.998  65.426  1.00  0.00    -0.439 C  
ENDROOT
BRANCH   7  13
HETATM   13  O   UNL     1      -9.414  10.660  69.085  1.00  0.00    -0.200 OA 
BRANCH  13  14
HETATM   14  C   UNL     1      -9.081   9.318  69.057  1.00  0.00    -0.147 C  
HETATM   15  C   UNL     1      -7.545   9.127  69.324  1.00  0.00    -0.079 C  
HETATM   16  O   UNL     1      -9.903   8.436  68.837  1.00  0.00    -0.171 OA 
HETATM   17  O   UNL     1      -6.917  10.416  69.472  1.00  0.00    -0.073 OA 
HETATM   18  C   UNL     1      -7.377   8.331  70.631  1.00  0.00    -0.057 A  
HETATM   19  C   UNL     1      -6.923   8.513  68.059  1.00  0.00    -0.074 A  
HETATM   20  C   UNL     1      -7.066   9.188  66.826  1.00  0.00    -0.082 A  
HETATM   21  C   UNL     1      -8.006   7.078  70.792  1.00  0.00    -0.101 A  
HETATM   22  H   UNL     1      -5.988  10.300  69.634  1.00  0.00     0.000 HD 
HETATM   23  C   UNL     1      -7.857   6.333  71.963  1.00  0.00    -0.097 A  
HETATM   24  C   UNL     1      -6.657   8.603  65.625  1.00  0.00    -0.060 A  
HETATM   25  C   UNL     1      -7.087   6.835  73.006  1.00  0.00    -0.075 A  
HETATM   26  C   UNL     1      -6.077   7.340  65.633  1.00  0.00    -0.037 A  
HETATM   27  C   UNL     1      -6.467   8.074  72.878  1.00  0.00    -0.082 A  
HETATM   28  C   UNL     1      -5.866   6.683  66.842  1.00  0.00    -0.014 A  
HETATM   29  C   UNL     1      -6.268   7.271  68.045  1.00  0.00    -0.039 A  
HETATM   30  C   UNL     1      -6.604   8.814  71.701  1.00  0.00    -0.075 A  
ENDBRANCH  13  14
ENDBRANCH   7  13
TORSDOF 2
ENDMDL
MODEL      105
REMARK 921   NORMALIZED FREE ENERGY PREDICTED BY IDOCK:   -4.69 KCAL/MOL
REMARK 922        TOTAL FREE ENERGY PREDICTED BY IDOCK:   -5.77 KCAL/MOL
REMARK 923 INTER-LIGAND FREE ENERGY PREDICTED BY IDOCK:   -5.21 KCAL/MOL
REMARK 924 INTRA-LIGAND FREE ENERGY PREDICTED BY IDOCK:   -0.56 KCAL/MOL
REMARK 927      BINDING AFFINITY PREDICTED BY RF-SCORE:    0.00 PKD
ROOT
HETATM    1  C   UNL     1      -9.344  12.652  66.791  1.00  0.00    -0.232 C  
HETATM    2  C   UNL     1      -9.020  13.038  68.236  1.00  0.00    -0.177 C  
HETATM    3  C   UNL     1     -10.367  13.268  68.902  1.00  0.00    -0.079 C  
HETATM    4  C   UNL     1     -11.424  13.029  67.812  1.00  0.00    -0.316 C  
HETATM    5  N   UNL     1     -10.688  13.358  66.510  1.00  0.00    -0.284 N  
HETATM    6  C   UNL     1     -11.860  11.569  67.808  1.00  0.00    -0.228 C  
HETATM    7  C   UNL     1     -10.901  10.601  67.103  1.00  0.00    -0.270 C  
HETATM    8  C   UNL     1     -11.368  12.933  65.194  1.00  0.00    -0.298 C  
HETATM    9  C   UNL     1     -10.725  13.835  64.170  1.00  0.00    -0.055 C  
HETATM   10  C   UNL     1     -10.863  15.174  64.844  1.00  0.00    -0.437 C  
HETATM   11  C   UNL     1      -9.515  11.130  66.698  1.00  0.00    -0.204 C  
HETATM   12  C   UNL     1     -10.531  14.904  66.311  1.00  0.00    -0.302 C  
ENDROOT
BRANCH   7  13
HETATM   13  O   UNL     1     -10.752   9.413  67.890  1.00  0.00    -0.249 OA 
BRANCH  13  14
HETATM   14  C   UNL     1      -9.978   9.595  69.021  1.00  0.00    -0.185 C  
HETATM   15  C   UNL     1      -8.737   8.633  69.001  1.00  0.00    -0.134 C  
HETATM   16  O   UNL     1     -10.269  10.399  69.900  1.00  0.00    -0.230 OA 
HETATM   17  O   UNL     1      -8.792   7.800  67.825  1.00  0.00    -0.126 OA 
HETATM   18  C   UNL     1      -7.461   9.492  68.951  1.00  0.00    -0.074 A  
HETATM   19  C   UNL     1      -8.872   7.669  70.191  1.00  0.00    -0.146 A  
HETATM   20  C   UNL     1     -10.034   6.872  70.301  1.00  0.00    -0.189 A  
HETATM   21  C   UNL     1      -7.227  10.483  69.927  1.00  0.00    -0.136 A  
HETATM   22  H   UNL     1      -8.040   7.219  67.813  1.00  0.00     0.000 HD 
HETATM   23  C   UNL     1      -6.070  11.265  69.910  1.00  0.00    -0.130 A  
HETATM   24  C   UNL     1     -10.277   6.096  71.436  1.00  0.00    -0.248 A  
HETATM   25  C   UNL     1      -5.129  11.082  68.902  1.00  0.00    -0.041 A  
HETATM   26  C   UNL     1      -9.356   6.083  72.477  1.00  0.00    -0.143 A  
HETATM   27  C   UNL     1      -5.343  10.121  67.920  1.00  0.00    -0.038 A  
HETATM   28  C   UNL     1      -8.174   6.809  72.363  1.00  0.00    -0.105 A  
HETATM   29  C   UNL     1      -7.926   7.579  71.224  1.00  0.00    -0.095 A  
HETATM   30  C   UNL     1      -6.493   9.328  67.945  1.00  0.00    -0.059 A  
ENDBRANCH  13  14
ENDBRANCH   7  13
TORSDOF 2
ENDMDL
MODEL      106
REMARK 921   NORMALIZED FREE ENERGY PREDICTED BY IDOCK:   -4.65 KCAL/MOL
REMARK 922        TOTAL FREE ENERGY PREDICTED BY IDOCK:   -5.72 KCAL/MOL
REMARK 923 INTER-LIGAND FREE ENERGY PREDICTED BY IDOCK:   -5.18 KCAL/MOL
REMARK 924 INTRA-LIGAND FREE ENERGY PREDICTED BY IDOCK:   -0.54 KCAL/MOL
REMARK 927      BINDING AFFINITY PREDICTED BY RF-SCORE:    0.00 PKD
ROOT
HETATM    1  C   UNL     1      -8.594  10.024  65.753  1.00  0.00    -0.145 C  
HETATM    2  C   UNL     1      -9.475  10.562  64.624  1.00  0.00    -0.316 C  
HETATM    3  C   UNL     1     -10.619  11.285  65.316  1.00  0.00    -0.323 C  
HETATM    4  C   UNL     1     -10.371  11.122  66.824  1.00  0.00    -0.241 C  
HETATM    5  N   UNL     1      -9.578   9.817  66.925  1.00  0.00    -0.172 N  
HETATM    6  C   UNL     1      -9.535  12.281  67.352  1.00  0.00    -0.181 C  
HETATM    7  C   UNL     1      -8.028  12.177  67.084  1.00  0.00    -0.170 C  
HETATM    8  C   UNL     1      -8.903   9.510  68.276  1.00  0.00    -0.124 C  
HETATM    9  C   UNL     1      -8.705   8.015  68.229  1.00  0.00    -0.130 C  
HETATM   10  C   UNL     1     -10.076   7.561  67.802  1.00  0.00    -0.235 C  
HETATM   11  C   UNL     1      -7.544  11.079  66.124  1.00  0.00    -0.084 C  
HETATM   12  C   UNL     1     -10.499   8.565  66.730  1.00  0.00    -0.238 C  
ENDROOT
BRANCH   7  13
HETATM   13  O   UNL     1      -7.526  13.449  66.655  1.00  0.00     0.485 OA 
BRANCH  13  14
HETATM   14  C   UNL     1      -7.694  14.452  67.591  1.00  0.00    -0.184 C  
HETATM   15  C   UNL     1      -8.709  15.531  67.068  1.00  0.00    -0.231 C  
HETATM   16  O   UNL     1      -7.100  14.462  68.663  1.00  0.00    -0.102 OA 
HETATM   17  O   UNL     1      -9.136  15.184  65.735  1.00  0.00    -0.455 OA 
HETATM   18  C   UNL     1      -9.932  15.537  68.003  1.00  0.00    -0.214 A  
HETATM   19  C   UNL     1      -7.947  16.858  66.921  1.00  0.00    -0.248 A  
HETATM   20  C   UNL     1      -6.802  16.905  66.094  1.00  0.00     0.062 A  
HETATM   21  C   UNL     1      -9.770  15.729  69.391  1.00  0.00    -0.286 A  
HETATM   22  H   UNL     1      -9.750  15.837  65.419  1.00  0.00     0.000 HD 
HETATM   23  C   UNL     1     -10.866  15.752  70.256  1.00  0.00    -0.363 A  
HETATM   24  C   UNL     1      -5.987  18.039  66.046  1.00  0.00    -0.246 A  
HETATM   25  C   UNL     1     -12.148  15.566  69.751  1.00  0.00    -0.372 A  
HETATM   26  C   UNL     1      -6.310  19.156  66.806  1.00  0.00    -0.194 A  
HETATM   27  C   UNL     1     -12.333  15.361  68.387  1.00  0.00     0.318 A  
HETATM   28  C   UNL     1      -7.468  19.157  67.579  1.00  0.00    -0.255 A  
HETATM   29  C   UNL     1      -8.288  18.026  67.621  1.00  0.00    -0.238 A  
HETATM   30  C   UNL     1     -11.238  15.352  67.519  1.00  0.00    -0.302 A  
ENDBRANCH  13  14
ENDBRANCH   7  13
TORSDOF 2
ENDMDL
MODEL      107
REMARK 921   NORMALIZED FREE ENERGY PREDICTED BY IDOCK:   -4.59 KCAL/MOL
REMARK 922        TOTAL FREE ENERGY PREDICTED BY IDOCK:   -5.65 KCAL/MOL
REMARK 923 INTER-LIGAND FREE ENERGY PREDICTED BY IDOCK:   -6.54 KCAL/MOL
REMARK 924 INTRA-LIGAND FREE ENERGY PREDICTED BY IDOCK:    0.89 KCAL/MOL
REMARK 927      BINDING AFFINITY PREDICTED BY RF-SCORE:    0.00 PKD
ROOT
HETATM    1  C   UNL     1      -9.962   8.967  71.190  1.00  0.00    -0.272 C  
HETATM    2  C   UNL     1      -8.576   9.328  70.651  1.00  0.00    -0.270 C  
HETATM    3  C   UNL     1      -8.497   8.681  69.278  1.00  0.00    -0.123 C  
HETATM    4  C   UNL     1      -9.833   7.947  69.079  1.00  0.00    -0.171 C  
HETATM    5  N   UNL     1     -10.287   7.622  70.505  1.00  0.00    -0.209 N  
HETATM    6  C   UNL     1     -10.847   8.865  68.408  1.00  0.00    -0.043 C  
HETATM    7  C   UNL     1     -11.530   9.877  69.337  1.00  0.00    -0.026 C  
HETATM    8  C   UNL     1     -11.743   7.151  70.686  1.00  0.00    -0.307 C  
HETATM    9  C   UNL     1     -11.706   6.424  72.008  1.00  0.00    -0.376 C  
HETATM   10  C   UNL     1     -10.508   5.534  71.808  1.00  0.00    -0.287 C  
HETATM   11  C   UNL     1     -10.970  10.039  70.759  1.00  0.00    -0.375 C  
HETATM   12  C   UNL     1      -9.480   6.422  71.108  1.00  0.00    -0.167 C  
ENDROOT
BRANCH   7  13
HETATM   13  O   UNL     1     -11.590  11.157  68.694  1.00  0.00    -0.270 OA 
BRANCH  13  14
HETATM   14  C   UNL     1     -10.383  11.557  68.150  1.00  0.00    -0.195 C  
HETATM   15  C   UNL     1     -10.558  11.931  66.635  1.00  0.00    -0.238 C  
HETATM   16  O   UNL     1      -9.343  11.586  68.798  1.00  0.00    -0.169 OA 
HETATM   17  O   UNL     1     -11.924  11.701  66.236  1.00  0.00    -0.401 OA 
HETATM   18  C   UNL     1     -10.228  13.425  66.465  1.00  0.00    -0.282 A  
HETATM   19  C   UNL     1      -9.720  10.943  65.809  1.00  0.00    -0.270 A  
HETATM   20  C   UNL     1      -9.962   9.557  65.941  1.00  0.00    -0.342 A  
HETATM   21  C   UNL     1      -8.988  13.938  66.899  1.00  0.00    -0.236 A  
HETATM   22  H   UNL     1     -12.030  11.928  65.320  1.00  0.00     0.000 HD 
HETATM   23  C   UNL     1      -8.662  15.287  66.744  1.00  0.00    -0.304 A  
HETATM   24  C   UNL     1      -9.131   8.612  65.334  1.00  0.00    -0.150 A  
HETATM   25  C   UNL     1      -9.580  16.155  66.164  1.00  0.00    -0.359 A  
HETATM   26  C   UNL     1      -8.053   9.031  64.565  1.00  0.00    -0.143 A  
HETATM   27  C   UNL     1     -10.816  15.677  65.740  1.00  0.00    -0.312 A  
HETATM   28  C   UNL     1      -7.832  10.391  64.366  1.00  0.00    -0.064 A  
HETATM   29  C   UNL     1      -8.668  11.337  64.966  1.00  0.00     0.132 A  
HETATM   30  C   UNL     1     -11.137  14.325  65.882  1.00  0.00    -0.310 A  
ENDBRANCH  13  14
ENDBRANCH   7  13
TORSDOF 2
ENDMDL
MODEL      108
REMARK 921   NORMALIZED FREE ENERGY PREDICTED BY IDOCK:   -4.50 KCAL/MOL
REMARK 922        TOTAL FREE ENERGY PREDICTED BY IDOCK:   -5.56 KCAL/MOL
REMARK 923 INTER-LIGAND FREE ENERGY PREDICTED BY IDOCK:   -5.21 KCAL/MOL
REMARK 924 INTRA-LIGAND FREE ENERGY PREDICTED BY IDOCK:   -0.35 KCAL/MOL
REMARK 927      BINDING AFFINITY PREDICTED BY RF-SCORE:    0.00 PKD
ROOT
HETATM    1  C   UNL     1      -8.430  10.202  67.427  1.00  0.00    -0.122 C  
HETATM    2  C   UNL     1      -9.338  11.280  68.023  1.00  0.00    -0.166 C  
HETATM    3  C   UNL     1     -10.754  10.854  67.671  1.00  0.00    -0.288 C  
HETATM    4  C   UNL     1     -10.615   9.553  66.864  1.00  0.00    -0.171 C  
HETATM    5  N   UNL     1      -9.231   9.669  66.219  1.00  0.00    -0.158 N  
HETATM    6  C   UNL     1     -10.657   8.346  67.792  1.00  0.00    -0.238 C  
HETATM    7  C   UNL     1      -9.346   8.040  68.528  1.00  0.00    -0.142 C  
HETATM    8  C   UNL     1      -8.646   8.393  65.581  1.00  0.00    -0.174 C  
HETATM    9  C   UNL     1      -7.622   8.933  64.614  1.00  0.00    -0.108 C  
HETATM   10  C   UNL     1      -8.430   9.986  63.904  1.00  0.00    -0.179 C  
HETATM   11  C   UNL     1      -8.222   9.086  68.459  1.00  0.00    -0.112 C  
HETATM   12  C   UNL     1      -9.239  10.663  65.009  1.00  0.00    -0.211 C  
ENDROOT
BRANCH   7  13
HETATM   13  O   UNL     1      -9.626   7.722  69.898  1.00  0.00    -0.164 OA 
BRANCH  13  14
HETATM   14  C   UNL     1      -9.010   6.562  70.331  1.00  0.00    -0.152 C  
HETATM   15  C   UNL     1      -9.918   5.315  70.040  1.00  0.00    -0.245 C  
HETATM   16  O   UNL     1      -7.911   6.560  70.874  1.00  0.00    -0.108 OA 
HETATM   17  O   UNL     1     -11.158   5.749  69.447  1.00  0.00    -0.346 OA 
HETATM   18  C   UNL     1      -9.178   4.399  69.048  1.00  0.00    -0.201 A  
HETATM   19  C   UNL     1     -10.307   4.694  71.391  1.00  0.00    -0.160 A  
HETATM   20  C   UNL     1     -10.968   5.494  72.351  1.00  0.00    -0.310 A  
HETATM   21  C   UNL     1      -7.878   3.933  69.337  1.00  0.00    -0.052 A  
HETATM   22  H   UNL     1     -11.708   4.993  69.271  1.00  0.00     0.000 HD 
HETATM   23  C   UNL     1      -7.193   3.092  68.459  1.00  0.00    -0.049 A  
HETATM   24  C   UNL     1     -11.205   5.028  73.646  1.00  0.00    -0.254 A  
HETATM   25  C   UNL     1      -7.790   2.711  67.262  1.00  0.00    -0.069 A  
HETATM   26  C   UNL     1     -10.807   3.746  74.005  1.00  0.00    -0.270 A  
HETATM   27  C   UNL     1      -9.066   3.168  66.947  1.00  0.00    -0.191 A  
HETATM   28  C   UNL     1     -10.213   2.916  73.058  1.00  0.00    -0.227 A  
HETATM   29  C   UNL     1      -9.982   3.378  71.759  1.00  0.00    -0.194 A  
HETATM   30  C   UNL     1      -9.758   3.999  67.832  1.00  0.00    -0.148 A  
ENDBRANCH  13  14
ENDBRANCH   7  13
TORSDOF 2
ENDMDL
MODEL      109
REMARK 921   NORMALIZED FREE ENERGY PREDICTED BY IDOCK:   -4.50 KCAL/MOL
REMARK 922        TOTAL FREE ENERGY PREDICTED BY IDOCK:   -5.56 KCAL/MOL
REMARK 923 INTER-LIGAND FREE ENERGY PREDICTED BY IDOCK:   -6.25 KCAL/MOL
REMARK 924 INTRA-LIGAND FREE ENERGY PREDICTED BY IDOCK:    0.70 KCAL/MOL
REMARK 927      BINDING AFFINITY PREDICTED BY RF-SCORE:    0.00 PKD
ROOT
HETATM    1  C   UNL     1      -8.641   8.350  68.231  1.00  0.00    -0.139 C  
HETATM    2  C   UNL     1      -7.541   8.858  67.296  1.00  0.00    -0.089 C  
HETATM    3  C   UNL     1      -8.261   9.324  66.042  1.00  0.00    -0.111 C  
HETATM    4  C   UNL     1      -9.754   9.048  66.284  1.00  0.00    -0.275 C  
HETATM    5  N   UNL     1      -9.753   7.876  67.270  1.00  0.00    -0.163 N  
HETATM    6  C   UNL     1     -10.420  10.262  66.919  1.00  0.00    -0.291 C  
HETATM    7  C   UNL     1     -10.194  10.418  68.429  1.00  0.00    -0.165 C  
HETATM    8  C   UNL     1     -11.090   7.541  67.960  1.00  0.00     0.212 C  
HETATM    9  C   UNL     1     -10.904   6.106  68.389  1.00  0.00    -0.382 C  
HETATM   10  C   UNL     1     -10.389   5.494  67.114  1.00  0.00    -0.301 C  
HETATM   11  C   UNL     1      -9.148   9.510  69.096  1.00  0.00    -0.152 C  
HETATM   12  C   UNL     1      -9.407   6.524  66.560  1.00  0.00    -0.159 C  
ENDROOT
BRANCH   7  13
HETATM   13  O   UNL     1      -9.908  11.789  68.734  1.00  0.00    -0.178 OA 
BRANCH  13  14
HETATM   14  C   UNL     1      -9.535  12.532  67.629  1.00  0.00    -0.188 C  
HETATM   15  C   UNL     1     -10.475  13.778  67.460  1.00  0.00    -0.245 C  
HETATM   16  O   UNL     1      -8.600  12.214  66.903  1.00  0.00    -0.191 OA 
HETATM   17  O   UNL     1     -11.490  13.759  68.484  1.00  0.00    -0.266 OA 
HETATM   18  C   UNL     1      -9.623  15.051  67.619  1.00  0.00    -0.203 A  
HETATM   19  C   UNL     1     -11.231  13.618  66.131  1.00  0.00    -0.309 A  
HETATM   20  C   UNL     1     -12.010  12.458  65.920  1.00  0.00    -0.434 A  
HETATM   21  C   UNL     1      -8.483  15.254  66.814  1.00  0.00    -0.290 A  
HETATM   22  H   UNL     1     -12.059  14.513  68.381  1.00  0.00     0.000 HD 
HETATM   23  C   UNL     1      -7.703  16.406  66.932  1.00  0.00    -0.276 A  
HETATM   24  C   UNL     1     -12.591  12.189  64.678  1.00  0.00    -0.266 A  
HETATM   25  C   UNL     1      -8.040  17.374  67.872  1.00  0.00    -0.220 A  
HETATM   26  C   UNL     1     -12.423  13.083  63.627  1.00  0.00    -0.400 A  
HETATM   27  C   UNL     1      -9.152  17.191  68.688  1.00  0.00    -0.268 A  
HETATM   28  C   UNL     1     -11.715  14.264  63.830  1.00  0.00     0.110 A  
HETATM   29  C   UNL     1     -11.140  14.538  65.075  1.00  0.00    -0.393 A  
HETATM   30  C   UNL     1      -9.941  16.045  68.561  1.00  0.00    -0.222 A  
ENDBRANCH  13  14
ENDBRANCH   7  13
TORSDOF 2
ENDMDL
MODEL      110
REMARK 921   NORMALIZED FREE ENERGY PREDICTED BY IDOCK:   -4.49 KCAL/MOL
REMARK 922        TOTAL FREE ENERGY PREDICTED BY IDOCK:   -5.54 KCAL/MOL
REMARK 923 INTER-LIGAND FREE ENERGY PREDICTED BY IDOCK:   -6.33 KCAL/MOL
REMARK 924 INTRA-LIGAND FREE ENERGY PREDICTED BY IDOCK:    0.78 KCAL/MOL
REMARK 927      BINDING AFFINITY PREDICTED BY RF-SCORE:    0.00 PKD
ROOT
HETATM    1  C   UNL     1     -10.303  11.285  66.442  1.00  0.00    -0.245 C  
HETATM    2  C   UNL     1     -11.226  11.343  67.661  1.00  0.00    -0.346 C  
HETATM    3  C   UNL     1     -10.388  10.843  68.825  1.00  0.00    -0.215 C  
HETATM    4  C   UNL     1      -9.012  10.491  68.235  1.00  0.00    -0.139 C  
HETATM    5  N   UNL     1      -9.319  10.142  66.776  1.00  0.00    -0.157 N  
HETATM    6  C   UNL     1      -8.084  11.697  68.298  1.00  0.00    -0.150 C  
HETATM    7  C   UNL     1      -8.298  12.745  67.198  1.00  0.00    -0.164 C  
HETATM    8  C   UNL     1      -8.120  10.034  65.815  1.00  0.00    -0.128 C  
HETATM    9  C   UNL     1      -8.659   9.187  64.689  1.00  0.00    -0.206 C  
HETATM   10  C   UNL     1      -9.280   8.052  65.459  1.00  0.00     0.092 C  
HETATM   11  C   UNL     1      -9.548  12.613  66.313  1.00  0.00    -0.244 C  
HETATM   12  C   UNL     1      -9.970   8.724  66.646  1.00  0.00    -0.285 C  
ENDROOT
BRANCH   7  13
HETATM   13  O   UNL     1      -8.248  14.059  67.769  1.00  0.00    -0.142 OA 
BRANCH  13  14
HETATM   14  C   UNL     1      -9.442  14.749  67.669  1.00  0.00    -0.204 C  
HETATM   15  C   UNL     1      -9.635  15.700  68.903  1.00  0.00    -0.224 C  
HETATM   16  O   UNL     1     -10.218  14.595  66.732  1.00  0.00    -0.261 OA 
HETATM   17  O   UNL     1      -8.528  15.540  69.813  1.00  0.00    -0.214 OA 
HETATM   18  C   UNL     1      -9.664  17.152  68.394  1.00  0.00    -0.284 A  
HETATM   19  C   UNL     1     -10.873  15.217  69.677  1.00  0.00    -0.297 A  
HETATM   20  C   UNL     1     -10.912  13.885  70.148  1.00  0.00     0.308 A  
HETATM   21  C   UNL     1     -10.582  17.543  67.397  1.00  0.00    -0.311 A  
HETATM   22  H   UNL     1      -8.645  16.115  70.560  1.00  0.00     0.000 HD 
HETATM   23  C   UNL     1     -10.635  18.858  66.930  1.00  0.00    -0.495 A  
HETATM   24  C   UNL     1     -12.069  13.350  70.720  1.00  0.00    -0.333 A  
HETATM   25  C   UNL     1      -9.757  19.807  67.441  1.00  0.00    -0.498 A  
HETATM   26  C   UNL     1     -13.205  14.140  70.852  1.00  0.00    -0.288 A  
HETATM   27  C   UNL     1      -8.833  19.444  68.416  1.00  0.00    -0.397 A  
HETATM   28  C   UNL     1     -13.170  15.474  70.455  1.00  0.00    -0.183 A  
HETATM   29  C   UNL     1     -12.010  16.012  69.891  1.00  0.00    -0.187 A  
HETATM   30  C   UNL     1      -8.789  18.132  68.894  1.00  0.00    -0.131 A  
ENDBRANCH  13  14
ENDBRANCH   7  13
TORSDOF 2
ENDMDL
MODEL      111
REMARK 921   NORMALIZED FREE ENERGY PREDICTED BY IDOCK:   -4.48 KCAL/MOL
REMARK 922        TOTAL FREE ENERGY PREDICTED BY IDOCK:   -5.54 KCAL/MOL
REMARK 923 INTER-LIGAND FREE ENERGY PREDICTED BY IDOCK:   -4.92 KCAL/MOL
REMARK 924 INTRA-LIGAND FREE ENERGY PREDICTED BY IDOCK:   -0.62 KCAL/MOL
REMARK 927      BINDING AFFINITY PREDICTED BY RF-SCORE:    0.00 PKD
ROOT
HETATM    1  C   UNL     1      -8.023  11.254  65.486  1.00  0.00     0.300 C  
HETATM    2  C   UNL     1      -9.495  11.605  65.257  1.00  0.00    -0.170 C  
HETATM    3  C   UNL     1     -10.143  10.323  64.759  1.00  0.00    -0.336 C  
HETATM    4  C   UNL     1      -9.017   9.278  64.696  1.00  0.00    -0.154 C  
HETATM    5  N   UNL     1      -7.753  10.116  64.478  1.00  0.00    -0.145 N  
HETATM    6  C   UNL     1      -8.920   8.523  66.015  1.00  0.00    -0.228 C  
HETATM    7  C   UNL     1      -8.183   9.262  67.140  1.00  0.00    -0.117 C  
HETATM    8  C   UNL     1      -6.400   9.403  64.670  1.00  0.00    -0.079 C  
HETATM    9  C   UNL     1      -5.443  10.270  63.888  1.00  0.00    -0.138 C  
HETATM   10  C   UNL     1      -6.189  10.415  62.589  1.00  0.00    -0.142 C  
HETATM   11  C   UNL     1      -7.840  10.745  66.921  1.00  0.00    -0.130 C  
HETATM   12  C   UNL     1      -7.646  10.625  63.001  1.00  0.00     0.023 C  
ENDROOT
BRANCH   7  13
HETATM   13  O   UNL     1      -8.904   9.110  68.369  1.00  0.00    -0.129 OA 
BRANCH  13  14
HETATM   14  C   UNL     1      -8.652   7.912  69.011  1.00  0.00    -0.135 C  
HETATM   15  C   UNL     1      -9.920   6.987  68.971  1.00  0.00    -0.164 C  
HETATM   16  O   UNL     1      -7.574   7.657  69.537  1.00  0.00    -0.093 OA 
HETATM   17  O   UNL     1     -11.001   7.680  68.315  1.00  0.00    -0.437 OA 
HETATM   18  C   UNL     1      -9.571   5.722  68.167  1.00  0.00    -0.132 A  
HETATM   19  C   UNL     1     -10.390   6.775  70.419  1.00  0.00    -0.223 A  
HETATM   20  C   UNL     1     -10.703   7.901  71.213  1.00  0.00    -0.257 A  
HETATM   21  C   UNL     1      -8.464   4.926  68.530  1.00  0.00    -0.095 A  
HETATM   22  H   UNL     1     -11.769   7.120  68.291  1.00  0.00     0.000 HD 
HETATM   23  C   UNL     1      -8.136   3.768  67.823  1.00  0.00    -0.088 A  
HETATM   24  C   UNL     1     -10.985   7.775  72.575  1.00  0.00    -0.395 A  
HETATM   25  C   UNL     1      -8.901   3.390  66.725  1.00  0.00    -0.146 A  
HETATM   26  C   UNL     1     -10.982   6.518  73.169  1.00  0.00    -0.251 A  
HETATM   27  C   UNL     1      -9.990   4.165  66.339  1.00  0.00    -0.177 A  
HETATM   28  C   UNL     1     -10.742   5.387  72.394  1.00  0.00    -0.286 A  
HETATM   29  C   UNL     1     -10.467   5.512  71.029  1.00  0.00    -0.314 A  
HETATM   30  C   UNL     1     -10.327   5.317  67.054  1.00  0.00    -0.286 A  
ENDBRANCH  13  14
ENDBRANCH   7  13
TORSDOF 2
ENDMDL
MODEL      112
REMARK 921   NORMALIZED FREE ENERGY PREDICTED BY IDOCK:   -4.41 KCAL/MOL
REMARK 922        TOTAL FREE ENERGY PREDICTED BY IDOCK:   -5.45 KCAL/MOL
REMARK 923 INTER-LIGAND FREE ENERGY PREDICTED BY IDOCK:   -4.71 KCAL/MOL
REMARK 924 INTRA-LIGAND FREE ENERGY PREDICTED BY IDOCK:   -0.75 KCAL/MOL
REMARK 927      BINDING AFFINITY PREDICTED BY RF-SCORE:    0.00 PKD
ROOT
HETATM    1  C   UNL     1     -10.138   8.995  71.458  1.00  0.00    -0.339 C  
HETATM    2  C   UNL     1     -10.002   8.059  72.661  1.00  0.00    -0.358 C  
HETATM    3  C   UNL     1     -11.195   7.120  72.578  1.00  0.00    -0.327 C  
HETATM    4  C   UNL     1     -11.993   7.560  71.340  1.00  0.00    -0.309 C  
HETATM    5  N   UNL     1     -11.659   9.048  71.200  1.00  0.00    -0.288 N  
HETATM    6  C   UNL     1     -11.518   6.802  70.106  1.00  0.00    -0.404 C  
HETATM    7  C   UNL     1     -10.225   7.330  69.471  1.00  0.00    -0.198 C  
HETATM    8  C   UNL     1     -12.057   9.734  69.878  1.00  0.00     0.215 C  
HETATM    9  C   UNL     1     -12.109  11.195  70.252  1.00  0.00    -0.462 C  
HETATM   10  C   UNL     1     -12.943  11.137  71.504  1.00  0.00    -0.542 C  
HETATM   11  C   UNL     1      -9.417   8.379  70.252  1.00  0.00    -0.168 C  
HETATM   12  C   UNL     1     -12.425   9.913  72.258  1.00  0.00    -0.013 C  
ENDROOT
BRANCH   7  13
HETATM   13  O   UNL     1      -9.376   6.229  69.123  1.00  0.00    -0.131 OA 
BRANCH  13  14
HETATM   14  C   UNL     1      -9.310   5.994  67.762  1.00  0.00    -0.106 C  
HETATM   15  C   UNL     1      -7.815   5.873  67.296  1.00  0.00    -0.102 C  
HETATM   16  O   UNL     1     -10.308   5.912  67.056  1.00  0.00    -0.187 OA 
HETATM   17  O   UNL     1      -6.940   6.093  68.420  1.00  0.00    -0.074 OA 
HETATM   18  C   UNL     1      -7.592   4.450  66.754  1.00  0.00    -0.086 A  
HETATM   19  C   UNL     1      -7.533   7.032  66.325  1.00  0.00    -0.080 A  
HETATM   20  C   UNL     1      -7.744   8.360  66.760  1.00  0.00    -0.091 A  
HETATM   21  C   UNL     1      -8.411   3.939  65.725  1.00  0.00    -0.109 A  
HETATM   22  H   UNL     1      -6.036   6.020  68.137  1.00  0.00     0.000 HD 
HETATM   23  C   UNL     1      -8.218   2.656  65.209  1.00  0.00    -0.088 A  
HETATM   24  C   UNL     1      -7.651   9.437  65.877  1.00  0.00    -0.099 A  
HETATM   25  C   UNL     1      -7.209   1.850  65.725  1.00  0.00    -0.056 A  
HETATM   26  C   UNL     1      -7.327   9.214  64.544  1.00  0.00    -0.099 A  
HETATM   27  C   UNL     1      -6.396   2.325  66.749  1.00  0.00    -0.024 A  
HETATM   28  C   UNL     1      -7.051   7.922  64.106  1.00  0.00    -0.075 A  
HETATM   29  C   UNL     1      -7.135   6.843  64.992  1.00  0.00    -0.064 A  
HETATM   30  C   UNL     1      -6.579   3.614  67.256  1.00  0.00    -0.042 A  
ENDBRANCH  13  14
ENDBRANCH   7  13
TORSDOF 2
ENDMDL
MODEL      113
REMARK 921   NORMALIZED FREE ENERGY PREDICTED BY IDOCK:   -4.37 KCAL/MOL
REMARK 922        TOTAL FREE ENERGY PREDICTED BY IDOCK:   -5.41 KCAL/MOL
REMARK 923 INTER-LIGAND FREE ENERGY PREDICTED BY IDOCK:   -4.73 KCAL/MOL
REMARK 924 INTRA-LIGAND FREE ENERGY PREDICTED BY IDOCK:   -0.68 KCAL/MOL
REMARK 927      BINDING AFFINITY PREDICTED BY RF-SCORE:    0.00 PKD
ROOT
HETATM    1  C   UNL     1      -8.495  10.290  67.380  1.00  0.00    -0.125 C  
HETATM    2  C   UNL     1      -9.602  11.253  67.815  1.00  0.00    -0.181 C  
HETATM    3  C   UNL     1     -10.885  10.680  67.236  1.00  0.00    -0.345 C  
HETATM    4  C   UNL     1     -10.472   9.415  66.465  1.00  0.00    -0.129 C  
HETATM    5  N   UNL     1      -9.022   9.692  66.058  1.00  0.00    -0.154 N  
HETATM    6  C   UNL     1     -10.533   8.197  67.378  1.00  0.00    -0.356 C  
HETATM    7  C   UNL     1      -9.335   8.024  68.320  1.00  0.00    -0.140 C  
HETATM    8  C   UNL     1      -8.204   8.498  65.528  1.00  0.00    -0.137 C  
HETATM    9  C   UNL     1      -7.101   9.162  64.742  1.00  0.00    -0.096 C  
HETATM   10  C   UNL     1      -7.892  10.131  63.905  1.00  0.00    -0.149 C  
HETATM   11  C   UNL     1      -8.337   9.188  68.435  1.00  0.00    -0.120 C  
HETATM   12  C   UNL     1      -8.941  10.698  64.861  1.00  0.00    -0.199 C  
ENDROOT
BRANCH   7  13
HETATM   13  O   UNL     1      -9.799   7.656  69.626  1.00  0.00    -0.177 OA 
BRANCH  13  14
HETATM   14  C   UNL     1      -9.010   6.702  70.242  1.00  0.00    -0.152 C  
HETATM   15  C   UNL     1      -9.203   6.750  71.799  1.00  0.00    -0.147 C  
HETATM   16  O   UNL     1      -8.267   5.954  69.617  1.00  0.00    -0.106 OA 
HETATM   17  O   UNL     1     -10.116   7.813  72.140  1.00  0.00    -0.190 OA 
HETATM   18  C   UNL     1      -9.803   5.406  72.253  1.00  0.00    -0.199 A  
HETATM   19  C   UNL     1      -7.858   7.149  72.426  1.00  0.00    -0.096 A  
HETATM   20  C   UNL     1      -7.248   8.361  72.031  1.00  0.00    -0.114 A  
HETATM   21  C   UNL     1      -9.162   4.191  71.931  1.00  0.00    -0.176 A  
HETATM   22  H   UNL     1     -10.233   7.841  73.083  1.00  0.00     0.000 HD 
HETATM   23  C   UNL     1      -9.681   2.962  72.342  1.00  0.00    -0.217 A  
HETATM   24  C   UNL     1      -5.959   8.698  72.450  1.00  0.00    -0.072 A  
HETATM   25  C   UNL     1     -10.864   2.923  73.073  1.00  0.00    -0.185 A  
HETATM   26  C   UNL     1      -5.259   7.840  73.292  1.00  0.00    -0.041 A  
HETATM   27  C   UNL     1     -11.522   4.106  73.391  1.00  0.00    -0.234 A  
HETATM   28  C   UNL     1      -5.864   6.672  73.747  1.00  0.00    -0.058 A  
HETATM   29  C   UNL     1      -7.157   6.339  73.334  1.00  0.00    -0.083 A  
HETATM   30  C   UNL     1     -10.996   5.337  72.992  1.00  0.00    -0.354 A  
ENDBRANCH  13  14
ENDBRANCH   7  13
TORSDOF 2
ENDMDL
MODEL      114
REMARK 921   NORMALIZED FREE ENERGY PREDICTED BY IDOCK:   -4.36 KCAL/MOL
REMARK 922        TOTAL FREE ENERGY PREDICTED BY IDOCK:   -5.40 KCAL/MOL
REMARK 923 INTER-LIGAND FREE ENERGY PREDICTED BY IDOCK:   -5.04 KCAL/MOL
REMARK 924 INTRA-LIGAND FREE ENERGY PREDICTED BY IDOCK:   -0.36 KCAL/MOL
REMARK 927      BINDING AFFINITY PREDICTED BY RF-SCORE:    0.00 PKD
ROOT
HETATM    1  C   UNL     1      -7.751  14.895  69.781  1.00  0.00     0.009 C  
HETATM    2  C   UNL     1      -8.020  16.007  68.765  1.00  0.00    -0.196 C  
HETATM    3  C   UNL     1      -6.771  16.075  67.903  1.00  0.00    -0.158 C  
HETATM    4  C   UNL     1      -5.811  15.014  68.464  1.00  0.00    -0.096 C  
HETATM    5  N   UNL     1      -6.214  14.898  69.937  1.00  0.00    -0.138 N  
HETATM    6  C   UNL     1      -6.026  13.680  67.760  1.00  0.00    -0.128 C  
HETATM    7  C   UNL     1      -7.229  12.866  68.252  1.00  0.00    -0.112 C  
HETATM    8  C   UNL     1      -5.652  13.700  70.725  1.00  0.00    -0.187 C  
HETATM    9  C   UNL     1      -5.758  14.154  72.160  1.00  0.00    -0.095 C  
HETATM   10  C   UNL     1      -5.139  15.523  72.071  1.00  0.00     0.005 C  
HETATM   11  C   UNL     1      -8.222  13.554  69.203  1.00  0.00     0.421 C  
HETATM   12  C   UNL     1      -5.692  16.113  70.775  1.00  0.00     0.094 C  
ENDROOT
BRANCH   7  13
HETATM   13  O   UNL     1      -7.935  12.323  67.129  1.00  0.00    -0.169 OA 
BRANCH  13  14
HETATM   14  C   UNL     1      -9.030  13.077  66.750  1.00  0.00    -0.175 C  
HETATM   15  C   UNL     1     -10.364  12.313  67.071  1.00  0.00    -0.219 C  
HETATM   16  O   UNL     1      -8.924  14.180  66.225  1.00  0.00    -0.121 OA 
HETATM   17  O   UNL     1     -10.057  11.019  67.627  1.00  0.00    -0.177 OA 
HETATM   18  C   UNL     1     -11.152  13.133  68.108  1.00  0.00    -0.284 A  
HETATM   19  C   UNL     1     -11.072  12.028  65.737  1.00  0.00    -0.371 A  
HETATM   20  C   UNL     1     -10.388  11.299  64.737  1.00  0.00    -0.366 A  
HETATM   21  C   UNL     1     -11.474  14.484  67.859  1.00  0.00    -0.348 A  
HETATM   22  H   UNL     1     -10.864  10.557  67.821  1.00  0.00     0.000 HD 
HETATM   23  C   UNL     1     -12.199  15.243  68.779  1.00  0.00    -0.084 A  
HETATM   24  C   UNL     1     -10.923  11.144  63.456  1.00  0.00    -0.198 A  
HETATM   25  C   UNL     1     -12.605  14.668  69.979  1.00  0.00    -0.276 A  
HETATM   26  C   UNL     1     -12.162  11.695  63.152  1.00  0.00    -0.150 A  
HETATM   27  C   UNL     1     -12.288  13.342  70.255  1.00  0.00    -0.354 A  
HETATM   28  C   UNL     1     -12.884  12.361  64.138  1.00  0.00    -0.364 A  
HETATM   29  C   UNL     1     -12.353  12.510  65.423  1.00  0.00    -0.426 A  
HETATM   30  C   UNL     1     -11.575  12.578  69.328  1.00  0.00    -0.378 A  
ENDBRANCH  13  14
ENDBRANCH   7  13
TORSDOF 2
ENDMDL
MODEL      115
REMARK 921   NORMALIZED FREE ENERGY PREDICTED BY IDOCK:   -4.25 KCAL/MOL
REMARK 922        TOTAL FREE ENERGY PREDICTED BY IDOCK:   -5.28 KCAL/MOL
REMARK 923 INTER-LIGAND FREE ENERGY PREDICTED BY IDOCK:   -4.64 KCAL/MOL
REMARK 924 INTRA-LIGAND FREE ENERGY PREDICTED BY IDOCK:   -0.63 KCAL/MOL
REMARK 927      BINDING AFFINITY PREDICTED BY RF-SCORE:    0.00 PKD
ROOT
HETATM    1  C   UNL     1      -8.546   5.052  73.261  1.00  0.00    -0.112 C  
HETATM    2  C   UNL     1      -7.204   5.079  72.527  1.00  0.00    -0.087 C  
HETATM    3  C   UNL     1      -7.451   4.361  71.210  1.00  0.00    -0.060 C  
HETATM    4  C   UNL     1      -8.924   3.922  71.238  1.00  0.00    -0.107 C  
HETATM    5  N   UNL     1      -9.233   3.775  72.730  1.00  0.00    -0.106 N  
HETATM    6  C   UNL     1      -9.809   5.001  70.627  1.00  0.00    -0.282 C  
HETATM    7  C   UNL     1     -10.134   6.182  71.551  1.00  0.00    -0.192 C  
HETATM    8  C   UNL     1     -10.716   3.638  73.128  1.00  0.00    -0.175 C  
HETATM    9  C   UNL     1     -10.647   2.988  74.488  1.00  0.00    -0.169 C  
HETATM   10  C   UNL     1      -9.697   1.853  74.212  1.00  0.00    -0.106 C  
HETATM   11  C   UNL     1      -9.362   6.292  72.876  1.00  0.00    -0.140 C  
HETATM   12  C   UNL     1      -8.616   2.463  73.321  1.00  0.00    -0.070 C  
ENDROOT
BRANCH   7  13
HETATM   13  O   UNL     1     -10.017   7.410  70.821  1.00  0.00    -0.183 OA 
BRANCH  13  14
HETATM   14  C   UNL     1     -10.501   7.331  69.529  1.00  0.00    -0.230 C  
HETATM   15  C   UNL     1      -9.356   7.615  68.493  1.00  0.00    -0.147 C  
HETATM   16  O   UNL     1     -11.675   7.085  69.276  1.00  0.00     0.085 OA 
HETATM   17  O   UNL     1      -8.136   7.925  69.196  1.00  0.00    -0.119 OA 
HETATM   18  C   UNL     1      -9.142   6.345  67.649  1.00  0.00    -0.114 A  
HETATM   19  C   UNL     1      -9.724   8.897  67.728  1.00  0.00    -0.196 A  
HETATM   20  C   UNL     1      -9.954  10.088  68.452  1.00  0.00    -0.178 A  
HETATM   21  C   UNL     1     -10.221   5.758  66.955  1.00  0.00    -0.265 A  
HETATM   22  H   UNL     1      -7.443   8.097  68.569  1.00  0.00     0.000 HD 
HETATM   23  C   UNL     1     -10.048   4.614  66.173  1.00  0.00    -0.291 A  
HETATM   24  C   UNL     1     -10.439  11.238  67.825  1.00  0.00    -0.218 A  
HETATM   25  C   UNL     1      -8.792   4.024  66.083  1.00  0.00    -0.120 A  
HETATM   26  C   UNL     1     -10.684  11.229  66.457  1.00  0.00    -0.323 A  
HETATM   27  C   UNL     1      -7.715   4.576  66.769  1.00  0.00    -0.090 A  
HETATM   28  C   UNL     1     -10.403  10.088  65.711  1.00  0.00    -0.191 A  
HETATM   29  C   UNL     1      -9.910   8.939  66.337  1.00  0.00    -0.353 A  
HETATM   30  C   UNL     1      -7.884   5.729  67.540  1.00  0.00    -0.101 A  
ENDBRANCH  13  14
ENDBRANCH   7  13
TORSDOF 2
ENDMDL
MODEL      116
REMARK 921   NORMALIZED FREE ENERGY PREDICTED BY IDOCK:   -4.22 KCAL/MOL
REMARK 922        TOTAL FREE ENERGY PREDICTED BY IDOCK:   -5.25 KCAL/MOL
REMARK 923 INTER-LIGAND FREE ENERGY PREDICTED BY IDOCK:   -4.69 KCAL/MOL
REMARK 924 INTRA-LIGAND FREE ENERGY PREDICTED BY IDOCK:   -0.56 KCAL/MOL
REMARK 927      BINDING AFFINITY PREDICTED BY RF-SCORE:    0.00 PKD
ROOT
HETATM    1  C   UNL     1      -9.104   5.667  71.189  1.00  0.00    -0.145 C  
HETATM    2  C   UNL     1     -10.357   6.228  70.512  1.00  0.00    -0.255 C  
HETATM    3  C   UNL     1     -11.061   7.046  71.582  1.00  0.00    -0.264 C  
HETATM    4  C   UNL     1     -10.202   6.911  72.850  1.00  0.00    -0.203 C  
HETATM    5  N   UNL     1      -9.503   5.560  72.677  1.00  0.00    -0.147 N  
HETATM    6  C   UNL     1      -9.167   8.028  72.910  1.00  0.00    -0.332 C  
HETATM    7  C   UNL     1      -7.925   7.817  72.035  1.00  0.00    -0.105 C  
HETATM    8  C   UNL     1      -8.332   5.250  73.629  1.00  0.00    -0.112 C  
HETATM    9  C   UNL     1      -8.245   3.744  73.585  1.00  0.00    -0.087 C  
HETATM   10  C   UNL     1      -9.686   3.369  73.805  1.00  0.00    -0.141 C  
HETATM   11  C   UNL     1      -7.948   6.661  71.021  1.00  0.00    -0.107 C  
HETATM   12  C   UNL     1     -10.477   4.366  72.959  1.00  0.00    -0.183 C  
ENDROOT
BRANCH   7  13
HETATM   13  O   UNL     1      -7.595   9.040  71.364  1.00  0.00    -0.237 OA 
BRANCH  13  14
HETATM   14  C   UNL     1      -8.504   9.393  70.384  1.00  0.00    -0.214 C  
HETATM   15  C   UNL     1      -7.817   9.397  68.971  1.00  0.00    -0.079 C  
HETATM   16  O   UNL     1      -9.671   9.670  70.633  1.00  0.00    -0.257 OA 
HETATM   17  O   UNL     1      -6.419   9.076  69.114  1.00  0.00    -0.042 OA 
HETATM   18  C   UNL     1      -8.495   8.322  68.103  1.00  0.00    -0.132 A  
HETATM   19  C   UNL     1      -7.854  10.837  68.437  1.00  0.00    -0.120 A  
HETATM   20  C   UNL     1      -7.268  11.870  69.204  1.00  0.00    -0.020 A  
HETATM   21  C   UNL     1      -9.892   8.335  67.907  1.00  0.00    -0.207 A  
HETATM   22  H   UNL     1      -6.004   9.078  68.259  1.00  0.00     0.000 HD 
HETATM   23  C   UNL     1     -10.526   7.378  67.113  1.00  0.00    -0.403 A  
HETATM   24  C   UNL     1      -7.407  13.212  68.842  1.00  0.00    -0.019 A  
HETATM   25  C   UNL     1      -9.775   6.375  66.509  1.00  0.00    -0.177 A  
HETATM   26  C   UNL     1      -8.116  13.550  67.695  1.00  0.00    -0.180 A  
HETATM   27  C   UNL     1      -8.397   6.332  66.697  1.00  0.00    -0.112 A  
HETATM   28  C   UNL     1      -8.647  12.548  66.889  1.00  0.00    -0.158 A  
HETATM   29  C   UNL     1      -8.501  11.204  67.246  1.00  0.00    -0.137 A  
HETATM   30  C   UNL     1      -7.760   7.298  67.480  1.00  0.00    -0.111 A  
ENDBRANCH  13  14
ENDBRANCH   7  13
TORSDOF 2
ENDMDL
MODEL      117
REMARK 921   NORMALIZED FREE ENERGY PREDICTED BY IDOCK:   -4.21 KCAL/MOL
REMARK 922        TOTAL FREE ENERGY PREDICTED BY IDOCK:   -5.23 KCAL/MOL
REMARK 923 INTER-LIGAND FREE ENERGY PREDICTED BY IDOCK:   -6.06 KCAL/MOL
REMARK 924 INTRA-LIGAND FREE ENERGY PREDICTED BY IDOCK:    0.83 KCAL/MOL
REMARK 927      BINDING AFFINITY PREDICTED BY RF-SCORE:    0.00 PKD
ROOT
HETATM    1  C   UNL     1      -8.127  17.742  68.122  1.00  0.00    -0.265 C  
HETATM    2  C   UNL     1      -8.578  17.964  66.677  1.00  0.00    -0.283 C  
HETATM    3  C   UNL     1      -7.303  17.941  65.849  1.00  0.00    -0.247 C  
HETATM    4  C   UNL     1      -6.154  17.727  66.849  1.00  0.00    -0.152 C  
HETATM    5  N   UNL     1      -6.694  18.314  68.156  1.00  0.00    -0.207 N  
HETATM    6  C   UNL     1      -5.874  16.239  67.023  1.00  0.00    -0.019 C  
HETATM    7  C   UNL     1      -6.838  15.497  67.958  1.00  0.00    -0.136 C  
HETATM    8  C   UNL     1      -5.910  17.993  69.444  1.00  0.00    -0.229 C  
HETATM    9  C   UNL     1      -6.331  19.095  70.384  1.00  0.00     0.047 C  
HETATM   10  C   UNL     1      -6.135  20.305  69.509  1.00  0.00    -0.373 C  
HETATM   11  C   UNL     1      -8.104  16.237  68.420  1.00  0.00    -0.183 C  
HETATM   12  C   UNL     1      -6.665  19.880  68.140  1.00  0.00    -0.278 C  
ENDROOT
BRANCH   7  13
HETATM   13  O   UNL     1      -7.202  14.239  67.375  1.00  0.00    -0.185 OA 
BRANCH  13  14
HETATM   14  C   UNL     1      -8.445  13.785  67.774  1.00  0.00    -0.181 C  
HETATM   15  C   UNL     1      -8.908  12.584  66.876  1.00  0.00    -0.203 C  
HETATM   16  O   UNL     1      -9.068  14.293  68.700  1.00  0.00    -0.195 OA 
HETATM   17  O   UNL     1      -7.918  12.333  65.858  1.00  0.00     0.094 OA 
HETATM   18  C   UNL     1      -9.041  11.336  67.768  1.00  0.00    -0.152 A  
HETATM   19  C   UNL     1     -10.170  13.025  66.118  1.00  0.00    -0.288 A  
HETATM   20  C   UNL     1     -10.114  14.177  65.301  1.00  0.00    -0.364 A  
HETATM   21  C   UNL     1      -9.860  11.361  68.916  1.00  0.00    -0.127 A  
HETATM   22  H   UNL     1      -8.198  11.605  65.315  1.00  0.00     0.000 HD 
HETATM   23  C   UNL     1     -10.005  10.239  69.733  1.00  0.00    -0.222 A  
HETATM   24  C   UNL     1     -11.265  14.709  64.715  1.00  0.00    -0.395 A  
HETATM   25  C   UNL     1      -9.319   9.069  69.426  1.00  0.00    -0.158 A  
HETATM   26  C   UNL     1     -12.493  14.090  64.914  1.00  0.00    -0.419 A  
HETATM   27  C   UNL     1      -8.494   9.022  68.306  1.00  0.00    -0.129 A  
HETATM   28  C   UNL     1     -12.564  12.917  65.660  1.00  0.00    -0.268 A  
HETATM   29  C   UNL     1     -11.411  12.379  66.241  1.00  0.00    -0.423 A  
HETATM   30  C   UNL     1      -8.359  10.141  67.481  1.00  0.00    -0.118 A  
ENDBRANCH  13  14
ENDBRANCH   7  13
TORSDOF 2
ENDMDL
MODEL      118
REMARK 921   NORMALIZED FREE ENERGY PREDICTED BY IDOCK:   -4.19 KCAL/MOL
REMARK 922        TOTAL FREE ENERGY PREDICTED BY IDOCK:   -5.21 KCAL/MOL
REMARK 923 INTER-LIGAND FREE ENERGY PREDICTED BY IDOCK:   -5.32 KCAL/MOL
REMARK 924 INTRA-LIGAND FREE ENERGY PREDICTED BY IDOCK:    0.11 KCAL/MOL
REMARK 927      BINDING AFFINITY PREDICTED BY RF-SCORE:    0.00 PKD
ROOT
HETATM    1  C   UNL     1      -9.595  13.854  67.521  1.00  0.00    -0.229 C  
HETATM    2  C   UNL     1      -9.735  13.527  69.009  1.00  0.00     0.214 C  
HETATM    3  C   UNL     1     -11.230  13.548  69.287  1.00  0.00    -0.285 C  
HETATM    4  C   UNL     1     -11.902  13.909  67.952  1.00  0.00    -0.378 C  
HETATM    5  N   UNL     1     -10.835  14.721  67.213  1.00  0.00    -0.301 N  
HETATM    6  C   UNL     1     -12.232  12.646  67.167  1.00  0.00     0.010 C  
HETATM    7  C   UNL     1     -11.053  12.018  66.413  1.00  0.00    -0.318 C  
HETATM    8  C   UNL     1     -11.070  14.986  65.713  1.00  0.00    -0.346 C  
HETATM    9  C   UNL     1     -10.207  16.192  65.438  1.00  0.00    -0.294 C  
HETATM   10  C   UNL     1     -10.616  17.097  66.570  1.00  0.00    -0.172 C  
HETATM   11  C   UNL     1      -9.643  12.554  66.709  1.00  0.00    -0.231 C  
HETATM   12  C   UNL     1     -10.717  16.175  67.784  1.00  0.00    -0.325 C  
ENDROOT
BRANCH   7  13
HETATM   13  O   UNL     1     -11.074  10.595  66.587  1.00  0.00    -0.143 OA 
BRANCH  13  14
HETATM   14  C   UNL     1     -10.083  10.129  67.431  1.00  0.00    -0.205 C  
HETATM   15  C   UNL     1      -9.330   8.915  66.780  1.00  0.00    -0.175 C  
HETATM   16  O   UNL     1      -9.869  10.619  68.534  1.00  0.00    -0.156 OA 
HETATM   17  O   UNL     1      -9.926   8.606  65.503  1.00  0.00    -0.352 OA 
HETATM   18  C   UNL     1      -7.860   9.317  66.565  1.00  0.00    -0.100 A  
HETATM   19  C   UNL     1      -9.585   7.680  67.659  1.00  0.00    -0.175 A  
HETATM   20  C   UNL     1     -10.916   7.277  67.909  1.00  0.00    -0.110 A  
HETATM   21  C   UNL     1      -7.081   9.783  67.645  1.00  0.00    -0.088 A  
HETATM   22  H   UNL     1      -9.470   7.872  65.109  1.00  0.00     0.000 HD 
HETATM   23  C   UNL     1      -5.742  10.142  67.477  1.00  0.00    -0.045 A  
HETATM   24  C   UNL     1     -11.208   6.260  68.821  1.00  0.00    -0.357 A  
HETATM   25  C   UNL     1      -5.158  10.056  66.217  1.00  0.00    -0.039 A  
HETATM   26  C   UNL     1     -10.176   5.609  69.487  1.00  0.00    -0.320 A  
HETATM   27  C   UNL     1      -5.909   9.612  65.133  1.00  0.00    -0.072 A  
HETATM   28  C   UNL     1      -8.854   5.943  69.208  1.00  0.00    -0.118 A  
HETATM   29  C   UNL     1      -8.560   6.956  68.289  1.00  0.00    -0.125 A  
HETATM   30  C   UNL     1      -7.245   9.240  65.304  1.00  0.00    -0.090 A  
ENDBRANCH  13  14
ENDBRANCH   7  13
TORSDOF 2
ENDMDL
MODEL      119
REMARK 921   NORMALIZED FREE ENERGY PREDICTED BY IDOCK:   -4.12 KCAL/MOL
REMARK 922        TOTAL FREE ENERGY PREDICTED BY IDOCK:   -5.13 KCAL/MOL
REMARK 923 INTER-LIGAND FREE ENERGY PREDICTED BY IDOCK:   -4.65 KCAL/MOL
REMARK 924 INTRA-LIGAND FREE ENERGY PREDICTED BY IDOCK:   -0.48 KCAL/MOL
REMARK 927      BINDING AFFINITY PREDICTED BY RF-SCORE:    0.00 PKD
ROOT
HETATM    1  C   UNL     1     -11.027   6.253  67.647  1.00  0.00    -0.342 C  
HETATM    2  C   UNL     1     -10.881   6.323  69.168  1.00  0.00    -0.403 C  
HETATM    3  C   UNL     1      -9.398   6.544  69.420  1.00  0.00    -0.143 C  
HETATM    4  C   UNL     1      -8.733   6.572  68.035  1.00  0.00    -0.116 C  
HETATM    5  N   UNL     1      -9.661   5.716  67.167  1.00  0.00    -0.125 N  
HETATM    6  C   UNL     1      -8.687   7.997  67.498  1.00  0.00    -0.125 C  
HETATM    7  C   UNL     1      -9.998   8.510  66.889  1.00  0.00    -0.265 C  
HETATM    8  C   UNL     1      -9.451   5.782  65.642  1.00  0.00     0.095 C  
HETATM    9  C   UNL     1     -10.081   4.501  65.154  1.00  0.00    -0.147 C  
HETATM   10  C   UNL     1      -9.455   3.502  66.090  1.00  0.00    -0.149 C  
HETATM   11  C   UNL     1     -11.265   7.664  67.094  1.00  0.00     0.416 C  
HETATM   12  C   UNL     1      -9.474   4.188  67.455  1.00  0.00    -0.184 C  
ENDROOT
BRANCH   7  13
HETATM   13  O   UNL     1     -10.239   9.853  67.329  1.00  0.00    -0.195 OA 
BRANCH  13  14
HETATM   14  C   UNL     1      -9.449  10.791  66.691  1.00  0.00    -0.175 C  
HETATM   15  C   UNL     1      -9.372  12.113  67.536  1.00  0.00    -0.181 C  
HETATM   16  O   UNL     1      -8.913  10.580  65.609  1.00  0.00    -0.166 OA 
HETATM   17  O   UNL     1     -10.193  11.981  68.714  1.00  0.00    -0.311 OA 
HETATM   18  C   UNL     1      -7.909  12.329  67.963  1.00  0.00    -0.147 A  
HETATM   19  C   UNL     1     -10.021  13.235  66.710  1.00  0.00    -0.263 A  
HETATM   20  C   UNL     1     -11.356  13.081  66.270  1.00  0.00    -0.354 A  
HETATM   21  C   UNL     1      -6.881  12.370  66.998  1.00  0.00    -0.006 A  
HETATM   22  H   UNL     1     -10.146  12.780  69.225  1.00  0.00     0.000 HD 
HETATM   23  C   UNL     1      -5.549  12.578  67.361  1.00  0.00    -0.112 A  
HETATM   24  C   UNL     1     -11.942  13.995  65.391  1.00  0.00    -0.386 A  
HETATM   25  C   UNL     1      -5.215  12.734  68.702  1.00  0.00    -0.057 A  
HETATM   26  C   UNL     1     -11.214  15.094  64.949  1.00  0.00    -0.424 A  
HETATM   27  C   UNL     1      -6.209  12.684  69.674  1.00  0.00    -0.122 A  
HETATM   28  C   UNL     1      -9.921  15.302  65.419  1.00  0.00    -0.364 A  
HETATM   29  C   UNL     1      -9.337  14.392  66.305  1.00  0.00    -0.261 A  
HETATM   30  C   UNL     1      -7.545  12.490  69.311  1.00  0.00     0.363 A  
ENDBRANCH  13  14
ENDBRANCH   7  13
TORSDOF 2
ENDMDL
MODEL      120
REMARK 921   NORMALIZED FREE ENERGY PREDICTED BY IDOCK:   -4.00 KCAL/MOL
REMARK 922        TOTAL FREE ENERGY PREDICTED BY IDOCK:   -5.00 KCAL/MOL
REMARK 923 INTER-LIGAND FREE ENERGY PREDICTED BY IDOCK:   -6.43 KCAL/MOL
REMARK 924 INTRA-LIGAND FREE ENERGY PREDICTED BY IDOCK:    1.43 KCAL/MOL
REMARK 927      BINDING AFFINITY PREDICTED BY RF-SCORE:    0.00 PKD
ROOT
HETATM    1  C   UNL     1      -9.199  15.928  69.029  1.00  0.00    -0.242 C  
HETATM    2  C   UNL     1     -10.344  15.557  69.974  1.00  0.00    -0.315 C  
HETATM    3  C   UNL     1     -11.362  14.832  69.109  1.00  0.00    -0.302 C  
HETATM    4  C   UNL     1     -10.780  14.829  67.686  1.00  0.00    -0.270 C  
HETATM    5  N   UNL     1      -9.886  16.072  67.654  1.00  0.00    -0.233 N  
HETATM    6  C   UNL     1      -9.941  13.578  67.460  1.00  0.00    -0.230 C  
HETATM    7  C   UNL     1      -8.524  13.624  68.048  1.00  0.00    -0.174 C  
HETATM    8  C   UNL     1      -8.912  16.203  66.467  1.00  0.00    -0.287 C  
HETATM    9  C   UNL     1      -8.615  17.682  66.429  1.00  0.00    -0.269 C  
HETATM   10  C   UNL     1     -10.007  18.251  66.497  1.00  0.00    -0.380 C  
HETATM   11  C   UNL     1      -8.178  14.785  68.995  1.00  0.00    -0.141 C  
HETATM   12  C   UNL     1     -10.729  17.386  67.530  1.00  0.00    -0.278 C  
ENDROOT
BRANCH   7  13
HETATM   13  O   UNL     1      -8.227  12.376  68.687  1.00  0.00    -0.107 OA 
BRANCH  13  14
HETATM   14  C   UNL     1      -9.170  11.394  68.442  1.00  0.00    -0.183 C  
HETATM   15  C   UNL     1      -8.626   9.987  68.878  1.00  0.00    -0.138 C  
HETATM   16  O   UNL     1     -10.261  11.636  67.940  1.00  0.00    -0.182 OA 
HETATM   17  O   UNL     1      -7.275  10.122  69.364  1.00  0.00    -0.072 OA 
HETATM   18  C   UNL     1      -9.519   9.454  70.013  1.00  0.00    -0.257 A  
HETATM   19  C   UNL     1      -8.521   9.115  67.617  1.00  0.00    -0.116 A  
HETATM   20  C   UNL     1      -7.734   9.565  66.533  1.00  0.00    -0.097 A  
HETATM   21  C   UNL     1     -10.914   9.345  69.834  1.00  0.00    -0.251 A  
HETATM   22  H   UNL     1      -6.946   9.270  69.627  1.00  0.00     0.000 HD 
HETATM   23  C   UNL     1     -11.742   8.852  70.845  1.00  0.00    -0.312 A  
HETATM   24  C   UNL     1      -7.727   8.890  65.310  1.00  0.00    -0.100 A  
HETATM   25  C   UNL     1     -11.191   8.473  72.064  1.00  0.00    -0.418 A  
HETATM   26  C   UNL     1      -8.490   7.739  65.150  1.00  0.00    -0.075 A  
HETATM   27  C   UNL     1      -9.819   8.584  72.270  1.00  0.00    -0.383 A  
HETATM   28  C   UNL     1      -9.222   7.240  66.223  1.00  0.00    -0.175 A  
HETATM   29  C   UNL     1      -9.224   7.911  67.450  1.00  0.00    -0.160 A  
HETATM   30  C   UNL     1      -8.988   9.064  71.254  1.00  0.00    -0.281 A  
ENDBRANCH  13  14
ENDBRANCH   7  13
TORSDOF 2
ENDMDL
MODEL      121
REMARK 921   NORMALIZED FREE ENERGY PREDICTED BY IDOCK:   -3.92 KCAL/MOL
REMARK 922        TOTAL FREE ENERGY PREDICTED BY IDOCK:   -4.91 KCAL/MOL
REMARK 923 INTER-LIGAND FREE ENERGY PREDICTED BY IDOCK:   -4.24 KCAL/MOL
REMARK 924 INTRA-LIGAND FREE ENERGY PREDICTED BY IDOCK:   -0.67 KCAL/MOL
REMARK 927      BINDING AFFINITY PREDICTED BY RF-SCORE:    0.00 PKD
ROOT
HETATM    1  C   UNL     1     -10.134  13.430  66.753  1.00  0.00    -0.260 C  
HETATM    2  C   UNL     1     -10.527  14.432  67.841  1.00  0.00    -0.239 C  
HETATM    3  C   UNL     1     -11.802  13.880  68.455  1.00  0.00    -0.401 C  
HETATM    4  C   UNL     1     -12.116  12.586  67.686  1.00  0.00    -0.056 C  
HETATM    5  N   UNL     1     -11.479  12.815  66.312  1.00  0.00    -0.334 N  
HETATM    6  C   UNL     1     -11.464  11.392  68.370  1.00  0.00    -0.367 C  
HETATM    7  C   UNL     1      -9.968  11.210  68.083  1.00  0.00    -0.178 C  
HETATM    8  C   UNL     1     -11.346  11.588  65.390  1.00  0.00    -0.078 C  
HETATM    9  C   UNL     1     -11.223  12.203  64.017  1.00  0.00    -0.458 C  
HETATM   10  C   UNL     1     -12.374  13.173  64.037  1.00  0.00    -0.425 C  
HETATM   11  C   UNL     1      -9.231  12.350  67.361  1.00  0.00    -0.184 C  
HETATM   12  C   UNL     1     -12.334  13.790  65.435  1.00  0.00    -0.475 C  
ENDROOT
BRANCH   7  13
HETATM   13  O   UNL     1      -9.281  10.886  69.299  1.00  0.00    -0.117 OA 
BRANCH  13  14
HETATM   14  C   UNL     1      -8.882   9.564  69.370  1.00  0.00    -0.170 C  
HETATM   15  C   UNL     1      -9.131   8.990  70.810  1.00  0.00    -0.245 C  
HETATM   16  O   UNL     1      -8.393   8.968  68.417  1.00  0.00    -0.122 OA 
HETATM   17  O   UNL     1      -9.661  10.028  71.658  1.00  0.00     0.428 OA 
HETATM   18  C   UNL     1     -10.161   7.850  70.704  1.00  0.00    -0.197 A  
HETATM   19  C   UNL     1      -7.764   8.628  71.413  1.00  0.00    -0.150 A  
HETATM   20  C   UNL     1      -6.771   9.629  71.514  1.00  0.00     0.267 A  
HETATM   21  C   UNL     1      -9.937   6.762  69.835  1.00  0.00    -0.184 A  
HETATM   22  H   UNL     1      -9.812   9.680  72.529  1.00  0.00     0.000 HD 
HETATM   23  C   UNL     1     -10.851   5.711  69.732  1.00  0.00    -0.370 A  
HETATM   24  C   UNL     1      -5.467   9.322  71.909  1.00  0.00    -0.072 A  
HETATM   25  C   UNL     1     -12.018   5.736  70.488  1.00  0.00     1.013 A  
HETATM   26  C   UNL     1      -5.132   8.012  72.232  1.00  0.00    -0.035 A  
HETATM   27  C   UNL     1     -12.269   6.805  71.342  1.00  0.00    -0.413 A  
HETATM   28  C   UNL     1      -6.109   7.021  72.204  1.00  0.00    -0.041 A  
HETATM   29  C   UNL     1      -7.416   7.329  71.816  1.00  0.00    -0.084 A  
HETATM   30  C   UNL     1     -11.348   7.850  71.456  1.00  0.00    -0.293 A  
ENDBRANCH  13  14
ENDBRANCH   7  13
TORSDOF 2
ENDMDL
MODEL      122
REMARK 921   NORMALIZED FREE ENERGY PREDICTED BY IDOCK:   -3.90 KCAL/MOL
REMARK 922        TOTAL FREE ENERGY PREDICTED BY IDOCK:   -4.89 KCAL/MOL
REMARK 923 INTER-LIGAND FREE ENERGY PREDICTED BY IDOCK:   -5.73 KCAL/MOL
REMARK 924 INTRA-LIGAND FREE ENERGY PREDICTED BY IDOCK:    0.84 KCAL/MOL
REMARK 927      BINDING AFFINITY PREDICTED BY RF-SCORE:    0.00 PKD
ROOT
HETATM    1  C   UNL     1      -8.662   7.286  72.354  1.00  0.00    -0.119 C  
HETATM    2  C   UNL     1      -7.607   7.139  71.255  1.00  0.00    -0.081 C  
HETATM    3  C   UNL     1      -8.206   6.169  70.250  1.00  0.00    -0.124 C  
HETATM    4  C   UNL     1      -9.579   5.770  70.814  1.00  0.00    -0.171 C  
HETATM    5  N   UNL     1      -9.415   5.939  72.328  1.00  0.00    -0.148 N  
HETATM    6  C   UNL     1     -10.658   6.713  70.299  1.00  0.00    -0.265 C  
HETATM    7  C   UNL     1     -10.745   8.065  71.020  1.00  0.00    -0.220 C  
HETATM    8  C   UNL     1     -10.700   5.911  73.178  1.00  0.00    -0.261 C  
HETATM    9  C   UNL     1     -10.192   5.555  74.554  1.00  0.00    -0.291 C  
HETATM   10  C   UNL     1      -9.317   4.372  74.235  1.00  0.00    -0.121 C  
HETATM   11  C   UNL     1      -9.614   8.433  71.994  1.00  0.00    -0.344 C  
HETATM   12  C   UNL     1      -8.586   4.767  72.953  1.00  0.00    -0.111 C  
ENDROOT
BRANCH   7  13
HETATM   13  O   UNL     1     -10.913   9.114  70.058  1.00  0.00    -0.231 OA 
BRANCH  13  14
HETATM   14  C   UNL     1      -9.784   9.346  69.293  1.00  0.00    -0.172 C  
HETATM   15  C   UNL     1     -10.184   9.792  67.842  1.00  0.00    -0.194 C  
HETATM   16  O   UNL     1      -8.648   9.196  69.729  1.00  0.00    -0.122 OA 
HETATM   17  O   UNL     1     -11.620   9.783  67.713  1.00  0.00    -0.474 OA 
HETATM   18  C   UNL     1      -9.667  11.224  67.617  1.00  0.00    -0.183 A  
HETATM   19  C   UNL     1      -9.679   8.717  66.866  1.00  0.00    -0.278 A  
HETATM   20  C   UNL     1     -10.103   7.379  67.038  1.00  0.00    -0.328 A  
HETATM   21  C   UNL     1      -8.303  11.530  67.806  1.00  0.00    -0.136 A  
HETATM   22  H   UNL     1     -11.861  10.053  66.834  1.00  0.00     0.000 HD 
HETATM   23  C   UNL     1      -7.808  12.819  67.595  1.00  0.00    -0.165 A  
HETATM   24  C   UNL     1      -9.557   6.341  66.279  1.00  0.00    -0.117 A  
HETATM   25  C   UNL     1      -8.675  13.835  67.206  1.00  0.00    -0.226 A  
HETATM   26  C   UNL     1      -8.593   6.619  65.317  1.00  0.00    -0.027 A  
HETATM   27  C   UNL     1     -10.027  13.562  67.026  1.00  0.00    -0.247 A  
HETATM   28  C   UNL     1      -8.208   7.936  65.084  1.00  0.00    -0.143 A  
HETATM   29  C   UNL     1      -8.759   8.977  65.838  1.00  0.00    -0.193 A  
HETATM   30  C   UNL     1     -10.520  12.269  67.223  1.00  0.00    -0.236 A  
ENDBRANCH  13  14
ENDBRANCH   7  13
TORSDOF 2
ENDMDL
MODEL      123
REMARK 921   NORMALIZED FREE ENERGY PREDICTED BY IDOCK:   -3.90 KCAL/MOL
REMARK 922        TOTAL FREE ENERGY PREDICTED BY IDOCK:   -4.89 KCAL/MOL
REMARK 923 INTER-LIGAND FREE ENERGY PREDICTED BY IDOCK:   -5.47 KCAL/MOL
REMARK 924 INTRA-LIGAND FREE ENERGY PREDICTED BY IDOCK:    0.59 KCAL/MOL
REMARK 927      BINDING AFFINITY PREDICTED BY RF-SCORE:    0.00 PKD
ROOT
HETATM    1  C   UNL     1     -11.546  12.267  67.229  1.00  0.00    -0.357 C  
HETATM    2  C   UNL     1     -11.270  11.693  65.837  1.00  0.00    -0.296 C  
HETATM    3  C   UNL     1      -9.806  11.993  65.562  1.00  0.00    -0.251 C  
HETATM    4  C   UNL     1      -9.290  12.751  66.796  1.00  0.00    -0.241 C  
HETATM    5  N   UNL     1     -10.542  13.433  67.356  1.00  0.00    -0.250 N  
HETATM    6  C   UNL     1      -8.728  11.773  67.820  1.00  0.00    -0.155 C  
HETATM    7  C   UNL     1      -9.773  11.058  68.685  1.00  0.00    -0.195 C  
HETATM    8  C   UNL     1     -10.438  14.033  68.771  1.00  0.00    -0.233 C  
HETATM    9  C   UNL     1     -11.556  15.046  68.796  1.00  0.00    -0.357 C  
HETATM   10  C   UNL     1     -11.304  15.778  67.505  1.00  0.00    -0.150 C  
HETATM   11  C   UNL     1     -11.252  11.196  68.287  1.00  0.00    -0.343 C  
HETATM   12  C   UNL     1     -10.949  14.681  66.502  1.00  0.00    -0.318 C  
ENDROOT
BRANCH   7  13
HETATM   13  O   UNL     1      -9.434   9.670  68.802  1.00  0.00    -0.144 OA 
BRANCH  13  14
HETATM   14  C   UNL     1      -9.513   8.981  67.607  1.00  0.00    -0.140 C  
HETATM   15  C   UNL     1      -8.262   8.051  67.422  1.00  0.00    -0.123 C  
HETATM   16  O   UNL     1     -10.446   9.121  66.823  1.00  0.00    -0.249 OA 
HETATM   17  O   UNL     1      -7.364   8.223  68.537  1.00  0.00    -0.089 OA 
HETATM   18  C   UNL     1      -8.747   6.590  67.387  1.00  0.00    -0.117 A  
HETATM   19  C   UNL     1      -7.485   8.548  66.192  1.00  0.00    -0.089 A  
HETATM   20  C   UNL     1      -7.035   9.887  66.159  1.00  0.00    -0.102 A  
HETATM   21  C   UNL     1      -9.730   6.185  66.460  1.00  0.00    -0.184 A  
HETATM   22  H   UNL     1      -6.607   7.660  68.426  1.00  0.00     0.000 HD 
HETATM   23  C   UNL     1     -10.176   4.863  66.401  1.00  0.00    -0.313 A  
HETATM   24  C   UNL     1      -6.463  10.433  65.008  1.00  0.00    -0.086 A  
HETATM   25  C   UNL     1      -9.657   3.920  67.282  1.00  0.00    -0.222 A  
HETATM   26  C   UNL     1      -6.308   9.647  63.872  1.00  0.00    -0.110 A  
HETATM   27  C   UNL     1      -8.696   4.297  68.214  1.00  0.00    -0.116 A  
HETATM   28  C   UNL     1      -6.684   8.308  63.901  1.00  0.00    -0.075 A  
HETATM   29  C   UNL     1      -7.250   7.758  65.056  1.00  0.00    -0.065 A  
HETATM   30  C   UNL     1      -8.239   5.617  68.265  1.00  0.00    -0.103 A  
ENDBRANCH  13  14
ENDBRANCH   7  13
TORSDOF 2
ENDMDL
MODEL      124
REMARK 921   NORMALIZED FREE ENERGY PREDICTED BY IDOCK:   -3.89 KCAL/MOL
REMARK 922        TOTAL FREE ENERGY PREDICTED BY IDOCK:   -4.88 KCAL/MOL
REMARK 923 INTER-LIGAND FREE ENERGY PREDICTED BY IDOCK:   -4.14 KCAL/MOL
REMARK 924 INTRA-LIGAND FREE ENERGY PREDICTED BY IDOCK:   -0.74 KCAL/MOL
REMARK 927      BINDING AFFINITY PREDICTED BY RF-SCORE:    0.00 PKD
ROOT
HETATM    1  C   UNL     1     -10.842  12.624  68.280  1.00  0.00    -0.239 C  
HETATM    2  C   UNL     1     -11.754  12.066  67.185  1.00  0.00    -0.344 C  
HETATM    3  C   UNL     1     -10.888  11.993  65.939  1.00  0.00    -0.329 C  
HETATM    4  C   UNL     1      -9.508  12.532  66.350  1.00  0.00    -0.233 C  
HETATM    5  N   UNL     1      -9.819  13.485  67.508  1.00  0.00    -0.223 N  
HETATM    6  C   UNL     1      -8.619  11.395  66.836  1.00  0.00    -0.154 C  
HETATM    7  C   UNL     1      -8.877  10.931  68.276  1.00  0.00    -0.140 C  
HETATM    8  C   UNL     1      -8.626  13.969  68.355  1.00  0.00    -0.174 C  
HETATM    9  C   UNL     1      -9.150  15.233  68.992  1.00  0.00    -0.225 C  
HETATM   10  C   UNL     1      -9.726  15.937  67.793  1.00  0.00    -0.220 C  
HETATM   11  C   UNL     1     -10.131  11.464  68.988  1.00  0.00    -0.110 C  
HETATM   12  C   UNL     1     -10.425  14.836  66.997  1.00  0.00    -0.270 C  
ENDROOT
BRANCH   7  13
HETATM   13  O   UNL     1      -8.864   9.499  68.330  1.00  0.00    -0.124 OA 
BRANCH  13  14
HETATM   14  C   UNL     1      -7.726   8.938  67.780  1.00  0.00    -0.101 C  
HETATM   15  C   UNL     1      -8.108   7.843  66.721  1.00  0.00    -0.108 C  
HETATM   16  O   UNL     1      -6.595   9.271  68.116  1.00  0.00    -0.058 OA 
HETATM   17  O   UNL     1      -9.542   7.706  66.664  1.00  0.00    -0.189 OA 
HETATM   18  C   UNL     1      -7.591   8.301  65.345  1.00  0.00    -0.096 A  
HETATM   19  C   UNL     1      -7.589   6.491  67.237  1.00  0.00    -0.096 A  
HETATM   20  C   UNL     1      -8.011   6.031  68.504  1.00  0.00    -0.107 A  
HETATM   21  C   UNL     1      -6.230   8.625  65.164  1.00  0.00    -0.060 A  
HETATM   22  H   UNL     1      -9.773   7.044  66.023  1.00  0.00     0.000 HD 
HETATM   23  C   UNL     1      -5.736   9.030  63.923  1.00  0.00    -0.070 A  
HETATM   24  C   UNL     1      -7.454   4.889  69.086  1.00  0.00    -0.053 A  
HETATM   25  C   UNL     1      -6.600   9.135  62.838  1.00  0.00    -0.093 A  
HETATM   26  C   UNL     1      -6.478   4.171  68.405  1.00  0.00    -0.037 A  
HETATM   27  C   UNL     1      -7.949   8.834  62.993  1.00  0.00    -0.161 A  
HETATM   28  C   UNL     1      -6.093   4.568  67.127  1.00  0.00    -0.031 A  
HETATM   29  C   UNL     1      -6.655   5.706  66.541  1.00  0.00    -0.056 A  
HETATM   30  C   UNL     1      -8.441   8.415  64.232  1.00  0.00    -0.036 A  
ENDBRANCH  13  14
ENDBRANCH   7  13
TORSDOF 2
ENDMDL
MODEL      125
REMARK 921   NORMALIZED FREE ENERGY PREDICTED BY IDOCK:   -3.89 KCAL/MOL
REMARK 922        TOTAL FREE ENERGY PREDICTED BY IDOCK:   -4.87 KCAL/MOL
REMARK 923 INTER-LIGAND FREE ENERGY PREDICTED BY IDOCK:   -5.50 KCAL/MOL
REMARK 924 INTRA-LIGAND FREE ENERGY PREDICTED BY IDOCK:    0.62 KCAL/MOL
REMARK 927      BINDING AFFINITY PREDICTED BY RF-SCORE:    0.00 PKD
ROOT
HETATM    1  C   UNL     1      -9.857   5.298  70.822  1.00  0.00    -0.196 C  
HETATM    2  C   UNL     1     -10.993   5.789  69.921  1.00  0.00    -0.389 C  
HETATM    3  C   UNL     1     -11.383   7.151  70.471  1.00  0.00    -0.333 C  
HETATM    4  C   UNL     1     -10.474   7.392  71.687  1.00  0.00    -0.197 C  
HETATM    5  N   UNL     1     -10.139   5.981  72.178  1.00  0.00    -0.180 N  
HETATM    6  C   UNL     1      -9.200   8.111  71.261  1.00  0.00    -0.193 C  
HETATM    7  C   UNL     1      -8.127   7.219  70.624  1.00  0.00    -0.108 C  
HETATM    8  C   UNL     1      -8.998   5.850  73.206  1.00  0.00    -0.130 C  
HETATM    9  C   UNL     1      -9.279   4.521  73.862  1.00  0.00    -0.110 C  
HETATM   10  C   UNL     1     -10.743   4.666  74.181  1.00  0.00    -0.329 C  
HETATM   11  C   UNL     1      -8.516   5.778  70.256  1.00  0.00    -0.128 C  
HETATM   12  C   UNL     1     -11.342   5.336  72.945  1.00  0.00    -0.301 C  
ENDROOT
BRANCH   7  13
HETATM   13  O   UNL     1      -7.573   7.877  69.477  1.00  0.00    -0.094 OA 
BRANCH  13  14
HETATM   14  C   UNL     1      -8.513   8.185  68.512  1.00  0.00    -0.127 C  
HETATM   15  C   UNL     1      -8.342   9.670  68.030  1.00  0.00    -0.117 C  
HETATM   16  O   UNL     1      -9.353   7.380  68.126  1.00  0.00    -0.136 OA 
HETATM   17  O   UNL     1      -7.280  10.300  68.775  1.00  0.00    -0.076 OA 
HETATM   18  C   UNL     1      -7.970   9.654  66.537  1.00  0.00    -0.112 A  
HETATM   19  C   UNL     1      -9.619  10.436  68.413  1.00  0.00    -0.153 A  
HETATM   20  C   UNL     1     -10.023  10.465  69.767  1.00  0.00    -0.167 A  
HETATM   21  C   UNL     1      -8.788   8.986  65.602  1.00  0.00    -0.224 A  
HETATM   22  H   UNL     1      -7.177  11.198  68.484  1.00  0.00     0.000 HD 
HETATM   23  C   UNL     1      -8.477   8.969  64.241  1.00  0.00    -0.185 A  
HETATM   24  C   UNL     1     -11.251  11.012  70.148  1.00  0.00    -0.264 A  
HETATM   25  C   UNL     1      -7.328   9.609  63.789  1.00  0.00    -0.123 A  
HETATM   26  C   UNL     1     -12.092  11.561  69.187  1.00  0.00    -0.329 A  
HETATM   27  C   UNL     1      -6.498  10.265  64.692  1.00  0.00    -0.101 A  
HETATM   28  C   UNL     1     -11.687  11.603  67.856  1.00  0.00    -0.329 A  
HETATM   29  C   UNL     1     -10.455  11.062  67.475  1.00  0.00    -0.244 A  
HETATM   30  C   UNL     1      -6.816  10.294  66.052  1.00  0.00    -0.119 A  
ENDBRANCH  13  14
ENDBRANCH   7  13
TORSDOF 2
ENDMDL
MODEL      126
REMARK 921   NORMALIZED FREE ENERGY PREDICTED BY IDOCK:   -3.86 KCAL/MOL
REMARK 922        TOTAL FREE ENERGY PREDICTED BY IDOCK:   -4.84 KCAL/MOL
REMARK 923 INTER-LIGAND FREE ENERGY PREDICTED BY IDOCK:   -4.31 KCAL/MOL
REMARK 924 INTRA-LIGAND FREE ENERGY PREDICTED BY IDOCK:   -0.53 KCAL/MOL
REMARK 927      BINDING AFFINITY PREDICTED BY RF-SCORE:    0.00 PKD
ROOT
HETATM    1  C   UNL     1      -8.993  17.724  68.696  1.00  0.00    -0.256 C  
HETATM    2  C   UNL     1     -10.428  17.211  68.843  1.00  0.00    -0.346 C  
HETATM    3  C   UNL     1     -10.993  17.186  67.432  1.00  0.00    -0.057 C  
HETATM    4  C   UNL     1      -9.872  17.707  66.518  1.00  0.00    -0.319 C  
HETATM    5  N   UNL     1      -9.045  18.613  67.434  1.00  0.00    -0.277 N  
HETATM    6  C   UNL     1      -9.015  16.550  66.020  1.00  0.00    -0.276 C  
HETATM    7  C   UNL     1      -7.972  16.030  67.018  1.00  0.00    -0.227 C  
HETATM    8  C   UNL     1      -7.665  19.062  66.915  1.00  0.00    -0.242 C  
HETATM    9  C   UNL     1      -7.380  20.301  67.728  1.00  0.00    -0.325 C  
HETATM   10  C   UNL     1      -8.674  21.052  67.564  1.00  0.00     0.010 C  
HETATM   11  C   UNL     1      -8.050  16.536  68.468  1.00  0.00    -0.218 C  
HETATM   12  C   UNL     1      -9.759  19.984  67.687  1.00  0.00    -0.403 C  
ENDROOT
BRANCH   7  13
HETATM   13  O   UNL     1      -7.968  14.597  67.007  1.00  0.00    -0.189 OA 
BRANCH  13  14
HETATM   14  C   UNL     1      -9.230  14.043  66.900  1.00  0.00    -0.260 C  
HETATM   15  C   UNL     1      -9.504  13.061  68.094  1.00  0.00    -0.218 C  
HETATM   16  O   UNL     1      -9.990  14.303  65.974  1.00  0.00    -0.294 OA 
HETATM   17  O   UNL     1      -8.335  12.984  68.933  1.00  0.00    -0.350 OA 
HETATM   18  C   UNL     1     -10.680  13.617  68.917  1.00  0.00    -0.237 A  
HETATM   19  C   UNL     1      -9.680  11.650  67.508  1.00  0.00    -0.185 A  
HETATM   20  C   UNL     1      -8.643  11.097  66.724  1.00  0.00    -0.157 A  
HETATM   21  C   UNL     1     -11.915  13.904  68.298  1.00  0.00    -0.392 A  
HETATM   22  H   UNL     1      -8.501  12.389  69.656  1.00  0.00     0.000 HD 
HETATM   23  C   UNL     1     -12.999  14.397  69.026  1.00  0.00     1.224 A  
HETATM   24  C   UNL     1      -8.811   9.889  66.044  1.00  0.00    -0.166 A  
HETATM   25  C   UNL     1     -12.864  14.629  70.391  1.00  0.00    -0.321 A  
HETATM   26  C   UNL     1     -10.012   9.197  66.148  1.00  0.00    -0.338 A  
HETATM   27  C   UNL     1     -11.653  14.367  71.023  1.00  0.00    -0.167 A  
HETATM   28  C   UNL     1     -11.025   9.689  66.967  1.00  0.00    -0.020 A  
HETATM   29  C   UNL     1     -10.854  10.894  67.654  1.00  0.00    -0.317 A  
HETATM   30  C   UNL     1     -10.572  13.860  70.297  1.00  0.00     1.013 A  
ENDBRANCH  13  14
ENDBRANCH   7  13
TORSDOF 2
ENDMDL
MODEL      127
REMARK 921   NORMALIZED FREE ENERGY PREDICTED BY IDOCK:   -3.82 KCAL/MOL
REMARK 922        TOTAL FREE ENERGY PREDICTED BY IDOCK:   -4.80 KCAL/MOL
REMARK 923 INTER-LIGAND FREE ENERGY PREDICTED BY IDOCK:   -4.32 KCAL/MOL
REMARK 924 INTRA-LIGAND FREE ENERGY PREDICTED BY IDOCK:   -0.48 KCAL/MOL
REMARK 927      BINDING AFFINITY PREDICTED BY RF-SCORE:    0.00 PKD
ROOT
HETATM    1  C   UNL     1      -8.573  10.657  69.056  1.00  0.00    -0.146 C  
HETATM    2  C   UNL     1      -9.997  10.176  69.344  1.00  0.00    -0.247 C  
HETATM    3  C   UNL     1     -10.634   9.964  67.981  1.00  0.00    -0.288 C  
HETATM    4  C   UNL     1      -9.562  10.351  66.949  1.00  0.00    -0.172 C  
HETATM    5  N   UNL     1      -8.691  11.369  67.691  1.00  0.00    -0.134 N  
HETATM    6  C   UNL     1      -8.730   9.133  66.568  1.00  0.00    -0.142 C  
HETATM    7  C   UNL     1      -7.636   8.747  67.572  1.00  0.00    -0.093 C  
HETATM    8  C   UNL     1      -7.341  11.736  67.046  1.00  0.00    -0.133 C  
HETATM    9  C   UNL     1      -7.016  13.072  67.669  1.00  0.00    -0.154 C  
HETATM   10  C   UNL     1      -8.318  13.801  67.471  1.00  0.00    -0.197 C  
HETATM   11  C   UNL     1      -7.641   9.444  68.943  1.00  0.00    -0.075 C  
HETATM   12  C   UNL     1      -9.394  12.764  67.792  1.00  0.00    -0.199 C  
ENDROOT
BRANCH   7  13
HETATM   13  O   UNL     1      -7.629   7.326  67.755  1.00  0.00    -0.105 OA 
BRANCH  13  14
HETATM   14  C   UNL     1      -8.565   6.884  68.671  1.00  0.00    -0.123 C  
HETATM   15  C   UNL     1      -7.863   6.125  69.853  1.00  0.00    -0.109 C  
HETATM   16  O   UNL     1      -9.769   7.070  68.531  1.00  0.00    -0.139 OA 
HETATM   17  O   UNL     1      -6.443   6.067  69.613  1.00  0.00    -0.039 OA 
HETATM   18  C   UNL     1      -8.123   6.909  71.153  1.00  0.00    -0.110 A  
HETATM   19  C   UNL     1      -8.343   4.665  69.823  1.00  0.00    -0.081 A  
HETATM   20  C   UNL     1      -8.152   3.903  68.648  1.00  0.00    -0.079 A  
HETATM   21  C   UNL     1      -9.441   7.214  71.553  1.00  0.00    -0.161 A  
HETATM   22  H   UNL     1      -6.019   5.608  70.329  1.00  0.00     0.000 HD 
HETATM   23  C   UNL     1      -9.701   7.912  72.734  1.00  0.00    -0.322 A  
HETATM   24  C   UNL     1      -8.703   2.627  68.511  1.00  0.00    -0.132 A  
HETATM   25  C   UNL     1      -8.644   8.335  73.532  1.00  0.00    -0.269 A  
HETATM   26  C   UNL     1      -9.439   2.075  69.554  1.00  0.00    -0.113 A  
HETATM   27  C   UNL     1      -7.334   8.059  73.152  1.00  0.00    -0.152 A  
HETATM   28  C   UNL     1      -9.585   2.780  70.745  1.00  0.00    -0.187 A  
HETATM   29  C   UNL     1      -9.027   4.054  70.886  1.00  0.00    -0.157 A  
HETATM   30  C   UNL     1      -7.074   7.348  71.978  1.00  0.00    -0.063 A  
ENDBRANCH  13  14
ENDBRANCH   7  13
TORSDOF 2
ENDMDL
MODEL      128
REMARK 921   NORMALIZED FREE ENERGY PREDICTED BY IDOCK:   -3.78 KCAL/MOL
REMARK 922        TOTAL FREE ENERGY PREDICTED BY IDOCK:   -4.76 KCAL/MOL
REMARK 923 INTER-LIGAND FREE ENERGY PREDICTED BY IDOCK:   -4.19 KCAL/MOL
REMARK 924 INTRA-LIGAND FREE ENERGY PREDICTED BY IDOCK:   -0.57 KCAL/MOL
REMARK 927      BINDING AFFINITY PREDICTED BY RF-SCORE:    0.00 PKD
ROOT
HETATM    1  C   UNL     1      -9.676  13.639  68.576  1.00  0.00    -0.184 C  
HETATM    2  C   UNL     1     -11.197  13.599  68.415  1.00  0.00    -0.306 C  
HETATM    3  C   UNL     1     -11.438  13.272  66.950  1.00  0.00    -0.376 C  
HETATM    4  C   UNL     1     -10.046  13.157  66.308  1.00  0.00    -0.285 C  
HETATM    5  N   UNL     1      -9.166  14.057  67.179  1.00  0.00    -0.225 N  
HETATM    6  C   UNL     1      -9.548  11.718  66.377  1.00  0.00    -0.234 C  
HETATM    7  C   UNL     1      -8.969  11.291  67.732  1.00  0.00    -0.141 C  
HETATM    8  C   UNL     1      -7.641  13.935  66.996  1.00  0.00     0.250 C  
HETATM    9  C   UNL     1      -7.125  15.247  67.533  1.00  0.00    -0.224 C  
HETATM   10  C   UNL     1      -8.026  16.220  66.820  1.00  0.00    -0.306 C  
HETATM   11  C   UNL     1      -9.165  12.237  68.928  1.00  0.00     0.248 C  
HETATM   12  C   UNL     1      -9.410  15.574  66.873  1.00  0.00    -0.233 C  
ENDROOT
BRANCH   7  13
HETATM   13  O   UNL     1      -9.447   9.983  68.069  1.00  0.00    -0.137 OA 
BRANCH  13  14
HETATM   14  C   UNL     1      -8.440   9.044  68.195  1.00  0.00    -0.129 C  
HETATM   15  C   UNL     1      -9.026   7.669  68.679  1.00  0.00    -0.133 C  
HETATM   16  O   UNL     1      -7.264   9.299  67.964  1.00  0.00    -0.077 OA 
HETATM   17  O   UNL     1     -10.445   7.800  68.899  1.00  0.00    -0.213 OA 
HETATM   18  C   UNL     1      -8.782   6.625  67.575  1.00  0.00    -0.118 A  
HETATM   19  C   UNL     1      -8.425   7.364  70.061  1.00  0.00    -0.138 A  
HETATM   20  C   UNL     1      -8.597   8.299  71.107  1.00  0.00    -0.168 A  
HETATM   21  C   UNL     1      -7.480   6.394  67.084  1.00  0.00    -0.084 A  
HETATM   22  H   UNL     1     -10.799   6.968  69.192  1.00  0.00     0.000 HD 
HETATM   23  C   UNL     1      -7.232   5.442  66.092  1.00  0.00    -0.077 A  
HETATM   24  C   UNL     1      -7.945   8.146  72.332  1.00  0.00    -0.185 A  
HETATM   25  C   UNL     1      -8.289   4.712  65.559  1.00  0.00    -0.118 A  
HETATM   26  C   UNL     1      -7.123   7.046  72.547  1.00  0.00    -0.069 A  
HETATM   27  C   UNL     1      -9.584   4.930  66.017  1.00  0.00    -0.185 A  
HETATM   28  C   UNL     1      -6.989   6.079  71.555  1.00  0.00    -0.076 A  
HETATM   29  C   UNL     1      -7.648   6.227  70.331  1.00  0.00    -0.096 A  
HETATM   30  C   UNL     1      -9.830   5.872  67.019  1.00  0.00    -0.173 A  
ENDBRANCH  13  14
ENDBRANCH   7  13
TORSDOF 2
ENDMDL
MODEL      129
REMARK 921   NORMALIZED FREE ENERGY PREDICTED BY IDOCK:   -3.71 KCAL/MOL
REMARK 922        TOTAL FREE ENERGY PREDICTED BY IDOCK:   -4.68 KCAL/MOL
REMARK 923 INTER-LIGAND FREE ENERGY PREDICTED BY IDOCK:   -4.48 KCAL/MOL
REMARK 924 INTRA-LIGAND FREE ENERGY PREDICTED BY IDOCK:   -0.20 KCAL/MOL
REMARK 927      BINDING AFFINITY PREDICTED BY RF-SCORE:    0.00 PKD
ROOT
HETATM    1  C   UNL     1      -6.620   4.822  65.531  1.00  0.00    -0.041 C  
HETATM    2  C   UNL     1      -5.312   5.113  64.791  1.00  0.00    -0.013 C  
HETATM    3  C   UNL     1      -5.724   5.475  63.374  1.00  0.00    -0.014 C  
HETATM    4  C   UNL     1      -7.257   5.360  63.336  1.00  0.00    -0.049 C  
HETATM    5  N   UNL     1      -7.572   4.326  64.421  1.00  0.00    -0.071 N  
HETATM    6  C   UNL     1      -7.897   6.696  63.689  1.00  0.00    -0.109 C  
HETATM    7  C   UNL     1      -7.949   7.022  65.187  1.00  0.00    -0.128 C  
HETATM    8  C   UNL     1      -9.044   4.196  64.857  1.00  0.00    -0.144 C  
HETATM    9  C   UNL     1      -9.100   2.817  65.466  1.00  0.00    -0.137 C  
HETATM   10  C   UNL     1      -8.420   2.006  64.395  1.00  0.00    -0.087 C  
HETATM   11  C   UNL     1      -7.154   6.121  66.146  1.00  0.00    -0.067 C  
HETATM   12  C   UNL     1      -7.244   2.871  63.945  1.00  0.00    -0.053 C  
ENDROOT
BRANCH   7  13
HETATM   13  O   UNL     1      -7.579   8.392  65.395  1.00  0.00    -0.086 OA 
BRANCH  13  14
HETATM   14  C   UNL     1      -7.892   8.861  66.657  1.00  0.00    -0.100 C  
HETATM   15  C   UNL     1      -9.448   8.964  66.838  1.00  0.00    -0.177 C  
HETATM   16  O   UNL     1      -7.036   9.156  67.484  1.00  0.00    -0.078 OA 
HETATM   17  O   UNL     1     -10.102   8.583  65.610  1.00  0.00    -0.308 OA 
HETATM   18  C   UNL     1      -9.870   7.993  67.955  1.00  0.00    -0.198 A  
HETATM   19  C   UNL     1      -9.799  10.446  67.044  1.00  0.00    -0.234 A  
HETATM   20  C   UNL     1      -9.415  11.387  66.062  1.00  0.00    -0.245 A  
HETATM   21  C   UNL     1      -9.279   8.073  69.234  1.00  0.00    -0.152 A  
HETATM   22  H   UNL     1     -11.044   8.645  65.720  1.00  0.00     0.000 HD 
HETATM   23  C   UNL     1      -9.655   7.212  70.266  1.00  0.00    -0.169 A  
HETATM   24  C   UNL     1      -9.571  12.759  66.269  1.00  0.00    -0.242 A  
HETATM   25  C   UNL     1     -10.622   6.240  70.035  1.00  0.00    -0.307 A  
HETATM   26  C   UNL     1     -10.131  13.221  67.454  1.00  0.00    -0.233 A  
HETATM   27  C   UNL     1     -11.212   6.132  68.780  1.00  0.00    -0.307 A  
HETATM   28  C   UNL     1     -10.577  12.312  68.409  1.00  0.00    -0.250 A  
HETATM   29  C   UNL     1     -10.429  10.938  68.199  1.00  0.00    -0.211 A  
HETATM   30  C   UNL     1     -10.846   7.002  67.750  1.00  0.00    -0.276 A  
ENDBRANCH  13  14
ENDBRANCH   7  13
TORSDOF 2
ENDMDL
MODEL      130
REMARK 921   NORMALIZED FREE ENERGY PREDICTED BY IDOCK:   -3.69 KCAL/MOL
REMARK 922        TOTAL FREE ENERGY PREDICTED BY IDOCK:   -4.66 KCAL/MOL
REMARK 923 INTER-LIGAND FREE ENERGY PREDICTED BY IDOCK:   -4.50 KCAL/MOL
REMARK 924 INTRA-LIGAND FREE ENERGY PREDICTED BY IDOCK:   -0.16 KCAL/MOL
REMARK 927      BINDING AFFINITY PREDICTED BY RF-SCORE:    0.00 PKD
ROOT
HETATM    1  C   UNL     1     -10.003  13.550  68.745  1.00  0.00    -0.070 C  
HETATM    2  C   UNL     1     -11.297  13.110  69.433  1.00  0.00    -0.276 C  
HETATM    3  C   UNL     1     -12.375  13.210  68.366  1.00  0.00     0.143 C  
HETATM    4  C   UNL     1     -11.670  13.727  67.101  1.00  0.00    -0.385 C  
HETATM    5  N   UNL     1     -10.480  14.523  67.645  1.00  0.00    -0.245 N  
HETATM    6  C   UNL     1     -11.174  12.560  66.257  1.00  0.00    -0.359 C  
HETATM    7  C   UNL     1      -9.865  11.917  66.735  1.00  0.00    -0.197 C  
HETATM    8  C   UNL     1      -9.388  14.927  66.636  1.00  0.00    -0.268 C  
HETATM    9  C   UNL     1      -8.708  16.091  67.315  1.00  0.00    -0.204 C  
HETATM   10  C   UNL     1      -9.899  16.923  67.710  1.00  0.00    -0.252 C  
HETATM   11  C   UNL     1      -9.323  12.328  68.113  1.00  0.00    -0.205 C  
HETATM   12  C   UNL     1     -10.927  15.912  68.215  1.00  0.00    -0.329 C  
ENDROOT
BRANCH   7  13
HETATM   13  O   UNL     1      -9.977  10.490  66.667  1.00  0.00    -0.195 OA 
BRANCH  13  14
HETATM   14  C   UNL     1      -9.810   9.866  67.889  1.00  0.00    -0.143 C  
HETATM   15  C   UNL     1      -8.588   8.881  67.843  1.00  0.00    -0.126 C  
HETATM   16  O   UNL     1     -10.549  10.074  68.845  1.00  0.00    -0.200 OA 
HETATM   17  O   UNL     1      -8.022   8.877  66.517  1.00  0.00    -0.101 OA 
HETATM   18  C   UNL     1      -7.528   9.379  68.842  1.00  0.00    -0.074 A  
HETATM   19  C   UNL     1      -9.125   7.457  68.062  1.00  0.00    -0.130 A  
HETATM   20  C   UNL     1     -10.117   6.955  67.189  1.00  0.00    -0.272 A  
HETATM   21  C   UNL     1      -7.864   9.591  70.196  1.00  0.00    -0.168 A  
HETATM   22  H   UNL     1      -7.282   8.281  66.489  1.00  0.00     0.000 HD 
HETATM   23  C   UNL     1      -6.917  10.030  71.122  1.00  0.00     0.446 A  
HETATM   24  C   UNL     1     -10.749   5.733  67.432  1.00  0.00    -0.332 A  
HETATM   25  C   UNL     1      -5.613  10.281  70.708  1.00  0.00    -0.084 A  
HETATM   26  C   UNL     1     -10.388   4.976  68.541  1.00  0.00    -0.094 A  
HETATM   27  C   UNL     1      -5.259  10.093  69.376  1.00  0.00    -0.038 A  
HETATM   28  C   UNL     1      -9.369   5.419  69.379  1.00  0.00    -0.164 A  
HETATM   29  C   UNL     1      -8.731   6.638  69.131  1.00  0.00    -0.130 A  
HETATM   30  C   UNL     1      -6.204   9.640  68.451  1.00  0.00    -0.047 A  
ENDBRANCH  13  14
ENDBRANCH   7  13
TORSDOF 2
ENDMDL
MODEL      131
REMARK 921   NORMALIZED FREE ENERGY PREDICTED BY IDOCK:   -3.67 KCAL/MOL
REMARK 922        TOTAL FREE ENERGY PREDICTED BY IDOCK:   -4.63 KCAL/MOL
REMARK 923 INTER-LIGAND FREE ENERGY PREDICTED BY IDOCK:   -4.08 KCAL/MOL
REMARK 924 INTRA-LIGAND FREE ENERGY PREDICTED BY IDOCK:   -0.55 KCAL/MOL
REMARK 927      BINDING AFFINITY PREDICTED BY RF-SCORE:    0.00 PKD
ROOT
HETATM    1  C   UNL     1     -10.373  10.694  67.610  1.00  0.00    -0.209 C  
HETATM    2  C   UNL     1     -11.045  10.236  66.314  1.00  0.00     0.283 C  
HETATM    3  C   UNL     1      -9.907   9.819  65.397  1.00  0.00    -0.365 C  
HETATM    4  C   UNL     1      -8.613  10.072  66.187  1.00  0.00    -0.133 C  
HETATM    5  N   UNL     1      -8.988  11.200  67.152  1.00  0.00    -0.143 N  
HETATM    6  C   UNL     1      -8.219   8.826  66.971  1.00  0.00    -0.103 C  
HETATM    7  C   UNL     1      -8.987   8.607  68.281  1.00  0.00    -0.142 C  
HETATM    8  C   UNL     1      -8.005  11.494  68.301  1.00  0.00    -0.142 C  
HETATM    9  C   UNL     1      -8.350  12.911  68.692  1.00  0.00     0.032 C  
HETATM   10  C   UNL     1      -8.360  13.582  67.344  1.00  0.00    -0.199 C  
HETATM   11  C   UNL     1     -10.214   9.494  68.552  1.00  0.00    -0.223 C  
HETATM   12  C   UNL     1      -9.059  12.584  66.422  1.00  0.00    -0.127 C  
ENDROOT
BRANCH   7  13
HETATM   13  O   UNL     1      -9.354   7.227  68.399  1.00  0.00    -0.143 OA 
BRANCH  13  14
HETATM   14  C   UNL     1      -8.717   6.575  69.438  1.00  0.00    -0.134 C  
HETATM   15  C   UNL     1      -9.209   5.086  69.539  1.00  0.00    -0.119 C  
HETATM   16  O   UNL     1      -7.899   7.128  70.164  1.00  0.00    -0.104 OA 
HETATM   17  O   UNL     1     -10.223   4.845  68.542  1.00  0.00    -0.128 OA 
HETATM   18  C   UNL     1      -8.008   4.162  69.269  1.00  0.00    -0.056 A  
HETATM   19  C   UNL     1      -9.918   4.918  70.892  1.00  0.00    -0.287 A  
HETATM   20  C   UNL     1     -11.012   5.755  71.204  1.00  0.00    -0.295 A  
HETATM   21  C   UNL     1      -6.827   4.282  70.031  1.00  0.00    -0.038 A  
HETATM   22  H   UNL     1     -10.520   3.945  68.603  1.00  0.00     0.000 HD 
HETATM   23  C   UNL     1      -5.730   3.446  69.814  1.00  0.00    -0.018 A  
HETATM   24  C   UNL     1     -11.593   5.750  72.475  1.00  0.00    -0.321 A  
HETATM   25  C   UNL     1      -5.787   2.480  68.814  1.00  0.00    -0.023 A  
HETATM   26  C   UNL     1     -11.106   4.893  73.455  1.00  0.00    -0.415 A  
HETATM   27  C   UNL     1      -6.935   2.351  68.039  1.00  0.00    -0.047 A  
HETATM   28  C   UNL     1     -10.072   4.012  73.152  1.00  0.00    -0.204 A  
HETATM   29  C   UNL     1      -9.495   4.011  71.878  1.00  0.00    -0.201 A  
HETATM   30  C   UNL     1      -8.038   3.178  68.266  1.00  0.00    -0.077 A  
ENDBRANCH  13  14
ENDBRANCH   7  13
TORSDOF 2
ENDMDL
MODEL      132
REMARK 921   NORMALIZED FREE ENERGY PREDICTED BY IDOCK:   -3.65 KCAL/MOL
REMARK 922        TOTAL FREE ENERGY PREDICTED BY IDOCK:   -4.60 KCAL/MOL
REMARK 923 INTER-LIGAND FREE ENERGY PREDICTED BY IDOCK:   -5.52 KCAL/MOL
REMARK 924 INTRA-LIGAND FREE ENERGY PREDICTED BY IDOCK:    0.92 KCAL/MOL
REMARK 927      BINDING AFFINITY PREDICTED BY RF-SCORE:    0.00 PKD
ROOT
HETATM    1  C   UNL     1      -8.927   9.059  66.468  1.00  0.00    -0.146 C  
HETATM    2  C   UNL     1      -9.745   7.776  66.634  1.00  0.00    -0.292 C  
HETATM    3  C   UNL     1      -9.686   7.452  68.118  1.00  0.00    -0.163 C  
HETATM    4  C   UNL     1      -8.817   8.548  68.757  1.00  0.00    -0.139 C  
HETATM    5  N   UNL     1      -7.897   8.995  67.617  1.00  0.00    -0.100 N  
HETATM    6  C   UNL     1      -9.685   9.713  69.213  1.00  0.00    -0.191 C  
HETATM    7  C   UNL     1     -10.112  10.685  68.105  1.00  0.00    -0.158 C  
HETATM    8  C   UNL     1      -7.100  10.296  67.830  1.00  0.00    -0.084 C  
HETATM    9  C   UNL     1      -5.958  10.162  66.852  1.00  0.00    -0.055 C  
HETATM   10  C   UNL     1      -5.479   8.770  67.165  1.00  0.00    -0.038 C  
HETATM   11  C   UNL     1      -9.846  10.274  66.647  1.00  0.00    -0.256 C  
HETATM   12  C   UNL     1      -6.757   7.954  67.353  1.00  0.00    -0.069 C  
ENDROOT
BRANCH   7  13
HETATM   13  O   UNL     1     -11.496  11.021  68.266  1.00  0.00    -0.278 OA 
BRANCH  13  14
HETATM   14  C   UNL     1     -11.755  12.371  68.117  1.00  0.00    -0.353 C  
HETATM   15  C   UNL     1     -10.837  13.217  69.070  1.00  0.00    -0.173 C  
HETATM   16  O   UNL     1     -12.605  12.800  67.345  1.00  0.00     0.028 OA 
HETATM   17  O   UNL     1     -10.020  12.333  69.863  1.00  0.00     0.780 OA 
HETATM   18  C   UNL     1      -9.926  14.103  68.201  1.00  0.00    -0.232 A  
HETATM   19  C   UNL     1     -11.748  13.943  70.074  1.00  0.00    -0.338 A  
HETATM   20  C   UNL     1     -12.623  13.183  70.882  1.00  0.00    -0.377 A  
HETATM   21  C   UNL     1     -10.480  14.976  67.242  1.00  0.00    -0.265 A  
HETATM   22  H   UNL     1      -9.465  12.846  70.439  1.00  0.00     0.000 HD 
HETATM   23  C   UNL     1      -9.674  15.798  66.452  1.00  0.00    -0.305 A  
HETATM   24  C   UNL     1     -13.577  13.796  71.697  1.00  0.00    -0.386 A  
HETATM   25  C   UNL     1      -8.291  15.750  66.595  1.00  0.00    -0.319 A  
HETATM   26  C   UNL     1     -13.663  15.183  71.739  1.00  0.00    -0.578 A  
HETATM   27  C   UNL     1      -7.719  14.887  67.524  1.00  0.00    -0.214 A  
HETATM   28  C   UNL     1     -12.769  15.954  71.002  1.00  0.00    -0.297 A  
HETATM   29  C   UNL     1     -11.808  15.341  70.192  1.00  0.00    -0.356 A  
HETATM   30  C   UNL     1      -8.526  14.075  68.325  1.00  0.00    -0.171 A  
ENDBRANCH  13  14
ENDBRANCH   7  13
TORSDOF 2
ENDMDL
MODEL      133
REMARK 921   NORMALIZED FREE ENERGY PREDICTED BY IDOCK:   -3.60 KCAL/MOL
REMARK 922        TOTAL FREE ENERGY PREDICTED BY IDOCK:   -4.56 KCAL/MOL
REMARK 923 INTER-LIGAND FREE ENERGY PREDICTED BY IDOCK:   -4.44 KCAL/MOL
REMARK 924 INTRA-LIGAND FREE ENERGY PREDICTED BY IDOCK:   -0.12 KCAL/MOL
REMARK 927      BINDING AFFINITY PREDICTED BY RF-SCORE:    0.00 PKD
ROOT
HETATM    1  C   UNL     1      -6.379   5.897  67.101  1.00  0.00    -0.038 C  
HETATM    2  C   UNL     1      -5.408   6.766  66.298  1.00  0.00    -0.018 C  
HETATM    3  C   UNL     1      -5.716   6.470  64.840  1.00  0.00    -0.030 C  
HETATM    4  C   UNL     1      -6.840   5.422  64.849  1.00  0.00    -0.049 C  
HETATM    5  N   UNL     1      -6.645   4.688  66.179  1.00  0.00    -0.044 N  
HETATM    6  C   UNL     1      -8.202   6.105  64.827  1.00  0.00    -0.112 C  
HETATM    7  C   UNL     1      -8.684   6.648  66.179  1.00  0.00    -0.148 C  
HETATM    8  C   UNL     1      -7.791   3.770  66.647  1.00  0.00    -0.088 C  
HETATM    9  C   UNL     1      -7.106   2.833  67.611  1.00  0.00    -0.049 C  
HETATM   10  C   UNL     1      -5.912   2.411  66.798  1.00  0.00    -0.023 C  
HETATM   11  C   UNL     1      -7.678   6.676  67.342  1.00  0.00    -0.109 C  
HETATM   12  C   UNL     1      -5.436   3.694  66.117  1.00  0.00    -0.017 C  
ENDROOT
BRANCH   7  13
HETATM   13  O   UNL     1      -9.250   7.952  66.000  1.00  0.00    -0.172 OA 
BRANCH  13  14
HETATM   14  C   UNL     1      -8.761   8.892  66.888  1.00  0.00    -0.119 C  
HETATM   15  C   UNL     1      -9.911   9.424  67.815  1.00  0.00    -0.184 C  
HETATM   16  O   UNL     1      -7.586   9.240  66.902  1.00  0.00    -0.090 OA 
HETATM   17  O   UNL     1     -11.160   8.811  67.437  1.00  0.00    -0.418 OA 
HETATM   18  C   UNL     1      -9.579   9.036  69.268  1.00  0.00    -0.162 A  
HETATM   19  C   UNL     1     -10.089  10.924  67.527  1.00  0.00    -0.214 A  
HETATM   20  C   UNL     1     -10.371  11.341  66.207  1.00  0.00    -0.294 A  
HETATM   21  C   UNL     1      -8.347   9.410  69.844  1.00  0.00    -0.174 A  
HETATM   22  H   UNL     1     -11.855   9.133  67.998  1.00  0.00     0.000 HD 
HETATM   23  C   UNL     1      -8.030   9.080  71.163  1.00  0.00    -0.169 A  
HETATM   24  C   UNL     1     -10.390  12.694  65.860  1.00  0.00    -0.295 A  
HETATM   25  C   UNL     1      -8.935   8.354  71.930  1.00  0.00    -0.280 A  
HETATM   26  C   UNL     1     -10.147  13.660  66.829  1.00  0.00    -0.269 A  
HETATM   27  C   UNL     1     -10.151   7.962  71.380  1.00  0.00    -0.212 A  
HETATM   28  C   UNL     1      -9.930  13.277  68.149  1.00  0.00    -0.234 A  
HETATM   29  C   UNL     1      -9.920  11.923  68.499  1.00  0.00    -0.196 A  
HETATM   30  C   UNL     1     -10.475   8.304  70.064  1.00  0.00    -0.231 A  
ENDBRANCH  13  14
ENDBRANCH   7  13
TORSDOF 2
ENDMDL
MODEL      134
REMARK 921   NORMALIZED FREE ENERGY PREDICTED BY IDOCK:   -3.60 KCAL/MOL
REMARK 922        TOTAL FREE ENERGY PREDICTED BY IDOCK:   -4.56 KCAL/MOL
REMARK 923 INTER-LIGAND FREE ENERGY PREDICTED BY IDOCK:   -4.35 KCAL/MOL
REMARK 924 INTRA-LIGAND FREE ENERGY PREDICTED BY IDOCK:   -0.21 KCAL/MOL
REMARK 927      BINDING AFFINITY PREDICTED BY RF-SCORE:    0.00 PKD
ROOT
HETATM    1  C   UNL     1     -11.345  14.243  71.436  1.00  0.00     0.678 C  
HETATM    2  C   UNL     1     -11.964  12.881  71.114  1.00  0.00     0.325 C  
HETATM    3  C   UNL     1     -13.434  13.160  70.847  1.00  0.00     0.367 C  
HETATM    4  C   UNL     1     -13.620  14.673  71.047  1.00  0.00    -0.276 C  
HETATM    5  N   UNL     1     -12.516  15.049  72.039  1.00  0.00    -0.320 N  
HETATM    6  C   UNL     1     -13.410  15.411  69.731  1.00  0.00     0.809 C  
HETATM    7  C   UNL     1     -11.946  15.634  69.332  1.00  0.00    -0.331 C  
HETATM    8  C   UNL     1     -12.225  16.551  72.227  1.00  0.00    -0.103 C  
HETATM    9  C   UNL     1     -11.547  16.602  73.574  1.00  0.00     0.281 C  
HETATM   10  C   UNL     1     -12.496  15.776  74.400  1.00  0.00    -0.790 C  
HETATM   11  C   UNL     1     -10.861  14.901  70.138  1.00  0.00    -0.163 C  
HETATM   12  C   UNL     1     -12.873  14.602  73.497  1.00  0.00    -0.297 C  
ENDROOT
BRANCH   7  13
HETATM   13  O   UNL     1     -11.779  15.356  67.936  1.00  0.00    -0.319 OA 
BRANCH  13  14
HETATM   14  C   UNL     1     -11.504  14.028  67.668  1.00  0.00    -0.334 C  
HETATM   15  C   UNL     1     -10.204  13.898  66.797  1.00  0.00    -0.268 C  
HETATM   16  O   UNL     1     -12.216  13.112  68.065  1.00  0.00    -0.260 OA 
HETATM   17  O   UNL     1      -9.698  15.212  66.488  1.00  0.00    -0.243 OA 
HETATM   18  C   UNL     1      -9.149  13.132  67.616  1.00  0.00    -0.201 A  
HETATM   19  C   UNL     1     -10.604  13.285  65.446  1.00  0.00    -0.304 A  
HETATM   20  C   UNL     1     -11.585  13.932  64.661  1.00  0.00    -0.398 A  
HETATM   21  C   UNL     1      -9.442  11.860  68.151  1.00  0.00    -0.195 A  
HETATM   22  H   UNL     1      -8.911  15.134  65.961  1.00  0.00     0.000 HD 
HETATM   23  C   UNL     1      -8.497  11.142  68.886  1.00  0.00    -0.095 A  
HETATM   24  C   UNL     1     -12.096  13.341  63.503  1.00  0.00    -0.550 A  
HETATM   25  C   UNL     1      -7.240  11.691  69.115  1.00  0.00    -0.064 A  
HETATM   26  C   UNL     1     -11.622  12.101  63.092  1.00  0.00    -0.275 A  
HETATM   27  C   UNL     1      -6.930  12.950  68.610  1.00  0.00    -0.101 A  
HETATM   28  C   UNL     1     -10.609  11.474  63.812  1.00  0.00    -0.465 A  
HETATM   29  C   UNL     1     -10.092  12.069  64.967  1.00  0.00    -0.293 A  
HETATM   30  C   UNL     1      -7.871  13.663  67.863  1.00  0.00    -0.159 A  
ENDBRANCH  13  14
ENDBRANCH   7  13
TORSDOF 2
ENDMDL
MODEL      135
REMARK 921   NORMALIZED FREE ENERGY PREDICTED BY IDOCK:   -3.59 KCAL/MOL
REMARK 922        TOTAL FREE ENERGY PREDICTED BY IDOCK:   -4.54 KCAL/MOL
REMARK 923 INTER-LIGAND FREE ENERGY PREDICTED BY IDOCK:   -3.97 KCAL/MOL
REMARK 924 INTRA-LIGAND FREE ENERGY PREDICTED BY IDOCK:   -0.57 KCAL/MOL
REMARK 927      BINDING AFFINITY PREDICTED BY RF-SCORE:    0.00 PKD
ROOT
HETATM    1  C   UNL     1     -11.614   6.706  71.018  1.00  0.00    -0.346 C  
HETATM    2  C   UNL     1     -12.721   7.573  71.622  1.00  0.00    -0.385 C  
HETATM    3  C   UNL     1     -12.101   8.218  72.851  1.00  0.00    -0.013 C  
HETATM    4  C   UNL     1     -10.661   7.684  72.928  1.00  0.00    -0.371 C  
HETATM    5  N   UNL     1     -10.739   6.323  72.231  1.00  0.00    -0.220 N  
HETATM    6  C   UNL     1      -9.714   8.604  72.169  1.00  0.00    -0.383 C  
HETATM    7  C   UNL     1      -9.709   8.425  70.645  1.00  0.00    -0.178 C  
HETATM    8  C   UNL     1      -9.403   5.647  71.864  1.00  0.00    -0.144 C  
HETATM    9  C   UNL     1      -9.781   4.193  71.727  1.00  0.00    -0.245 C  
HETATM   10  C   UNL     1     -10.559   3.982  72.999  1.00  0.00    -0.256 C  
HETATM   11  C   UNL     1     -10.802   7.542  70.021  1.00  0.00    -0.260 C  
HETATM   12  C   UNL     1     -11.409   5.243  73.146  1.00  0.00    -0.291 C  
ENDROOT
BRANCH   7  13
HETATM   13  O   UNL     1      -9.706   9.710  70.009  1.00  0.00    -0.213 OA 
BRANCH  13  14
HETATM   14  C   UNL     1      -8.711   9.854  69.061  1.00  0.00    -0.151 C  
HETATM   15  C   UNL     1      -8.870  11.216  68.296  1.00  0.00    -0.155 C  
HETATM   16  O   UNL     1      -7.851   9.001  68.870  1.00  0.00    -0.092 OA 
HETATM   17  O   UNL     1     -10.044  11.903  68.774  1.00  0.00    -0.316 OA 
HETATM   18  C   UNL     1      -7.629  12.079  68.583  1.00  0.00    -0.112 A  
HETATM   19  C   UNL     1      -9.158  10.894  66.821  1.00  0.00    -0.164 A  
HETATM   20  C   UNL     1     -10.272  10.085  66.499  1.00  0.00    -0.291 A  
HETATM   21  C   UNL     1      -6.335  11.583  68.321  1.00  0.00    -0.046 A  
HETATM   22  H   UNL     1     -10.140  12.727  68.311  1.00  0.00     0.000 HD 
HETATM   23  C   UNL     1      -5.195  12.353  68.562  1.00  0.00    -0.052 A  
HETATM   24  C   UNL     1     -10.491   9.636  65.194  1.00  0.00     0.861 A  
HETATM   25  C   UNL     1      -5.327  13.634  69.086  1.00  0.00    -0.073 A  
HETATM   26  C   UNL     1      -9.614  10.002  64.180  1.00  0.00    -0.274 A  
HETATM   27  C   UNL     1      -6.591  14.142  69.367  1.00  0.00    -0.121 A  
HETATM   28  C   UNL     1      -8.547  10.850  64.460  1.00  0.00     0.032 A  
HETATM   29  C   UNL     1      -8.332  11.307  65.764  1.00  0.00     0.023 A  
HETATM   30  C   UNL     1      -7.733  13.377  69.113  1.00  0.00     0.260 A  
ENDBRANCH  13  14
ENDBRANCH   7  13
TORSDOF 2
ENDMDL
MODEL      136
REMARK 921   NORMALIZED FREE ENERGY PREDICTED BY IDOCK:   -3.50 KCAL/MOL
REMARK 922        TOTAL FREE ENERGY PREDICTED BY IDOCK:   -4.45 KCAL/MOL
REMARK 923 INTER-LIGAND FREE ENERGY PREDICTED BY IDOCK:   -4.07 KCAL/MOL
REMARK 924 INTRA-LIGAND FREE ENERGY PREDICTED BY IDOCK:   -0.38 KCAL/MOL
REMARK 927      BINDING AFFINITY PREDICTED BY RF-SCORE:    0.00 PKD
ROOT
HETATM    1  C   UNL     1      -9.835   5.384  70.210  1.00  0.00    -0.206 C  
HETATM    2  C   UNL     1     -10.962   6.221  69.601  1.00  0.00    -0.440 C  
HETATM    3  C   UNL     1     -11.049   7.469  70.464  1.00  0.00    -0.275 C  
HETATM    4  C   UNL     1      -9.982   7.301  71.559  1.00  0.00    -0.182 C  
HETATM    5  N   UNL     1      -9.843   5.782  71.702  1.00  0.00    -0.165 N  
HETATM    6  C   UNL     1      -8.659   7.904  71.106  1.00  0.00    -0.136 C  
HETATM    7  C   UNL     1      -7.832   7.031  70.154  1.00  0.00    -0.109 C  
HETATM    8  C   UNL     1      -8.634   5.263  72.506  1.00  0.00    -0.121 C  
HETATM    9  C   UNL     1      -9.065   3.876  72.914  1.00  0.00    -0.122 C  
HETATM   10  C   UNL     1     -10.438   4.157  73.465  1.00  0.00    -0.257 C  
HETATM   11  C   UNL     1      -8.502   5.779  69.563  1.00  0.00    -0.112 C  
HETATM   12  C   UNL     1     -11.047   5.164  72.490  1.00  0.00    -0.194 C  
ENDROOT
BRANCH   7  13
HETATM   13  O   UNL     1      -7.304   7.840  69.095  1.00  0.00    -0.083 OA 
BRANCH  13  14
HETATM   14  C   UNL     1      -8.055   7.789  67.936  1.00  0.00    -0.126 C  
HETATM   15  C   UNL     1      -7.258   7.065  66.793  1.00  0.00    -0.076 C  
HETATM   16  O   UNL     1      -9.180   8.270  67.854  1.00  0.00    -0.132 OA 
HETATM   17  O   UNL     1      -5.947   6.703  67.274  1.00  0.00    -0.016 OA 
HETATM   18  C   UNL     1      -8.023   5.786  66.406  1.00  0.00    -0.102 A  
HETATM   19  C   UNL     1      -7.014   8.087  65.671  1.00  0.00    -0.063 A  
HETATM   20  C   UNL     1      -6.338   9.290  65.973  1.00  0.00    -0.068 A  
HETATM   21  C   UNL     1      -9.377   5.852  66.017  1.00  0.00    -0.117 A  
HETATM   22  H   UNL     1      -5.465   6.265  66.582  1.00  0.00     0.000 HD 
HETATM   23  C   UNL     1     -10.087   4.707  65.650  1.00  0.00    -0.238 A  
HETATM   24  C   UNL     1      -6.225  10.317  65.032  1.00  0.00    -0.125 A  
HETATM   25  C   UNL     1      -9.458   3.467  65.680  1.00  0.00    -0.119 A  
HETATM   26  C   UNL     1      -6.768  10.155  63.763  1.00  0.00    -0.113 A  
HETATM   27  C   UNL     1      -8.127   3.373  66.074  1.00  0.00    -0.093 A  
HETATM   28  C   UNL     1      -7.382   8.953  63.421  1.00  0.00    -0.098 A  
HETATM   29  C   UNL     1      -7.488   7.922  64.360  1.00  0.00    -0.098 A  
HETATM   30  C   UNL     1      -7.412   4.520  66.428  1.00  0.00    -0.082 A  
ENDBRANCH  13  14
ENDBRANCH   7  13
TORSDOF 2
ENDMDL
MODEL      137
REMARK 921   NORMALIZED FREE ENERGY PREDICTED BY IDOCK:   -3.50 KCAL/MOL
REMARK 922        TOTAL FREE ENERGY PREDICTED BY IDOCK:   -4.44 KCAL/MOL
REMARK 923 INTER-LIGAND FREE ENERGY PREDICTED BY IDOCK:   -3.72 KCAL/MOL
REMARK 924 INTRA-LIGAND FREE ENERGY PREDICTED BY IDOCK:   -0.72 KCAL/MOL
REMARK 927      BINDING AFFINITY PREDICTED BY RF-SCORE:    0.00 PKD
ROOT
HETATM    1  C   UNL     1     -11.597   9.581  69.111  1.00  0.00     0.379 C  
HETATM    2  C   UNL     1     -11.301   9.928  70.572  1.00  0.00    -0.399 C  
HETATM    3  C   UNL     1      -9.814  10.236  70.619  1.00  0.00     0.579 C  
HETATM    4  C   UNL     1      -9.294  10.034  69.186  1.00  0.00    -0.193 C  
HETATM    5  N   UNL     1     -10.262   9.009  68.588  1.00  0.00    -0.200 N  
HETATM    6  C   UNL     1      -9.373  11.340  68.406  1.00  0.00    -0.181 C  
HETATM    7  C   UNL     1     -10.762  11.695  67.862  1.00  0.00    -0.202 C  
HETATM    8  C   UNL     1     -10.210   8.805  67.062  1.00  0.00    -0.281 C  
HETATM    9  C   UNL     1     -10.823   7.439  66.878  1.00  0.00    -0.223 C  
HETATM   10  C   UNL     1     -10.057   6.644  67.901  1.00  0.00    -0.177 C  
HETATM   11  C   UNL     1     -11.959  10.862  68.348  1.00  0.00    -0.081 C  
HETATM   12  C   UNL     1      -9.972   7.564  69.119  1.00  0.00    -0.179 C  
ENDROOT
BRANCH   7  13
HETATM   13  O   UNL     1     -11.024  13.087  68.082  1.00  0.00    -0.227 OA 
BRANCH  13  14
HETATM   14  C   UNL     1     -10.062  13.920  67.541  1.00  0.00    -0.244 C  
HETATM   15  C   UNL     1      -9.381  14.779  68.665  1.00  0.00    -0.198 C  
HETATM   16  O   UNL     1      -9.819  13.958  66.340  1.00  0.00    -0.278 OA 
HETATM   17  O   UNL     1      -9.994  14.483  69.936  1.00  0.00    -0.387 OA 
HETATM   18  C   UNL     1      -7.890  14.402  68.725  1.00  0.00    -0.138 A  
HETATM   19  C   UNL     1      -9.707  16.256  68.389  1.00  0.00    -0.222 A  
HETATM   20  C   UNL     1     -11.060  16.656  68.299  1.00  0.00    -0.295 A  
HETATM   21  C   UNL     1      -7.085  14.482  67.570  1.00  0.00    -0.199 A  
HETATM   22  H   UNL     1      -9.582  15.003  70.616  1.00  0.00     0.000 HD 
HETATM   23  C   UNL     1      -5.727  14.157  67.604  1.00  0.00     0.012 A  
HETATM   24  C   UNL     1     -11.411  17.948  67.899  1.00  0.00     0.546 A  
HETATM   25  C   UNL     1      -5.150  13.730  68.794  1.00  0.00    -0.075 A  
HETATM   26  C   UNL     1     -10.418  18.873  67.600  1.00  0.00    -0.514 A  
HETATM   27  C   UNL     1      -5.926  13.629  69.945  1.00  0.00    -0.131 A  
HETATM   28  C   UNL     1      -9.079  18.522  67.743  1.00  0.00    -0.292 A  
HETATM   29  C   UNL     1      -8.727  17.232  68.152  1.00  0.00    -0.243 A  
HETATM   30  C   UNL     1      -7.281  13.968  69.915  1.00  0.00     0.327 A  
ENDBRANCH  13  14
ENDBRANCH   7  13
TORSDOF 2
ENDMDL
MODEL      138
REMARK 921   NORMALIZED FREE ENERGY PREDICTED BY IDOCK:   -3.40 KCAL/MOL
REMARK 922        TOTAL FREE ENERGY PREDICTED BY IDOCK:   -4.33 KCAL/MOL
REMARK 923 INTER-LIGAND FREE ENERGY PREDICTED BY IDOCK:   -5.16 KCAL/MOL
REMARK 924 INTRA-LIGAND FREE ENERGY PREDICTED BY IDOCK:    0.83 KCAL/MOL
REMARK 927      BINDING AFFINITY PREDICTED BY RF-SCORE:    0.00 PKD
ROOT
HETATM    1  C   UNL     1     -11.313   5.931  70.594  1.00  0.00    -0.136 C  
HETATM    2  C   UNL     1     -11.625   7.158  71.454  1.00  0.00    -0.316 C  
HETATM    3  C   UNL     1     -10.274   7.764  71.797  1.00  0.00    -0.235 C  
HETATM    4  C   UNL     1      -9.224   6.852  71.142  1.00  0.00    -0.154 C  
HETATM    5  N   UNL     1      -9.914   5.487  71.076  1.00  0.00    -0.185 N  
HETATM    6  C   UNL     1      -8.902   7.341  69.735  1.00  0.00    -0.142 C  
HETATM    7  C   UNL     1      -9.923   6.953  68.658  1.00  0.00    -0.149 C  
HETATM    8  C   UNL     1      -9.251   4.408  70.198  1.00  0.00    -0.132 C  
HETATM    9  C   UNL     1      -9.808   3.122  70.756  1.00  0.00    -0.037 C  
HETATM   10  C   UNL     1      -9.576   3.328  72.229  1.00  0.00    -0.202 C  
HETATM   11  C   UNL     1     -11.258   6.345  69.119  1.00  0.00    -0.421 C  
HETATM   12  C   UNL     1      -9.948   4.789  72.478  1.00  0.00    -0.166 C  
ENDROOT
BRANCH   7  13
HETATM   13  O   UNL     1     -10.175   8.078  67.806  1.00  0.00    -0.196 OA 
BRANCH  13  14
HETATM   14  C   UNL     1     -10.064   9.294  68.453  1.00  0.00    -0.191 C  
HETATM   15  C   UNL     1      -9.072  10.239  67.686  1.00  0.00    -0.137 C  
HETATM   16  O   UNL     1     -10.667   9.550  69.490  1.00  0.00    -0.218 OA 
HETATM   17  O   UNL     1      -8.524   9.542  66.549  1.00  0.00    -0.124 OA 
HETATM   18  C   UNL     1      -9.859  11.467  67.192  1.00  0.00    -0.210 A  
HETATM   19  C   UNL     1      -7.877  10.514  68.612  1.00  0.00    -0.116 A  
HETATM   20  C   UNL     1      -7.131   9.424  69.114  1.00  0.00    -0.062 A  
HETATM   21  C   UNL     1     -10.597  12.256  68.099  1.00  0.00    -0.232 A  
HETATM   22  H   UNL     1      -7.924  10.114  66.085  1.00  0.00     0.000 HD 
HETATM   23  C   UNL     1     -11.307  13.381  67.677  1.00  0.00    -0.321 A  
HETATM   24  C   UNL     1      -6.136   9.606  70.077  1.00  0.00    -0.049 A  
HETATM   25  C   UNL     1     -11.307  13.732  66.331  1.00  0.00    -0.327 A  
HETATM   26  C   UNL     1      -5.849  10.884  70.543  1.00  0.00    -0.130 A  
HETATM   27  C   UNL     1     -10.598  12.962  65.414  1.00  0.00    -0.308 A  
HETATM   28  C   UNL     1      -6.524  11.980  70.015  1.00  0.00     0.026 A  
HETATM   29  C   UNL     1      -7.515  11.800  69.046  1.00  0.00    -0.030 A  
HETATM   30  C   UNL     1      -9.875  11.844  65.838  1.00  0.00    -0.261 A  
ENDBRANCH  13  14
ENDBRANCH   7  13
TORSDOF 2
ENDMDL
MODEL      139
REMARK 921   NORMALIZED FREE ENERGY PREDICTED BY IDOCK:   -3.23 KCAL/MOL
REMARK 922        TOTAL FREE ENERGY PREDICTED BY IDOCK:   -4.14 KCAL/MOL
REMARK 923 INTER-LIGAND FREE ENERGY PREDICTED BY IDOCK:   -4.38 KCAL/MOL
REMARK 924 INTRA-LIGAND FREE ENERGY PREDICTED BY IDOCK:    0.24 KCAL/MOL
REMARK 927      BINDING AFFINITY PREDICTED BY RF-SCORE:    0.00 PKD
ROOT
HETATM    1  C   UNL     1     -10.232   8.671  71.431  1.00  0.00    -0.254 C  
HETATM    2  C   UNL     1      -8.879   8.786  72.139  1.00  0.00    -0.153 C  
HETATM    3  C   UNL     1      -8.132   7.510  71.788  1.00  0.00    -0.107 C  
HETATM    4  C   UNL     1      -9.087   6.689  70.906  1.00  0.00    -0.154 C  
HETATM    5  N   UNL     1     -10.479   7.149  71.349  1.00  0.00    -0.205 N  
HETATM    6  C   UNL     1      -8.872   7.025  69.436  1.00  0.00    -0.136 C  
HETATM    7  C   UNL     1      -9.532   8.325  68.958  1.00  0.00    -0.155 C  
HETATM    8  C   UNL     1     -11.668   6.745  70.455  1.00  0.00    -0.375 C  
HETATM    9  C   UNL     1     -12.849   6.847  71.389  1.00  0.00    -0.365 C  
HETATM   10  C   UNL     1     -12.337   6.080  72.579  1.00  0.00     0.030 C  
HETATM   11  C   UNL     1     -10.119   9.266  70.022  1.00  0.00    -0.240 C  
HETATM   12  C   UNL     1     -10.882   6.525  72.728  1.00  0.00    -0.249 C  
ENDROOT
BRANCH   7  13
HETATM   13  O   UNL     1      -8.619   9.050  68.124  1.00  0.00    -0.128 OA 
BRANCH  13  14
HETATM   14  C   UNL     1      -7.863   8.238  67.300  1.00  0.00    -0.105 C  
HETATM   15  C   UNL     1      -8.458   8.218  65.847  1.00  0.00    -0.140 C  
HETATM   16  O   UNL     1      -6.878   7.625  67.697  1.00  0.00    -0.065 OA 
HETATM   17  O   UNL     1      -9.656   9.020  65.806  1.00  0.00    -0.319 OA 
HETATM   18  C   UNL     1      -7.415   8.823  64.889  1.00  0.00    -0.095 A  
HETATM   19  C   UNL     1      -8.917   6.782  65.547  1.00  0.00     0.089 A  
HETATM   20  C   UNL     1      -9.856   6.167  66.406  1.00  0.00    -0.141 A  
HETATM   21  C   UNL     1      -6.108   8.296  64.830  1.00  0.00    -0.052 A  
HETATM   22  H   UNL     1     -10.016   9.008  64.927  1.00  0.00     0.000 HD 
HETATM   23  C   UNL     1      -5.150   8.819  63.960  1.00  0.00    -0.052 A  
HETATM   24  C   UNL     1     -10.190   4.818  66.272  1.00  0.00    -0.315 A  
HETATM   25  C   UNL     1      -5.476   9.894  63.141  1.00  0.00    -0.099 A  
HETATM   26  C   UNL     1      -9.609   4.058  65.263  1.00  0.00    -0.185 A  
HETATM   27  C   UNL     1      -6.754  10.441  63.190  1.00  0.00    -0.075 A  
HETATM   28  C   UNL     1      -8.731   4.658  64.364  1.00  0.00    -0.148 A  
HETATM   29  C   UNL     1      -8.403   6.010  64.494  1.00  0.00    -0.045 A  
HETATM   30  C   UNL     1      -7.718   9.909  64.050  1.00  0.00    -0.141 A  
ENDBRANCH  13  14
ENDBRANCH   7  13
TORSDOF 2
ENDMDL
MODEL      140
REMARK 921   NORMALIZED FREE ENERGY PREDICTED BY IDOCK:   -3.18 KCAL/MOL
REMARK 922        TOTAL FREE ENERGY PREDICTED BY IDOCK:   -4.08 KCAL/MOL
REMARK 923 INTER-LIGAND FREE ENERGY PREDICTED BY IDOCK:   -5.20 KCAL/MOL
REMARK 924 INTRA-LIGAND FREE ENERGY PREDICTED BY IDOCK:    1.11 KCAL/MOL
REMARK 927      BINDING AFFINITY PREDICTED BY RF-SCORE:    0.00 PKD
ROOT
HETATM    1  C   UNL     1      -8.926  16.963  66.159  1.00  0.00    -0.236 C  
HETATM    2  C   UNL     1      -7.735  16.366  66.911  1.00  0.00    -0.276 C  
HETATM    3  C   UNL     1      -8.142  16.365  68.375  1.00  0.00    -0.188 C  
HETATM    4  C   UNL     1      -9.549  16.983  68.423  1.00  0.00    -0.277 C  
HETATM    5  N   UNL     1      -9.588  17.898  67.195  1.00  0.00    -0.273 N  
HETATM    6  C   UNL     1     -10.610  15.897  68.296  1.00  0.00    -0.276 C  
HETATM    7  C   UNL     1     -10.868  15.397  66.869  1.00  0.00    -0.313 C  
HETATM    8  C   UNL     1     -10.965  18.444  66.772  1.00  0.00     0.095 C  
HETATM    9  C   UNL     1     -10.614  19.663  65.955  1.00  0.00    -0.566 C  
HETATM   10  C   UNL     1      -9.636  20.347  66.872  1.00  0.00    -0.546 C  
HETATM   11  C   UNL     1      -9.894  15.840  65.765  1.00  0.00    -0.383 C  
HETATM   12  C   UNL     1      -8.774  19.215  67.431  1.00  0.00    -0.290 C  
ENDROOT
BRANCH   7  13
HETATM   13  O   UNL     1     -10.977  13.968  66.872  1.00  0.00    -0.291 OA 
BRANCH  13  14
HETATM   14  C   UNL     1     -11.937  13.491  67.744  1.00  0.00    -0.334 C  
HETATM   15  C   UNL     1     -11.288  13.100  69.119  1.00  0.00    -0.281 C  
HETATM   16  O   UNL     1     -13.120  13.391  67.435  1.00  0.00     1.092 OA 
HETATM   17  O   UNL     1      -9.863  13.308  69.056  1.00  0.00    -0.418 OA 
HETATM   18  C   UNL     1     -11.883  14.009  70.209  1.00  0.00    -0.373 A  
HETATM   19  C   UNL     1     -11.472  11.586  69.310  1.00  0.00    -0.370 A  
HETATM   20  C   UNL     1     -10.967  10.703  68.328  1.00  0.00    -0.314 A  
HETATM   21  C   UNL     1     -13.279  14.086  70.394  1.00  0.00     0.145 A  
HETATM   22  H   UNL     1      -9.470  13.072  69.888  1.00  0.00     0.000 HD 
HETATM   23  C   UNL     1     -13.840  14.894  71.385  1.00  0.00    -0.537 A  
HETATM   24  C   UNL     1     -11.239   9.333  68.373  1.00  0.00     0.202 A  
HETATM   25  C   UNL     1     -13.013  15.656  72.203  1.00  0.00    -0.527 A  
HETATM   26  C   UNL     1     -12.003   8.813  69.411  1.00  0.00     1.316 A  
HETATM   27  C   UNL     1     -11.633  15.608  72.033  1.00  0.00    -0.540 A  
HETATM   28  C   UNL     1     -12.457   9.653  70.424  1.00  0.00     0.046 A  
HETATM   29  C   UNL     1     -12.178  11.022  70.384  1.00  0.00    -0.461 A  
HETATM   30  C   UNL     1     -11.071  14.789  71.050  1.00  0.00    -0.024 A  
ENDBRANCH  13  14
ENDBRANCH   7  13
TORSDOF 2
ENDMDL
MODEL      141
REMARK 921   NORMALIZED FREE ENERGY PREDICTED BY IDOCK:   -3.03 KCAL/MOL
REMARK 922        TOTAL FREE ENERGY PREDICTED BY IDOCK:   -3.92 KCAL/MOL
REMARK 923 INTER-LIGAND FREE ENERGY PREDICTED BY IDOCK:   -3.35 KCAL/MOL
REMARK 924 INTRA-LIGAND FREE ENERGY PREDICTED BY IDOCK:   -0.57 KCAL/MOL
REMARK 927      BINDING AFFINITY PREDICTED BY RF-SCORE:    0.00 PKD
ROOT
HETATM    1  C   UNL     1      -7.697  14.597  69.405  1.00  0.00    -0.051 C  
HETATM    2  C   UNL     1      -8.771  14.387  68.335  1.00  0.00    -0.180 C  
HETATM    3  C   UNL     1      -8.043  14.501  67.006  1.00  0.00    -0.125 C  
HETATM    4  C   UNL     1      -6.574  14.796  67.353  1.00  0.00     0.016 C  
HETATM    5  N   UNL     1      -6.653  15.499  68.711  1.00  0.00    -0.105 N  
HETATM    6  C   UNL     1      -5.790  13.497  67.484  1.00  0.00     0.002 C  
HETATM    7  C   UNL     1      -5.965  12.758  68.818  1.00  0.00    -0.071 C  
HETATM    8  C   UNL     1      -5.335  15.665  69.491  1.00  0.00    -0.105 C  
HETATM    9  C   UNL     1      -5.636  16.805  70.433  1.00  0.00    -0.166 C  
HETATM   10  C   UNL     1      -6.232  17.808  69.482  1.00  0.00    -0.238 C  
HETATM   11  C   UNL     1      -7.071  13.246  69.769  1.00  0.00     0.451 C  
HETATM   12  C   UNL     1      -7.134  16.983  68.565  1.00  0.00    -0.202 C  
ENDROOT
BRANCH   7  13
HETATM   13  O   UNL     1      -6.123  11.355  68.573  1.00  0.00    -0.046 OA 
BRANCH  13  14
HETATM   14  C   UNL     1      -7.123  11.064  67.664  1.00  0.00    -0.088 C  
HETATM   15  C   UNL     1      -8.201  10.123  68.312  1.00  0.00    -0.110 C  
HETATM   16  O   UNL     1      -7.119  11.493  66.516  1.00  0.00    -0.107 OA 
HETATM   17  O   UNL     1      -7.807   9.796  69.660  1.00  0.00    -0.108 OA 
HETATM   18  C   UNL     1      -9.542  10.878  68.348  1.00  0.00    -0.177 A  
HETATM   19  C   UNL     1      -8.182   8.791  67.546  1.00  0.00    -0.110 A  
HETATM   20  C   UNL     1      -6.972   8.065  67.459  1.00  0.00    -0.075 A  
HETATM   21  C   UNL     1     -10.091  11.419  67.167  1.00  0.00    -0.226 A  
HETATM   22  H   UNL     1      -8.460   9.227  70.052  1.00  0.00     0.000 HD 
HETATM   23  C   UNL     1     -11.312  12.096  67.174  1.00  0.00    -0.393 A  
HETATM   24  C   UNL     1      -6.861   6.932  66.650  1.00  0.00    -0.064 A  
HETATM   25  C   UNL     1     -12.002  12.261  68.369  1.00  0.00    -0.266 A  
HETATM   26  C   UNL     1      -7.960   6.488  65.925  1.00  0.00    -0.115 A  
HETATM   27  C   UNL     1     -11.476  11.749  69.551  1.00  0.00    -0.363 A  
HETATM   28  C   UNL     1      -9.180   7.148  66.045  1.00  0.00    -0.069 A  
HETATM   29  C   UNL     1      -9.295   8.277  66.861  1.00  0.00    -0.222 A  
HETATM   30  C   UNL     1     -10.261  11.059  69.543  1.00  0.00    -0.032 A  
ENDBRANCH  13  14
ENDBRANCH   7  13
TORSDOF 2
ENDMDL
MODEL      142
REMARK 921   NORMALIZED FREE ENERGY PREDICTED BY IDOCK:   -2.95 KCAL/MOL
REMARK 922        TOTAL FREE ENERGY PREDICTED BY IDOCK:   -3.83 KCAL/MOL
REMARK 923 INTER-LIGAND FREE ENERGY PREDICTED BY IDOCK:   -3.31 KCAL/MOL
REMARK 924 INTRA-LIGAND FREE ENERGY PREDICTED BY IDOCK:   -0.52 KCAL/MOL
REMARK 927      BINDING AFFINITY PREDICTED BY RF-SCORE:    0.00 PKD
ROOT
HETATM    1  C   UNL     1      -8.107   3.572  71.638  1.00  0.00    -0.065 C  
HETATM    2  C   UNL     1      -9.376   3.242  70.849  1.00  0.00    -0.220 C  
HETATM    3  C   UNL     1      -9.868   4.571  70.302  1.00  0.00    -0.299 C  
HETATM    4  C   UNL     1      -8.877   5.631  70.812  1.00  0.00    -0.139 C  
HETATM    5  N   UNL     1      -8.331   5.026  72.108  1.00  0.00    -0.122 N  
HETATM    6  C   UNL     1      -7.746   5.824  69.811  1.00  0.00    -0.084 C  
HETATM    7  C   UNL     1      -6.643   4.758  69.855  1.00  0.00    -0.036 C  
HETATM    8  C   UNL     1      -7.086   5.694  72.723  1.00  0.00    -0.089 C  
HETATM    9  C   UNL     1      -7.142   5.260  74.167  1.00  0.00    -0.082 C  
HETATM   10  C   UNL     1      -8.574   5.579  74.504  1.00  0.00    -0.110 C  
HETATM   11  C   UNL     1      -6.894   3.499  70.702  1.00  0.00    -0.033 C  
HETATM   12  C   UNL     1      -9.368   5.132  73.277  1.00  0.00    -0.134 C  
ENDROOT
BRANCH   7  13
HETATM   13  O   UNL     1      -6.287   4.377  68.520  1.00  0.00    -0.034 OA 
BRANCH  13  14
HETATM   14  C   UNL     1      -6.451   5.392  67.596  1.00  0.00    -0.048 C  
HETATM   15  C   UNL     1      -7.585   5.027  66.572  1.00  0.00    -0.088 C  
HETATM   16  O   UNL     1      -5.772   6.413  67.606  1.00  0.00    -0.011 OA 
HETATM   17  O   UNL     1      -8.094   3.711  66.866  1.00  0.00    -0.093 OA 
HETATM   18  C   UNL     1      -8.722   6.053  66.725  1.00  0.00    -0.119 A  
HETATM   19  C   UNL     1      -6.940   4.915  65.181  1.00  0.00    -0.062 A  
HETATM   20  C   UNL     1      -5.875   4.006  64.988  1.00  0.00    -0.022 A  
HETATM   21  C   UNL     1      -8.461   7.434  66.609  1.00  0.00    -0.124 A  
HETATM   22  H   UNL     1      -8.780   3.490  66.246  1.00  0.00     0.000 HD 
HETATM   23  C   UNL     1      -9.478   8.382  66.730  1.00  0.00    -0.255 A  
HETATM   24  C   UNL     1      -5.155   3.974  63.791  1.00  0.00    -0.005 A  
HETATM   25  C   UNL     1     -10.781   7.966  66.987  1.00  0.00    -0.289 A  
HETATM   26  C   UNL     1      -5.497   4.834  62.754  1.00  0.00    -0.013 A  
HETATM   27  C   UNL     1     -11.063   6.610  67.119  1.00  0.00    -0.427 A  
HETATM   28  C   UNL     1      -6.583   5.693  62.897  1.00  0.00    -0.025 A  
HETATM   29  C   UNL     1      -7.309   5.720  64.092  1.00  0.00    -0.063 A  
HETATM   30  C   UNL     1     -10.047   5.660  66.984  1.00  0.00    -0.223 A  
ENDBRANCH  13  14
ENDBRANCH   7  13
TORSDOF 2
ENDMDL
MODEL      143
REMARK 921   NORMALIZED FREE ENERGY PREDICTED BY IDOCK:   -2.95 KCAL/MOL
REMARK 922        TOTAL FREE ENERGY PREDICTED BY IDOCK:   -3.83 KCAL/MOL
REMARK 923 INTER-LIGAND FREE ENERGY PREDICTED BY IDOCK:   -3.48 KCAL/MOL
REMARK 924 INTRA-LIGAND FREE ENERGY PREDICTED BY IDOCK:   -0.35 KCAL/MOL
REMARK 927      BINDING AFFINITY PREDICTED BY RF-SCORE:    0.00 PKD
ROOT
HETATM    1  C   UNL     1      -9.565   7.613  71.811  1.00  0.00    -0.149 C  
HETATM    2  C   UNL     1      -8.456   8.417  72.492  1.00  0.00    -0.229 C  
HETATM    3  C   UNL     1      -7.263   7.478  72.563  1.00  0.00    -0.078 C  
HETATM    4  C   UNL     1      -7.731   6.153  71.941  1.00  0.00    -0.097 C  
HETATM    5  N   UNL     1      -9.243   6.149  72.183  1.00  0.00    -0.142 N  
HETATM    6  C   UNL     1      -7.444   6.140  70.445  1.00  0.00    -0.090 C  
HETATM    7  C   UNL     1      -8.448   6.911  69.579  1.00  0.00    -0.133 C  
HETATM    8  C   UNL     1     -10.072   5.100  71.417  1.00  0.00    -0.200 C  
HETATM    9  C   UNL     1     -11.332   4.991  72.241  1.00  0.00     0.019 C  
HETATM   10  C   UNL     1     -10.754   4.824  73.621  1.00  0.00    -0.350 C  
HETATM   11  C   UNL     1      -9.475   7.806  70.293  1.00  0.00    -0.160 C  
HETATM   12  C   UNL     1      -9.588   5.811  73.673  1.00  0.00    -0.142 C  
ENDROOT
BRANCH   7  13
HETATM   13  O   UNL     1      -7.744   7.678  68.593  1.00  0.00    -0.113 OA 
BRANCH  13  14
HETATM   14  C   UNL     1      -8.524   8.025  67.505  1.00  0.00    -0.127 C  
HETATM   15  C   UNL     1      -7.798   9.108  66.630  1.00  0.00    -0.100 C  
HETATM   16  O   UNL     1      -9.631   7.538  67.302  1.00  0.00    -0.142 OA 
HETATM   17  O   UNL     1      -6.543   9.463  67.244  1.00  0.00    -0.069 OA 
HETATM   18  C   UNL     1      -7.526   8.503  65.241  1.00  0.00    -0.086 A  
HETATM   19  C   UNL     1      -8.648  10.388  66.668  1.00  0.00    -0.128 A  
HETATM   20  C   UNL     1      -8.950  10.975  67.918  1.00  0.00    -0.144 A  
HETATM   21  C   UNL     1      -8.581   7.962  64.477  1.00  0.00     0.165 A  
HETATM   22  H   UNL     1      -6.104  10.118  66.714  1.00  0.00     0.000 HD 
HETATM   23  C   UNL     1      -8.360   7.419  63.209  1.00  0.00     0.167 A  
HETATM   24  C   UNL     1      -9.842  12.046  68.022  1.00  0.00    -0.199 A  
HETATM   25  C   UNL     1      -7.072   7.393  62.686  1.00  0.00    -0.077 A  
HETATM   26  C   UNL     1     -10.435  12.566  66.877  1.00  0.00    -0.244 A  
HETATM   27  C   UNL     1      -6.012   7.908  63.425  1.00  0.00    -0.063 A  
HETATM   28  C   UNL     1     -10.104  12.047  65.629  1.00  0.00    -0.272 A  
HETATM   29  C   UNL     1      -9.205  10.981  65.524  1.00  0.00    -0.235 A  
HETATM   30  C   UNL     1      -6.235   8.463  64.688  1.00  0.00    -0.065 A  
ENDBRANCH  13  14
ENDBRANCH   7  13
TORSDOF 2
ENDMDL
MODEL      144
REMARK 921   NORMALIZED FREE ENERGY PREDICTED BY IDOCK:   -2.69 KCAL/MOL
REMARK 922        TOTAL FREE ENERGY PREDICTED BY IDOCK:   -3.54 KCAL/MOL
REMARK 923 INTER-LIGAND FREE ENERGY PREDICTED BY IDOCK:   -4.47 KCAL/MOL
REMARK 924 INTRA-LIGAND FREE ENERGY PREDICTED BY IDOCK:    0.93 KCAL/MOL
REMARK 927      BINDING AFFINITY PREDICTED BY RF-SCORE:    0.00 PKD
ROOT
HETATM    1  C   UNL     1      -8.672   5.224  73.168  1.00  0.00    -0.120 C  
HETATM    2  C   UNL     1      -7.411   5.390  72.317  1.00  0.00    -0.096 C  
HETATM    3  C   UNL     1      -7.704   4.661  71.017  1.00  0.00    -0.080 C  
HETATM    4  C   UNL     1      -9.119   4.077  71.169  1.00  0.00    -0.118 C  
HETATM    5  N   UNL     1      -9.276   3.889  72.680  1.00  0.00    -0.107 N  
HETATM    6  C   UNL     1     -10.158   5.067  70.657  1.00  0.00    -0.313 C  
HETATM    7  C   UNL     1     -10.512   6.203  71.625  1.00  0.00    -0.222 C  
HETATM    8  C   UNL     1     -10.696   3.603  73.206  1.00  0.00    -0.198 C  
HETATM    9  C   UNL     1     -10.440   2.953  74.544  1.00  0.00    -0.198 C  
HETATM   10  C   UNL     1      -9.413   1.920  74.166  1.00  0.00    -0.090 C  
HETATM   11  C   UNL     1      -9.637   6.380  72.877  1.00  0.00    -0.158 C  
HETATM   12  C   UNL     1      -8.481   2.641  73.192  1.00  0.00    -0.071 C  
ENDROOT
BRANCH   7  13
HETATM   13  O   UNL     1     -10.583   7.442  70.907  1.00  0.00    -0.220 OA 
BRANCH  13  14
HETATM   14  C   UNL     1      -9.539   7.625  70.020  1.00  0.00    -0.164 C  
HETATM   15  C   UNL     1     -10.086   7.929  68.580  1.00  0.00    -0.197 C  
HETATM   16  O   UNL     1      -8.363   7.539  70.355  1.00  0.00    -0.125 OA 
HETATM   17  O   UNL     1     -11.527   7.880  68.591  1.00  0.00     0.001 OA 
HETATM   18  C   UNL     1      -9.633   9.345  68.180  1.00  0.00    -0.158 A  
HETATM   19  C   UNL     1      -9.645   6.779  67.660  1.00  0.00    -0.139 A  
HETATM   20  C   UNL     1     -10.012   5.455  67.990  1.00  0.00    -0.199 A  
HETATM   21  C   UNL     1      -8.266   9.694  68.208  1.00  0.00    -0.106 A  
HETATM   22  H   UNL     1     -11.857   8.064  67.720  1.00  0.00     0.000 HD 
HETATM   23  C   UNL     1      -7.831  10.967  67.837  1.00  0.00    -0.110 A  
HETATM   24  C   UNL     1      -9.512   4.363  67.277  1.00  0.00    -0.197 A  
HETATM   25  C   UNL     1      -8.759  11.926  67.444  1.00  0.00    -0.166 A  
HETATM   26  C   UNL     1      -8.651   4.571  66.206  1.00  0.00    -0.113 A  
HETATM   27  C   UNL     1     -10.113  11.611  67.421  1.00  0.00    -0.218 A  
HETATM   28  C   UNL     1      -8.327   5.868  65.821  1.00  0.00    -0.140 A  
HETATM   29  C   UNL     1      -8.833   6.962  66.529  1.00  0.00    -0.148 A  
HETATM   30  C   UNL     1     -10.549  10.332  67.778  1.00  0.00    -0.296 A  
ENDBRANCH  13  14
ENDBRANCH   7  13
TORSDOF 2
ENDMDL
MODEL      145
REMARK 921   NORMALIZED FREE ENERGY PREDICTED BY IDOCK:   -2.34 KCAL/MOL
REMARK 922        TOTAL FREE ENERGY PREDICTED BY IDOCK:   -3.15 KCAL/MOL
REMARK 923 INTER-LIGAND FREE ENERGY PREDICTED BY IDOCK:   -3.91 KCAL/MOL
REMARK 924 INTRA-LIGAND FREE ENERGY PREDICTED BY IDOCK:    0.77 KCAL/MOL
REMARK 927      BINDING AFFINITY PREDICTED BY RF-SCORE:    0.00 PKD
ROOT
HETATM    1  C   UNL     1      -9.533   4.772  70.485  1.00  0.00    -0.172 C  
HETATM    2  C   UNL     1     -10.565   5.582  69.698  1.00  0.00    -0.375 C  
HETATM    3  C   UNL     1     -10.362   7.024  70.132  1.00  0.00    -0.213 C  
HETATM    4  C   UNL     1      -9.232   6.996  71.175  1.00  0.00    -0.157 C  
HETATM    5  N   UNL     1      -9.327   5.591  71.778  1.00  0.00    -0.142 N  
HETATM    6  C   UNL     1      -7.881   7.181  70.497  1.00  0.00    -0.100 C  
HETATM    7  C   UNL     1      -7.306   5.926  69.828  1.00  0.00    -0.075 C  
HETATM    8  C   UNL     1      -8.144   5.121  72.647  1.00  0.00    -0.109 C  
HETATM    9  C   UNL     1      -8.751   4.024  73.487  1.00  0.00    -0.091 C  
HETATM   10  C   UNL     1      -9.998   4.705  73.984  1.00  0.00    -0.199 C  
HETATM   11  C   UNL     1      -8.225   4.702  69.687  1.00  0.00    -0.072 C  
HETATM   12  C   UNL     1     -10.530   5.470  72.773  1.00  0.00    -0.212 C  
ENDROOT
BRANCH   7  13
HETATM   13  O   UNL     1      -6.762   6.270  68.547  1.00  0.00    -0.059 OA 
BRANCH  13  14
HETATM   14  C   UNL     1      -7.724   6.447  67.570  1.00  0.00    -0.101 C  
HETATM   15  C   UNL     1      -7.396   7.709  66.695  1.00  0.00    -0.088 C  
HETATM   16  O   UNL     1      -8.691   5.703  67.450  1.00  0.00    -0.110 OA 
HETATM   17  O   UNL     1      -6.206   8.348  67.198  1.00  0.00    -0.053 OA 
HETATM   18  C   UNL     1      -7.144   7.243  65.250  1.00  0.00    -0.060 A  
HETATM   19  C   UNL     1      -8.527   8.729  66.902  1.00  0.00    -0.112 A  
HETATM   20  C   UNL     1      -8.818   9.176  68.211  1.00  0.00    -0.129 A  
HETATM   21  C   UNL     1      -8.113   6.479  64.565  1.00  0.00    -0.079 A  
HETATM   22  H   UNL     1      -6.007   9.112  66.669  1.00  0.00     0.000 HD 
HETATM   23  C   UNL     1      -7.912   6.056  63.250  1.00  0.00    -0.109 A  
HETATM   24  C   UNL     1      -9.930   9.981  68.473  1.00  0.00    -0.177 A  
HETATM   25  C   UNL     1      -6.727   6.376  62.596  1.00  0.00    -0.038 A  
HETATM   26  C   UNL     1     -10.761  10.374  67.431  1.00  0.00    -0.338 A  
HETATM   27  C   UNL     1      -5.750   7.116  63.254  1.00  0.00    -0.040 A  
HETATM   28  C   UNL     1     -10.458  10.001  66.125  1.00  0.00    -0.156 A  
HETATM   29  C   UNL     1      -9.341   9.202  65.861  1.00  0.00    -0.306 A  
HETATM   30  C   UNL     1      -5.956   7.552  64.565  1.00  0.00    -0.038 A  
ENDBRANCH  13  14
ENDBRANCH   7  13
TORSDOF 2
ENDMDL
MODEL      146
REMARK 921   NORMALIZED FREE ENERGY PREDICTED BY IDOCK:   -2.25 KCAL/MOL
REMARK 922        TOTAL FREE ENERGY PREDICTED BY IDOCK:   -3.05 KCAL/MOL
REMARK 923 INTER-LIGAND FREE ENERGY PREDICTED BY IDOCK:   -3.34 KCAL/MOL
REMARK 924 INTRA-LIGAND FREE ENERGY PREDICTED BY IDOCK:    0.29 KCAL/MOL
REMARK 927      BINDING AFFINITY PREDICTED BY RF-SCORE:    0.00 PKD
ROOT
HETATM    1  C   UNL     1     -12.126  13.972  71.902  1.00  0.00     0.121 C  
HETATM    2  C   UNL     1     -13.336  13.053  71.720  1.00  0.00    -0.468 C  
HETATM    3  C   UNL     1     -14.374  13.893  70.994  1.00  0.00     0.769 C  
HETATM    4  C   UNL     1     -13.736  15.278  70.799  1.00  0.00    -0.189 C  
HETATM    5  N   UNL     1     -12.740  15.388  71.958  1.00  0.00    -0.346 N  
HETATM    6  C   UNL     1     -12.995  15.338  69.469  1.00  0.00     0.427 C  
HETATM    7  C   UNL     1     -11.606  14.688  69.464  1.00  0.00    -0.310 C  
HETATM    8  C   UNL     1     -11.710  16.532  71.890  1.00  0.00    -0.206 C  
HETATM    9  C   UNL     1     -11.290  16.700  73.329  1.00  0.00     0.972 C  
HETATM   10  C   UNL     1     -12.631  16.757  74.011  1.00  0.00    -0.115 C  
HETATM   11  C   UNL     1     -11.203  13.843  70.684  1.00  0.00     0.457 C  
HETATM   12  C   UNL     1     -13.464  15.682  73.315  1.00  0.00    -0.450 C  
ENDROOT
BRANCH   7  13
HETATM   13  O   UNL     1     -11.441  13.916  68.267  1.00  0.00    -0.274 OA 
BRANCH  13  14
HETATM   14  C   UNL     1     -10.471  12.936  68.373  1.00  0.00    -0.251 C  
HETATM   15  C   UNL     1     -10.971  11.594  67.730  1.00  0.00    -0.233 C  
HETATM   16  O   UNL     1      -9.390  13.132  68.916  1.00  0.00     0.064 OA 
HETATM   17  O   UNL     1     -12.322  11.760  67.256  1.00  0.00    -0.211 OA 
HETATM   18  C   UNL     1     -10.056  11.260  66.537  1.00  0.00    -0.256 A  
HETATM   19  C   UNL     1     -11.057  10.542  68.847  1.00  0.00    -0.312 A  
HETATM   20  C   UNL     1     -11.863  10.804  69.978  1.00  0.00    -0.424 A  
HETATM   21  C   UNL     1      -8.660  11.165  66.711  1.00  0.00    -0.157 A  
HETATM   22  H   UNL     1     -12.625  10.948  66.866  1.00  0.00     0.000 HD 
HETATM   23  C   UNL     1      -7.812  10.851  65.647  1.00  0.00    -0.011 A  
HETATM   24  C   UNL     1     -11.856   9.956  71.088  1.00  0.00    -0.472 A  
HETATM   25  C   UNL     1      -8.345  10.640  64.380  1.00  0.00    -0.032 A  
HETATM   26  C   UNL     1     -11.060   8.817  71.084  1.00  0.00    -0.340 A  
HETATM   27  C   UNL     1      -9.718  10.742  64.179  1.00  0.00    -0.364 A  
HETATM   28  C   UNL     1     -10.308   8.503  69.956  1.00  0.00    -0.213 A  
HETATM   29  C   UNL     1     -10.320   9.347  68.842  1.00  0.00    -0.230 A  
HETATM   30  C   UNL     1     -10.568  11.042  65.247  1.00  0.00    -0.283 A  
ENDBRANCH  13  14
ENDBRANCH   7  13
TORSDOF 2
ENDMDL
MODEL      147
REMARK 921   NORMALIZED FREE ENERGY PREDICTED BY IDOCK:   -2.25 KCAL/MOL
REMARK 922        TOTAL FREE ENERGY PREDICTED BY IDOCK:   -3.04 KCAL/MOL
REMARK 923 INTER-LIGAND FREE ENERGY PREDICTED BY IDOCK:   -2.72 KCAL/MOL
REMARK 924 INTRA-LIGAND FREE ENERGY PREDICTED BY IDOCK:   -0.32 KCAL/MOL
REMARK 927      BINDING AFFINITY PREDICTED BY RF-SCORE:    0.00 PKD
ROOT
HETATM    1  C   UNL     1      -7.444  12.092  69.140  1.00  0.00     0.121 C  
HETATM    2  C   UNL     1      -6.600  12.524  70.341  1.00  0.00     0.694 C  
HETATM    3  C   UNL     1      -5.233  12.865  69.771  1.00  0.00    -0.082 C  
HETATM    4  C   UNL     1      -5.326  12.597  68.260  1.00  0.00    -0.065 C  
HETATM    5  N   UNL     1      -6.410  11.521  68.146  1.00  0.00    -0.045 N  
HETATM    6  C   UNL     1      -5.766  13.857  67.525  1.00  0.00     0.106 C  
HETATM    7  C   UNL     1      -7.270  14.153  67.575  1.00  0.00    -0.169 C  
HETATM    8  C   UNL     1      -6.969  11.237  66.739  1.00  0.00    -0.141 C  
HETATM    9  C   UNL     1      -7.547   9.849  66.874  1.00  0.00    -0.095 C  
HETATM   10  C   UNL     1      -6.402   9.128  67.532  1.00  0.00    -0.063 C  
HETATM   11  C   UNL     1      -8.135  13.322  68.537  1.00  0.00    -0.094 C  
HETATM   12  C   UNL     1      -5.872  10.113  68.573  1.00  0.00    -0.041 C  
ENDROOT
BRANCH   7  13
HETATM   13  O   UNL     1      -7.478  15.549  67.825  1.00  0.00    -0.127 OA 
BRANCH  13  14
HETATM   14  C   UNL     1      -8.810  15.918  67.817  1.00  0.00    -0.175 C  
HETATM   15  C   UNL     1      -9.291  16.215  66.351  1.00  0.00    -0.298 C  
HETATM   16  O   UNL     1      -9.480  16.001  68.840  1.00  0.00    -0.210 OA 
HETATM   17  O   UNL     1      -8.184  16.064  65.440  1.00  0.00     0.683 OA 
HETATM   18  C   UNL     1     -10.387  15.197  65.987  1.00  0.00    -0.326 A  
HETATM   19  C   UNL     1      -9.680  17.701  66.279  1.00  0.00    -0.275 A  
HETATM   20  C   UNL     1      -8.722  18.680  66.625  1.00  0.00    -0.307 A  
HETATM   21  C   UNL     1     -11.531  15.055  66.800  1.00  0.00    -0.252 A  
HETATM   22  H   UNL     1      -8.476  16.244  64.554  1.00  0.00     0.000 HD 
HETATM   23  C   UNL     1     -12.544  14.148  66.482  1.00  0.00    -0.164 A  
HETATM   24  C   UNL     1      -9.065  20.030  66.724  1.00  0.00    -0.467 A  
HETATM   25  C   UNL     1     -12.424  13.350  65.349  1.00  0.00    -0.543 A  
HETATM   26  C   UNL     1     -10.368  20.434  66.460  1.00  0.00    -0.281 A  
HETATM   27  C   UNL     1     -11.299  13.461  64.538  1.00  0.00    -0.391 A  
HETATM   28  C   UNL     1     -11.314  19.497  66.054  1.00  0.00     0.473 A  
HETATM   29  C   UNL     1     -10.969  18.147  65.946  1.00  0.00     0.229 A  
HETATM   30  C   UNL     1     -10.292  14.379  64.848  1.00  0.00    -0.419 A  
ENDBRANCH  13  14
ENDBRANCH   7  13
TORSDOF 2
ENDMDL
MODEL      148
REMARK 921   NORMALIZED FREE ENERGY PREDICTED BY IDOCK:   -2.24 KCAL/MOL
REMARK 922        TOTAL FREE ENERGY PREDICTED BY IDOCK:   -3.03 KCAL/MOL
REMARK 923 INTER-LIGAND FREE ENERGY PREDICTED BY IDOCK:   -3.17 KCAL/MOL
REMARK 924 INTRA-LIGAND FREE ENERGY PREDICTED BY IDOCK:    0.14 KCAL/MOL
REMARK 927      BINDING AFFINITY PREDICTED BY RF-SCORE:    0.00 PKD
ROOT
HETATM    1  C   UNL     1     -11.958  14.000  71.897  1.00  0.00     0.311 C  
HETATM    2  C   UNL     1     -12.958  12.852  72.059  1.00  0.00    -0.385 C  
HETATM    3  C   UNL     1     -14.326  13.476  71.838  1.00  0.00    -0.026 C  
HETATM    4  C   UNL     1     -14.073  14.969  71.577  1.00  0.00    -0.521 C  
HETATM    5  N   UNL     1     -12.761  15.252  72.314  1.00  0.00    -0.326 N  
HETATM    6  C   UNL     1     -13.896  15.224  70.085  1.00  0.00     0.968 C  
HETATM    7  C   UNL     1     -12.511  14.882  69.522  1.00  0.00    -0.088 C  
HETATM    8  C   UNL     1     -12.059  16.589  72.008  1.00  0.00    -0.111 C  
HETATM    9  C   UNL     1     -11.179  16.799  73.216  1.00  0.00     1.523 C  
HETATM   10  C   UNL     1     -12.162  16.551  74.329  1.00  0.00    -0.462 C  
HETATM   11  C   UNL     1     -11.540  14.105  70.426  1.00  0.00    -0.236 C  
HETATM   12  C   UNL     1     -12.978  15.346  73.863  1.00  0.00    -0.287 C  
ENDROOT
BRANCH   7  13
HETATM   13  O   UNL     1     -12.656  14.198  68.270  1.00  0.00     0.069 OA 
BRANCH  13  14
HETATM   14  C   UNL     1     -11.455  13.772  67.733  1.00  0.00    -0.322 C  
HETATM   15  C   UNL     1     -11.161  14.517  66.383  1.00  0.00    -0.331 C  
HETATM   16  O   UNL     1     -10.758  12.917  68.268  1.00  0.00    -0.228 OA 
HETATM   17  O   UNL     1     -12.257  15.398  66.069  1.00  0.00     0.414 OA 
HETATM   18  C   UNL     1      -9.879  15.350  66.561  1.00  0.00    -0.288 A  
HETATM   19  C   UNL     1     -11.147  13.465  65.261  1.00  0.00    -0.305 A  
HETATM   20  C   UNL     1     -12.288  12.654  65.066  1.00  0.00    -0.561 A  
HETATM   21  C   UNL     1      -8.682  14.740  66.991  1.00  0.00    -0.258 A  
HETATM   22  H   UNL     1     -12.078  15.849  65.251  1.00  0.00     0.000 HD 
HETATM   23  C   UNL     1      -7.504  15.474  67.147  1.00  0.00    -0.244 A  
HETATM   24  C   UNL     1     -12.275  11.584  64.168  1.00  0.00     0.023 A  
HETATM   25  C   UNL     1      -7.505  16.841  66.890  1.00  0.00    -0.257 A  
HETATM   26  C   UNL     1     -11.128  11.315  63.430  1.00  0.00    -0.187 A  
HETATM   27  C   UNL     1      -8.675  17.469  66.478  1.00  0.00    -0.290 A  
HETATM   28  C   UNL     1     -10.014  12.139  63.557  1.00  0.00    -0.341 A  
HETATM   29  C   UNL     1     -10.030  13.215  64.450  1.00  0.00    -0.095 A  
HETATM   30  C   UNL     1      -9.851  16.733  66.308  1.00  0.00    -0.327 A  
ENDBRANCH  13  14
ENDBRANCH   7  13
TORSDOF 2
ENDMDL
MODEL      149
REMARK 921   NORMALIZED FREE ENERGY PREDICTED BY IDOCK:   -2.21 KCAL/MOL
REMARK 922        TOTAL FREE ENERGY PREDICTED BY IDOCK:   -3.00 KCAL/MOL
REMARK 923 INTER-LIGAND FREE ENERGY PREDICTED BY IDOCK:   -3.64 KCAL/MOL
REMARK 924 INTRA-LIGAND FREE ENERGY PREDICTED BY IDOCK:    0.64 KCAL/MOL
REMARK 927      BINDING AFFINITY PREDICTED BY RF-SCORE:    0.00 PKD
ROOT
HETATM    1  C   UNL     1     -10.004  14.172  68.339  1.00  0.00    -0.235 C  
HETATM    2  C   UNL     1     -11.376  13.569  68.030  1.00  0.00    -0.318 C  
HETATM    3  C   UNL     1     -11.161  12.683  66.813  1.00  0.00    -0.318 C  
HETATM    4  C   UNL     1      -9.674  12.822  66.447  1.00  0.00    -0.261 C  
HETATM    5  N   UNL     1      -9.298  14.212  66.966  1.00  0.00    -0.236 N  
HETATM    6  C   UNL     1      -8.851  11.759  67.162  1.00  0.00    -0.173 C  
HETATM    7  C   UNL     1      -8.526  12.061  68.631  1.00  0.00    -0.022 C  
HETATM    8  C   UNL     1      -7.797  14.553  67.032  1.00  0.00     0.020 C  
HETATM    9  C   UNL     1      -7.788  16.062  67.037  1.00  0.00    -0.263 C  
HETATM   10  C   UNL     1      -8.711  16.354  65.884  1.00  0.00    -0.134 C  
HETATM   11  C   UNL     1      -9.246  13.245  69.297  1.00  0.00     0.820 C  
HETATM   12  C   UNL     1      -9.848  15.345  66.034  1.00  0.00    -0.326 C  
ENDROOT
BRANCH   7  13
HETATM   13  O   UNL     1      -8.713  10.878  69.419  1.00  0.00    -0.042 OA 
BRANCH  13  14
HETATM   14  C   UNL     1      -9.511   9.930  68.807  1.00  0.00    -0.157 C  
HETATM   15  C   UNL     1      -8.806   8.526  68.817  1.00  0.00    -0.139 C  
HETATM   16  O   UNL     1     -10.606  10.198  68.324  1.00  0.00    -0.198 OA 
HETATM   17  O   UNL     1      -7.503   8.646  69.421  1.00  0.00    -0.077 OA 
HETATM   18  C   UNL     1      -9.664   7.561  69.654  1.00  0.00    -0.167 A  
HETATM   19  C   UNL     1      -8.544   8.124  67.357  1.00  0.00    -0.125 A  
HETATM   20  C   UNL     1      -7.782   8.983  66.533  1.00  0.00    -0.096 A  
HETATM   21  C   UNL     1     -11.026   7.361  69.345  1.00  0.00    -0.126 A  
HETATM   22  H   UNL     1      -7.077   7.797  69.427  1.00  0.00     0.000 HD 
HETATM   23  C   UNL     1     -11.819   6.481  70.083  1.00  0.00    -0.331 A  
HETATM   24  C   UNL     1      -7.643   8.744  65.164  1.00  0.00    -0.096 A  
HETATM   25  C   UNL     1     -11.269   5.792  71.159  1.00  0.00    -0.211 A  
HETATM   26  C   UNL     1      -8.245   7.629  64.592  1.00  0.00    -0.067 A  
HETATM   27  C   UNL     1      -9.932   5.982  71.493  1.00  0.00    -0.212 A  
HETATM   28  C   UNL     1      -8.945   6.733  65.394  1.00  0.00     0.167 A  
HETATM   29  C   UNL     1      -9.078   6.968  66.766  1.00  0.00    -0.162 A  
HETATM   30  C   UNL     1      -9.133   6.853  70.746  1.00  0.00    -0.154 A  
ENDBRANCH  13  14
ENDBRANCH   7  13
TORSDOF 2
ENDMDL
MODEL      150
REMARK 921   NORMALIZED FREE ENERGY PREDICTED BY IDOCK:   -2.10 KCAL/MOL
REMARK 922        TOTAL FREE ENERGY PREDICTED BY IDOCK:   -2.88 KCAL/MOL
REMARK 923 INTER-LIGAND FREE ENERGY PREDICTED BY IDOCK:   -5.17 KCAL/MOL
REMARK 924 INTRA-LIGAND FREE ENERGY PREDICTED BY IDOCK:    2.30 KCAL/MOL
REMARK 927      BINDING AFFINITY PREDICTED BY RF-SCORE:    0.00 PKD
ROOT
HETATM    1  C   UNL     1      -9.391   6.624  66.555  1.00  0.00    -0.159 C  
HETATM    2  C   UNL     1      -9.156   5.777  67.807  1.00  0.00    -0.106 C  
HETATM    3  C   UNL     1      -7.789   6.193  68.324  1.00  0.00    -0.104 C  
HETATM    4  C   UNL     1      -7.269   7.252  67.338  1.00  0.00    -0.090 C  
HETATM    5  N   UNL     1      -7.969   6.901  66.022  1.00  0.00    -0.104 N  
HETATM    6  C   UNL     1      -7.683   8.646  67.792  1.00  0.00    -0.102 C  
HETATM    7  C   UNL     1      -9.130   9.039  67.465  1.00  0.00    -0.132 C  
HETATM    8  C   UNL     1      -7.904   7.949  64.894  1.00  0.00    -0.126 C  
HETATM    9  C   UNL     1      -8.167   7.132  63.653  1.00  0.00     0.095 C  
HETATM   10  C   UNL     1      -7.206   5.991  63.855  1.00  0.00    -0.060 C  
HETATM   11  C   UNL     1     -10.074   7.939  66.952  1.00  0.00    -0.362 C  
HETATM   12  C   UNL     1      -7.321   5.649  65.340  1.00  0.00    -0.072 C  
ENDROOT
BRANCH   7  13
HETATM   13  O   UNL     1      -9.720   9.691  68.597  1.00  0.00    -0.150 OA 
BRANCH  13  14
HETATM   14  C   UNL     1     -10.292  10.912  68.292  1.00  0.00    -0.173 C  
HETATM   15  C   UNL     1      -9.549  11.583  67.083  1.00  0.00    -0.177 C  
HETATM   16  O   UNL     1     -11.240  11.373  68.919  1.00  0.00    -0.206 OA 
HETATM   17  O   UNL     1      -8.448  10.748  66.669  1.00  0.00    -0.133 OA 
HETATM   18  C   UNL     1     -10.545  11.716  65.917  1.00  0.00    -0.318 A  
HETATM   19  C   UNL     1      -8.906  12.884  67.591  1.00  0.00    -0.187 A  
HETATM   20  C   UNL     1      -8.001  12.825  68.674  1.00  0.00    -0.023 A  
HETATM   21  C   UNL     1     -11.773  12.386  66.098  1.00  0.00    -0.460 A  
HETATM   22  H   UNL     1      -7.999  11.154  65.937  1.00  0.00     0.000 HD 
HETATM   23  C   UNL     1     -12.687  12.530  65.053  1.00  0.00    -0.302 A  
HETATM   24  C   UNL     1      -7.508  13.987  69.274  1.00  0.00     0.059 A  
HETATM   25  C   UNL     1     -12.396  11.991  63.804  1.00  0.00    -0.602 A  
HETATM   26  C   UNL     1      -7.893  15.232  68.790  1.00  0.00    -0.154 A  
HETATM   27  C   UNL     1     -11.198  11.314  63.603  1.00  0.00    -0.221 A  
HETATM   28  C   UNL     1      -8.732  15.315  67.683  1.00  0.00    -0.179 A  
HETATM   29  C   UNL     1      -9.219  14.152  67.077  1.00  0.00    -0.249 A  
HETATM   30  C   UNL     1     -10.277  11.181  64.645  1.00  0.00    -0.376 A  
ENDBRANCH  13  14
ENDBRANCH   7  13
TORSDOF 2
ENDMDL
MODEL      151
REMARK 921   NORMALIZED FREE ENERGY PREDICTED BY IDOCK:   -2.07 KCAL/MOL
REMARK 922        TOTAL FREE ENERGY PREDICTED BY IDOCK:   -2.84 KCAL/MOL
REMARK 923 INTER-LIGAND FREE ENERGY PREDICTED BY IDOCK:   -2.20 KCAL/MOL
REMARK 924 INTRA-LIGAND FREE ENERGY PREDICTED BY IDOCK:   -0.64 KCAL/MOL
REMARK 927      BINDING AFFINITY PREDICTED BY RF-SCORE:    0.00 PKD
ROOT
HETATM    1  C   UNL     1      -8.306   3.847  71.189  1.00  0.00    -0.072 C  
HETATM    2  C   UNL     1      -9.373   4.932  71.349  1.00  0.00    -0.199 C  
HETATM    3  C   UNL     1      -8.607   6.241  71.438  1.00  0.00    -0.131 C  
HETATM    4  C   UNL     1      -7.119   5.867  71.348  1.00  0.00    -0.077 C  
HETATM    5  N   UNL     1      -7.068   4.439  71.898  1.00  0.00    -0.053 N  
HETATM    6  C   UNL     1      -6.655   5.883  69.897  1.00  0.00    -0.050 C  
HETATM    7  C   UNL     1      -7.026   4.641  69.077  1.00  0.00    -0.051 C  
HETATM    8  C   UNL     1      -5.765   3.647  71.670  1.00  0.00    -0.009 C  
HETATM    9  C   UNL     1      -5.820   2.583  72.738  1.00  0.00    -0.008 C  
HETATM   10  C   UNL     1      -6.148   3.415  73.950  1.00  0.00    -0.015 C  
HETATM   11  C   UNL     1      -8.013   3.639  69.698  1.00  0.00    -0.056 C  
HETATM   12  C   UNL     1      -7.193   4.416  73.459  1.00  0.00    -0.075 C  
ENDROOT
BRANCH   7  13
HETATM   13  O   UNL     1      -7.495   5.040  67.783  1.00  0.00    -0.077 OA 
BRANCH  13  14
HETATM   14  C   UNL     1      -6.784   6.096  67.242  1.00  0.00    -0.061 C  
HETATM   15  C   UNL     1      -7.733   7.317  66.969  1.00  0.00    -0.111 C  
HETATM   16  O   UNL     1      -5.582   6.034  67.010  1.00  0.00    -0.011 OA 
HETATM   17  O   UNL     1      -9.086   6.964  67.320  1.00  0.00    -0.122 OA 
HETATM   18  C   UNL     1      -7.273   8.491  67.852  1.00  0.00    -0.088 A  
HETATM   19  C   UNL     1      -7.755   7.564  65.452  1.00  0.00    -0.109 A  
HETATM   20  C   UNL     1      -8.146   6.514  64.591  1.00  0.00    -0.092 A  
HETATM   21  C   UNL     1      -5.942   8.954  67.793  1.00  0.00    -0.047 A  
HETATM   22  H   UNL     1      -9.660   7.703  67.156  1.00  0.00     0.000 HD 
HETATM   23  C   UNL     1      -5.506  10.025  68.575  1.00  0.00    -0.039 A  
HETATM   24  C   UNL     1      -8.037   6.634  63.203  1.00  0.00    -0.028 A  
HETATM   25  C   UNL     1      -6.393  10.648  69.447  1.00  0.00    -0.060 A  
HETATM   26  C   UNL     1      -7.556   7.812  62.646  1.00  0.00    -0.119 A  
HETATM   27  C   UNL     1      -7.708  10.203  69.534  1.00  0.00    -0.155 A  
HETATM   28  C   UNL     1      -7.226   8.884  63.471  1.00  0.00    -0.093 A  
HETATM   29  C   UNL     1      -7.342   8.767  64.859  1.00  0.00    -0.093 A  
HETATM   30  C   UNL     1      -8.148   9.139  68.742  1.00  0.00    -0.101 A  
ENDBRANCH  13  14
ENDBRANCH   7  13
TORSDOF 2
ENDMDL
MODEL      152
REMARK 921   NORMALIZED FREE ENERGY PREDICTED BY IDOCK:   -2.05 KCAL/MOL
REMARK 922        TOTAL FREE ENERGY PREDICTED BY IDOCK:   -2.82 KCAL/MOL
REMARK 923 INTER-LIGAND FREE ENERGY PREDICTED BY IDOCK:   -2.32 KCAL/MOL
REMARK 924 INTRA-LIGAND FREE ENERGY PREDICTED BY IDOCK:   -0.50 KCAL/MOL
REMARK 927      BINDING AFFINITY PREDICTED BY RF-SCORE:    0.00 PKD
ROOT
HETATM    1  C   UNL     1      -8.273   4.676  70.734  1.00  0.00    -0.088 C  
HETATM    2  C   UNL     1      -8.950   3.446  70.125  1.00  0.00    -0.172 C  
HETATM    3  C   UNL     1     -10.337   3.913  69.713  1.00  0.00     0.897 C  
HETATM    4  C   UNL     1     -10.423   5.393  70.120  1.00  0.00    -0.290 C  
HETATM    5  N   UNL     1      -9.448   5.506  71.296  1.00  0.00    -0.147 N  
HETATM    6  C   UNL     1      -9.962   6.285  68.975  1.00  0.00    -0.175 C  
HETATM    7  C   UNL     1      -8.441   6.408  68.812  1.00  0.00    -0.121 C  
HETATM    8  C   UNL     1      -9.063   6.926  71.752  1.00  0.00    -0.138 C  
HETATM    9  C   UNL     1      -8.588   6.714  73.168  1.00  0.00    -0.129 C  
HETATM   10  C   UNL     1      -9.713   5.882  73.723  1.00  0.00    -0.166 C  
HETATM   11  C   UNL     1      -7.552   5.458  69.630  1.00  0.00    -0.070 C  
HETATM   12  C   UNL     1     -10.051   4.896  72.606  1.00  0.00    -0.174 C  
ENDROOT
BRANCH   7  13
HETATM   13  O   UNL     1      -8.097   6.316  67.424  1.00  0.00    -0.108 OA 
BRANCH  13  14
HETATM   14  C   UNL     1      -7.103   7.198  67.043  1.00  0.00    -0.090 C  
HETATM   15  C   UNL     1      -7.729   8.528  66.489  1.00  0.00    -0.092 C  
HETATM   16  O   UNL     1      -5.910   6.930  67.132  1.00  0.00    -0.016 OA 
HETATM   17  O   UNL     1      -9.167   8.422  66.493  1.00  0.00    -0.163 OA 
HETATM   18  C   UNL     1      -7.306   9.683  67.414  1.00  0.00    -0.087 A  
HETATM   19  C   UNL     1      -7.332   8.651  65.009  1.00  0.00    -0.086 A  
HETATM   20  C   UNL     1      -7.673   7.609  64.117  1.00  0.00    -0.128 A  
HETATM   21  C   UNL     1      -5.942   9.924  67.682  1.00  0.00    -0.050 A  
HETATM   22  H   UNL     1      -9.545   9.226  66.158  1.00  0.00     0.000 HD 
HETATM   23  C   UNL     1      -5.535  10.973  68.507  1.00  0.00    -0.043 A  
HETATM   24  C   UNL     1      -7.206   7.596  62.801  1.00  0.00    -0.086 A  
HETATM   25  C   UNL     1      -6.489  11.797  69.097  1.00  0.00    -0.097 A  
HETATM   26  C   UNL     1      -6.405   8.635  62.341  1.00  0.00    -0.095 A  
HETATM   27  C   UNL     1      -7.841  11.572  68.860  1.00  0.00    -0.071 A  
HETATM   28  C   UNL     1      -6.110   9.705  63.181  1.00  0.00    -0.105 A  
HETATM   29  C   UNL     1      -6.584   9.722  64.496  1.00  0.00    -0.113 A  
HETATM   30  C   UNL     1      -8.249  10.531  68.022  1.00  0.00    -0.112 A  
ENDBRANCH  13  14
ENDBRANCH   7  13
TORSDOF 2
ENDMDL
MODEL      153
REMARK 921   NORMALIZED FREE ENERGY PREDICTED BY IDOCK:   -1.95 KCAL/MOL
REMARK 922        TOTAL FREE ENERGY PREDICTED BY IDOCK:   -2.71 KCAL/MOL
REMARK 923 INTER-LIGAND FREE ENERGY PREDICTED BY IDOCK:   -3.32 KCAL/MOL
REMARK 924 INTRA-LIGAND FREE ENERGY PREDICTED BY IDOCK:    0.61 KCAL/MOL
REMARK 927      BINDING AFFINITY PREDICTED BY RF-SCORE:    0.00 PKD
ROOT
HETATM    1  C   UNL     1     -12.152  11.754  68.514  1.00  0.00    -0.068 C  
HETATM    2  C   UNL     1     -11.413  11.558  67.188  1.00  0.00    -0.313 C  
HETATM    3  C   UNL     1      -9.936  11.643  67.534  1.00  0.00    -0.202 C  
HETATM    4  C   UNL     1      -9.871  11.907  69.047  1.00  0.00     0.139 C  
HETATM    5  N   UNL     1     -11.189  12.624  69.350  1.00  0.00    -0.186 N  
HETATM    6  C   UNL     1      -9.807  10.591  69.812  1.00  0.00    -0.050 C  
HETATM    7  C   UNL     1     -11.149   9.869  69.987  1.00  0.00    -0.285 C  
HETATM    8  C   UNL     1     -11.584  12.766  70.833  1.00  0.00     0.988 C  
HETATM    9  C   UNL     1     -12.555  13.922  70.820  1.00  0.00    -0.424 C  
HETATM   10  C   UNL     1     -11.784  14.930  70.010  1.00  0.00    -0.338 C  
HETATM   11  C   UNL     1     -12.355  10.391  69.188  1.00  0.00     0.337 C  
HETATM   12  C   UNL     1     -11.155  14.117  68.878  1.00  0.00    -0.263 C  
ENDROOT
BRANCH   7  13
HETATM   13  O   UNL     1     -10.978   8.467  69.740  1.00  0.00    -0.219 OA 
BRANCH  13  14
HETATM   14  C   UNL     1      -9.668   8.043  69.861  1.00  0.00    -0.180 C  
HETATM   15  C   UNL     1      -9.589   6.736  70.727  1.00  0.00    -0.168 C  
HETATM   16  O   UNL     1      -8.728   8.646  69.355  1.00  0.00    -0.135 OA 
HETATM   17  O   UNL     1     -10.909   6.383  71.188  1.00  0.00    -0.237 OA 
HETATM   18  C   UNL     1      -9.045   5.601  69.841  1.00  0.00    -0.155 A  
HETATM   19  C   UNL     1      -8.787   7.063  71.997  1.00  0.00    -0.133 A  
HETATM   20  C   UNL     1      -9.226   8.111  72.837  1.00  0.00    -0.343 A  
HETATM   21  C   UNL     1      -7.816   5.748  69.164  1.00  0.00    -0.090 A  
HETATM   22  H   UNL     1     -10.861   5.591  71.712  1.00  0.00     0.000 HD 
HETATM   23  C   UNL     1      -7.296   4.728  68.365  1.00  0.00    -0.065 A  
HETATM   24  C   UNL     1      -8.455   8.550  73.916  1.00  0.00     0.010 A  
HETATM   25  C   UNL     1      -8.006   3.542  68.214  1.00  0.00    -0.072 A  
HETATM   26  C   UNL     1      -7.238   7.938  74.191  1.00  0.00    -0.176 A  
HETATM   27  C   UNL     1      -9.227   3.377  68.860  1.00  0.00    -0.229 A  
HETATM   28  C   UNL     1      -6.815   6.861  73.418  1.00  0.00    -0.074 A  
HETATM   29  C   UNL     1      -7.590   6.416  72.343  1.00  0.00    -0.097 A  
HETATM   30  C   UNL     1      -9.741   4.392  69.671  1.00  0.00    -0.289 A  
ENDBRANCH  13  14
ENDBRANCH   7  13
TORSDOF 2
ENDMDL
MODEL      154
REMARK 921   NORMALIZED FREE ENERGY PREDICTED BY IDOCK:   -1.86 KCAL/MOL
REMARK 922        TOTAL FREE ENERGY PREDICTED BY IDOCK:   -2.61 KCAL/MOL
REMARK 923 INTER-LIGAND FREE ENERGY PREDICTED BY IDOCK:   -2.25 KCAL/MOL
REMARK 924 INTRA-LIGAND FREE ENERGY PREDICTED BY IDOCK:   -0.37 KCAL/MOL
REMARK 927      BINDING AFFINITY PREDICTED BY RF-SCORE:    0.00 PKD
ROOT
HETATM    1  C   UNL     1     -12.098  13.917  72.291  1.00  0.00     0.482 C  
HETATM    2  C   UNL     1     -13.042  12.738  72.531  1.00  0.00    -0.112 C  
HETATM    3  C   UNL     1     -14.409  13.217  72.071  1.00  0.00     0.050 C  
HETATM    4  C   UNL     1     -14.213  14.668  71.601  1.00  0.00    -0.506 C  
HETATM    5  N   UNL     1     -13.011  15.156  72.415  1.00  0.00    -0.333 N  
HETATM    6  C   UNL     1     -13.882  14.702  70.114  1.00  0.00     1.292 C  
HETATM    7  C   UNL     1     -12.425  14.380  69.760  1.00  0.00    -0.217 C  
HETATM    8  C   UNL     1     -12.356  16.478  71.971  1.00  0.00     0.187 C  
HETATM    9  C   UNL     1     -11.633  16.936  73.214  1.00  0.00     0.362 C  
HETATM   10  C   UNL     1     -12.720  16.791  74.245  1.00  0.00     0.035 C  
HETATM   11  C   UNL     1     -11.520  13.825  70.873  1.00  0.00     0.445 C  
HETATM   12  C   UNL     1     -13.408  15.471  73.897  1.00  0.00     0.302 C  
ENDROOT
BRANCH   7  13
HETATM   13  O   UNL     1     -12.387  13.503  68.627  1.00  0.00    -0.232 OA 
BRANCH  13  14
HETATM   14  C   UNL     1     -11.671  14.012  67.559  1.00  0.00    -0.387 C  
HETATM   15  C   UNL     1     -10.303  13.256  67.403  1.00  0.00    -0.243 C  
HETATM   16  O   UNL     1     -12.082  14.937  66.868  1.00  0.00    -0.222 OA 
HETATM   17  O   UNL     1     -10.170  12.278  68.453  1.00  0.00    -0.212 OA 
HETATM   18  C   UNL     1     -10.302  12.538  66.041  1.00  0.00    -0.277 A  
HETATM   19  C   UNL     1      -9.176  14.273  67.646  1.00  0.00    -0.194 A  
HETATM   20  C   UNL     1      -9.140  14.980  68.869  1.00  0.00    -0.202 A  
HETATM   21  C   UNL     1     -10.540  13.258  64.852  1.00  0.00    -0.381 A  
HETATM   22  H   UNL     1      -9.343  11.821  68.358  1.00  0.00     0.000 HD 
HETATM   23  C   UNL     1     -10.531  12.630  63.605  1.00  0.00    -0.348 A  
HETATM   24  C   UNL     1      -8.233  16.021  69.080  1.00  0.00    -0.241 A  
HETATM   25  C   UNL     1     -10.299  11.261  63.524  1.00  0.00    -0.463 A  
HETATM   26  C   UNL     1      -7.328  16.364  68.082  1.00  0.00    -0.151 A  
HETATM   27  C   UNL     1     -10.075  10.526  64.684  1.00  0.00    -0.408 A  
HETATM   28  C   UNL     1      -7.301  15.639  66.894  1.00  0.00    -0.127 A  
HETATM   29  C   UNL     1      -8.203  14.592  66.685  1.00  0.00     0.152 A  
HETATM   30  C   UNL     1     -10.070  11.156  65.931  1.00  0.00    -0.296 A  
ENDBRANCH  13  14
ENDBRANCH   7  13
TORSDOF 2
ENDMDL
MODEL      155
REMARK 921   NORMALIZED FREE ENERGY PREDICTED BY IDOCK:   -1.73 KCAL/MOL
REMARK 922        TOTAL FREE ENERGY PREDICTED BY IDOCK:   -2.46 KCAL/MOL
REMARK 923 INTER-LIGAND FREE ENERGY PREDICTED BY IDOCK:   -1.86 KCAL/MOL
REMARK 924 INTRA-LIGAND FREE ENERGY PREDICTED BY IDOCK:   -0.60 KCAL/MOL
REMARK 927      BINDING AFFINITY PREDICTED BY RF-SCORE:    0.00 PKD
ROOT
HETATM    1  C   UNL     1     -11.161  11.961  68.076  1.00  0.00    -0.240 C  
HETATM    2  C   UNL     1     -11.979  11.283  66.976  1.00  0.00     0.610 C  
HETATM    3  C   UNL     1     -10.967  10.536  66.123  1.00  0.00     0.068 C  
HETATM    4  C   UNL     1      -9.592  10.827  66.748  1.00  0.00    -0.172 C  
HETATM    5  N   UNL     1      -9.779  12.187  67.425  1.00  0.00    -0.178 N  
HETATM    6  C   UNL     1      -9.249   9.770  67.789  1.00  0.00    -0.141 C  
HETATM    7  C   UNL     1      -9.920   9.956  69.157  1.00  0.00    -0.198 C  
HETATM    8  C   UNL     1      -8.679  12.638  68.406  1.00  0.00    -0.118 C  
HETATM    9  C   UNL     1      -8.857  14.136  68.455  1.00  0.00    -0.173 C  
HETATM   10  C   UNL     1      -8.920  14.462  66.987  1.00  0.00    -0.257 C  
HETATM   11  C   UNL     1     -11.033  11.010  69.273  1.00  0.00    -0.305 C  
HETATM   12  C   UNL     1      -9.784  13.356  66.382  1.00  0.00    -0.277 C  
ENDROOT
BRANCH   7  13
HETATM   13  O   UNL     1     -10.402   8.693  69.633  1.00  0.00    -0.204 OA 
BRANCH  13  14
HETATM   14  C   UNL     1     -10.133   8.470  70.970  1.00  0.00    -0.205 C  
HETATM   15  C   UNL     1      -8.970   7.427  71.132  1.00  0.00    -0.143 C  
HETATM   16  O   UNL     1     -10.753   9.023  71.871  1.00  0.00    -0.347 OA 
HETATM   17  O   UNL     1      -8.551   6.966  69.832  1.00  0.00    -0.138 OA 
HETATM   18  C   UNL     1      -7.786   8.127  71.824  1.00  0.00    -0.135 A  
HETATM   19  C   UNL     1      -9.546   6.189  71.839  1.00  0.00    -0.166 A  
HETATM   20  C   UNL     1     -10.648   5.519  71.262  1.00  0.00    -0.304 A  
HETATM   21  C   UNL     1      -7.964   8.776  73.064  1.00  0.00     0.206 A  
HETATM   22  H   UNL     1      -7.847   6.335  69.931  1.00  0.00     0.000 HD 
HETATM   23  C   UNL     1      -6.903   9.406  73.716  1.00  0.00     0.779 A  
HETATM   24  C   UNL     1     -11.306   4.487  71.935  1.00  0.00     0.777 A  
HETATM   25  C   UNL     1      -5.641   9.414  73.131  1.00  0.00     0.045 A  
HETATM   26  C   UNL     1     -10.864   4.088  73.191  1.00  0.00    -0.274 A  
HETATM   27  C   UNL     1      -5.442   8.792  71.903  1.00  0.00    -0.050 A  
HETATM   28  C   UNL     1      -9.740   4.688  73.752  1.00  0.00    -0.156 A  
HETATM   29  C   UNL     1      -9.077   5.716  73.074  1.00  0.00    -0.121 A  
HETATM   30  C   UNL     1      -6.501   8.149  71.256  1.00  0.00    -0.040 A  
ENDBRANCH  13  14
ENDBRANCH   7  13
TORSDOF 2
ENDMDL
MODEL      156
REMARK 921   NORMALIZED FREE ENERGY PREDICTED BY IDOCK:   -1.43 KCAL/MOL
REMARK 922        TOTAL FREE ENERGY PREDICTED BY IDOCK:   -2.13 KCAL/MOL
REMARK 923 INTER-LIGAND FREE ENERGY PREDICTED BY IDOCK:   -2.09 KCAL/MOL
REMARK 924 INTRA-LIGAND FREE ENERGY PREDICTED BY IDOCK:   -0.04 KCAL/MOL
REMARK 927      BINDING AFFINITY PREDICTED BY RF-SCORE:    0.00 PKD
ROOT
HETATM    1  C   UNL     1      -8.175   3.608  71.541  1.00  0.00    -0.068 C  
HETATM    2  C   UNL     1      -8.885   2.484  70.784  1.00  0.00    -0.137 C  
HETATM    3  C   UNL     1     -10.190   3.090  70.295  1.00  0.00     0.951 C  
HETATM    4  C   UNL     1     -10.201   4.540  70.807  1.00  0.00    -0.094 C  
HETATM    5  N   UNL     1      -9.329   4.490  72.065  1.00  0.00    -0.135 N  
HETATM    6  C   UNL     1      -9.574   5.470  69.776  1.00  0.00    -0.215 C  
HETATM    7  C   UNL     1      -8.040   5.480  69.751  1.00  0.00    -0.101 C  
HETATM    8  C   UNL     1      -8.881   5.839  72.660  1.00  0.00    -0.125 C  
HETATM    9  C   UNL     1      -8.552   5.489  74.091  1.00  0.00    -0.116 C  
HETATM   10  C   UNL     1      -9.781   4.714  74.484  1.00  0.00    -0.175 C  
HETATM   11  C   UNL     1      -7.301   4.406  70.565  1.00  0.00    -0.049 C  
HETATM   12  C   UNL     1     -10.091   3.840  73.269  1.00  0.00    -0.142 C  
ENDROOT
BRANCH   7  13
HETATM   13  O   UNL     1      -7.580   5.458  68.394  1.00  0.00    -0.078 OA 
BRANCH  13  14
HETATM   14  C   UNL     1      -7.455   6.716  67.835  1.00  0.00    -0.098 C  
HETATM   15  C   UNL     1      -8.714   7.059  66.961  1.00  0.00    -0.123 C  
HETATM   16  O   UNL     1      -6.471   7.425  68.013  1.00  0.00    -0.046 OA 
HETATM   17  O   UNL     1      -9.618   5.937  66.957  1.00  0.00    -0.123 OA 
HETATM   18  C   UNL     1      -9.421   8.274  67.589  1.00  0.00    -0.176 A  
HETATM   19  C   UNL     1      -8.246   7.212  65.505  1.00  0.00    -0.139 A  
HETATM   20  C   UNL     1      -7.570   6.138  64.883  1.00  0.00    -0.090 A  
HETATM   21  C   UNL     1      -8.715   9.472  67.822  1.00  0.00    -0.115 A  
HETATM   22  H   UNL     1     -10.380   6.144  66.428  1.00  0.00     0.000 HD 
HETATM   23  C   UNL     1      -9.339  10.590  68.379  1.00  0.00    -0.158 A  
HETATM   24  C   UNL     1      -6.990   6.277  63.621  1.00  0.00    -0.043 A  
HETATM   25  C   UNL     1     -10.683  10.526  68.729  1.00  0.00    -0.249 A  
HETATM   26  C   UNL     1      -7.090   7.486  62.942  1.00  0.00    -0.078 A  
HETATM   27  C   UNL     1     -11.399   9.352  68.522  1.00  0.00     0.270 A  
HETATM   28  C   UNL     1      -7.807   8.538  63.505  1.00  0.00    -0.151 A  
HETATM   29  C   UNL     1      -8.395   8.397  64.766  1.00  0.00    -0.151 A  
HETATM   30  C   UNL     1     -10.779   8.237  67.952  1.00  0.00    -0.138 A  
ENDBRANCH  13  14
ENDBRANCH   7  13
TORSDOF 2
ENDMDL
MODEL      157
REMARK 921   NORMALIZED FREE ENERGY PREDICTED BY IDOCK:   -1.37 KCAL/MOL
REMARK 922        TOTAL FREE ENERGY PREDICTED BY IDOCK:   -2.06 KCAL/MOL
REMARK 923 INTER-LIGAND FREE ENERGY PREDICTED BY IDOCK:   -1.72 KCAL/MOL
REMARK 924 INTRA-LIGAND FREE ENERGY PREDICTED BY IDOCK:   -0.34 KCAL/MOL
REMARK 927      BINDING AFFINITY PREDICTED BY RF-SCORE:    0.00 PKD
ROOT
HETATM    1  C   UNL     1     -10.082  13.711  68.066  1.00  0.00    -0.250 C  
HETATM    2  C   UNL     1     -10.715  13.187  66.775  1.00  0.00    -0.274 C  
HETATM    3  C   UNL     1      -9.676  13.425  65.691  1.00  0.00    -0.103 C  
HETATM    4  C   UNL     1      -8.484  14.100  66.390  1.00  0.00     0.466 C  
HETATM    5  N   UNL     1      -9.119  14.818  67.584  1.00  0.00    -0.181 N  
HETATM    6  C   UNL     1      -7.494  13.050  66.880  1.00  0.00     0.302 C  
HETATM    7  C   UNL     1      -7.877  12.350  68.191  1.00  0.00    -0.146 C  
HETATM    8  C   UNL     1      -8.164  15.348  68.671  1.00  0.00    -0.158 C  
HETATM    9  C   UNL     1      -8.983  16.414  69.356  1.00  0.00    -0.014 C  
HETATM   10  C   UNL     1      -9.489  17.189  68.169  1.00  0.00    -0.269 C  
HETATM   11  C   UNL     1      -9.294  12.581  68.740  1.00  0.00     0.121 C  
HETATM   12  C   UNL     1      -9.865  16.122  67.143  1.00  0.00    -0.241 C  
ENDROOT
BRANCH   7  13
HETATM   13  O   UNL     1      -7.627  10.944  68.076  1.00  0.00    -0.088 OA 
BRANCH  13  14
HETATM   14  C   UNL     1      -8.769  10.199  67.845  1.00  0.00    -0.122 C  
HETATM   15  C   UNL     1      -9.034   9.212  69.038  1.00  0.00    -0.143 C  
HETATM   16  O   UNL     1      -9.441  10.317  66.827  1.00  0.00    -0.157 OA 
HETATM   17  O   UNL     1      -7.977   9.337  70.010  1.00  0.00    -0.090 OA 
HETATM   18  C   UNL     1     -10.372   9.598  69.695  1.00  0.00    -0.245 A  
HETATM   19  C   UNL     1      -8.922   7.779  68.494  1.00  0.00    -0.133 A  
HETATM   20  C   UNL     1      -7.726   7.376  67.859  1.00  0.00    -0.116 A  
HETATM   21  C   UNL     1     -11.551   9.676  68.925  1.00  0.00     0.317 A  
HETATM   22  H   UNL     1      -8.138   8.740  70.732  1.00  0.00     0.000 HD 
HETATM   23  C   UNL     1     -12.778  10.011  69.501  1.00  0.00     0.886 A  
HETATM   24  C   UNL     1      -7.625   6.142  67.213  1.00  0.00    -0.093 A  
HETATM   25  C   UNL     1     -12.846  10.292  70.862  1.00  0.00    -0.463 A  
HETATM   26  C   UNL     1      -8.711   5.274  67.205  1.00  0.00    -0.107 A  
HETATM   27  C   UNL     1     -11.695  10.235  71.641  1.00  0.00    -0.026 A  
HETATM   28  C   UNL     1      -9.879   5.621  67.879  1.00  0.00    -0.158 A  
HETATM   29  C   UNL     1      -9.977   6.853  68.533  1.00  0.00    -0.149 A  
HETATM   30  C   UNL     1     -10.470   9.886  71.067  1.00  0.00    -0.089 A  
ENDBRANCH  13  14
ENDBRANCH   7  13
TORSDOF 2
ENDMDL
MODEL      158
REMARK 921   NORMALIZED FREE ENERGY PREDICTED BY IDOCK:   -1.31 KCAL/MOL
REMARK 922        TOTAL FREE ENERGY PREDICTED BY IDOCK:   -1.99 KCAL/MOL
REMARK 923 INTER-LIGAND FREE ENERGY PREDICTED BY IDOCK:   -2.21 KCAL/MOL
REMARK 924 INTRA-LIGAND FREE ENERGY PREDICTED BY IDOCK:    0.22 KCAL/MOL
REMARK 927      BINDING AFFINITY PREDICTED BY RF-SCORE:    0.00 PKD
ROOT
HETATM    1  C   UNL     1     -12.121  11.344  65.779  1.00  0.00     1.248 C  
HETATM    2  C   UNL     1     -12.391  11.122  64.289  1.00  0.00     1.249 C  
HETATM    3  C   UNL     1     -11.166  11.667  63.573  1.00  0.00    -0.462 C  
HETATM    4  C   UNL     1     -10.237  12.206  64.673  1.00  0.00    -0.284 C  
HETATM    5  N   UNL     1     -11.195  12.580  65.808  1.00  0.00    -0.307 N  
HETATM    6  C   UNL     1      -9.279  11.117  65.138  1.00  0.00    -0.209 C  
HETATM    7  C   UNL     1      -9.871  10.101  66.123  1.00  0.00    -0.237 C  
HETATM    8  C   UNL     1     -10.568  12.873  67.185  1.00  0.00    -0.238 C  
HETATM    9  C   UNL     1     -11.626  13.698  67.875  1.00  0.00    -0.376 C  
HETATM   10  C   UNL     1     -11.931  14.716  66.808  1.00  0.00    -0.297 C  
HETATM   11  C   UNL     1     -11.391  10.122  66.351  1.00  0.00     0.848 C  
HETATM   12  C   UNL     1     -11.955  13.915  65.506  1.00  0.00    -0.383 C  
ENDROOT
BRANCH   7  13
HETATM   13  O   UNL     1      -9.457   8.778  65.757  1.00  0.00    -0.229 OA 
BRANCH  13  14
HETATM   14  C   UNL     1      -9.572   7.861  66.785  1.00  0.00    -0.215 C  
HETATM   15  C   UNL     1      -8.757   8.335  68.041  1.00  0.00    -0.135 C  
HETATM   16  O   UNL     1     -10.221   6.826  66.679  1.00  0.00    -0.197 OA 
HETATM   17  O   UNL     1      -8.082   9.572  67.739  1.00  0.00    -0.105 OA 
HETATM   18  C   UNL     1      -9.745   8.569  69.197  1.00  0.00    -0.170 A  
HETATM   19  C   UNL     1      -7.639   7.309  68.288  1.00  0.00    -0.118 A  
HETATM   20  C   UNL     1      -6.716   7.036  67.253  1.00  0.00    -0.067 A  
HETATM   21  C   UNL     1     -10.621   7.543  69.610  1.00  0.00    -0.243 A  
HETATM   22  H   UNL     1      -7.589   9.859  68.499  1.00  0.00     0.000 HD 
HETATM   23  C   UNL     1     -11.516   7.728  70.664  1.00  0.00    -0.259 A  
HETATM   24  C   UNL     1      -5.778   6.007  67.368  1.00  0.00    -0.016 A  
HETATM   25  C   UNL     1     -11.565   8.954  71.320  1.00  0.00    -0.371 A  
HETATM   26  C   UNL     1      -5.729   5.242  68.527  1.00  0.00    -0.016 A  
HETATM   27  C   UNL     1     -10.721   9.986  70.924  1.00  0.00    -0.203 A  
HETATM   28  C   UNL     1      -6.584   5.534  69.586  1.00  0.00    -0.050 A  
HETATM   29  C   UNL     1      -7.517   6.570  69.475  1.00  0.00    -0.093 A  
HETATM   30  C   UNL     1      -9.815   9.797  69.877  1.00  0.00    -0.279 A  
ENDBRANCH  13  14
ENDBRANCH   7  13
TORSDOF 2
ENDMDL
MODEL      159
REMARK 921   NORMALIZED FREE ENERGY PREDICTED BY IDOCK:   -0.95 KCAL/MOL
REMARK 922        TOTAL FREE ENERGY PREDICTED BY IDOCK:   -1.59 KCAL/MOL
REMARK 923 INTER-LIGAND FREE ENERGY PREDICTED BY IDOCK:   -2.52 KCAL/MOL
REMARK 924 INTRA-LIGAND FREE ENERGY PREDICTED BY IDOCK:    0.92 KCAL/MOL
REMARK 927      BINDING AFFINITY PREDICTED BY RF-SCORE:    0.00 PKD
ROOT
HETATM    1  C   UNL     1      -9.475   4.485  70.653  1.00  0.00    -0.170 C  
HETATM    2  C   UNL     1     -10.456   4.759  69.511  1.00  0.00     0.119 C  
HETATM    3  C   UNL     1     -10.359   6.253  69.247  1.00  0.00    -0.266 C  
HETATM    4  C   UNL     1      -9.340   6.796  70.262  1.00  0.00    -0.159 C  
HETATM    5  N   UNL     1      -9.435   5.816  71.435  1.00  0.00    -0.150 N  
HETATM    6  C   UNL     1      -7.937   6.766  69.670  1.00  0.00    -0.124 C  
HETATM    7  C   UNL     1      -7.245   5.397  69.695  1.00  0.00    -0.064 C  
HETATM    8  C   UNL     1      -8.326   5.894  72.503  1.00  0.00    -0.116 C  
HETATM    9  C   UNL     1      -8.967   5.252  73.708  1.00  0.00    -0.123 C  
HETATM   10  C   UNL     1     -10.286   5.977  73.749  1.00  0.00    -0.253 C  
HETATM   11  C   UNL     1      -8.092   4.171  70.070  1.00  0.00    -0.062 C  
HETATM   12  C   UNL     1     -10.726   6.060  72.287  1.00  0.00    -0.230 C  
ENDROOT
BRANCH   7  13
HETATM   13  O   UNL     1      -6.590   5.166  68.441  1.00  0.00    -0.042 OA 
BRANCH  13  14
HETATM   14  C   UNL     1      -7.451   5.185  67.359  1.00  0.00    -0.083 C  
HETATM   15  C   UNL     1      -6.737   5.791  66.098  1.00  0.00    -0.057 C  
HETATM   16  O   UNL     1      -8.608   4.786  67.427  1.00  0.00    -0.105 OA 
HETATM   17  O   UNL     1      -5.400   6.198  66.450  1.00  0.00    -0.012 OA 
HETATM   18  C   UNL     1      -6.663   4.700  65.015  1.00  0.00    -0.045 A  
HETATM   19  C   UNL     1      -7.473   7.086  65.721  1.00  0.00    -0.081 A  
HETATM   20  C   UNL     1      -7.593   8.114  66.684  1.00  0.00    -0.093 A  
HETATM   21  C   UNL     1      -7.833   4.043  64.579  1.00  0.00    -0.085 A  
HETATM   22  H   UNL     1      -4.968   6.565  65.687  1.00  0.00     0.000 HD 
HETATM   23  C   UNL     1      -7.791   3.060  63.588  1.00  0.00    -0.076 A  
HETATM   24  C   UNL     1      -8.381   9.243  66.447  1.00  0.00    -0.120 A  
HETATM   25  C   UNL     1      -6.572   2.701  63.024  1.00  0.00    -0.026 A  
HETATM   26  C   UNL     1      -9.048   9.381  65.236  1.00  0.00    -0.287 A  
HETATM   27  C   UNL     1      -5.402   3.324  63.446  1.00  0.00    -0.009 A  
HETATM   28  C   UNL     1      -8.893   8.413  64.247  1.00  0.00     0.287 A  
HETATM   29  C   UNL     1      -8.099   7.287  64.480  1.00  0.00    -0.071 A  
HETATM   30  C   UNL     1      -5.445   4.318  64.427  1.00  0.00    -0.013 A  
ENDBRANCH  13  14
ENDBRANCH   7  13
TORSDOF 2
ENDMDL
MODEL      160
REMARK 921   NORMALIZED FREE ENERGY PREDICTED BY IDOCK:   -0.04 KCAL/MOL
REMARK 922        TOTAL FREE ENERGY PREDICTED BY IDOCK:   -0.58 KCAL/MOL
REMARK 923 INTER-LIGAND FREE ENERGY PREDICTED BY IDOCK:   -1.33 KCAL/MOL
REMARK 924 INTRA-LIGAND FREE ENERGY PREDICTED BY IDOCK:    0.75 KCAL/MOL
REMARK 927      BINDING AFFINITY PREDICTED BY RF-SCORE:    0.00 PKD
ROOT
HETATM    1  C   UNL     1      -8.604   5.237  69.837  1.00  0.00    -0.102 C  
HETATM    2  C   UNL     1      -9.843   6.030  69.416  1.00  0.00    -0.203 C  
HETATM    3  C   UNL     1      -9.675   7.403  70.045  1.00  0.00    -0.175 C  
HETATM    4  C   UNL     1      -8.354   7.350  70.829  1.00  0.00    -0.119 C  
HETATM    5  N   UNL     1      -8.200   5.869  71.187  1.00  0.00    -0.121 N  
HETATM    6  C   UNL     1      -7.195   7.795  69.945  1.00  0.00    -0.067 C  
HETATM    7  C   UNL     1      -6.670   6.733  68.970  1.00  0.00    -0.059 C  
HETATM    8  C   UNL     1      -6.825   5.416  71.716  1.00  0.00    -0.065 C  
HETATM    9  C   UNL     1      -7.147   4.141  72.456  1.00  0.00    -0.061 C  
HETATM   10  C   UNL     1      -8.315   4.586  73.295  1.00  0.00    -0.099 C  
HETATM   11  C   UNL     1      -7.492   5.444  68.802  1.00  0.00    -0.075 C  
HETATM   12  C   UNL     1      -9.152   5.457  72.360  1.00  0.00    -0.137 C  
ENDROOT
BRANCH   7  13
HETATM   13  O   UNL     1      -6.439   7.329  67.687  1.00  0.00    -0.048 OA 
BRANCH  13  14
HETATM   14  C   UNL     1      -7.520   8.048  67.212  1.00  0.00    -0.093 C  
HETATM   15  C   UNL     1      -7.044   9.405  66.581  1.00  0.00    -0.085 C  
HETATM   16  O   UNL     1      -8.675   7.647  67.305  1.00  0.00    -0.123 OA 
HETATM   17  O   UNL     1      -5.615   9.529  66.725  1.00  0.00    -0.045 OA 
HETATM   18  C   UNL     1      -7.400   9.392  65.083  1.00  0.00    -0.104 A  
HETATM   19  C   UNL     1      -7.640  10.546  67.420  1.00  0.00    -0.094 A  
HETATM   20  C   UNL     1      -7.367  10.596  68.806  1.00  0.00    -0.100 A  
HETATM   21  C   UNL     1      -8.727   9.160  64.664  1.00  0.00    -0.199 A  
HETATM   22  H   UNL     1      -5.327  10.350  66.343  1.00  0.00     0.000 HD 
HETATM   23  C   UNL     1      -9.075   9.156  63.312  1.00  0.00     0.160 A  
HETATM   24  C   UNL     1      -8.004  11.517  69.640  1.00  0.00     0.726 A  
HETATM   25  C   UNL     1      -8.096   9.370  62.348  1.00  0.00    -0.138 A  
HETATM   26  C   UNL     1      -8.913  12.423  69.105  1.00  0.00     0.661 A  
HETATM   27  C   UNL     1      -6.778   9.588  62.734  1.00  0.00    -0.099 A  
HETATM   28  C   UNL     1      -9.149  12.436  67.733  1.00  0.00    -0.193 A  
HETATM   29  C   UNL     1      -8.506  11.520  66.896  1.00  0.00    -0.165 A  
HETATM   30  C   UNL     1      -6.431   9.606  64.087  1.00  0.00    -0.111 A  
ENDBRANCH  13  14
ENDBRANCH   7  13
TORSDOF 2
ENDMDL
MODEL      161
REMARK 921   NORMALIZED FREE ENERGY PREDICTED BY IDOCK:    0.69 KCAL/MOL
REMARK 922        TOTAL FREE ENERGY PREDICTED BY IDOCK:    0.24 KCAL/MOL
REMARK 923 INTER-LIGAND FREE ENERGY PREDICTED BY IDOCK:   -1.97 KCAL/MOL
REMARK 924 INTRA-LIGAND FREE ENERGY PREDICTED BY IDOCK:    2.21 KCAL/MOL
REMARK 927      BINDING AFFINITY PREDICTED BY RF-SCORE:    0.00 PKD
ROOT
HETATM    1  C   UNL     1     -10.662  10.462  67.792  1.00  0.00    -0.279 C  
HETATM    2  C   UNL     1     -11.252  10.282  66.391  1.00  0.00     0.435 C  
HETATM    3  C   UNL     1     -10.097   9.805  65.526  1.00  0.00    -0.242 C  
HETATM    4  C   UNL     1      -8.871   9.748  66.452  1.00  0.00    -0.146 C  
HETATM    5  N   UNL     1      -9.177  10.793  67.528  1.00  0.00    -0.143 N  
HETATM    6  C   UNL     1      -8.750   8.368  67.086  1.00  0.00    -0.131 C  
HETATM    7  C   UNL     1      -9.677   8.114  68.282  1.00  0.00    -0.161 C  
HETATM    8  C   UNL     1      -8.289  10.781  68.788  1.00  0.00    -0.147 C  
HETATM    9  C   UNL     1      -8.461  12.175  69.341  1.00  0.00     1.002 C  
HETATM   10  C   UNL     1      -8.229  13.001  68.104  1.00  0.00    -0.157 C  
HETATM   11  C   UNL     1     -10.781   9.144  68.567  1.00  0.00    -0.160 C  
HETATM   12  C   UNL     1      -8.965  12.250  66.995  1.00  0.00    -0.204 C  
ENDROOT
BRANCH   7  13
HETATM   13  O   UNL     1     -10.253   6.806  68.175  1.00  0.00    -0.156 OA 
BRANCH  13  14
HETATM   14  C   UNL     1      -9.750   5.905  69.095  1.00  0.00    -0.140 C  
HETATM   15  C   UNL     1      -8.189   5.796  68.963  1.00  0.00    -0.101 C  
HETATM   16  O   UNL     1     -10.465   5.288  69.876  1.00  0.00    -0.297 OA 
HETATM   17  O   UNL     1      -7.737   6.637  67.882  1.00  0.00    -0.104 OA 
HETATM   18  C   UNL     1      -7.559   6.286  70.279  1.00  0.00    -0.096 A  
HETATM   19  C   UNL     1      -7.854   4.360  68.532  1.00  0.00    -0.074 A  
HETATM   20  C   UNL     1      -8.423   3.848  67.343  1.00  0.00    -0.103 A  
HETATM   21  C   UNL     1      -7.932   5.707  71.511  1.00  0.00    -0.117 A  
HETATM   22  H   UNL     1      -6.792   6.571  67.803  1.00  0.00     0.000 HD 
HETATM   23  C   UNL     1      -7.364   6.126  72.715  1.00  0.00    -0.089 A  
HETATM   24  C   UNL     1      -8.277   2.506  66.986  1.00  0.00    -0.083 A  
HETATM   25  C   UNL     1      -6.419   7.146  72.714  1.00  0.00    -0.056 A  
HETATM   26  C   UNL     1      -7.542   1.650  67.797  1.00  0.00    -0.054 A  
HETATM   27  C   UNL     1      -6.043   7.742  71.515  1.00  0.00    -0.035 A  
HETATM   28  C   UNL     1      -6.917   2.145  68.939  1.00  0.00    -0.040 A  
HETATM   29  C   UNL     1      -7.056   3.490  69.292  1.00  0.00    -0.045 A  
HETATM   30  C   UNL     1      -6.601   7.314  70.307  1.00  0.00    -0.047 A  
ENDBRANCH  13  14
ENDBRANCH   7  13
TORSDOF 2
ENDMDL
MODEL      162
REMARK 921   NORMALIZED FREE ENERGY PREDICTED BY IDOCK:    0.92 KCAL/MOL
REMARK 922        TOTAL FREE ENERGY PREDICTED BY IDOCK:    0.50 KCAL/MOL
REMARK 923 INTER-LIGAND FREE ENERGY PREDICTED BY IDOCK:    0.93 KCAL/MOL
REMARK 924 INTRA-LIGAND FREE ENERGY PREDICTED BY IDOCK:   -0.43 KCAL/MOL
REMARK 927      BINDING AFFINITY PREDICTED BY RF-SCORE:    0.00 PKD
ROOT
HETATM    1  C   UNL     1      -9.167  15.950  69.011  1.00  0.00    -0.242 C  
HETATM    2  C   UNL     1     -10.253  15.381  69.927  1.00  0.00    -0.279 C  
HETATM    3  C   UNL     1     -11.220  14.658  69.004  1.00  0.00    -0.287 C  
HETATM    4  C   UNL     1     -10.672  14.853  67.581  1.00  0.00    -0.270 C  
HETATM    5  N   UNL     1      -9.894  16.170  67.666  1.00  0.00    -0.234 N  
HETATM    6  C   UNL     1      -9.729  13.714  67.216  1.00  0.00    -0.243 C  
HETATM    7  C   UNL     1      -8.310  13.830  67.788  1.00  0.00    -0.180 C  
HETATM    8  C   UNL     1      -8.962  16.510  66.487  1.00  0.00    -0.278 C  
HETATM    9  C   UNL     1      -8.801  18.006  66.598  1.00  0.00    -0.280 C  
HETATM   10  C   UNL     1     -10.236  18.436  66.743  1.00  0.00    -0.410 C  
HETATM   11  C   UNL     1      -8.048  14.915  68.845  1.00  0.00    -0.165 C  
HETATM   12  C   UNL     1     -10.854  17.407  67.689  1.00  0.00    -0.233 C  
ENDROOT
BRANCH   7  13
HETATM   13  O   UNL     1      -7.888  12.555  68.290  1.00  0.00    -0.130 OA 
BRANCH  13  14
HETATM   14  C   UNL     1      -8.778  11.533  68.015  1.00  0.00    -0.151 C  
HETATM   15  C   UNL     1      -9.159  10.766  69.331  1.00  0.00     0.040 C  
HETATM   16  O   UNL     1      -9.175  11.289  66.882  1.00  0.00    -0.169 OA 
HETATM   17  O   UNL     1      -8.429  11.323  70.443  1.00  0.00     1.222 OA 
HETATM   18  C   UNL     1     -10.668  10.949  69.577  1.00  0.00    -0.251 A  
HETATM   19  C   UNL     1      -8.654   9.321  69.193  1.00  0.00    -0.134 A  
HETATM   20  C   UNL     1      -7.282   9.093  68.944  1.00  0.00    -0.073 A  
HETATM   21  C   UNL     1     -11.603  10.596  68.581  1.00  0.00    -0.297 A  
HETATM   22  H   UNL     1      -8.660  10.858  71.239  1.00  0.00     0.000 HD 
HETATM   23  C   UNL     1     -12.976  10.741  68.787  1.00  0.00     2.401 A  
HETATM   24  C   UNL     1      -6.797   7.814  68.658  1.00  0.00    -0.062 A  
HETATM   25  C   UNL     1     -13.442  11.258  69.990  1.00  0.00     1.440 A  
HETATM   26  C   UNL     1      -7.670   6.732  68.636  1.00  0.00    -0.113 A  
HETATM   27  C   UNL     1     -12.540  11.626  70.983  1.00  0.00    -0.431 A  
HETATM   28  C   UNL     1      -9.014   6.921  68.943  1.00  0.00    -0.131 A  
HETATM   29  C   UNL     1      -9.498   8.200  69.237  1.00  0.00    -0.159 A  
HETATM   30  C   UNL     1     -11.166  11.469  70.784  1.00  0.00     1.028 A  
ENDBRANCH  13  14
ENDBRANCH   7  13
TORSDOF 2
ENDMDL
MODEL      163
REMARK 921   NORMALIZED FREE ENERGY PREDICTED BY IDOCK:    1.12 KCAL/MOL
REMARK 922        TOTAL FREE ENERGY PREDICTED BY IDOCK:    0.72 KCAL/MOL
REMARK 923 INTER-LIGAND FREE ENERGY PREDICTED BY IDOCK:   -2.94 KCAL/MOL
REMARK 924 INTRA-LIGAND FREE ENERGY PREDICTED BY IDOCK:    3.65 KCAL/MOL
REMARK 927      BINDING AFFINITY PREDICTED BY RF-SCORE:    0.00 PKD
ROOT
HETATM    1  C   UNL     1      -9.911  14.464  66.715  1.00  0.00    -0.263 C  
HETATM    2  C   UNL     1     -10.275  15.669  67.586  1.00  0.00    -0.261 C  
HETATM    3  C   UNL     1     -11.680  15.390  68.092  1.00  0.00    -0.276 C  
HETATM    4  C   UNL     1     -12.091  14.042  67.479  1.00  0.00    -0.326 C  
HETATM    5  N   UNL     1     -11.273  13.965  66.186  1.00  0.00    -0.299 N  
HETATM    6  C   UNL     1     -11.706  12.898  68.408  1.00  0.00    -0.382 C  
HETATM    7  C   UNL     1     -10.230  12.482  68.357  1.00  0.00    -0.228 C  
HETATM    8  C   UNL     1     -11.217  12.599  65.474  1.00  0.00    -0.302 C  
HETATM    9  C   UNL     1     -10.846  12.967  64.058  1.00  0.00    -0.443 C  
HETATM   10  C   UNL     1     -11.836  14.067  63.783  1.00  0.00    -0.160 C  
HETATM   11  C   UNL     1      -9.254  13.388  67.588  1.00  0.00    -0.212 C  
HETATM   12  C   UNL     1     -11.867  14.889  65.071  1.00  0.00    -0.299 C  
ENDROOT
BRANCH   7  13
HETATM   13  O   UNL     1      -9.743  12.270  69.688  1.00  0.00     1.020 OA 
BRANCH  13  14
HETATM   14  C   UNL     1      -9.624  10.934  70.025  1.00  0.00     0.912 C  
HETATM   15  C   UNL     1     -10.790  10.099  69.385  1.00  0.00    -0.241 C  
HETATM   16  O   UNL     1      -8.724  10.510  70.740  1.00  0.00     1.011 OA 
HETATM   17  O   UNL     1     -11.677  10.979  68.668  1.00  0.00    -0.316 OA 
HETATM   18  C   UNL     1     -10.175   9.090  68.398  1.00  0.00    -0.232 A  
HETATM   19  C   UNL     1     -11.631   9.515  70.531  1.00  0.00    -0.316 A  
HETATM   20  C   UNL     1     -12.202  10.392  71.481  1.00  0.00    -0.418 A  
HETATM   21  C   UNL     1      -9.177   8.189  68.824  1.00  0.00    -0.144 A  
HETATM   22  H   UNL     1     -12.382  10.474  68.280  1.00  0.00     0.000 HD 
HETATM   23  C   UNL     1      -8.614   7.257  67.950  1.00  0.00    -0.120 A  
HETATM   24  C   UNL     1     -12.843   9.908  72.624  1.00  0.00     0.222 A  
HETATM   25  C   UNL     1      -9.029   7.218  66.623  1.00  0.00    -0.170 A  
HETATM   26  C   UNL     1     -12.948   8.538  72.831  1.00  0.00     0.100 A  
HETATM   27  C   UNL     1     -10.002   8.105  66.174  1.00  0.00    -0.017 A  
HETATM   28  C   UNL     1     -12.452   7.654  71.877  1.00  0.00    -0.338 A  
HETATM   29  C   UNL     1     -11.816   8.137  70.730  1.00  0.00    -0.167 A  
HETATM   30  C   UNL     1     -10.575   9.029  67.052  1.00  0.00    -0.270 A  
ENDBRANCH  13  14
ENDBRANCH   7  13
TORSDOF 2
ENDMDL
MODEL      164
REMARK 921   NORMALIZED FREE ENERGY PREDICTED BY IDOCK:    1.58 KCAL/MOL
REMARK 922        TOTAL FREE ENERGY PREDICTED BY IDOCK:    1.24 KCAL/MOL
REMARK 923 INTER-LIGAND FREE ENERGY PREDICTED BY IDOCK:    0.26 KCAL/MOL
REMARK 924 INTRA-LIGAND FREE ENERGY PREDICTED BY IDOCK:    0.98 KCAL/MOL
REMARK 927      BINDING AFFINITY PREDICTED BY RF-SCORE:    0.00 PKD
ROOT
HETATM    1  C   UNL     1      -8.598  11.542  63.625  1.00  0.00     0.580 C  
HETATM    2  C   UNL     1      -9.519  11.040  62.511  1.00  0.00    -0.263 C  
HETATM    3  C   UNL     1      -9.772   9.575  62.826  1.00  0.00     0.833 C  
HETATM    4  C   UNL     1      -8.969   9.273  64.102  1.00  0.00    -0.081 C  
HETATM    5  N   UNL     1      -7.818  10.281  64.056  1.00  0.00    -0.144 N  
HETATM    6  C   UNL     1      -9.826   9.518  65.338  1.00  0.00    -0.248 C  
HETATM    7  C   UNL     1      -9.962  10.987  65.760  1.00  0.00    -0.244 C  
HETATM    8  C   UNL     1      -6.988  10.456  65.343  1.00  0.00    -0.118 C  
HETATM    9  C   UNL     1      -5.691  11.038  64.838  1.00  0.00     0.280 C  
HETATM   10  C   UNL     1      -5.379  10.096  63.706  1.00  0.00    -0.119 C  
HETATM   11  C   UNL     1      -9.448  12.063  64.790  1.00  0.00     0.090 C  
HETATM   12  C   UNL     1      -6.723   9.860  63.018  1.00  0.00    -0.123 C  
ENDROOT
BRANCH   7  13
HETATM   13  O   UNL     1     -11.324  11.263  66.109  1.00  0.00    -0.199 OA 
BRANCH  13  14
HETATM   14  C   UNL     1     -11.453  12.074  67.222  1.00  0.00    -0.335 C  
HETATM   15  C   UNL     1     -10.548  11.551  68.393  1.00  0.00    -0.201 C  
HETATM   16  O   UNL     1     -12.197  13.048  67.248  1.00  0.00    -0.301 OA 
HETATM   17  O   UNL     1      -9.877  10.343  67.982  1.00  0.00    -0.148 OA 
HETATM   18  C   UNL     1      -9.495  12.629  68.708  1.00  0.00     0.112 A  
HETATM   19  C   UNL     1     -11.471  11.133  69.549  1.00  0.00    -0.374 A  
HETATM   20  C   UNL     1     -12.473  10.164  69.312  1.00  0.00     0.706 A  
HETATM   21  C   UNL     1      -9.891  13.947  69.019  1.00  0.00     0.047 A  
HETATM   22  H   UNL     1      -9.329  10.027  68.691  1.00  0.00     0.000 HD 
HETATM   23  C   UNL     1      -8.955  14.938  69.321  1.00  0.00    -0.099 A  
HETATM   24  C   UNL     1     -13.434   9.861  70.279  1.00  0.00     0.477 A  
HETATM   25  C   UNL     1      -7.598  14.633  69.300  1.00  0.00    -0.113 A  
HETATM   26  C   UNL     1     -13.403  10.504  71.511  1.00  0.00    -0.387 A  
HETATM   27  C   UNL     1      -7.181  13.345  68.983  1.00  0.00    -0.018 A  
HETATM   28  C   UNL     1     -12.388  11.414  71.791  1.00  0.00     0.089 A  
HETATM   29  C   UNL     1     -11.421  11.712  70.826  1.00  0.00     0.577 A  
HETATM   30  C   UNL     1      -8.118  12.349  68.695  1.00  0.00    -0.020 A  
ENDBRANCH  13  14
ENDBRANCH   7  13
TORSDOF 2
ENDMDL
MODEL      165
REMARK 921   NORMALIZED FREE ENERGY PREDICTED BY IDOCK:    2.92 KCAL/MOL
REMARK 922        TOTAL FREE ENERGY PREDICTED BY IDOCK:    2.73 KCAL/MOL
REMARK 923 INTER-LIGAND FREE ENERGY PREDICTED BY IDOCK:    2.02 KCAL/MOL
REMARK 924 INTRA-LIGAND FREE ENERGY PREDICTED BY IDOCK:    0.71 KCAL/MOL
REMARK 927      BINDING AFFINITY PREDICTED BY RF-SCORE:    0.00 PKD
ROOT
HETATM    1  C   UNL     1     -12.548  11.657  69.254  1.00  0.00     0.410 C  
HETATM    2  C   UNL     1     -12.443  12.388  67.913  1.00  0.00     0.892 C  
HETATM    3  C   UNL     1     -11.337  13.414  68.099  1.00  0.00    -0.321 C  
HETATM    4  C   UNL     1     -10.854  13.256  69.550  1.00  0.00     0.162 C  
HETATM    5  N   UNL     1     -12.080  12.706  70.286  1.00  0.00    -0.341 N  
HETATM    6  C   UNL     1      -9.711  12.252  69.621  1.00  0.00     1.541 C  
HETATM    7  C   UNL     1     -10.132  10.777  69.592  1.00  0.00    -0.011 C  
HETATM    8  C   UNL     1     -11.853  12.147  71.704  1.00  0.00     1.706 C  
HETATM    9  C   UNL     1     -13.228  12.212  72.321  1.00  0.00    -0.286 C  
HETATM   10  C   UNL     1     -13.625  13.623  71.981  1.00  0.00    -0.585 C  
HETATM   11  C   UNL     1     -11.597  10.455  69.252  1.00  0.00    -0.246 C  
HETATM   12  C   UNL     1     -13.147  13.823  70.543  1.00  0.00     0.051 C  
ENDROOT
BRANCH   7  13
HETATM   13  O   UNL     1      -9.263  10.045  68.718  1.00  0.00    -0.146 OA 
BRANCH  13  14
HETATM   14  C   UNL     1      -8.676  10.828  67.742  1.00  0.00    -0.130 C  
HETATM   15  C   UNL     1      -7.120  10.618  67.726  1.00  0.00    -0.083 C  
HETATM   16  O   UNL     1      -9.323  11.580  67.020  1.00  0.00    -0.173 OA 
HETATM   17  O   UNL     1      -6.747   9.700  68.773  1.00  0.00    -0.051 OA 
HETATM   18  C   UNL     1      -6.728  10.016  66.365  1.00  0.00    -0.088 A  
HETATM   19  C   UNL     1      -6.463  11.955  68.102  1.00  0.00    -0.052 A  
HETATM   20  C   UNL     1      -6.803  12.567  69.330  1.00  0.00     0.033 A  
HETATM   21  C   UNL     1      -7.091  10.662  65.165  1.00  0.00     0.064 A  
HETATM   22  H   UNL     1      -5.806   9.572  68.764  1.00  0.00     0.000 HD 
HETATM   23  C   UNL     1      -6.735  10.141  63.919  1.00  0.00    -0.111 A  
HETATM   24  C   UNL     1      -6.356  13.851  69.651  1.00  0.00    -0.123 A  
HETATM   25  C   UNL     1      -6.020   8.951  63.849  1.00  0.00    -0.072 A  
HETATM   26  C   UNL     1      -5.542  14.543  68.762  1.00  0.00    -0.087 A  
HETATM   27  C   UNL     1      -5.662   8.286  65.017  1.00  0.00    -0.044 A  
HETATM   28  C   UNL     1      -5.140  13.936  67.576  1.00  0.00     0.198 A  
HETATM   29  C   UNL     1      -5.581  12.648  67.257  1.00  0.00    -0.034 A  
HETATM   30  C   UNL     1      -6.005   8.814  66.265  1.00  0.00    -0.051 A  
ENDBRANCH  13  14
ENDBRANCH   7  13
TORSDOF 2
ENDMDL
MODEL      166
REMARK 921   NORMALIZED FREE ENERGY PREDICTED BY IDOCK:    3.81 KCAL/MOL
REMARK 922        TOTAL FREE ENERGY PREDICTED BY IDOCK:    3.72 KCAL/MOL
REMARK 923 INTER-LIGAND FREE ENERGY PREDICTED BY IDOCK:    2.13 KCAL/MOL
REMARK 924 INTRA-LIGAND FREE ENERGY PREDICTED BY IDOCK:    1.59 KCAL/MOL
REMARK 927      BINDING AFFINITY PREDICTED BY RF-SCORE:    0.00 PKD
ROOT
HETATM    1  C   UNL     1      -9.317  14.823  69.057  1.00  0.00    -0.160 C  
HETATM    2  C   UNL     1     -10.253  13.767  68.466  1.00  0.00    -0.235 C  
HETATM    3  C   UNL     1      -9.436  13.056  67.400  1.00  0.00    -0.210 C  
HETATM    4  C   UNL     1      -8.060  13.742  67.395  1.00  0.00    -0.177 C  
HETATM    5  N   UNL     1      -8.356  15.158  67.896  1.00  0.00    -0.145 N  
HETATM    6  C   UNL     1      -7.113  13.036  68.358  1.00  0.00    -0.103 C  
HETATM    7  C   UNL     1      -7.298  13.395  69.838  1.00  0.00     0.873 C  
HETATM    8  C   UNL     1      -7.147  16.024  68.301  1.00  0.00    -0.120 C  
HETATM    9  C   UNL     1      -7.687  17.430  68.207  1.00  0.00    -0.241 C  
HETATM   10  C   UNL     1      -8.334  17.395  66.849  1.00  0.00    -0.260 C  
HETATM   11  C   UNL     1      -8.539  14.213  70.230  1.00  0.00     2.189 C  
HETATM   12  C   UNL     1      -9.027  16.035  66.786  1.00  0.00    -0.246 C  
ENDROOT
BRANCH   7  13
HETATM   13  O   UNL     1      -7.233  12.205  70.634  1.00  0.00     1.503 OA 
BRANCH  13  14
HETATM   14  C   UNL     1      -7.542  11.055  69.931  1.00  0.00     0.385 C  
HETATM   15  C   UNL     1      -6.281  10.127  69.812  1.00  0.00    -0.058 C  
HETATM   16  O   UNL     1      -8.657  10.841  69.470  1.00  0.00    -0.045 OA 
HETATM   17  O   UNL     1      -5.149  10.769  70.433  1.00  0.00    -0.050 OA 
HETATM   18  C   UNL     1      -6.580   8.809  70.551  1.00  0.00    -0.042 A  
HETATM   19  C   UNL     1      -5.921  10.014  68.322  1.00  0.00    -0.042 A  
HETATM   20  C   UNL     1      -5.659  11.192  67.587  1.00  0.00    -0.041 A  
HETATM   21  C   UNL     1      -7.717   8.044  70.217  1.00  0.00    -0.086 A  
HETATM   22  H   UNL     1      -4.386  10.207  70.361  1.00  0.00     0.000 HD 
HETATM   23  C   UNL     1      -8.001   6.840  70.863  1.00  0.00    -0.106 A  
HETATM   24  C   UNL     1      -5.479  11.161  66.202  1.00  0.00    -0.143 A  
HETATM   25  C   UNL     1      -7.160   6.384  71.873  1.00  0.00    -0.081 A  
HETATM   26  C   UNL     1      -5.536   9.949  65.524  1.00  0.00    -0.061 A  
HETATM   27  C   UNL     1      -6.039   7.127  72.230  1.00  0.00    -0.041 A  
HETATM   28  C   UNL     1      -5.728   8.767  66.235  1.00  0.00    -0.050 A  
HETATM   29  C   UNL     1      -5.900   8.797  67.622  1.00  0.00    -0.040 A  
HETATM   30  C   UNL     1      -5.747   8.325  71.573  1.00  0.00    -0.036 A  
ENDBRANCH  13  14
ENDBRANCH   7  13
TORSDOF 2
ENDMDL
MODEL      167
REMARK 921   NORMALIZED FREE ENERGY PREDICTED BY IDOCK:    5.20 KCAL/MOL
REMARK 922        TOTAL FREE ENERGY PREDICTED BY IDOCK:    5.28 KCAL/MOL
REMARK 923 INTER-LIGAND FREE ENERGY PREDICTED BY IDOCK:    2.25 KCAL/MOL
REMARK 924 INTRA-LIGAND FREE ENERGY PREDICTED BY IDOCK:    3.02 KCAL/MOL
REMARK 927      BINDING AFFINITY PREDICTED BY RF-SCORE:    0.00 PKD
ROOT
HETATM    1  C   UNL     1      -7.649  20.370  68.247  1.00  0.00    -0.033 C  
HETATM    2  C   UNL     1      -8.963  21.151  68.180  1.00  0.00     0.651 C  
HETATM    3  C   UNL     1      -9.798  20.445  67.124  1.00  0.00    -0.601 C  
HETATM    4  C   UNL     1      -8.928  19.291  66.600  1.00  0.00    -0.338 C  
HETATM    5  N   UNL     1      -7.495  19.780  66.829  1.00  0.00    -0.240 N  
HETATM    6  C   UNL     1      -9.182  18.026  67.411  1.00  0.00    -0.253 C  
HETATM    7  C   UNL     1      -8.465  17.963  68.766  1.00  0.00    -0.205 C  
HETATM    8  C   UNL     1      -6.369  18.737  66.692  1.00  0.00    -0.186 C  
HETATM    9  C   UNL     1      -5.148  19.585  66.430  1.00  0.00    -0.163 C  
HETATM   10  C   UNL     1      -5.657  20.485  65.336  1.00  0.00    -0.228 C  
HETATM   11  C   UNL     1      -7.782  19.242  69.278  1.00  0.00    -0.190 C  
HETATM   12  C   UNL     1      -7.075  20.853  65.768  1.00  0.00     0.137 C  
ENDROOT
BRANCH   7  13
HETATM   13  O   UNL     1      -9.366  17.466  69.764  1.00  0.00     0.528 OA 
BRANCH  13  14
HETATM   14  C   UNL     1      -9.192  16.123  70.042  1.00  0.00     0.693 C  
HETATM   15  C   UNL     1      -9.296  15.269  68.728  1.00  0.00    -0.210 C  
HETATM   16  O   UNL     1      -8.999  15.701  71.177  1.00  0.00     2.337 OA 
HETATM   17  O   UNL     1      -9.593  16.134  67.613  1.00  0.00    -0.221 OA 
HETATM   18  C   UNL     1      -7.938  14.585  68.487  1.00  0.00    -0.142 A  
HETATM   19  C   UNL     1     -10.517  14.346  68.865  1.00  0.00    -0.246 A  
HETATM   20  C   UNL     1     -11.787  14.916  69.110  1.00  0.00    -0.340 A  
HETATM   21  C   UNL     1      -7.357  13.776  69.486  1.00  0.00     0.269 A  
HETATM   22  H   UNL     1      -9.656  15.618  66.818  1.00  0.00     0.000 HD 
HETATM   23  C   UNL     1      -6.133  13.136  69.285  1.00  0.00    -0.098 A  
HETATM   24  C   UNL     1     -12.899  14.121  69.395  1.00  0.00     0.558 A  
HETATM   25  C   UNL     1      -5.455  13.306  68.082  1.00  0.00    -0.100 A  
HETATM   26  C   UNL     1     -12.772  12.737  69.420  1.00  0.00     0.718 A  
HETATM   27  C   UNL     1      -6.001  14.110  67.086  1.00  0.00     0.827 A  
HETATM   28  C   UNL     1     -11.547  12.149  69.118  1.00  0.00    -0.374 A  
HETATM   29  C   UNL     1     -10.435  12.945  68.825  1.00  0.00    -0.183 A  
HETATM   30  C   UNL     1      -7.232  14.740  67.281  1.00  0.00    -0.114 A  
ENDBRANCH  13  14
ENDBRANCH   7  13
TORSDOF 2
ENDMDL
MODEL      168
REMARK 921   NORMALIZED FREE ENERGY PREDICTED BY IDOCK:    5.97 KCAL/MOL
REMARK 922        TOTAL FREE ENERGY PREDICTED BY IDOCK:    6.14 KCAL/MOL
REMARK 923 INTER-LIGAND FREE ENERGY PREDICTED BY IDOCK:    2.49 KCAL/MOL
REMARK 924 INTRA-LIGAND FREE ENERGY PREDICTED BY IDOCK:    3.65 KCAL/MOL
REMARK 927      BINDING AFFINITY PREDICTED BY RF-SCORE:    0.00 PKD
ROOT
HETATM    1  C   UNL     1     -10.501  13.401  66.341  1.00  0.00    -0.286 C  
HETATM    2  C   UNL     1     -10.307  14.255  67.596  1.00  0.00    -0.248 C  
HETATM    3  C   UNL     1     -10.933  13.457  68.727  1.00  0.00    -0.290 C  
HETATM    4  C   UNL     1     -11.488  12.175  68.084  1.00  0.00    -0.317 C  
HETATM    5  N   UNL     1     -11.781  12.590  66.639  1.00  0.00    -0.388 N  
HETATM    6  C   UNL     1     -10.437  11.073  68.107  1.00  0.00    -0.216 C  
HETATM    7  C   UNL     1      -9.365  11.169  67.013  1.00  0.00    -0.170 C  
HETATM    8  C   UNL     1     -12.067  11.460  65.631  1.00  0.00     1.199 C  
HETATM    9  C   UNL     1     -12.819  12.166  64.530  1.00  0.00    -0.130 C  
HETATM   10  C   UNL     1     -13.848  12.920  65.327  1.00  0.00     3.056 C  
HETATM   11  C   UNL     1      -9.302  12.458  66.179  1.00  0.00    -0.155 C  
HETATM   12  C   UNL     1     -13.084  13.453  66.539  1.00  0.00     1.354 C  
ENDROOT
BRANCH   7  13
HETATM   13  O   UNL     1      -8.076  10.897  67.578  1.00  0.00    -0.114 OA 
BRANCH  13  14
HETATM   14  C   UNL     1      -7.856   9.556  67.830  1.00  0.00    -0.095 C  
HETATM   15  C   UNL     1      -8.564   8.668  66.745  1.00  0.00    -0.120 C  
HETATM   16  O   UNL     1      -7.203   9.161  68.790  1.00  0.00    -0.072 OA 
HETATM   17  O   UNL     1      -9.281   9.514  65.823  1.00  0.00    -0.178 OA 
HETATM   18  C   UNL     1      -7.480   7.891  65.976  1.00  0.00    -0.078 A  
HETATM   19  C   UNL     1      -9.640   7.831  67.454  1.00  0.00    -0.192 A  
HETATM   20  C   UNL     1     -10.646   8.490  68.195  1.00  0.00    -0.181 A  
HETATM   21  C   UNL     1      -6.556   7.079  66.666  1.00  0.00    -0.052 A  
HETATM   22  H   UNL     1      -9.709   8.976  65.167  1.00  0.00     0.000 HD 
HETATM   23  C   UNL     1      -5.573   6.355  65.989  1.00  0.00    -0.014 A  
HETATM   24  C   UNL     1     -11.554   7.777  68.981  1.00  0.00     0.914 A  
HETATM   25  C   UNL     1      -5.485   6.441  64.603  1.00  0.00    -0.022 A  
HETATM   26  C   UNL     1     -11.489   6.390  69.029  1.00  0.00    -0.203 A  
HETATM   27  C   UNL     1      -6.376   7.245  63.900  1.00  0.00    -0.044 A  
HETATM   28  C   UNL     1     -10.548   5.715  68.257  1.00  0.00    -0.253 A  
HETATM   29  C   UNL     1      -9.645   6.427  67.463  1.00  0.00    -0.129 A  
HETATM   30  C   UNL     1      -7.369   7.959  64.576  1.00  0.00    -0.086 A  
ENDBRANCH  13  14
ENDBRANCH   7  13
TORSDOF 2
ENDMDL
MODEL      169
REMARK 921   NORMALIZED FREE ENERGY PREDICTED BY IDOCK:    6.42 KCAL/MOL
REMARK 922        TOTAL FREE ENERGY PREDICTED BY IDOCK:    6.64 KCAL/MOL
REMARK 923 INTER-LIGAND FREE ENERGY PREDICTED BY IDOCK:   -2.60 KCAL/MOL
REMARK 924 INTRA-LIGAND FREE ENERGY PREDICTED BY IDOCK:    9.24 KCAL/MOL
REMARK 927      BINDING AFFINITY PREDICTED BY RF-SCORE:    0.00 PKD
ROOT
HETATM    1  C   UNL     1     -10.423  15.149  66.337  1.00  0.00    -0.297 C  
HETATM    2  C   UNL     1     -10.786  15.772  67.687  1.00  0.00    -0.310 C  
HETATM    3  C   UNL     1     -11.477  14.667  68.468  1.00  0.00    -0.327 C  
HETATM    4  C   UNL     1     -11.509  13.446  67.534  1.00  0.00    -0.323 C  
HETATM    5  N   UNL     1     -11.497  14.060  66.131  1.00  0.00    -0.335 N  
HETATM    6  C   UNL     1     -10.266  12.590  67.738  1.00  0.00    -0.217 C  
HETATM    7  C   UNL     1      -8.998  13.100  67.042  1.00  0.00    -0.228 C  
HETATM    8  C   UNL     1     -11.218  13.106  64.952  1.00  0.00    -0.310 C  
HETATM    9  C   UNL     1     -11.797  13.845  63.771  1.00  0.00    -0.234 C  
HETATM   10  C   UNL     1     -13.154  14.216  64.305  1.00  0.00     0.839 C  
HETATM   11  C   UNL     1      -9.032  14.511  66.431  1.00  0.00    -0.153 C  
HETATM   12  C   UNL     1     -12.896  14.651  65.747  1.00  0.00     0.112 C  
ENDROOT
BRANCH   7  13
HETATM   13  O   UNL     1      -7.881  12.988  67.933  1.00  0.00    -0.122 OA 
BRANCH  13  14
HETATM   14  C   UNL     1      -7.893  11.830  68.688  1.00  0.00    -0.117 C  
HETATM   15  C   UNL     1      -8.433  10.624  67.839  1.00  0.00    -0.120 C  
HETATM   16  O   UNL     1      -7.536  11.800  69.861  1.00  0.00     0.576 OA 
HETATM   17  O   UNL     1      -8.807  11.088  66.526  1.00  0.00    -0.158 OA 
HETATM   18  C   UNL     1      -7.306   9.585  67.705  1.00  0.00    -0.083 A  
HETATM   19  C   UNL     1      -9.740  10.142  68.489  1.00  0.00    -0.161 A  
HETATM   20  C   UNL     1     -10.802  11.058  68.660  1.00  0.00    -0.256 A  
HETATM   21  C   UNL     1      -6.675   9.060  68.852  1.00  0.00    -0.053 A  
HETATM   22  H   UNL     1      -9.133  10.358  66.013  1.00  0.00     0.000 HD 
HETATM   23  C   UNL     1      -5.659   8.108  68.755  1.00  0.00    -0.035 A  
HETATM   24  C   UNL     1     -11.949  10.716  69.380  1.00  0.00    -0.298 A  
HETATM   25  C   UNL     1      -5.241   7.671  67.503  1.00  0.00    -0.030 A  
HETATM   26  C   UNL     1     -12.069   9.444  69.927  1.00  0.00     0.419 A  
HETATM   27  C   UNL     1      -5.838   8.182  66.355  1.00  0.00    -0.041 A  
HETATM   28  C   UNL     1     -11.065   8.503  69.717  1.00  0.00    -0.067 A  
HETATM   29  C   UNL     1      -9.921   8.842  68.990  1.00  0.00    -0.195 A  
HETATM   30  C   UNL     1      -6.864   9.125  66.452  1.00  0.00    -0.079 A  
ENDBRANCH  13  14
ENDBRANCH   7  13
TORSDOF 2
ENDMDL
MODEL      170
REMARK 921   NORMALIZED FREE ENERGY PREDICTED BY IDOCK:    6.89 KCAL/MOL
REMARK 922        TOTAL FREE ENERGY PREDICTED BY IDOCK:    7.16 KCAL/MOL
REMARK 923 INTER-LIGAND FREE ENERGY PREDICTED BY IDOCK:    5.18 KCAL/MOL
REMARK 924 INTRA-LIGAND FREE ENERGY PREDICTED BY IDOCK:    1.98 KCAL/MOL
REMARK 927      BINDING AFFINITY PREDICTED BY RF-SCORE:    0.00 PKD
ROOT
HETATM    1  C   UNL     1      -7.329  12.687  70.023  1.00  0.00     1.418 C  
HETATM    2  C   UNL     1      -7.178  13.470  71.330  1.00  0.00     3.772 C  
HETATM    3  C   UNL     1      -5.778  14.058  71.287  1.00  0.00    -0.232 C  
HETATM    4  C   UNL     1      -5.157  13.576  69.966  1.00  0.00    -0.085 C  
HETATM    5  N   UNL     1      -5.886  12.260  69.678  1.00  0.00    -0.099 N  
HETATM    6  C   UNL     1      -5.434  14.579  68.853  1.00  0.00    -0.087 C  
HETATM    7  C   UNL     1      -6.836  14.499  68.235  1.00  0.00    -0.113 C  
HETATM    8  C   UNL     1      -5.719  11.662  68.268  1.00  0.00    -0.045 C  
HETATM    9  C   UNL     1      -6.059  10.206  68.472  1.00  0.00    -0.044 C  
HETATM   10  C   UNL     1      -5.213   9.883  69.675  1.00  0.00    -0.034 C  
HETATM   11  C   UNL     1      -7.882  13.616  68.935  1.00  0.00     0.035 C  
HETATM   12  C   UNL     1      -5.362  11.099  70.588  1.00  0.00    -0.119 C  
ENDROOT
BRANCH   7  13
HETATM   13  O   UNL     1      -7.361  15.821  68.059  1.00  0.00    -0.116 OA 
BRANCH  13  14
HETATM   14  C   UNL     1      -8.503  15.862  67.282  1.00  0.00    -0.184 C  
HETATM   15  C   UNL     1      -9.766  16.148  68.171  1.00  0.00    -0.222 C  
HETATM   16  O   UNL     1      -8.486  15.679  66.070  1.00  0.00    -0.169 OA 
HETATM   17  O   UNL     1      -9.370  16.238  69.555  1.00  0.00    -0.186 OA 
HETATM   18  C   UNL     1     -10.371  17.493  67.732  1.00  0.00    -0.367 A  
HETATM   19  C   UNL     1     -10.685  14.919  68.088  1.00  0.00    -0.251 A  
HETATM   20  C   UNL     1     -10.177  13.653  68.456  1.00  0.00    -0.234 A  
HETATM   21  C   UNL     1     -10.730  17.711  66.385  1.00  0.00    -0.093 A  
HETATM   22  H   UNL     1     -10.134  16.411  70.093  1.00  0.00     0.000 HD 
HETATM   23  C   UNL     1     -11.292  18.918  65.966  1.00  0.00     0.915 A  
HETATM   24  C   UNL     1     -10.916  12.486  68.255  1.00  0.00    -0.270 A  
HETATM   25  C   UNL     1     -11.493  19.942  66.886  1.00  0.00     0.716 A  
HETATM   26  C   UNL     1     -12.189  12.560  67.701  1.00  0.00     0.115 A  
HETATM   27  C   UNL     1     -11.135  19.757  68.218  1.00  0.00     0.586 A  
HETATM   28  C   UNL     1     -12.737  13.801  67.390  1.00  0.00     0.635 A  
HETATM   29  C   UNL     1     -12.000  14.970  67.599  1.00  0.00    -0.093 A  
HETATM   30  C   UNL     1     -10.585  18.544  68.640  1.00  0.00     0.034 A  
ENDBRANCH  13  14
ENDBRANCH   7  13
TORSDOF 2
ENDMDL
MODEL      171
REMARK 921   NORMALIZED FREE ENERGY PREDICTED BY IDOCK:    7.35 KCAL/MOL
REMARK 922        TOTAL FREE ENERGY PREDICTED BY IDOCK:    7.67 KCAL/MOL
REMARK 923 INTER-LIGAND FREE ENERGY PREDICTED BY IDOCK:   -3.04 KCAL/MOL
REMARK 924 INTRA-LIGAND FREE ENERGY PREDICTED BY IDOCK:   10.71 KCAL/MOL
REMARK 927      BINDING AFFINITY PREDICTED BY RF-SCORE:    0.00 PKD
ROOT
HETATM    1  C   UNL     1      -8.565   5.419  69.716  1.00  0.00    -0.100 C  
HETATM    2  C   UNL     1      -9.772   6.221  69.224  1.00  0.00    -0.157 C  
HETATM    3  C   UNL     1      -9.730   7.529  69.997  1.00  0.00    -0.172 C  
HETATM    4  C   UNL     1      -8.511   7.430  70.928  1.00  0.00    -0.123 C  
HETATM    5  N   UNL     1      -8.349   5.924  71.159  1.00  0.00    -0.122 N  
HETATM    6  C   UNL     1      -7.271   7.987  70.239  1.00  0.00    -0.053 C  
HETATM    7  C   UNL     1      -6.596   7.039  69.239  1.00  0.00    -0.045 C  
HETATM    8  C   UNL     1      -7.032   5.453  71.807  1.00  0.00    -0.071 C  
HETATM    9  C   UNL     1      -7.395   4.104  72.376  1.00  0.00    -0.067 C  
HETATM   10  C   UNL     1      -8.669   4.436  73.105  1.00  0.00    -0.107 C  
HETATM   11  C   UNL     1      -7.345   5.754  68.849  1.00  0.00    -0.083 C  
HETATM   12  C   UNL     1      -9.419   5.376  72.162  1.00  0.00    -0.143 C  
ENDROOT
BRANCH   7  13
HETATM   13  O   UNL     1      -6.235   7.764  68.057  1.00  0.00    -0.043 OA 
BRANCH  13  14
HETATM   14  C   UNL     1      -6.290   7.002  66.905  1.00  0.00    -0.052 C  
HETATM   15  C   UNL     1      -7.728   7.059  66.276  1.00  0.00    -0.094 C  
HETATM   16  O   UNL     1      -5.327   6.375  66.479  1.00  0.00    -0.012 OA 
HETATM   17  O   UNL     1      -8.590   7.854  67.114  1.00  0.00    -0.125 OA 
HETATM   18  C   UNL     1      -7.623   7.720  64.890  1.00  0.00    -0.102 A  
HETATM   19  C   UNL     1      -8.314   5.638  66.318  1.00  0.00    -0.114 A  
HETATM   20  C   UNL     1      -8.413   4.972  67.561  1.00  0.00    -0.105 A  
HETATM   21  C   UNL     1      -6.743   7.205  63.916  1.00  0.00    -0.044 A  
HETATM   22  H   UNL     1      -9.460   7.888  66.733  1.00  0.00     0.000 HD 
HETATM   23  C   UNL     1      -6.641   7.780  62.648  1.00  0.00    -0.076 A  
HETATM   24  C   UNL     1      -8.792   3.630  67.638  1.00  0.00    -0.143 A  
HETATM   25  C   UNL     1      -7.408   8.896  62.333  1.00  0.00    -0.099 A  
HETATM   26  C   UNL     1      -9.100   2.930  66.478  1.00  0.00    -0.153 A  
HETATM   27  C   UNL     1      -8.275   9.432  63.281  1.00  0.00    -0.166 A  
HETATM   28  C   UNL     1      -9.074   3.582  65.249  1.00  0.00    -0.144 A  
HETATM   29  C   UNL     1      -8.702   4.928  65.171  1.00  0.00    -0.148 A  
HETATM   30  C   UNL     1      -8.388   8.848  64.545  1.00  0.00    -0.178 A  
ENDBRANCH  13  14
ENDBRANCH   7  13
TORSDOF 2
ENDMDL
MODEL      172
REMARK 921   NORMALIZED FREE ENERGY PREDICTED BY IDOCK:    7.40 KCAL/MOL
REMARK 922        TOTAL FREE ENERGY PREDICTED BY IDOCK:    7.73 KCAL/MOL
REMARK 923 INTER-LIGAND FREE ENERGY PREDICTED BY IDOCK:    6.96 KCAL/MOL
REMARK 924 INTRA-LIGAND FREE ENERGY PREDICTED BY IDOCK:    0.77 KCAL/MOL
REMARK 927      BINDING AFFINITY PREDICTED BY RF-SCORE:    0.00 PKD
ROOT
HETATM    1  C   UNL     1      -9.533  15.754  69.462  1.00  0.00    -0.248 C  
HETATM    2  C   UNL     1      -8.950  14.402  69.878  1.00  0.00     0.941 C  
HETATM    3  C   UNL     1     -10.152  13.505  70.128  1.00  0.00     2.123 C  
HETATM    4  C   UNL     1     -11.391  14.377  69.869  1.00  0.00    -0.222 C  
HETATM    5  N   UNL     1     -10.906  15.799  70.167  1.00  0.00    -0.326 N  
HETATM    6  C   UNL     1     -11.819  14.268  68.411  1.00  0.00    -0.373 C  
HETATM    7  C   UNL     1     -11.005  15.116  67.424  1.00  0.00    -0.314 C  
HETATM    8  C   UNL     1     -11.816  16.958  69.715  1.00  0.00     1.368 C  
HETATM    9  C   UNL     1     -11.373  18.103  70.592  1.00  0.00     3.862 C  
HETATM   10  C   UNL     1     -11.386  17.444  71.946  1.00  0.00     1.587 C  
HETATM   11  C   UNL     1      -9.718  15.780  67.940  1.00  0.00    -0.216 C  
HETATM   12  C   UNL     1     -10.790  16.058  71.707  1.00  0.00     0.748 C  
ENDROOT
BRANCH   7  13
HETATM   13  O   UNL     1     -10.714  14.343  66.253  1.00  0.00    -0.297 OA 
BRANCH  13  14
HETATM   14  C   UNL     1     -10.029  13.173  66.521  1.00  0.00    -0.268 C  
HETATM   15  C   UNL     1     -10.746  11.948  65.848  1.00  0.00    -0.284 C  
HETATM   16  O   UNL     1      -9.014  13.143  67.208  1.00  0.00    -0.198 OA 
HETATM   17  O   UNL     1     -11.943  12.397  65.182  1.00  0.00    -0.392 OA 
HETATM   18  C   UNL     1      -9.788  11.340  64.808  1.00  0.00    -0.312 A  
HETATM   19  C   UNL     1     -11.227  11.013  66.970  1.00  0.00    -0.255 A  
HETATM   20  C   UNL     1     -12.090  11.523  67.967  1.00  0.00     0.014 A  
HETATM   21  C   UNL     1      -8.490  10.933  65.181  1.00  0.00    -0.038 A  
HETATM   22  H   UNL     1     -12.377  11.655  64.775  1.00  0.00     0.000 HD 
HETATM   23  C   UNL     1      -7.609  10.367  64.258  1.00  0.00    -0.021 A  
HETATM   24  C   UNL     1     -12.433  10.764  69.088  1.00  0.00     0.219 A  
HETATM   25  C   UNL     1      -8.005  10.212  62.933  1.00  0.00    -0.148 A  
HETATM   26  C   UNL     1     -11.939   9.472  69.227  1.00  0.00     0.765 A  
HETATM   27  C   UNL     1      -9.274  10.618  62.536  1.00  0.00    -0.323 A  
HETATM   28  C   UNL     1     -11.141   8.925  68.227  1.00  0.00     0.201 A  
HETATM   29  C   UNL     1     -10.803   9.681  67.100  1.00  0.00    -0.184 A  
HETATM   30  C   UNL     1     -10.162  11.172  63.463  1.00  0.00    -0.446 A  
ENDBRANCH  13  14
ENDBRANCH   7  13
TORSDOF 2
ENDMDL
MODEL      173
REMARK 921   NORMALIZED FREE ENERGY PREDICTED BY IDOCK:    8.15 KCAL/MOL
REMARK 922        TOTAL FREE ENERGY PREDICTED BY IDOCK:    8.57 KCAL/MOL
REMARK 923 INTER-LIGAND FREE ENERGY PREDICTED BY IDOCK:    7.27 KCAL/MOL
REMARK 924 INTRA-LIGAND FREE ENERGY PREDICTED BY IDOCK:    1.30 KCAL/MOL
REMARK 927      BINDING AFFINITY PREDICTED BY RF-SCORE:    0.00 PKD
ROOT
HETATM    1  C   UNL     1      -7.271  18.113  66.990  1.00  0.00    -0.201 C  
HETATM    2  C   UNL     1      -6.409  17.635  68.161  1.00  0.00    -0.172 C  
HETATM    3  C   UNL     1      -6.138  18.877  68.994  1.00  0.00    -0.248 C  
HETATM    4  C   UNL     1      -6.835  20.037  68.263  1.00  0.00    -0.302 C  
HETATM    5  N   UNL     1      -6.854  19.587  66.799  1.00  0.00    -0.196 N  
HETATM    6  C   UNL     1      -8.260  20.204  68.774  1.00  0.00     0.145 C  
HETATM    7  C   UNL     1      -9.283  19.215  68.199  1.00  0.00    -0.327 C  
HETATM    8  C   UNL     1      -7.754  20.383  65.834  1.00  0.00    -0.043 C  
HETATM    9  C   UNL     1      -7.156  20.081  64.482  1.00  0.00     0.496 C  
HETATM   10  C   UNL     1      -5.699  20.343  64.750  1.00  0.00    -0.252 C  
HETATM   11  C   UNL     1      -8.751  18.027  67.381  1.00  0.00    -0.248 C  
HETATM   12  C   UNL     1      -5.446  19.739  66.131  1.00  0.00    -0.158 C  
ENDROOT
BRANCH   7  13
HETATM   13  O   UNL     1     -10.132  18.735  69.250  1.00  0.00    -0.298 OA 
BRANCH  13  14
HETATM   14  C   UNL     1      -9.543  17.758  70.031  1.00  0.00     1.428 C  
HETATM   15  C   UNL     1     -10.020  16.331  69.579  1.00  0.00    -0.190 C  
HETATM   16  O   UNL     1      -8.773  18.018  70.948  1.00  0.00     5.046 OA 
HETATM   17  O   UNL     1     -10.975  16.458  68.507  1.00  0.00    -0.320 OA 
HETATM   18  C   UNL     1      -8.793  15.551  69.072  1.00  0.00    -0.242 A  
HETATM   19  C   UNL     1     -10.798  15.706  70.748  1.00  0.00    -0.275 A  
HETATM   20  C   UNL     1     -11.919  16.389  71.271  1.00  0.00    -0.070 A  
HETATM   21  C   UNL     1      -7.657  15.391  69.892  1.00  0.00     0.005 A  
HETATM   22  H   UNL     1     -11.263  15.595  68.234  1.00  0.00     0.000 HD 
HETATM   23  C   UNL     1      -6.539  14.676  69.458  1.00  0.00    -0.149 A  
HETATM   24  C   UNL     1     -12.567  15.945  72.426  1.00  0.00    -0.539 A  
HETATM   25  C   UNL     1      -6.529  14.119  68.183  1.00  0.00    -0.127 A  
HETATM   26  C   UNL     1     -12.122  14.797  73.072  1.00  0.00    -0.292 A  
HETATM   27  C   UNL     1      -7.632  14.275  67.350  1.00  0.00    -0.185 A  
HETATM   28  C   UNL     1     -11.061  14.071  72.539  1.00  0.00     3.223 A  
HETATM   29  C   UNL     1     -10.417  14.510  71.378  1.00  0.00     1.928 A  
HETATM   30  C   UNL     1      -8.757  14.978  67.789  1.00  0.00    -0.167 A  
ENDBRANCH  13  14
ENDBRANCH   7  13
TORSDOF 2
ENDMDL
MODEL      174
REMARK 921   NORMALIZED FREE ENERGY PREDICTED BY IDOCK:    9.64 KCAL/MOL
REMARK 922        TOTAL FREE ENERGY PREDICTED BY IDOCK:   10.23 KCAL/MOL
REMARK 923 INTER-LIGAND FREE ENERGY PREDICTED BY IDOCK:    8.29 KCAL/MOL
REMARK 924 INTRA-LIGAND FREE ENERGY PREDICTED BY IDOCK:    1.94 KCAL/MOL
REMARK 927      BINDING AFFINITY PREDICTED BY RF-SCORE:    0.00 PKD
ROOT
HETATM    1  C   UNL     1      -7.207  16.285  68.631  1.00  0.00    -0.166 C  
HETATM    2  C   UNL     1      -6.342  16.247  67.369  1.00  0.00    -0.206 C  
HETATM    3  C   UNL     1      -5.376  15.093  67.578  1.00  0.00     0.100 C  
HETATM    4  C   UNL     1      -5.700  14.515  68.965  1.00  0.00    -0.084 C  
HETATM    5  N   UNL     1      -6.287  15.706  69.728  1.00  0.00    -0.168 N  
HETATM    6  C   UNL     1      -6.740  13.408  68.848  1.00  0.00    -0.110 C  
HETATM    7  C   UNL     1      -8.191  13.886  68.698  1.00  0.00    -0.088 C  
HETATM    8  C   UNL     1      -6.999  15.401  71.061  1.00  0.00     1.349 C  
HETATM    9  C   UNL     1      -6.959  16.727  71.781  1.00  0.00     5.962 C  
HETATM   10  C   UNL     1      -5.508  17.094  71.618  1.00  0.00     0.536 C  
HETATM   11  C   UNL     1      -8.431  15.382  68.435  1.00  0.00    -0.160 C  
HETATM   12  C   UNL     1      -5.172  16.710  70.178  1.00  0.00    -0.190 C  
ENDROOT
BRANCH   7  13
HETATM   13  O   UNL     1      -8.852  13.108  67.692  1.00  0.00    -0.169 OA 
BRANCH  13  14
HETATM   14  C   UNL     1     -10.101  13.593  67.353  1.00  0.00    -0.241 C  
HETATM   15  C   UNL     1     -10.123  14.057  65.852  1.00  0.00    -0.321 C  
HETATM   16  O   UNL     1     -11.029  13.648  68.152  1.00  0.00    -0.240 OA 
HETATM   17  O   UNL     1      -8.813  13.885  65.275  1.00  0.00     0.687 OA 
HETATM   18  C   UNL     1     -11.129  13.175  65.090  1.00  0.00    -0.308 A  
HETATM   19  C   UNL     1     -10.383  15.571  65.834  1.00  0.00    -0.365 A  
HETATM   20  C   UNL     1      -9.505  16.428  66.537  1.00  0.00    -0.296 A  
HETATM   21  C   UNL     1     -12.465  13.067  65.531  1.00  0.00    -0.496 A  
HETATM   22  H   UNL     1      -8.827  14.165  64.367  1.00  0.00     0.000 HD 
HETATM   23  C   UNL     1     -13.398  12.285  64.849  1.00  0.00     1.243 A  
HETATM   24  C   UNL     1      -9.779  17.790  66.681  1.00  0.00    -0.314 A  
HETATM   25  C   UNL     1     -13.008  11.579  63.715  1.00  0.00     0.205 A  
HETATM   26  C   UNL     1     -10.925  18.330  66.109  1.00  0.00     0.228 A  
HETATM   27  C   UNL     1     -11.693  11.658  63.267  1.00  0.00    -0.233 A  
HETATM   28  C   UNL     1     -11.770  17.520  65.357  1.00  0.00     2.392 A  
HETATM   29  C   UNL     1     -11.493  16.158  65.205  1.00  0.00     0.206 A  
HETATM   30  C   UNL     1     -10.763  12.452  63.942  1.00  0.00    -0.465 A  
ENDBRANCH  13  14
ENDBRANCH   7  13
TORSDOF 2
ENDMDL
MODEL      175
REMARK 921   NORMALIZED FREE ENERGY PREDICTED BY IDOCK:    9.71 KCAL/MOL
REMARK 922        TOTAL FREE ENERGY PREDICTED BY IDOCK:   10.31 KCAL/MOL
REMARK 923 INTER-LIGAND FREE ENERGY PREDICTED BY IDOCK:    9.65 KCAL/MOL
REMARK 924 INTRA-LIGAND FREE ENERGY PREDICTED BY IDOCK:    0.67 KCAL/MOL
REMARK 927      BINDING AFFINITY PREDICTED BY RF-SCORE:    0.00 PKD
ROOT
HETATM    1  C   UNL     1      -7.740  16.353  66.935  1.00  0.00    -0.241 C  
HETATM    2  C   UNL     1      -7.531  16.564  68.437  1.00  0.00    -0.186 C  
HETATM    3  C   UNL     1      -8.762  17.316  68.913  1.00  0.00    -0.172 C  
HETATM    4  C   UNL     1      -9.633  17.536  67.666  1.00  0.00    -0.266 C  
HETATM    5  N   UNL     1      -8.624  17.547  66.514  1.00  0.00    -0.257 N  
HETATM    6  C   UNL     1     -10.609  16.379  67.491  1.00  0.00    -0.309 C  
HETATM    7  C   UNL     1     -10.016  15.110  66.865  1.00  0.00    -0.239 C  
HETATM    8  C   UNL     1      -9.192  17.445  65.085  1.00  0.00     2.189 C  
HETATM    9  C   UNL     1      -8.084  18.015  64.234  1.00  0.00     8.369 C  
HETATM   10  C   UNL     1      -7.784  19.290  64.977  1.00  0.00     1.235 C  
HETATM   11  C   UNL     1      -8.488  15.034  66.707  1.00  0.00    -0.239 C  
HETATM   12  C   UNL     1      -7.832  18.897  66.453  1.00  0.00    -0.280 C  
ENDROOT
BRANCH   7  13
HETATM   13  O   UNL     1     -10.485  13.958  67.577  1.00  0.00    -0.246 OA 
BRANCH  13  14
HETATM   14  C   UNL     1      -9.633  12.872  67.489  1.00  0.00    -0.200 C  
HETATM   15  C   UNL     1      -9.428  12.218  68.902  1.00  0.00     0.215 C  
HETATM   16  O   UNL     1      -9.122  12.516  66.434  1.00  0.00    -0.208 OA 
HETATM   17  O   UNL     1     -10.153  12.973  69.893  1.00  0.00     0.669 OA 
HETATM   18  C   UNL     1      -9.984  10.784  68.856  1.00  0.00    -0.213 A  
HETATM   19  C   UNL     1      -7.945  12.370  69.277  1.00  0.00     0.570 A  
HETATM   20  C   UNL     1      -7.373  13.662  69.313  1.00  0.00     0.129 A  
HETATM   21  C   UNL     1      -9.528   9.870  67.883  1.00  0.00    -0.149 A  
HETATM   22  H   UNL     1     -10.029  12.577  70.748  1.00  0.00     0.000 HD 
HETATM   23  C   UNL     1     -10.008   8.560  67.830  1.00  0.00    -0.241 A  
HETATM   24  C   UNL     1      -6.001  13.844  69.496  1.00  0.00    -0.105 A  
HETATM   25  C   UNL     1     -10.971   8.142  68.742  1.00  0.00     0.144 A  
HETATM   26  C   UNL     1      -5.172  12.742  69.668  1.00  0.00    -0.076 A  
HETATM   27  C   UNL     1     -11.448   9.027  69.702  1.00  0.00     0.221 A  
HETATM   28  C   UNL     1      -5.721  11.463  69.702  1.00  0.00    -0.074 A  
HETATM   29  C   UNL     1      -7.096  11.280  69.527  1.00  0.00    -0.058 A  
HETATM   30  C   UNL     1     -10.957  10.334  69.765  1.00  0.00    -0.338 A  
ENDBRANCH  13  14
ENDBRANCH   7  13
TORSDOF 2
ENDMDL
MODEL      176
REMARK 921   NORMALIZED FREE ENERGY PREDICTED BY IDOCK:   10.72 KCAL/MOL
REMARK 922        TOTAL FREE ENERGY PREDICTED BY IDOCK:   11.44 KCAL/MOL
REMARK 923 INTER-LIGAND FREE ENERGY PREDICTED BY IDOCK:   10.91 KCAL/MOL
REMARK 924 INTRA-LIGAND FREE ENERGY PREDICTED BY IDOCK:    0.53 KCAL/MOL
REMARK 927      BINDING AFFINITY PREDICTED BY RF-SCORE:    0.00 PKD
ROOT
HETATM    1  C   UNL     1      -8.068  14.297  70.098  1.00  0.00     1.264 C  
HETATM    2  C   UNL     1      -9.520  14.463  70.553  1.00  0.00     2.129 C  
HETATM    3  C   UNL     1      -9.921  15.861  70.113  1.00  0.00     0.084 C  
HETATM    4  C   UNL     1      -8.679  16.466  69.438  1.00  0.00     0.011 C  
HETATM    5  N   UNL     1      -7.510  15.737  70.106  1.00  0.00     0.339 N  
HETATM    6  C   UNL     1      -8.692  16.170  67.944  1.00  0.00    -0.174 C  
HETATM    7  C   UNL     1      -8.230  14.760  67.552  1.00  0.00    -0.185 C  
HETATM    8  C   UNL     1      -6.124  15.886  69.448  1.00  0.00    -0.143 C  
HETATM    9  C   UNL     1      -5.174  15.553  70.572  1.00  0.00    -0.141 C  
HETATM   10  C   UNL     1      -5.726  16.416  71.674  1.00  0.00     0.874 C  
HETATM   11  C   UNL     1      -8.043  13.727  68.675  1.00  0.00    -0.084 C  
HETATM   12  C   UNL     1      -7.243  16.276  71.552  1.00  0.00     5.103 C  
ENDROOT
BRANCH   7  13
HETATM   13  O   UNL     1      -9.106  14.229  66.549  1.00  0.00    -0.249 OA 
BRANCH  13  14
HETATM   14  C   UNL     1      -9.034  12.854  66.427  1.00  0.00    -0.005 C  
HETATM   15  C   UNL     1     -10.472  12.224  66.430  1.00  0.00    -0.236 C  
HETATM   16  O   UNL     1      -7.969  12.252  66.345  1.00  0.00     0.116 OA 
HETATM   17  O   UNL     1     -11.454  13.264  66.608  1.00  0.00    -0.319 OA 
HETATM   18  C   UNL     1     -10.703  11.541  65.069  1.00  0.00    -0.350 A  
HETATM   19  C   UNL     1     -10.590  11.332  67.676  1.00  0.00    -0.252 A  
HETATM   20  C   UNL     1     -10.366  11.899  68.951  1.00  0.00    -0.131 A  
HETATM   21  C   UNL     1      -9.801  10.565  64.596  1.00  0.00    -0.404 A  
HETATM   22  H   UNL     1     -12.324  12.883  66.609  1.00  0.00     0.000 HD 
HETATM   23  C   UNL     1      -9.997   9.923  63.372  1.00  0.00     0.680 A  
HETATM   24  C   UNL     1     -10.309  11.106  70.099  1.00  0.00     0.789 A  
HETATM   25  C   UNL     1     -11.095  10.259  62.586  1.00  0.00     2.720 A  
HETATM   26  C   UNL     1     -10.496   9.733  70.002  1.00  0.00    -0.314 A  
HETATM   27  C   UNL     1     -11.991  11.228  63.023  1.00  0.00     0.633 A  
HETATM   28  C   UNL     1     -10.783   9.159  68.767  1.00  0.00    -0.162 A  
HETATM   29  C   UNL     1     -10.848   9.953  67.618  1.00  0.00    -0.318 A  
HETATM   30  C   UNL     1     -11.803  11.861  64.255  1.00  0.00    -0.367 A  
ENDBRANCH  13  14
ENDBRANCH   7  13
TORSDOF 2
ENDMDL
MODEL      177
REMARK 921   NORMALIZED FREE ENERGY PREDICTED BY IDOCK:   20.24 KCAL/MOL
REMARK 922        TOTAL FREE ENERGY PREDICTED BY IDOCK:   22.07 KCAL/MOL
REMARK 923 INTER-LIGAND FREE ENERGY PREDICTED BY IDOCK:   19.03 KCAL/MOL
REMARK 924 INTRA-LIGAND FREE ENERGY PREDICTED BY IDOCK:    3.04 KCAL/MOL
REMARK 927      BINDING AFFINITY PREDICTED BY RF-SCORE:    0.00 PKD
ROOT
HETATM    1  C   UNL     1     -11.997  10.509  68.769  1.00  0.00     0.102 C  
HETATM    2  C   UNL     1     -13.098  10.108  67.785  1.00  0.00     8.936 C  
HETATM    3  C   UNL     1     -12.432   9.166  66.796  1.00  0.00    10.056 C  
HETATM    4  C   UNL     1     -10.960   9.071  67.230  1.00  0.00     0.137 C  
HETATM    5  N   UNL     1     -10.700  10.404  67.938  1.00  0.00    -0.240 N  
HETATM    6  C   UNL     1     -10.769   7.917  68.207  1.00  0.00    -0.088 C  
HETATM    7  C   UNL     1     -11.186   8.210  69.655  1.00  0.00     0.095 C  
HETATM    8  C   UNL     1      -9.404  10.518  68.763  1.00  0.00    -0.180 C  
HETATM    9  C   UNL     1      -9.182  12.008  68.849  1.00  0.00     0.178 C  
HETATM   10  C   UNL     1      -9.349  12.402  67.405  1.00  0.00    -0.181 C  
HETATM   11  C   UNL     1     -11.965   9.506  69.930  1.00  0.00     0.227 C  
HETATM   12  C   UNL     1     -10.538  11.578  66.915  1.00  0.00    -0.247 C  
ENDROOT
BRANCH   7  13
HETATM   13  O   UNL     1     -11.911   7.091  70.182  1.00  0.00    -0.209 OA 
BRANCH  13  14
HETATM   14  C   UNL     1     -11.206   5.903  70.128  1.00  0.00    -0.268 C  
HETATM   15  C   UNL     1      -9.810   6.059  70.830  1.00  0.00    -0.184 C  
HETATM   16  O   UNL     1     -11.646   4.897  69.583  1.00  0.00     2.637 OA 
HETATM   17  O   UNL     1      -9.649   7.416  71.287  1.00  0.00    -0.162 OA 
HETATM   18  C   UNL     1      -9.771   5.111  72.043  1.00  0.00    -0.205 A  
HETATM   19  C   UNL     1      -8.723   5.855  69.763  1.00  0.00    -0.129 A  
HETATM   20  C   UNL     1      -8.723   6.680  68.615  1.00  0.00    -0.124 A  
HETATM   21  C   UNL     1     -10.026   3.733  71.883  1.00  0.00    -0.230 A  
HETATM   22  H   UNL     1      -8.804   7.510  71.712  1.00  0.00     0.000 HD 
HETATM   23  C   UNL     1      -9.984   2.853  72.966  1.00  0.00    -0.194 A  
HETATM   24  C   UNL     1      -7.857   6.439  67.547  1.00  0.00    -0.105 A  
HETATM   25  C   UNL     1      -9.701   3.338  74.238  1.00  0.00    -0.145 A  
HETATM   26  C   UNL     1      -6.958   5.381  67.609  1.00  0.00    -0.066 A  
HETATM   27  C   UNL     1      -9.459   4.696  74.425  1.00  0.00    -0.136 A  
HETATM   28  C   UNL     1      -6.894   4.594  68.755  1.00  0.00    -0.051 A  
HETATM   29  C   UNL     1      -7.756   4.840  69.829  1.00  0.00    -0.059 A  
HETATM   30  C   UNL     1      -9.487   5.575  73.339  1.00  0.00    -0.139 A  
ENDBRANCH  13  14
ENDBRANCH   7  13
TORSDOF 2
ENDMDL
MODEL      178
REMARK 921   NORMALIZED FREE ENERGY PREDICTED BY IDOCK:   21.78 KCAL/MOL
REMARK 922        TOTAL FREE ENERGY PREDICTED BY IDOCK:   23.79 KCAL/MOL
REMARK 923 INTER-LIGAND FREE ENERGY PREDICTED BY IDOCK:   -2.32 KCAL/MOL
REMARK 924 INTRA-LIGAND FREE ENERGY PREDICTED BY IDOCK:   26.11 KCAL/MOL
REMARK 927      BINDING AFFINITY PREDICTED BY RF-SCORE:    0.00 PKD
ROOT
HETATM    1  C   UNL     1      -7.732   6.698  68.963  1.00  0.00    -0.109 C  
HETATM    2  C   UNL     1      -9.033   7.413  68.590  1.00  0.00    -0.131 C  
HETATM    3  C   UNL     1      -8.912   8.806  69.184  1.00  0.00    -0.137 C  
HETATM    4  C   UNL     1      -7.552   8.843  69.901  1.00  0.00    -0.063 C  
HETATM    5  N   UNL     1      -7.298   7.381  70.278  1.00  0.00    -0.076 N  
HETATM    6  C   UNL     1      -6.466   9.332  68.952  1.00  0.00    -0.047 C  
HETATM    7  C   UNL     1      -5.931   8.279  67.972  1.00  0.00    -0.043 C  
HETATM    8  C   UNL     1      -5.876   7.015  70.746  1.00  0.00    -0.027 C  
HETATM    9  C   UNL     1      -6.089   5.739  71.524  1.00  0.00    -0.034 C  
HETATM   10  C   UNL     1      -7.237   6.137  72.412  1.00  0.00    -0.085 C  
HETATM   11  C   UNL     1      -6.686   6.944  67.868  1.00  0.00    -0.064 C  
HETATM   12  C   UNL     1      -8.167   6.942  71.505  1.00  0.00    -0.110 C  
ENDROOT
BRANCH   7  13
HETATM   13  O   UNL     1      -5.797   8.860  66.668  1.00  0.00    -0.050 OA 
BRANCH  13  14
HETATM   14  C   UNL     1      -6.585   8.250  65.710  1.00  0.00    -0.052 C  
HETATM   15  C   UNL     1      -8.104   8.367  66.091  1.00  0.00    -0.106 C  
HETATM   16  O   UNL     1      -6.116   7.695  64.723  1.00  0.00    -0.038 OA 
HETATM   17  O   UNL     1      -8.233   9.037  67.360  1.00  0.00    -0.107 OA 
HETATM   18  C   UNL     1      -8.811   9.200  65.007  1.00  0.00    -0.230 A  
HETATM   19  C   UNL     1      -8.639   6.945  66.324  1.00  0.00    -0.138 A  
HETATM   20  C   UNL     1      -8.014   6.125  67.290  1.00  0.00    -0.102 A  
HETATM   21  C   UNL     1      -8.731   8.825  63.649  1.00  0.00     0.023 A  
HETATM   22  H   UNL     1      -9.153   9.108  67.590  1.00  0.00     0.000 HD 
HETATM   23  C   UNL     1      -9.374   9.558  62.650  1.00  0.00     0.038 A  
HETATM   24  C   UNL     1      -8.359   4.779  67.434  1.00  0.00    -0.105 A  
HETATM   25  C   UNL     1     -10.100  10.695  62.989  1.00  0.00    -0.132 A  
HETATM   26  C   UNL     1      -9.349   4.228  66.630  1.00  0.00    -0.179 A  
HETATM   27  C   UNL     1     -10.184  11.094  64.319  1.00  0.00    -0.399 A  
HETATM   28  C   UNL     1     -10.024   5.031  65.715  1.00  0.00    -0.147 A  
HETATM   29  C   UNL     1      -9.686   6.381  65.577  1.00  0.00     0.648 A  
HETATM   30  C   UNL     1      -9.552  10.353  65.321  1.00  0.00    -0.316 A  
ENDBRANCH  13  14
ENDBRANCH   7  13
TORSDOF 2
ENDMDL
MODEL      179
REMARK 921   NORMALIZED FREE ENERGY PREDICTED BY IDOCK:   23.69 KCAL/MOL
REMARK 922        TOTAL FREE ENERGY PREDICTED BY IDOCK:   25.93 KCAL/MOL
REMARK 923 INTER-LIGAND FREE ENERGY PREDICTED BY IDOCK:   22.23 KCAL/MOL
REMARK 924 INTRA-LIGAND FREE ENERGY PREDICTED BY IDOCK:    3.70 KCAL/MOL
REMARK 927      BINDING AFFINITY PREDICTED BY RF-SCORE:    0.00 PKD
ROOT
HETATM    1  C   UNL     1      -7.916  14.219  70.417  1.00  0.00     1.704 C  
HETATM    2  C   UNL     1      -9.359  14.017  70.885  1.00  0.00     4.717 C  
HETATM    3  C   UNL     1     -10.023  15.377  70.741  1.00  0.00     0.701 C  
HETATM    4  C   UNL     1      -8.933  16.325  70.215  1.00  0.00     1.627 C  
HETATM    5  N   UNL     1      -7.630  15.704  70.726  1.00  0.00     1.581 N  
HETATM    6  C   UNL     1      -8.938  16.344  68.692  1.00  0.00    -0.233 C  
HETATM    7  C   UNL     1      -8.240  15.154  68.020  1.00  0.00    -0.142 C  
HETATM    8  C   UNL     1      -6.316  16.238  70.123  1.00  0.00     0.044 C  
HETATM    9  C   UNL     1      -5.287  15.864  71.161  1.00  0.00    -0.004 C  
HETATM   10  C   UNL     1      -5.953  16.367  72.415  1.00  0.00     2.287 C  
HETATM   11  C   UNL     1      -7.833  13.966  68.907  1.00  0.00    -0.022 C  
HETATM   12  C   UNL     1      -7.421  15.977  72.254  1.00  0.00     8.486 C  
ENDROOT
BRANCH   7  13
HETATM   13  O   UNL     1      -9.034  14.687  66.922  1.00  0.00    -0.229 OA 
BRANCH  13  14
HETATM   14  C   UNL     1      -9.321  13.336  66.986  1.00  0.00    -0.242 C  
HETATM   15  C   UNL     1      -8.038  12.485  66.676  1.00  0.00     0.150 C  
HETATM   16  O   UNL     1     -10.442  12.909  67.240  1.00  0.00    -0.232 OA 
HETATM   17  O   UNL     1      -6.939  13.365  66.366  1.00  0.00     0.658 OA 
HETATM   18  C   UNL     1      -7.688  11.665  67.931  1.00  0.00    -0.126 A  
HETATM   19  C   UNL     1      -8.303  11.691  65.387  1.00  0.00     0.553 A  
HETATM   20  C   UNL     1      -8.652  12.390  64.209  1.00  0.00     2.280 A  
HETATM   21  C   UNL     1      -8.645  10.811  68.518  1.00  0.00    -0.148 A  
HETATM   22  H   UNL     1      -6.163  12.849  66.179  1.00  0.00     0.000 HD 
HETATM   23  C   UNL     1      -8.347  10.048  69.648  1.00  0.00    -0.188 A  
HETATM   24  C   UNL     1      -9.051  11.714  63.054  1.00  0.00    -0.021 A  
HETATM   25  C   UNL     1      -7.084  10.136  70.226  1.00  0.00    -0.146 A  
HETATM   26  C   UNL     1      -9.091  10.324  63.044  1.00  0.00    -0.284 A  
HETATM   27  C   UNL     1      -6.127  10.981  69.674  1.00  0.00    -0.084 A  
HETATM   28  C   UNL     1      -8.690   9.613  64.171  1.00  0.00    -0.238 A  
HETATM   29  C   UNL     1      -8.282  10.289  65.325  1.00  0.00    -0.161 A  
HETATM   30  C   UNL     1      -6.421  11.735  68.535  1.00  0.00    -0.056 A  
ENDBRANCH  13  14
ENDBRANCH   7  13
TORSDOF 2
ENDMDL
MODEL      180
REMARK 921   NORMALIZED FREE ENERGY PREDICTED BY IDOCK:   24.41 KCAL/MOL
REMARK 922        TOTAL FREE ENERGY PREDICTED BY IDOCK:   26.73 KCAL/MOL
REMARK 923 INTER-LIGAND FREE ENERGY PREDICTED BY IDOCK:   20.17 KCAL/MOL
REMARK 924 INTRA-LIGAND FREE ENERGY PREDICTED BY IDOCK:    6.56 KCAL/MOL
REMARK 927      BINDING AFFINITY PREDICTED BY RF-SCORE:    0.00 PKD
ROOT
HETATM    1  C   UNL     1      -9.706  18.811  67.952  1.00  0.00    -0.329 C  
HETATM    2  C   UNL     1      -9.915  20.104  68.744  1.00  0.00    -0.303 C  
HETATM    3  C   UNL     1     -11.419  20.320  68.772  1.00  0.00     2.360 C  
HETATM    4  C   UNL     1     -12.029  19.155  67.975  1.00  0.00     2.975 C  
HETATM    5  N   UNL     1     -10.918  18.761  66.997  1.00  0.00    -0.258 N  
HETATM    6  C   UNL     1     -12.344  17.988  68.901  1.00  0.00     6.206 C  
HETATM    7  C   UNL     1     -11.144  17.111  69.282  1.00  0.00     0.265 C  
HETATM    8  C   UNL     1     -11.085  17.424  66.249  1.00  0.00     0.472 C  
HETATM    9  C   UNL     1     -10.192  17.591  65.045  1.00  0.00     1.050 C  
HETATM   10  C   UNL     1     -10.635  18.942  64.549  1.00  0.00     3.916 C  
HETATM   11  C   UNL     1      -9.739  17.616  68.913  1.00  0.00    -0.258 C  
HETATM   12  C   UNL     1     -10.802  19.782  65.814  1.00  0.00    -0.275 C  
ENDROOT
BRANCH   7  13
HETATM   13  O   UNL     1     -11.194  16.808  70.682  1.00  0.00    -0.138 OA 
BRANCH  13  14
HETATM   14  C   UNL     1     -10.500  15.662  71.023  1.00  0.00     0.390 C  
HETATM   15  C   UNL     1      -9.861  15.005  69.748  1.00  0.00    -0.027 C  
HETATM   16  O   UNL     1     -10.434  15.247  72.174  1.00  0.00     0.601 OA 
HETATM   17  O   UNL     1     -10.226  15.766  68.579  1.00  0.00    -0.210 OA 
HETATM   18  C   UNL     1      -8.330  15.031  69.908  1.00  0.00     0.237 A  
HETATM   19  C   UNL     1     -10.510  13.625  69.556  1.00  0.00     0.305 A  
HETATM   20  C   UNL     1     -11.915  13.538  69.427  1.00  0.00    -0.383 A  
HETATM   21  C   UNL     1      -7.719  14.459  71.044  1.00  0.00     2.627 A  
HETATM   22  H   UNL     1      -9.839  15.369  67.807  1.00  0.00     0.000 HD 
HETATM   23  C   UNL     1      -6.333  14.459  71.204  1.00  0.00     0.162 A  
HETATM   24  C   UNL     1     -12.568  12.304  69.405  1.00  0.00     0.448 A  
HETATM   25  C   UNL     1      -5.527  15.047  70.235  1.00  0.00    -0.125 A  
HETATM   26  C   UNL     1     -11.830  11.129  69.491  1.00  0.00    -0.423 A  
HETATM   27  C   UNL     1      -6.105  15.630  69.112  1.00  0.00    -0.112 A  
HETATM   28  C   UNL     1     -10.441  11.187  69.553  1.00  0.00    -0.080 A  
HETATM   29  C   UNL     1      -9.786  12.422  69.566  1.00  0.00     1.243 A  
HETATM   30  C   UNL     1      -7.492  15.618  68.944  1.00  0.00    -0.162 A  
ENDBRANCH  13  14
ENDBRANCH   7  13
TORSDOF 2
ENDMDL
MODEL      181
REMARK 921   NORMALIZED FREE ENERGY PREDICTED BY IDOCK:   28.85 KCAL/MOL
REMARK 922        TOTAL FREE ENERGY PREDICTED BY IDOCK:   31.69 KCAL/MOL
REMARK 923 INTER-LIGAND FREE ENERGY PREDICTED BY IDOCK:   18.57 KCAL/MOL
REMARK 924 INTRA-LIGAND FREE ENERGY PREDICTED BY IDOCK:   13.12 KCAL/MOL
REMARK 927      BINDING AFFINITY PREDICTED BY RF-SCORE:    0.00 PKD
ROOT
HETATM    1  C   UNL     1     -10.192   5.775  64.604  1.00  0.00     2.221 C  
HETATM    2  C   UNL     1      -9.082   4.755  64.870  1.00  0.00    -0.141 C  
HETATM    3  C   UNL     1      -8.185   5.400  65.913  1.00  0.00    -0.119 C  
HETATM    4  C   UNL     1      -8.794   6.782  66.199  1.00  0.00    -0.148 C  
HETATM    5  N   UNL     1      -9.525   7.135  64.900  1.00  0.00     1.336 N  
HETATM    6  C   UNL     1      -9.790   6.694  67.349  1.00  0.00    -0.165 C  
HETATM    7  C   UNL     1     -11.175   6.150  66.975  1.00  0.00    -0.101 C  
HETATM    8  C   UNL     1     -10.502   8.326  64.948  1.00  0.00     4.981 C  
HETATM    9  C   UNL     1     -10.609   8.739  63.501  1.00  0.00     7.751 C  
HETATM   10  C   UNL     1      -9.156   8.803  63.115  1.00  0.00     0.524 C  
HETATM   11  C   UNL     1     -11.351   5.529  65.579  1.00  0.00     1.470 C  
HETATM   12  C   UNL     1      -8.526   7.579  63.778  1.00  0.00     0.305 C  
ENDROOT
BRANCH   7  13
HETATM   13  O   UNL     1     -11.613   5.220  67.974  1.00  0.00     1.721 OA 
BRANCH  13  14
HETATM   14  C   UNL     1     -10.984   5.386  69.194  1.00  0.00     0.205 C  
HETATM   15  C   UNL     1      -9.438   5.146  69.054  1.00  0.00    -0.133 C  
HETATM   16  O   UNL     1     -11.593   5.668  70.219  1.00  0.00     0.110 OA 
HETATM   17  O   UNL     1      -9.129   4.773  67.696  1.00  0.00    -0.109 OA 
HETATM   18  C   UNL     1      -8.713   6.462  69.393  1.00  0.00    -0.129 A  
HETATM   19  C   UNL     1      -9.075   3.921  69.907  1.00  0.00    -0.190 A  
HETATM   20  C   UNL     1      -9.726   2.691  69.657  1.00  0.00     0.079 A  
HETATM   21  C   UNL     1      -8.943   7.109  70.625  1.00  0.00    -0.154 A  
HETATM   22  H   UNL     1      -8.194   4.629  67.612  1.00  0.00     0.000 HD 
HETATM   23  C   UNL     1      -8.288   8.295  70.959  1.00  0.00    -0.138 A  
HETATM   24  C   UNL     1      -9.549   1.590  70.498  1.00  0.00    -0.132 A  
HETATM   25  C   UNL     1      -7.397   8.868  70.058  1.00  0.00    -0.056 A  
HETATM   26  C   UNL     1      -8.701   1.686  71.595  1.00  0.00    -0.086 A  
HETATM   27  C   UNL     1      -7.163   8.257  68.830  1.00  0.00    -0.078 A  
HETATM   28  C   UNL     1      -7.999   2.866  71.825  1.00  0.00    -0.057 A  
HETATM   29  C   UNL     1      -8.170   3.966  70.979  1.00  0.00    -0.076 A  
HETATM   30  C   UNL     1      -7.809   7.062  68.501  1.00  0.00    -0.122 A  
ENDBRANCH  13  14
ENDBRANCH   7  13
TORSDOF 2
ENDMDL
MODEL      182
REMARK 921   NORMALIZED FREE ENERGY PREDICTED BY IDOCK:   28.98 KCAL/MOL
REMARK 922        TOTAL FREE ENERGY PREDICTED BY IDOCK:   31.84 KCAL/MOL
REMARK 923 INTER-LIGAND FREE ENERGY PREDICTED BY IDOCK:   23.71 KCAL/MOL
REMARK 924 INTRA-LIGAND FREE ENERGY PREDICTED BY IDOCK:    8.12 KCAL/MOL
REMARK 927      BINDING AFFINITY PREDICTED BY RF-SCORE:    0.00 PKD
ROOT
HETATM    1  C   UNL     1      -7.171  15.659  69.709  1.00  0.00    -0.086 C  
HETATM    2  C   UNL     1      -6.496  14.895  68.567  1.00  0.00    -0.091 C  
HETATM    3  C   UNL     1      -6.313  13.478  69.084  1.00  0.00    -0.101 C  
HETATM    4  C   UNL     1      -6.870  13.476  70.518  1.00  0.00     0.889 C  
HETATM    5  N   UNL     1      -6.693  14.925  70.980  1.00  0.00     0.443 N  
HETATM    6  C   UNL     1      -8.348  13.108  70.511  1.00  0.00     5.357 C  
HETATM    7  C   UNL     1      -9.304  14.247  70.132  1.00  0.00     1.609 C  
HETATM    8  C   UNL     1      -7.426  15.343  72.270  1.00  0.00     5.710 C  
HETATM    9  C   UNL     1      -6.652  16.555  72.726  1.00  0.00     5.956 C  
HETATM   10  C   UNL     1      -5.240  16.039  72.640  1.00  0.00     1.206 C  
HETATM   11  C   UNL     1      -8.693  15.540  69.569  1.00  0.00    -0.223 C  
HETATM   12  C   UNL     1      -5.201  15.239  71.338  1.00  0.00    -0.088 C  
ENDROOT
BRANCH   7  13
HETATM   13  O   UNL     1     -10.305  13.755  69.232  1.00  0.00    -0.052 OA 
BRANCH  13  14
HETATM   14  C   UNL     1     -11.145  14.741  68.749  1.00  0.00    -0.265 C  
HETATM   15  C   UNL     1     -10.430  15.570  67.623  1.00  0.00    -0.279 C  
HETATM   16  O   UNL     1     -12.278  14.916  69.182  1.00  0.00    -0.250 OA 
HETATM   17  O   UNL     1      -9.081  15.089  67.452  1.00  0.00    -0.177 OA 
HETATM   18  C   UNL     1     -11.206  15.368  66.309  1.00  0.00    -0.162 A  
HETATM   19  C   UNL     1     -10.288  17.016  68.123  1.00  0.00    -0.347 A  
HETATM   20  C   UNL     1      -9.605  17.260  69.337  1.00  0.00     0.134 A  
HETATM   21  C   UNL     1     -12.588  15.647  66.244  1.00  0.00     1.888 A  
HETATM   22  H   UNL     1      -8.649  15.590  66.770  1.00  0.00     0.000 HD 
HETATM   23  C   UNL     1     -13.310  15.485  65.060  1.00  0.00     1.910 A  
HETATM   24  C   UNL     1      -9.580  18.531  69.914  1.00  0.00     0.947 A  
HETATM   25  C   UNL     1     -12.665  15.022  63.917  1.00  0.00     0.629 A  
HETATM   26  C   UNL     1     -10.218  19.591  69.282  1.00  0.00    -0.183 A  
HETATM   27  C   UNL     1     -11.306  14.727  63.959  1.00  0.00     0.266 A  
HETATM   28  C   UNL     1     -10.842  19.390  68.054  1.00  0.00    -0.213 A  
HETATM   29  C   UNL     1     -10.861  18.119  67.471  1.00  0.00    -0.264 A  
HETATM   30  C   UNL     1     -10.580  14.903  65.140  1.00  0.00    -0.450 A  
ENDBRANCH  13  14
ENDBRANCH   7  13
TORSDOF 2
ENDMDL
MODEL      183
REMARK 921   NORMALIZED FREE ENERGY PREDICTED BY IDOCK:   33.97 KCAL/MOL
REMARK 922        TOTAL FREE ENERGY PREDICTED BY IDOCK:   37.41 KCAL/MOL
REMARK 923 INTER-LIGAND FREE ENERGY PREDICTED BY IDOCK:    0.79 KCAL/MOL
REMARK 924 INTRA-LIGAND FREE ENERGY PREDICTED BY IDOCK:   36.61 KCAL/MOL
REMARK 927      BINDING AFFINITY PREDICTED BY RF-SCORE:    0.00 PKD
ROOT
HETATM    1  C   UNL     1      -7.467  14.565  68.735  1.00  0.00    -0.132 C  
HETATM    2  C   UNL     1      -8.416  14.645  67.538  1.00  0.00    -0.200 C  
HETATM    3  C   UNL     1      -7.587  15.228  66.405  1.00  0.00     0.917 C  
HETATM    4  C   UNL     1      -6.190  15.486  66.993  1.00  0.00     0.439 C  
HETATM    5  N   UNL     1      -6.457  15.706  68.485  1.00  0.00    -0.104 N  
HETATM    6  C   UNL     1      -5.299  14.266  66.798  1.00  0.00     2.162 C  
HETATM    7  C   UNL     1      -5.521  13.127  67.802  1.00  0.00    -0.110 C  
HETATM    8  C   UNL     1      -5.235  15.693  69.424  1.00  0.00    -0.102 C  
HETATM    9  C   UNL     1      -5.726  16.446  70.636  1.00  0.00     0.029 C  
HETATM   10  C   UNL     1      -6.329  17.664  69.987  1.00  0.00     0.082 C  
HETATM   11  C   UNL     1      -6.748  13.210  68.724  1.00  0.00    -0.100 C  
HETATM   12  C   UNL     1      -7.062  17.124  68.760  1.00  0.00    -0.229 C  
ENDROOT
BRANCH   7  13
HETATM   13  O   UNL     1      -5.522  11.870  67.112  1.00  0.00    -0.103 OA 
BRANCH  13  14
HETATM   14  C   UNL     1      -6.702  11.612  66.440  1.00  0.00     0.135 C  
HETATM   15  C   UNL     1      -7.932  11.787  67.401  1.00  0.00    -0.155 C  
HETATM   16  O   UNL     1      -6.734  11.280  65.261  1.00  0.00     0.398 OA 
HETATM   17  O   UNL     1      -7.468  12.122  68.723  1.00  0.00    -0.132 OA 
HETATM   18  C   UNL     1      -8.802  12.939  66.865  1.00  0.00    -0.188 A  
HETATM   19  C   UNL     1      -8.615  10.418  67.542  1.00  0.00    -0.125 A  
HETATM   20  C   UNL     1      -7.860   9.317  68.007  1.00  0.00    -0.092 A  
HETATM   21  C   UNL     1      -9.285  12.916  65.540  1.00  0.00     0.395 A  
HETATM   22  H   UNL     1      -8.212  12.229  69.304  1.00  0.00     0.000 HD 
HETATM   23  C   UNL     1     -10.086  13.943  65.037  1.00  0.00    -0.319 A  
HETATM   24  C   UNL     1      -8.386   8.023  68.008  1.00  0.00    -0.126 A  
HETATM   25  C   UNL     1     -10.408  15.026  65.848  1.00  0.00    -0.329 A  
HETATM   26  C   UNL     1      -9.685   7.803  67.566  1.00  0.00    -0.201 A  
HETATM   27  C   UNL     1      -9.933  15.080  67.154  1.00  0.00    -0.237 A  
HETATM   28  C   UNL     1     -10.471   8.880  67.165  1.00  0.00    -0.344 A  
HETATM   29  C   UNL     1      -9.948  10.176  67.171  1.00  0.00    -0.243 A  
HETATM   30  C   UNL     1      -9.143  14.045  67.663  1.00  0.00    -0.192 A  
ENDBRANCH  13  14
ENDBRANCH   7  13
TORSDOF 2
ENDMDL
MODEL      184
REMARK 921   NORMALIZED FREE ENERGY PREDICTED BY IDOCK:   34.68 KCAL/MOL
REMARK 922        TOTAL FREE ENERGY PREDICTED BY IDOCK:   38.20 KCAL/MOL
REMARK 923 INTER-LIGAND FREE ENERGY PREDICTED BY IDOCK:    3.08 KCAL/MOL
REMARK 924 INTRA-LIGAND FREE ENERGY PREDICTED BY IDOCK:   35.12 KCAL/MOL
REMARK 927      BINDING AFFINITY PREDICTED BY RF-SCORE:    0.00 PKD
ROOT
HETATM    1  C   UNL     1     -12.728  12.211  68.841  1.00  0.00     1.238 C  
HETATM    2  C   UNL     1     -12.961  13.338  67.833  1.00  0.00     2.238 C  
HETATM    3  C   UNL     1     -12.034  14.462  68.264  1.00  0.00    -0.323 C  
HETATM    4  C   UNL     1     -11.311  13.954  69.523  1.00  0.00    -0.237 C  
HETATM    5  N   UNL     1     -12.293  12.947  70.127  1.00  0.00    -0.232 N  
HETATM    6  C   UNL     1     -10.014  13.252  69.141  1.00  0.00     0.315 C  
HETATM    7  C   UNL     1     -10.173  11.811  68.639  1.00  0.00    -0.201 C  
HETATM    8  C   UNL     1     -11.755  12.024  71.237  1.00  0.00     1.279 C  
HETATM    9  C   UNL     1     -13.007  11.588  71.957  1.00  0.00    -0.373 C  
HETATM   10  C   UNL     1     -13.692  12.913  72.163  1.00  0.00    -0.505 C  
HETATM   11  C   UNL     1     -11.594  11.307  68.339  1.00  0.00    -0.378 C  
HETATM   12  C   UNL     1     -13.484  13.663  70.848  1.00  0.00     0.137 C  
ENDROOT
BRANCH   7  13
HETATM   13  O   UNL     1      -9.336  11.605  67.494  1.00  0.00    -0.164 OA 
BRANCH  13  14
HETATM   14  C   UNL     1      -9.065  12.766  66.794  1.00  0.00    -0.209 C  
HETATM   15  C   UNL     1     -10.225  13.808  66.984  1.00  0.00    -0.254 C  
HETATM   16  O   UNL     1      -8.052  12.910  66.120  1.00  0.00     0.713 OA 
HETATM   17  O   UNL     1     -11.264  13.229  67.798  1.00  0.00    -0.258 OA 
HETATM   18  C   UNL     1      -9.651  15.043  67.701  1.00  0.00    -0.203 A  
HETATM   19  C   UNL     1     -10.869  14.047  65.609  1.00  0.00    -0.295 A  
HETATM   20  C   UNL     1     -11.392  12.946  64.893  1.00  0.00    -0.340 A  
HETATM   21  C   UNL     1      -8.537  15.725  67.171  1.00  0.00    -0.226 A  
HETATM   22  H   UNL     1     -11.966  13.860  67.913  1.00  0.00     0.000 HD 
HETATM   23  C   UNL     1      -8.008  16.855  67.797  1.00  0.00    -0.188 A  
HETATM   24  C   UNL     1     -11.847  13.083  63.580  1.00  0.00    -0.582 A  
HETATM   25  C   UNL     1      -8.575  17.318  68.979  1.00  0.00    -0.078 A  
HETATM   26  C   UNL     1     -11.810  14.326  62.960  1.00  0.00     1.566 A  
HETATM   27  C   UNL     1      -9.667  16.655  69.530  1.00  0.00     0.007 A  
HETATM   28  C   UNL     1     -11.360  15.438  63.667  1.00  0.00     1.298 A  
HETATM   29  C   UNL     1     -10.912  15.304  64.984  1.00  0.00    -0.450 A  
HETATM   30  C   UNL     1     -10.206  15.532  68.897  1.00  0.00    -0.210 A  
ENDBRANCH  13  14
ENDBRANCH   7  13
TORSDOF 2
ENDMDL
MODEL      185
REMARK 921   NORMALIZED FREE ENERGY PREDICTED BY IDOCK:   38.19 KCAL/MOL
REMARK 922        TOTAL FREE ENERGY PREDICTED BY IDOCK:   42.12 KCAL/MOL
REMARK 923 INTER-LIGAND FREE ENERGY PREDICTED BY IDOCK:   37.14 KCAL/MOL
REMARK 924 INTRA-LIGAND FREE ENERGY PREDICTED BY IDOCK:    4.98 KCAL/MOL
REMARK 927      BINDING AFFINITY PREDICTED BY RF-SCORE:    0.00 PKD
ROOT
HETATM    1  C   UNL     1      -8.080  14.172  70.539  1.00  0.00     2.446 C  
HETATM    2  C   UNL     1      -9.505  13.972  71.059  1.00  0.00     5.074 C  
HETATM    3  C   UNL     1      -9.982  15.356  71.469  1.00  0.00     1.977 C  
HETATM    4  C   UNL     1      -8.806  16.307  71.192  1.00  0.00     5.039 C  
HETATM    5  N   UNL     1      -7.572  15.408  71.313  1.00  0.00     2.487 N  
HETATM    6  C   UNL     1      -8.903  16.871  69.780  1.00  0.00     0.989 C  
HETATM    7  C   UNL     1      -8.419  15.934  68.666  1.00  0.00    -0.200 C  
HETATM    8  C   UNL     1      -6.237  15.979  70.796  1.00  0.00     0.554 C  
HETATM    9  C   UNL     1      -5.207  15.150  71.523  1.00  0.00    -0.082 C  
HETATM   10  C   UNL     1      -5.718  15.238  72.936  1.00  0.00     0.774 C  
HETATM   11  C   UNL     1      -8.126  14.471  69.035  1.00  0.00    -0.085 C  
HETATM   12  C   UNL     1      -7.234  15.091  72.808  1.00  0.00     4.762 C  
ENDROOT
BRANCH   7  13
HETATM   13  O   UNL     1      -9.337  15.979  67.566  1.00  0.00    -0.214 OA 
BRANCH  13  14
HETATM   14  C   UNL     1      -9.119  17.042  66.710  1.00  0.00    -0.246 C  
HETATM   15  C   UNL     1      -9.108  18.397  67.505  1.00  0.00    -0.271 C  
HETATM   16  O   UNL     1      -8.973  16.899  65.501  1.00  0.00    -0.384 OA 
HETATM   17  O   UNL     1      -9.379  18.141  68.897  1.00  0.00    -0.268 OA 
HETATM   18  C   UNL     1      -7.709  19.025  67.370  1.00  0.00    -0.254 A  
HETATM   19  C   UNL     1     -10.292  19.241  67.006  1.00  0.00    -0.526 A  
HETATM   20  C   UNL     1     -11.598  18.707  67.083  1.00  0.00     1.304 A  
HETATM   21  C   UNL     1      -7.151  19.263  66.097  1.00  0.00    -0.273 A  
HETATM   22  H   UNL     1      -9.373  18.961  69.378  1.00  0.00     0.000 HD 
HETATM   23  C   UNL     1      -5.889  19.843  65.951  1.00  0.00    -0.191 A  
HETATM   24  C   UNL     1     -12.688  19.364  66.507  1.00  0.00     6.274 A  
HETATM   25  C   UNL     1      -5.152  20.183  67.080  1.00  0.00    -0.159 A  
HETATM   26  C   UNL     1     -12.500  20.579  65.859  1.00  0.00     5.462 A  
HETATM   27  C   UNL     1      -5.674  19.945  68.347  1.00  0.00    -0.254 A  
HETATM   28  C   UNL     1     -11.234  21.158  65.828  1.00  0.00     3.979 A  
HETATM   29  C   UNL     1     -10.144  20.504  66.411  1.00  0.00    -0.237 A  
HETATM   30  C   UNL     1      -6.942  19.378  68.494  1.00  0.00    -0.333 A  
ENDBRANCH  13  14
ENDBRANCH   7  13
TORSDOF 2
ENDMDL
MODEL      186
REMARK 921   NORMALIZED FREE ENERGY PREDICTED BY IDOCK:   39.21 KCAL/MOL
REMARK 922        TOTAL FREE ENERGY PREDICTED BY IDOCK:   43.26 KCAL/MOL
REMARK 923 INTER-LIGAND FREE ENERGY PREDICTED BY IDOCK:   21.58 KCAL/MOL
REMARK 924 INTRA-LIGAND FREE ENERGY PREDICTED BY IDOCK:   21.68 KCAL/MOL
REMARK 927      BINDING AFFINITY PREDICTED BY RF-SCORE:    0.00 PKD
ROOT
HETATM    1  C   UNL     1     -11.760  11.902  66.608  1.00  0.00    -0.186 C  
HETATM    2  C   UNL     1     -12.870  10.893  66.910  1.00  0.00     6.613 C  
HETATM    3  C   UNL     1     -13.129  10.174  65.596  1.00  0.00    13.201 C  
HETATM    4  C   UNL     1     -12.174  10.809  64.572  1.00  0.00     2.988 C  
HETATM    5  N   UNL     1     -11.950  12.225  65.110  1.00  0.00    -0.370 N  
HETATM    6  C   UNL     1     -10.853  10.050  64.538  1.00  0.00     1.880 C  
HETATM    7  C   UNL     1      -9.875  10.387  65.672  1.00  0.00    -0.259 C  
HETATM    8  C   UNL     1     -10.800  13.039  64.484  1.00  0.00    -0.372 C  
HETATM    9  C   UNL     1     -11.179  14.465  64.799  1.00  0.00    -0.391 C  
HETATM   10  C   UNL     1     -12.617  14.481  64.355  1.00  0.00    -0.180 C  
HETATM   11  C   UNL     1     -10.395  11.241  66.839  1.00  0.00    -0.272 C  
HETATM   12  C   UNL     1     -13.186  13.148  64.840  1.00  0.00     0.305 C  
ENDROOT
BRANCH   7  13
HETATM   13  O   UNL     1      -9.294   9.179  66.180  1.00  0.00    -0.190 OA 
BRANCH  13  14
HETATM   14  C   UNL     1      -8.813   9.300  67.470  1.00  0.00    -0.118 C  
HETATM   15  C   UNL     1      -9.435  10.558  68.175  1.00  0.00    -0.151 C  
HETATM   16  O   UNL     1      -8.003   8.515  67.951  1.00  0.00    -0.106 OA 
HETATM   17  O   UNL     1     -10.294  11.254  67.249  1.00  0.00    -0.189 OA 
HETATM   18  C   UNL     1     -10.271  10.076  69.374  1.00  0.00    -0.239 A  
HETATM   19  C   UNL     1      -8.290  11.536  68.483  1.00  0.00    -0.146 A  
HETATM   20  C   UNL     1      -7.473  11.994  67.424  1.00  0.00    -0.152 A  
HETATM   21  C   UNL     1      -9.692   9.263  70.370  1.00  0.00    -0.293 A  
HETATM   22  H   UNL     1     -10.670  12.015  67.675  1.00  0.00     0.000 HD 
HETATM   23  C   UNL     1     -10.427   8.825  71.473  1.00  0.00    -0.373 A  
HETATM   24  C   UNL     1      -6.329  12.758  67.666  1.00  0.00    -0.153 A  
HETATM   25  C   UNL     1     -11.767   9.180  71.593  1.00  0.00    -0.448 A  
HETATM   26  C   UNL     1      -5.987  13.099  68.969  1.00  0.00    -0.084 A  
HETATM   27  C   UNL     1     -12.365   9.971  70.618  1.00  0.00    -0.342 A  
HETATM   28  C   UNL     1      -6.811  12.715  70.023  1.00  0.00     0.526 A  
HETATM   29  C   UNL     1      -7.961  11.957  69.781  1.00  0.00     1.373 A  
HETATM   30  C   UNL     1     -11.626  10.421  69.521  1.00  0.00    -0.288 A  
ENDBRANCH  13  14
ENDBRANCH   7  13
TORSDOF 2
ENDMDL
MODEL      187
REMARK 921   NORMALIZED FREE ENERGY PREDICTED BY IDOCK:   45.89 KCAL/MOL
REMARK 922        TOTAL FREE ENERGY PREDICTED BY IDOCK:   50.72 KCAL/MOL
REMARK 923 INTER-LIGAND FREE ENERGY PREDICTED BY IDOCK:   21.91 KCAL/MOL
REMARK 924 INTRA-LIGAND FREE ENERGY PREDICTED BY IDOCK:   28.82 KCAL/MOL
REMARK 927      BINDING AFFINITY PREDICTED BY RF-SCORE:    0.00 PKD
ROOT
HETATM    1  C   UNL     1      -9.485  17.253  68.453  1.00  0.00    -0.283 C  
HETATM    2  C   UNL     1     -10.417  16.098  68.077  1.00  0.00    -0.281 C  
HETATM    3  C   UNL     1     -10.764  16.322  66.614  1.00  0.00    -0.197 C  
HETATM    4  C   UNL     1     -10.038  17.613  66.200  1.00  0.00    -0.301 C  
HETATM    5  N   UNL     1      -9.913  18.397  67.509  1.00  0.00    -0.321 N  
HETATM    6  C   UNL     1      -8.654  17.290  65.652  1.00  0.00     0.506 C  
HETATM    7  C   UNL     1      -7.578  17.014  66.712  1.00  0.00    -0.238 C  
HETATM    8  C   UNL     1      -8.963  19.611  67.510  1.00  0.00    -0.317 C  
HETATM    9  C   UNL     1      -9.462  20.436  68.671  1.00  0.00     0.168 C  
HETATM   10  C   UNL     1     -10.939  20.469  68.381  1.00  0.00     0.751 C  
HETATM   11  C   UNL     1      -8.033  16.847  68.171  1.00  0.00    -0.195 C  
HETATM   12  C   UNL     1     -11.275  19.050  67.924  1.00  0.00     0.342 C  
ENDROOT
BRANCH   7  13
HETATM   13  O   UNL     1      -6.795  15.881  66.318  1.00  0.00     0.259 OA 
BRANCH  13  14
HETATM   14  C   UNL     1      -7.492  14.970  65.546  1.00  0.00     6.392 C  
HETATM   15  C   UNL     1      -8.671  14.338  66.370  1.00  0.00     0.151 C  
HETATM   16  O   UNL     1      -7.186  14.713  64.387  1.00  0.00    14.031 OA 
HETATM   17  O   UNL     1      -8.653  14.859  67.714  1.00  0.00    -0.156 OA 
HETATM   18  C   UNL     1      -9.997  14.732  65.694  1.00  0.00    -0.390 A  
HETATM   19  C   UNL     1      -8.390  12.834  66.510  1.00  0.00     0.220 A  
HETATM   20  C   UNL     1      -7.177  12.413  67.102  1.00  0.00    -0.081 A  
HETATM   21  C   UNL     1     -10.218  14.447  64.330  1.00  0.00     0.453 A  
HETATM   22  H   UNL     1      -9.367  14.477  68.212  1.00  0.00     0.000 HD 
HETATM   23  C   UNL     1     -11.417  14.783  63.700  1.00  0.00     0.990 A  
HETATM   24  C   UNL     1      -6.804  11.067  67.115  1.00  0.00    -0.098 A  
HETATM   25  C   UNL     1     -12.417  15.428  64.420  1.00  0.00     0.030 A  
HETATM   26  C   UNL     1      -7.643  10.110  66.557  1.00  0.00    -0.109 A  
HETATM   27  C   UNL     1     -12.219  15.732  65.763  1.00  0.00     1.237 A  
HETATM   28  C   UNL     1      -8.872  10.492  66.027  1.00  0.00    -0.179 A  
HETATM   29  C   UNL     1      -9.250  11.838  66.020  1.00  0.00    -0.202 A  
HETATM   30  C   UNL     1     -11.024  15.383  66.398  1.00  0.00    -0.277 A  
ENDBRANCH  13  14
ENDBRANCH   7  13
TORSDOF 2
ENDMDL
MODEL      188
REMARK 921   NORMALIZED FREE ENERGY PREDICTED BY IDOCK:   50.72 KCAL/MOL
REMARK 922        TOTAL FREE ENERGY PREDICTED BY IDOCK:   56.12 KCAL/MOL
REMARK 923 INTER-LIGAND FREE ENERGY PREDICTED BY IDOCK:   10.58 KCAL/MOL
REMARK 924 INTRA-LIGAND FREE ENERGY PREDICTED BY IDOCK:   45.54 KCAL/MOL
REMARK 927      BINDING AFFINITY PREDICTED BY RF-SCORE:    0.00 PKD
ROOT
HETATM    1  C   UNL     1      -7.367  18.247  66.925  1.00  0.00    -0.208 C  
HETATM    2  C   UNL     1      -6.736  18.137  68.315  1.00  0.00    -0.212 C  
HETATM    3  C   UNL     1      -6.211  19.528  68.630  1.00  0.00    -0.278 C  
HETATM    4  C   UNL     1      -6.538  20.392  67.400  1.00  0.00    -0.243 C  
HETATM    5  N   UNL     1      -6.575  19.386  66.247  1.00  0.00    -0.190 N  
HETATM    6  C   UNL     1      -7.903  21.048  67.562  1.00  0.00    -0.091 C  
HETATM    7  C   UNL     1      -9.105  20.144  67.258  1.00  0.00    -0.368 C  
HETATM    8  C   UNL     1      -7.174  19.871  64.913  1.00  0.00     0.304 C  
HETATM    9  C   UNL     1      -6.587  18.915  63.905  1.00  0.00     2.014 C  
HETATM   10  C   UNL     1      -5.132  18.958  64.287  1.00  0.00    -0.236 C  
HETATM   11  C   UNL     1      -8.843  18.641  67.068  1.00  0.00    -0.286 C  
HETATM   12  C   UNL     1      -5.134  18.949  65.816  1.00  0.00    -0.139 C  
ENDROOT
BRANCH   7  13
HETATM   13  O   UNL     1     -10.116  20.335  68.255  1.00  0.00    -0.381 OA 
BRANCH  13  14
HETATM   14  C   UNL     1      -9.879  19.630  69.421  1.00  0.00    -0.164 C  
HETATM   15  C   UNL     1      -8.570  18.772  69.291  1.00  0.00     0.170 C  
HETATM   16  O   UNL     1     -10.624  19.689  70.393  1.00  0.00     0.786 OA 
HETATM   17  O   UNL     1      -8.019  18.931  67.968  1.00  0.00    -0.271 OA 
HETATM   18  C   UNL     1      -7.552  19.284  70.326  1.00  0.00     0.990 A  
HETATM   19  C   UNL     1      -8.970  17.291  69.391  1.00  0.00     0.344 A  
HETATM   20  C   UNL     1      -9.919  16.772  68.482  1.00  0.00    -0.271 A  
HETATM   21  C   UNL     1      -7.893  19.351  71.693  1.00  0.00     3.925 A  
HETATM   22  H   UNL     1      -7.227  18.412  67.889  1.00  0.00     0.000 HD 
HETATM   23  C   UNL     1      -6.982  19.799  72.651  1.00  0.00     2.242 A  
HETATM   24  C   UNL     1     -10.430  15.480  68.624  1.00  0.00    -0.237 A  
HETATM   25  C   UNL     1      -5.712  20.206  72.257  1.00  0.00     0.137 A  
HETATM   26  C   UNL     1      -9.990  14.671  69.666  1.00  0.00     0.117 A  
HETATM   27  C   UNL     1      -5.355  20.162  70.913  1.00  0.00    -0.305 A  
HETATM   28  C   UNL     1      -9.008  15.137  70.535  1.00  0.00     1.299 A  
HETATM   29  C   UNL     1      -8.489  16.428  70.389  1.00  0.00     2.460 A  
HETATM   30  C   UNL     1      -6.262  19.700  69.955  1.00  0.00    -0.327 A  
ENDBRANCH  13  14
ENDBRANCH   7  13
TORSDOF 2
ENDMDL
MODEL      189
REMARK 921   NORMALIZED FREE ENERGY PREDICTED BY IDOCK:   60.60 KCAL/MOL
REMARK 922        TOTAL FREE ENERGY PREDICTED BY IDOCK:   67.15 KCAL/MOL
REMARK 923 INTER-LIGAND FREE ENERGY PREDICTED BY IDOCK:   57.51 KCAL/MOL
REMARK 924 INTRA-LIGAND FREE ENERGY PREDICTED BY IDOCK:    9.65 KCAL/MOL
REMARK 927      BINDING AFFINITY PREDICTED BY RF-SCORE:    0.00 PKD
ROOT
HETATM    1  C   UNL     1      -7.199  15.606  70.005  1.00  0.00     0.152 C  
HETATM    2  C   UNL     1      -6.662  14.860  68.782  1.00  0.00    -0.092 C  
HETATM    3  C   UNL     1      -6.662  13.391  69.175  1.00  0.00    -0.099 C  
HETATM    4  C   UNL     1      -7.179  13.341  70.622  1.00  0.00     2.452 C  
HETATM    5  N   UNL     1      -6.795  14.708  71.195  1.00  0.00     0.648 N  
HETATM    6  C   UNL     1      -8.693  13.176  70.639  1.00  0.00     6.837 C  
HETATM    7  C   UNL     1      -9.494  14.461  70.388  1.00  0.00     1.853 C  
HETATM    8  C   UNL     1      -7.432  15.108  72.539  1.00  0.00     5.593 C  
HETATM    9  C   UNL     1      -6.489  16.162  73.065  1.00  0.00     4.856 C  
HETATM   10  C   UNL     1      -5.163  15.471  72.886  1.00  0.00     0.745 C  
HETATM   11  C   UNL     1      -8.726  15.705  69.911  1.00  0.00     0.222 C  
HETATM   12  C   UNL     1      -5.265  14.788  71.523  1.00  0.00    -0.132 C  
ENDROOT
BRANCH   7  13
HETATM   13  O   UNL     1     -10.575  14.186  69.488  1.00  0.00    -0.112 OA 
BRANCH  13  14
HETATM   14  C   UNL     1     -11.432  15.257  69.313  1.00  0.00    -0.320 C  
HETATM   15  C   UNL     1     -10.966  16.482  70.178  1.00  0.00    -0.207 C  
HETATM   16  O   UNL     1     -12.415  15.205  68.584  1.00  0.00     0.027 OA 
HETATM   17  O   UNL     1      -9.801  16.117  70.944  1.00  0.00     1.243 OA 
HETATM   18  C   UNL     1     -10.601  17.635  69.224  1.00  0.00     0.090 A  
HETATM   19  C   UNL     1     -12.064  16.768  71.215  1.00  0.00     1.092 A  
HETATM   20  C   UNL     1     -12.457  15.740  72.101  1.00  0.00    -0.533 A  
HETATM   21  C   UNL     1     -11.534  18.102  68.276  1.00  0.00     1.276 A  
HETATM   22  H   UNL     1      -9.519  16.859  71.467  1.00  0.00     0.000 HD 
HETATM   23  C   UNL     1     -11.230  19.154  67.410  1.00  0.00    -0.016 A  
HETATM   24  C   UNL     1     -13.550  15.896  72.956  1.00  0.00    -0.616 A  
HETATM   25  C   UNL     1      -9.975  19.752  67.465  1.00  0.00    -0.540 A  
HETATM   26  C   UNL     1     -14.262  17.090  72.959  1.00  0.00     2.981 A  
HETATM   27  C   UNL     1      -9.032  19.301  68.383  1.00  0.00    -0.397 A  
HETATM   28  C   UNL     1     -13.854  18.140  72.142  1.00  0.00    17.162 A  
HETATM   29  C   UNL     1     -12.755  17.988  71.292  1.00  0.00    13.201 A  
HETATM   30  C   UNL     1      -9.341  18.257  69.259  1.00  0.00     0.139 A  
ENDBRANCH  13  14
ENDBRANCH   7  13
TORSDOF 2
ENDMDL
MODEL      190
REMARK 921   NORMALIZED FREE ENERGY PREDICTED BY IDOCK:   69.03 KCAL/MOL
REMARK 922        TOTAL FREE ENERGY PREDICTED BY IDOCK:   76.57 KCAL/MOL
REMARK 923 INTER-LIGAND FREE ENERGY PREDICTED BY IDOCK:   34.22 KCAL/MOL
REMARK 924 INTRA-LIGAND FREE ENERGY PREDICTED BY IDOCK:   42.35 KCAL/MOL
REMARK 927      BINDING AFFINITY PREDICTED BY RF-SCORE:    0.00 PKD
ROOT
HETATM    1  C   UNL     1      -9.567  14.936  70.173  1.00  0.00     0.482 C  
HETATM    2  C   UNL     1     -10.111  13.957  69.129  1.00  0.00     0.066 C  
HETATM    3  C   UNL     1      -8.918  13.590  68.262  1.00  0.00    -0.180 C  
HETATM    4  C   UNL     1      -7.728  14.387  68.821  1.00  0.00    -0.139 C  
HETATM    5  N   UNL     1      -8.379  15.617  69.459  1.00  0.00    -0.230 N  
HETATM    6  C   UNL     1      -6.998  13.574  69.883  1.00  0.00     0.356 C  
HETATM    7  C   UNL     1      -7.656  13.567  71.269  1.00  0.00     5.439 C  
HETATM    8  C   UNL     1      -7.494  16.480  70.379  1.00  0.00     2.008 C  
HETATM    9  C   UNL     1      -8.203  17.812  70.386  1.00  0.00     3.612 C  
HETATM   10  C   UNL     1      -8.417  18.025  68.911  1.00  0.00    -0.128 C  
HETATM   11  C   UNL     1      -9.073  14.152  71.395  1.00  0.00     6.470 C  
HETATM   12  C   UNL     1      -8.834  16.655  68.379  1.00  0.00    -0.226 C  
ENDROOT
BRANCH   7  13
HETATM   13  O   UNL     1      -7.634  12.239  71.806  1.00  0.00     8.001 OA 
BRANCH  13  14
HETATM   14  C   UNL     1      -8.094  11.280  70.923  1.00  0.00     5.130 C  
HETATM   15  C   UNL     1      -8.472  11.934  69.547  1.00  0.00     1.153 C  
HETATM   16  O   UNL     1      -8.189  10.095  71.224  1.00  0.00     0.818 OA 
HETATM   17  O   UNL     1      -8.274  13.360  69.620  1.00  0.00     0.325 OA 
HETATM   18  C   UNL     1      -7.545  11.352  68.465  1.00  0.00    -0.129 A  
HETATM   19  C   UNL     1      -9.982  11.741  69.336  1.00  0.00     0.456 A  
HETATM   20  C   UNL     1     -10.881  12.234  70.309  1.00  0.00     1.355 A  
HETATM   21  C   UNL     1      -7.456   9.957  68.273  1.00  0.00    -0.080 A  
HETATM   22  H   UNL     1      -8.503  13.756  68.787  1.00  0.00     0.000 HD 
HETATM   23  C   UNL     1      -6.632   9.408  67.289  1.00  0.00    -0.071 A  
HETATM   24  C   UNL     1     -12.248  11.953  70.246  1.00  0.00    -0.353 A  
HETATM   25  C   UNL     1      -5.865  10.244  66.485  1.00  0.00    -0.063 A  
HETATM   26  C   UNL     1     -12.750  11.191  69.197  1.00  0.00     0.607 A  
HETATM   27  C   UNL     1      -5.925  11.623  66.663  1.00  0.00    -0.099 A  
HETATM   28  C   UNL     1     -11.894  10.749  68.192  1.00  0.00    -0.033 A  
HETATM   29  C   UNL     1     -10.527  11.037  68.251  1.00  0.00    -0.212 A  
HETATM   30  C   UNL     1      -6.760  12.174  67.638  1.00  0.00    -0.118 A  
ENDBRANCH  13  14
ENDBRANCH   7  13
TORSDOF 2
ENDMDL
MODEL      191
REMARK 921   NORMALIZED FREE ENERGY PREDICTED BY IDOCK:   71.24 KCAL/MOL
REMARK 922        TOTAL FREE ENERGY PREDICTED BY IDOCK:   79.03 KCAL/MOL
REMARK 923 INTER-LIGAND FREE ENERGY PREDICTED BY IDOCK:   79.57 KCAL/MOL
REMARK 924 INTRA-LIGAND FREE ENERGY PREDICTED BY IDOCK:   -0.53 KCAL/MOL
REMARK 927      BINDING AFFINITY PREDICTED BY RF-SCORE:    0.00 PKD
ROOT
HETATM    1  C   UNL     1      -7.448  18.191  67.135  1.00  0.00    -0.209 C  
HETATM    2  C   UNL     1      -6.823  18.051  68.525  1.00  0.00    -0.237 C  
HETATM    3  C   UNL     1      -6.529  19.472  68.979  1.00  0.00    -0.342 C  
HETATM    4  C   UNL     1      -6.974  20.385  67.825  1.00  0.00    -0.311 C  
HETATM    5  N   UNL     1      -6.839  19.498  66.584  1.00  0.00    -0.194 N  
HETATM    6  C   UNL     1      -8.428  20.801  68.010  1.00  0.00     0.212 C  
HETATM    7  C   UNL     1      -9.468  19.752  67.594  1.00  0.00    -0.352 C  
HETATM    8  C   UNL     1      -7.493  20.006  65.284  1.00  0.00     0.034 C  
HETATM    9  C   UNL     1      -6.750  19.252  64.209  1.00  0.00     0.950 C  
HETATM   10  C   UNL     1      -5.324  19.487  64.632  1.00  0.00    -0.220 C  
HETATM   11  C   UNL     1      -8.969  18.333  67.275  1.00  0.00    -0.259 C  
HETATM   12  C   UNL     1      -5.342  19.334  66.152  1.00  0.00    -0.155 C  
ENDROOT
BRANCH   7  13
HETATM   13  O   UNL     1     -10.507  19.688  68.578  1.00  0.00    -0.392 OA 
BRANCH  13  14
HETATM   14  C   UNL     1     -10.088  19.168  69.789  1.00  0.00     0.478 C  
HETATM   15  C   UNL     1     -10.958  17.921  70.183  1.00  0.00     1.847 C  
HETATM   16  O   UNL     1      -9.168  19.655  70.436  1.00  0.00     0.855 OA 
HETATM   17  O   UNL     1     -11.978  17.709  69.187  1.00  0.00     1.551 OA 
HETATM   18  C   UNL     1     -10.038  16.687  70.233  1.00  0.00     0.763 A  
HETATM   19  C   UNL     1     -11.714  18.268  71.476  1.00  0.00     5.941 A  
HETATM   20  C   UNL     1     -12.555  19.404  71.496  1.00  0.00    19.785 A  
HETATM   21  C   UNL     1      -8.884  16.687  71.045  1.00  0.00     5.431 A  
HETATM   22  H   UNL     1     -12.503  16.955  69.426  1.00  0.00     0.000 HD 
HETATM   23  C   UNL     1      -8.043  15.575  71.115  1.00  0.00     3.345 A  
HETATM   24  C   UNL     1     -13.144  19.852  72.681  1.00  0.00    24.758 A  
HETATM   25  C   UNL     1      -8.332  14.443  70.361  1.00  0.00     1.850 A  
HETATM   26  C   UNL     1     -12.922  19.163  73.867  1.00  0.00    11.164 A  
HETATM   27  C   UNL     1      -9.456  14.423  69.543  1.00  0.00     0.368 A  
HETATM   28  C   UNL     1     -12.150  18.004  73.861  1.00  0.00     1.629 A  
HETATM   29  C   UNL     1     -11.568  17.551  72.673  1.00  0.00     1.549 A  
HETATM   30  C   UNL     1     -10.306  15.530  69.482  1.00  0.00    -0.271 A  
ENDBRANCH  13  14
ENDBRANCH   7  13
TORSDOF 2
ENDMDL
MODEL      192
REMARK 921   NORMALIZED FREE ENERGY PREDICTED BY IDOCK:   81.33 KCAL/MOL
REMARK 922        TOTAL FREE ENERGY PREDICTED BY IDOCK:   90.31 KCAL/MOL
REMARK 923 INTER-LIGAND FREE ENERGY PREDICTED BY IDOCK:   50.92 KCAL/MOL
REMARK 924 INTRA-LIGAND FREE ENERGY PREDICTED BY IDOCK:   39.39 KCAL/MOL
REMARK 927      BINDING AFFINITY PREDICTED BY RF-SCORE:    0.00 PKD
ROOT
HETATM    1  C   UNL     1      -7.199  15.606  70.005  1.00  0.00     0.152 C  
HETATM    2  C   UNL     1      -6.662  14.860  68.782  1.00  0.00    -0.092 C  
HETATM    3  C   UNL     1      -6.662  13.391  69.175  1.00  0.00    -0.099 C  
HETATM    4  C   UNL     1      -7.179  13.341  70.622  1.00  0.00     2.452 C  
HETATM    5  N   UNL     1      -6.795  14.708  71.195  1.00  0.00     0.648 N  
HETATM    6  C   UNL     1      -8.693  13.176  70.639  1.00  0.00     6.837 C  
HETATM    7  C   UNL     1      -9.494  14.461  70.388  1.00  0.00     1.853 C  
HETATM    8  C   UNL     1      -7.432  15.108  72.539  1.00  0.00     5.593 C  
HETATM    9  C   UNL     1      -6.489  16.162  73.065  1.00  0.00     4.856 C  
HETATM   10  C   UNL     1      -5.163  15.471  72.886  1.00  0.00     0.745 C  
HETATM   11  C   UNL     1      -8.726  15.705  69.911  1.00  0.00     0.222 C  
HETATM   12  C   UNL     1      -5.265  14.788  71.523  1.00  0.00    -0.132 C  
ENDROOT
BRANCH   7  13
HETATM   13  O   UNL     1     -10.575  14.186  69.488  1.00  0.00    -0.112 OA 
BRANCH  13  14
HETATM   14  C   UNL     1     -10.447  14.818  68.265  1.00  0.00    -0.241 C  
HETATM   15  C   UNL     1      -9.133  15.677  68.223  1.00  0.00    -0.187 C  
HETATM   16  O   UNL     1     -11.278  14.704  67.371  1.00  0.00    -0.317 OA 
HETATM   17  O   UNL     1      -8.462  15.595  69.497  1.00  0.00    -0.252 OA 
HETATM   18  C   UNL     1      -8.213  15.100  67.132  1.00  0.00    -0.251 A  
HETATM   19  C   UNL     1      -9.542  17.151  68.070  1.00  0.00    -0.267 A  
HETATM   20  C   UNL     1     -10.404  17.728  69.029  1.00  0.00    -0.234 A  
HETATM   21  C   UNL     1      -8.678  14.952  65.808  1.00  0.00     0.889 A  
HETATM   22  H   UNL     1      -7.667  16.115  69.471  1.00  0.00     0.000 HD 
HETATM   23  C   UNL     1      -7.858  14.443  64.799  1.00  0.00    10.782 A  
HETATM   24  C   UNL     1     -10.928  19.011  68.857  1.00  0.00     1.148 A  
HETATM   25  C   UNL     1      -6.556  14.056  65.099  1.00  0.00    14.086 A  
HETATM   26  C   UNL     1     -10.586  19.754  67.733  1.00  0.00    -0.501 A  
HETATM   27  C   UNL     1      -6.078  14.179  66.400  1.00  0.00     4.098 A  
HETATM   28  C   UNL     1      -9.687  19.232  66.807  1.00  0.00    -0.413 A  
HETATM   29  C   UNL     1      -9.156  17.951  66.983  1.00  0.00    -0.256 A  
HETATM   30  C   UNL     1      -6.894  14.701  67.407  1.00  0.00    -0.085 A  
ENDBRANCH  13  14
ENDBRANCH   7  13
TORSDOF 2
ENDMDL
