MODEL        1
REMARK 921   NORMALIZED FREE ENERGY PREDICTED BY IDOCK:   -6.32 KCAL/MOL
REMARK 922        TOTAL FREE ENERGY PREDICTED BY IDOCK:   -6.58 KCAL/MOL
REMARK 923 INTER-LIGAND FREE ENERGY PREDICTED BY IDOCK:   -8.90 KCAL/MOL
REMARK 924 INTRA-LIGAND FREE ENERGY PREDICTED BY IDOCK:    2.32 KCAL/MOL
REMARK 927      BINDING AFFINITY PREDICTED BY RF-SCORE:    0.00 PKD
ROOT
HETATM    1  C   UNL     1      -8.006   7.208  63.460  1.00  0.00    -0.067 C  
HETATM    2  C   UNL     1      -7.786   7.573  64.899  1.00  0.00    -0.115 A  
HETATM    3  C   UNL     1      -8.629   8.560  65.458  1.00  0.00    -0.204 A  
HETATM    4  C   UNL     1      -8.533   8.971  66.795  1.00  0.00    -0.121 A  
HETATM    5  C   UNL     1      -7.570   8.323  67.582  1.00  0.00    -0.098 A  
HETATM    6  C   UNL     1      -6.772   6.993  65.687  1.00  0.00    -0.052 A  
HETATM    7  C   UNL     1      -6.706   7.362  67.037  1.00  0.00    -0.069 A  
ENDROOT
BRANCH   4   8
HETATM    8  C   UNL     1      -9.414  10.030  67.347  1.00  0.00    -0.176 A  
HETATM    9  C   UNL     1      -9.681  12.185  68.507  1.00  0.00    -0.153 A  
HETATM   10  C   UNL     1      -8.878  11.214  67.877  1.00  0.00    -0.136 A  
HETATM   11  C   UNL     1      -9.005  13.376  69.133  1.00  0.00     0.591 C  
HETATM   12  C   UNL     1     -10.812   9.894  67.386  1.00  0.00    -0.293 A  
HETATM   13  C   UNL     1     -11.077  12.002  68.579  1.00  0.00    -0.244 A  
HETATM   14  C   UNL     1     -11.630  10.865  67.982  1.00  0.00    -0.295 A  
BRANCH  13  15
HETATM   15  N   UNL     1     -11.851  12.873  69.372  1.00  0.00    -0.316 NA 
HETATM   16  H   UNL     1     -11.955  12.749  70.378  1.00  0.00     0.000 HD 
BRANCH  15  17
HETATM   17  N   UNL     1     -12.401  13.808  68.750  1.00  0.00    -0.394 NA 
HETATM   18  H   UNL     1     -13.338  13.760  68.349  1.00  0.00     0.000 HD 
BRANCH  17  19
HETATM   19  C   UNL     1     -11.549  14.953  68.674  1.00  0.00    -0.318 A  
HETATM   20  H1  UNL     1      -8.658  16.094  64.246  1.00  0.00     0.000 HD 
HETATM   21  S   UNL     1      -7.519  20.262  67.114  1.00  0.00    -0.311 S  
HETATM   22  C   UNL     1      -9.189  18.492  68.366  1.00  0.00    -0.347 A  
HETATM   23  C   UNL     1      -8.504  18.796  67.185  1.00  0.00    -0.272 A  
HETATM   24  C   UNL     1      -8.544  17.940  66.093  1.00  0.00    -0.130 A  
HETATM   25  O   UNL     1      -6.458  20.051  68.311  1.00  0.00    -0.254 OA 
HETATM   26  O   UNL     1      -8.374  21.378  67.444  1.00  0.00    -0.052 OA 
HETATM   27  N   UNL     1      -9.169  15.855  65.095  1.00  0.00     0.122 NA 
HETATM   28  H   UNL     1     -10.597  14.749  65.555  1.00  0.00     0.000 HD 
HETATM   29  C   UNL     1      -9.947  17.315  68.453  1.00  0.00    -0.322 A  
HETATM   30  O   UNL     1      -6.733  20.223  65.899  1.00  0.00    -0.231 OA 
HETATM   31  C   UNL     1     -10.620  16.997  69.644  1.00  0.00    -0.087 A  
HETATM   32  C   UNL     1      -9.317  16.781  66.150  1.00  0.00    -0.255 A  
HETATM   33  C   UNL     1     -10.034  16.445  67.341  1.00  0.00    -0.251 A  
HETATM   34  O   UNL     1     -11.055  14.516  66.355  1.00  0.00    -0.318 OA 
HETATM   35  C   UNL     1     -11.403  15.833  69.748  1.00  0.00    -0.339 A  
HETATM   36  C   UNL     1     -10.866  15.300  67.482  1.00  0.00    -0.304 A  
HETATM   37  S   UNL     1     -12.235  15.511  71.273  1.00  0.00    -0.432 S  
HETATM   38  H2  UNL     1     -10.099  15.536  64.824  1.00  0.00     0.000 HD 
HETATM   39  O   UNL     1     -11.913  14.165  71.694  1.00  0.00    -0.230 OA 
HETATM   40  O   UNL     1     -13.799  15.499  70.884  1.00  0.00    -0.512 OA 
HETATM   41  O   UNL     1     -12.023  16.641  72.154  1.00  0.00    -0.388 OA 
ENDBRANCH  17  19
ENDBRANCH  15  17
ENDBRANCH  13  15
ENDBRANCH   4   8
BRANCH   6  42
HETATM   42  N   UNL     1      -5.839   6.017  65.264  1.00  0.00    -0.024 NA 
HETATM   43  H   UNL     1      -4.884   6.250  64.991  1.00  0.00     0.000 HD 
BRANCH  42  44
HETATM   44  N   UNL     1      -6.276   4.852  65.252  1.00  0.00    -0.033 NA 
HETATM   45  H   UNL     1      -6.168   4.230  64.450  1.00  0.00     0.000 HD 
BRANCH  44  46
HETATM   46  C   UNL     1      -6.937   4.460  66.446  1.00  0.00    -0.062 A  
HETATM   47  C   UNL     1      -8.195   3.854  66.354  1.00  0.00    -0.104 A  
HETATM   48  H   UNL     1      -4.854   5.359  68.793  1.00  0.00     0.000 HD 
HETATM   49  S   UNL     1      -8.941   3.554  64.775  1.00  0.00    -0.136 S  
HETATM   50  C   UNL     1      -8.913   3.457  67.491  1.00  0.00    -0.173 A  
HETATM   51  O   UNL     1      -5.191   5.232  67.913  1.00  0.00    -0.003 OA 
HETATM   52  C   UNL     1      -8.399   3.653  68.774  1.00  0.00    -0.089 A  
HETATM   53  O   UNL     1      -7.977   2.889  63.923  1.00  0.00    -0.079 OA 
HETATM   54  O   UNL     1      -9.180   5.015  64.144  1.00  0.00    -0.019 OA 
HETATM   55  H1  UNL     1      -4.837   5.327  69.762  1.00  0.00     0.000 HD 
HETATM   56  C   UNL     1      -6.433   4.649  67.760  1.00  0.00    -0.045 A  
HETATM   57  O   UNL     1     -10.247   2.970  65.001  1.00  0.00     0.145 OA 
HETATM   58  C   UNL     1      -9.156   3.235  69.873  1.00  0.00    -0.199 A  
HETATM   59  H2  UNL     1      -4.817   4.279  71.052  1.00  0.00     0.000 HD 
HETATM   60  N   UNL     1      -5.375   4.971  70.552  1.00  0.00    -0.004 NA 
HETATM   61  C   UNL     1      -7.134   4.260  68.950  1.00  0.00    -0.051 A  
HETATM   62  C   UNL     1      -8.656   3.383  71.162  1.00  0.00    -0.072 A  
HETATM   63  O   UNL     1      -8.694   2.219  73.488  1.00  0.00    -0.065 OA 
HETATM   64  C   UNL     1      -7.401   3.942  71.380  1.00  0.00    -0.040 A  
HETATM   65  O   UNL     1     -10.550   3.838  72.879  1.00  0.00    -0.169 OA 
HETATM   66  S   UNL     1      -9.611   2.797  72.532  1.00  0.00    -0.126 S  
HETATM   67  O   UNL     1     -10.434   1.545  71.930  1.00  0.00    -0.148 OA 
HETATM   68  C   UNL     1      -6.661   4.432  70.294  1.00  0.00    -0.033 A  
ENDBRANCH  44  46
ENDBRANCH  42  44
ENDBRANCH   6  42
TORSDOF 7
ENDMDL
MODEL        2
REMARK 921   NORMALIZED FREE ENERGY PREDICTED BY IDOCK:   -1.15 KCAL/MOL
REMARK 922        TOTAL FREE ENERGY PREDICTED BY IDOCK:    0.70 KCAL/MOL
REMARK 923 INTER-LIGAND FREE ENERGY PREDICTED BY IDOCK:   -7.18 KCAL/MOL
REMARK 924 INTRA-LIGAND FREE ENERGY PREDICTED BY IDOCK:    7.88 KCAL/MOL
REMARK 927      BINDING AFFINITY PREDICTED BY RF-SCORE:    0.00 PKD
ROOT
HETATM    1  C   UNL     1      -8.981   6.558  64.395  1.00  0.00     0.792 C  
HETATM    2  C   UNL     1      -8.381   7.429  65.461  1.00  0.00    -0.139 A  
HETATM    3  C   UNL     1      -9.154   8.516  65.926  1.00  0.00    -0.237 A  
HETATM    4  C   UNL     1      -8.710   9.387  66.931  1.00  0.00    -0.137 A  
HETATM    5  C   UNL     1      -7.456   9.108  67.494  1.00  0.00    -0.088 A  
HETATM    6  C   UNL     1      -7.090   7.214  65.984  1.00  0.00    -0.073 A  
HETATM    7  C   UNL     1      -6.664   8.050  67.025  1.00  0.00    -0.065 A  
ENDROOT
BRANCH   4   8
HETATM    8  C   UNL     1      -9.533  10.538  67.380  1.00  0.00    -0.172 A  
HETATM    9  C   UNL     1      -9.688  12.878  68.132  1.00  0.00    -0.227 A  
HETATM   10  C   UNL     1      -8.954  11.799  67.600  1.00  0.00    -0.169 A  
HETATM   11  C   UNL     1      -8.959  14.162  68.426  1.00  0.00    -0.189 C  
HETATM   12  C   UNL     1     -10.911  10.422  67.626  1.00  0.00    -0.374 A  
HETATM   13  C   UNL     1     -11.060  12.720  68.418  1.00  0.00    -0.262 A  
HETATM   14  C   UNL     1     -11.664  11.494  68.126  1.00  0.00    -0.357 A  
BRANCH  13  15
HETATM   15  N   UNL     1     -11.741  13.733  69.123  1.00  0.00    -0.310 NA 
HETATM   16  H   UNL     1     -11.699  13.815  70.139  1.00  0.00     0.000 HD 
BRANCH  15  17
HETATM   17  N   UNL     1     -12.401  14.522  68.413  1.00  0.00    -0.605 NA 
HETATM   18  H   UNL     1     -13.417  14.504  68.324  1.00  0.00     0.000 HD 
BRANCH  17  19
HETATM   19  C   UNL     1     -11.549  15.454  67.743  1.00  0.00    -0.228 A  
HETATM   20  H1  UNL     1      -8.871  19.328  70.406  1.00  0.00     0.000 HD 
HETATM   21  S   UNL     1      -7.000  20.114  65.635  1.00  0.00    -0.279 S  
HETATM   22  C   UNL     1      -8.827  18.082  65.775  1.00  0.00     0.384 A  
HETATM   23  C   UNL     1      -8.097  19.031  66.498  1.00  0.00    -0.289 A  
HETATM   24  C   UNL     1      -8.263  19.169  67.869  1.00  0.00    -0.325 A  
HETATM   25  O   UNL     1      -7.972  20.866  64.589  1.00  0.00     0.869 OA 
HETATM   26  O   UNL     1      -6.070  19.294  64.894  1.00  0.00    -0.246 OA 
HETATM   27  N   UNL     1      -9.410  18.625  69.900  1.00  0.00     0.900 NA 
HETATM   28  H   UNL     1     -10.320  17.052  70.314  1.00  0.00     0.000 HD 
HETATM   29  C   UNL     1      -9.730  17.237  66.438  1.00  0.00    -0.303 A  
HETATM   30  O   UNL     1      -6.562  21.144  66.552  1.00  0.00    -0.279 OA 
HETATM   31  C   UNL     1     -10.477  16.296  65.712  1.00  0.00    -0.379 A  
HETATM   32  C   UNL     1      -9.132  18.318  68.551  1.00  0.00    -0.311 A  
HETATM   33  C   UNL     1      -9.888  17.333  67.841  1.00  0.00    -0.283 A  
HETATM   34  O   UNL     1     -10.837  16.413  69.838  1.00  0.00    -0.344 OA 
HETATM   35  C   UNL     1     -11.373  15.425  66.359  1.00  0.00    -0.087 A  
HETATM   36  C   UNL     1     -10.777  16.407  68.454  1.00  0.00    -0.327 A  
HETATM   37  S   UNL     1     -12.264  14.255  65.380  1.00  0.00    -0.390 S  
HETATM   38  H2  UNL     1      -9.375  17.757  70.433  1.00  0.00     0.000 HD 
HETATM   39  O   UNL     1     -13.671  14.374  65.693  1.00  0.00    -0.114 OA 
HETATM   40  O   UNL     1     -11.798  12.819  65.943  1.00  0.00    -0.393 OA 
HETATM   41  O   UNL     1     -11.791  14.351  64.013  1.00  0.00    -0.326 OA 
ENDBRANCH  17  19
ENDBRANCH  15  17
ENDBRANCH  13  15
ENDBRANCH   4   8
BRANCH   6  42
HETATM   42  N   UNL     1      -6.193   6.190  65.603  1.00  0.00    -0.036 NA 
HETATM   43  H   UNL     1      -5.423   6.346  64.952  1.00  0.00     0.000 HD 
BRANCH  42  44
HETATM   44  N   UNL     1      -6.416   5.083  66.126  1.00  0.00    -0.042 NA 
HETATM   45  H   UNL     1      -6.074   4.206  65.731  1.00  0.00     0.000 HD 
BRANCH  44  46
HETATM   46  C   UNL     1      -7.186   5.141  67.318  1.00  0.00    -0.081 A  
HETATM   47  C   UNL     1      -8.370   4.398  67.393  1.00  0.00    -0.100 A  
HETATM   48  H   UNL     1      -5.490   7.183  69.216  1.00  0.00     0.000 HD 
HETATM   49  S   UNL     1      -8.888   3.381  66.038  1.00  0.00    -0.142 S  
HETATM   50  C   UNL     1      -9.190   4.421  68.531  1.00  0.00    -0.186 A  
HETATM   51  O   UNL     1      -5.704   6.662  68.451  1.00  0.00    -0.015 OA 
HETATM   52  C   UNL     1      -8.856   5.193  69.645  1.00  0.00    -0.125 A  
HETATM   53  O   UNL     1      -7.775   2.549  65.628  1.00  0.00    -0.075 OA 
HETATM   54  O   UNL     1      -9.163   4.407  64.830  1.00  0.00    -0.149 OA 
HETATM   55  H1  UNL     1      -5.590   7.557  70.105  1.00  0.00     0.000 HD 
HETATM   56  C   UNL     1      -6.867   5.918  68.462  1.00  0.00    -0.070 A  
HETATM   57  O   UNL     1     -10.160   2.785  66.387  1.00  0.00     0.665 OA 
HETATM   58  C   UNL     1      -9.708   5.175  70.754  1.00  0.00    -0.255 A  
HETATM   59  H2  UNL     1      -5.646   7.148  71.715  1.00  0.00     0.000 HD 
HETATM   60  N   UNL     1      -6.192   7.496  70.926  1.00  0.00    -0.035 NA 
HETATM   61  C   UNL     1      -7.676   5.971  69.645  1.00  0.00    -0.097 A  
HETATM   62  C   UNL     1      -9.385   5.906  71.893  1.00  0.00    -0.151 A  
HETATM   63  O   UNL     1      -9.618   5.813  74.483  1.00  0.00    -0.155 OA 
HETATM   64  C   UNL     1      -8.215   6.657  71.951  1.00  0.00    -0.103 A  
HETATM   65  O   UNL     1     -11.508   6.789  73.100  1.00  0.00    -0.091 OA 
HETATM   66  S   UNL     1     -10.453   5.824  73.303  1.00  0.00    -0.249 S  
HETATM   67  O   UNL     1     -11.091   4.343  73.227  1.00  0.00    -0.251 OA 
HETATM   68  C   UNL     1      -7.389   6.742  70.822  1.00  0.00    -0.078 A  
ENDBRANCH  44  46
ENDBRANCH  42  44
ENDBRANCH   6  42
TORSDOF 7
ENDMDL
MODEL        3
REMARK 921   NORMALIZED FREE ENERGY PREDICTED BY IDOCK:   38.44 KCAL/MOL
REMARK 922        TOTAL FREE ENERGY PREDICTED BY IDOCK:   56.50 KCAL/MOL
REMARK 923 INTER-LIGAND FREE ENERGY PREDICTED BY IDOCK:   25.64 KCAL/MOL
REMARK 924 INTRA-LIGAND FREE ENERGY PREDICTED BY IDOCK:   30.86 KCAL/MOL
REMARK 927      BINDING AFFINITY PREDICTED BY RF-SCORE:    0.00 PKD
ROOT
HETATM    1  C   UNL     1     -10.106   7.822  64.676  1.00  0.00     4.371 C  
HETATM    2  C   UNL     1      -9.151   8.672  65.463  1.00  0.00    -0.190 A  
HETATM    3  C   UNL     1      -9.694   9.503  66.467  1.00  0.00    -0.284 A  
HETATM    4  C   UNL     1      -8.903  10.328  67.280  1.00  0.00    -0.136 A  
HETATM    5  C   UNL     1      -7.517  10.264  67.076  1.00  0.00    -0.093 A  
HETATM    6  C   UNL     1      -7.763   8.683  65.221  1.00  0.00    -0.092 A  
HETATM    7  C   UNL     1      -6.963   9.465  66.065  1.00  0.00    -0.090 A  
ENDROOT
BRANCH   4   8
HETATM    8  C   UNL     1      -9.505  11.212  68.309  1.00  0.00    -0.182 A  
HETATM    9  C   UNL     1      -9.864  13.468  69.228  1.00  0.00     0.467 A  
HETATM   10  C   UNL     1      -9.401  12.610  68.212  1.00  0.00    -0.195 A  
HETATM   11  C   UNL     1      -9.620  14.947  69.082  1.00  0.00    -0.172 C  
HETATM   12  C   UNL     1     -10.183  10.704  69.429  1.00  0.00    -0.218 A  
HETATM   13  C   UNL     1     -10.496  12.929  70.368  1.00  0.00     2.835 A  
HETATM   14  C   UNL     1     -10.678  11.545  70.435  1.00  0.00     1.272 A  
BRANCH  13  15
HETATM   15  N   UNL     1     -10.784  13.769  71.462  1.00  0.00     2.905 NA 
HETATM   16  H   UNL     1     -10.194  13.808  72.292  1.00  0.00     0.000 HD 
BRANCH  15  17
HETATM   17  N   UNL     1     -11.818  14.463  71.342  1.00  0.00    -0.460 NA 
HETATM   18  H   UNL     1     -12.606  14.439  71.989  1.00  0.00     0.000 HD 
BRANCH  17  19
HETATM   19  C   UNL     1     -11.753  15.293  70.181  1.00  0.00    -0.312 A  
HETATM   20  H1  UNL     1     -10.172  20.461  70.429  1.00  0.00     0.000 HD 
HETATM   21  S   UNL     1     -10.729  19.978  65.296  1.00  0.00     0.488 S  
HETATM   22  C   UNL     1     -11.335  17.699  66.685  1.00  0.00     1.003 A  
HETATM   23  C   UNL     1     -10.861  19.012  66.770  1.00  0.00    -0.263 A  
HETATM   24  C   UNL     1     -10.546  19.581  67.996  1.00  0.00    -0.458 A  
HETATM   25  O   UNL     1     -12.238  19.988  64.726  1.00  0.00     3.239 OA 
HETATM   26  O   UNL     1      -9.890  19.251  64.372  1.00  0.00     3.420 OA 
HETATM   27  N   UNL     1     -10.512  19.500  70.390  1.00  0.00     0.218 NA 
HETATM   28  H   UNL     1     -10.450  17.992  71.482  1.00  0.00     0.000 HD 
HETATM   29  C   UNL     1     -11.481  16.929  67.848  1.00  0.00     0.287 A  
HETATM   30  O   UNL     1     -10.457  21.349  65.674  1.00  0.00     2.443 OA 
HETATM   31  C   UNL     1     -11.975  15.617  67.766  1.00  0.00     0.259 A  
HETATM   32  C   UNL     1     -10.654  18.821  69.161  1.00  0.00     0.554 A  
HETATM   33  C   UNL     1     -11.131  17.474  69.105  1.00  0.00     0.641 A  
HETATM   34  O   UNL     1     -10.787  17.104  71.447  1.00  0.00     0.899 OA 
HETATM   35  C   UNL     1     -12.110  14.819  68.917  1.00  0.00    -0.205 A  
HETATM   36  C   UNL     1     -11.250  16.617  70.235  1.00  0.00     0.029 A  
HETATM   37  S   UNL     1     -12.720  13.171  68.733  1.00  0.00     1.389 S  
HETATM   38  H2  UNL     1      -9.920  18.932  70.995  1.00  0.00     0.000 HD 
HETATM   39  O   UNL     1     -13.818  12.985  69.655  1.00  0.00     3.280 OA 
HETATM   40  O   UNL     1     -11.522  12.235  69.265  1.00  0.00    -0.264 OA 
HETATM   41  O   UNL     1     -12.878  12.900  67.318  1.00  0.00     0.534 OA 
ENDBRANCH  17  19
ENDBRANCH  15  17
ENDBRANCH  13  15
ENDBRANCH   4   8
BRANCH   6  42
HETATM   42  N   UNL     1      -7.078   7.930  64.240  1.00  0.00    -0.071 NA 
HETATM   43  H   UNL     1      -6.635   8.358  63.426  1.00  0.00     0.000 HD 
BRANCH  42  44
HETATM   44  N   UNL     1      -7.057   6.703  64.448  1.00  0.00    -0.054 NA 
HETATM   45  H   UNL     1      -6.678   6.035  63.776  1.00  0.00     0.000 HD 
BRANCH  44  46
HETATM   46  C   UNL     1      -7.606   6.310  65.697  1.00  0.00    -0.085 A  
HETATM   47  C   UNL     1      -8.578   5.304  65.722  1.00  0.00    -0.139 A  
HETATM   48  H   UNL     1      -6.069   8.237  67.837  1.00  0.00     0.000 HD 
HETATM   49  S   UNL     1      -9.099   4.513  64.224  1.00  0.00    -0.105 S  
HETATM   50  C   UNL     1      -9.175   4.877  66.916  1.00  0.00    -0.124 A  
HETATM   51  O   UNL     1      -6.299   7.861  66.995  1.00  0.00    -0.052 OA 
HETATM   52  C   UNL     1      -8.823   5.444  68.142  1.00  0.00    -0.105 A  
HETATM   53  O   UNL     1      -7.926   4.087  63.489  1.00  0.00    -0.084 OA 
HETATM   54  O   UNL     1      -9.786   5.680  63.355  1.00  0.00     1.123 OA 
HETATM   55  H1  UNL     1      -6.090   8.372  68.797  1.00  0.00     0.000 HD 
HETATM   56  C   UNL     1      -7.262   6.872  66.955  1.00  0.00    -0.077 A  
HETATM   57  O   UNL     1     -10.140   3.564  64.558  1.00  0.00    -0.180 OA 
HETATM   58  C   UNL     1      -9.448   4.978  69.303  1.00  0.00    -0.197 A  
HETATM   59  H2  UNL     1      -5.781   7.620  70.246  1.00  0.00     0.000 HD 
HETATM   60  N   UNL     1      -6.515   7.988  69.641  1.00  0.00    -0.037 NA 
HETATM   61  C   UNL     1      -7.848   6.467  68.200  1.00  0.00    -0.105 A  
HETATM   62  C   UNL     1      -9.092   5.498  70.543  1.00  0.00    -0.147 A  
HETATM   63  O   UNL     1      -8.850   4.788  73.035  1.00  0.00    -0.113 OA 
HETATM   64  C   UNL     1      -8.112   6.479  70.651  1.00  0.00    -0.113 A  
HETATM   65  O   UNL     1     -11.111   5.552  72.175  1.00  0.00    -0.245 OA 
HETATM   66  S   UNL     1      -9.860   4.853  72.002  1.00  0.00    -0.183 S  
HETATM   67  O   UNL     1     -10.180   3.315  71.630  1.00  0.00    -0.092 OA 
HETATM   68  C   UNL     1      -7.529   7.008  69.491  1.00  0.00    -0.096 A  
ENDBRANCH  44  46
ENDBRANCH  42  44
ENDBRANCH   6  42
TORSDOF 7
ENDMDL
